#------------------------------------------------------------------------------
#$Date: 2016-02-18 17:37:37 +0200 (Thu, 18 Feb 2016) $
#$Revision: 176729 $
#$URL: svn://www.crystallography.net/cod/cif/1/51/89/1518980.cif $
#------------------------------------------------------------------------------
#
# This file is available in the Crystallography Open Database (COD),
# http://www.crystallography.net/
#
# All data on this site have been placed in the public domain by the
# contributors.
#
data_1518980
loop_
_publ_author_name
'William M. Kerlin'
'Frederic Poineau'
'Paul M. Forster'
'Kenneth R. Czerwinski'
'Alfred P. Sattelberger'
_publ_section_title
;
 Hydrothermal synthesis and solid-state structures of polynuclear
 technetium iodide compounds
;
_journal_name_full               'Inorganica Chimica Acta'
_journal_page_first              329
_journal_page_last               335
_journal_volume                  424
_journal_year                    2015
_chemical_formula_moiety         'I13 K Tc8'
_chemical_formula_sum            'I13 K Tc8'
_chemical_formula_weight         2480.08
_space_group_crystal_system      monoclinic
_space_group_IT_number           14
_space_group_name_Hall           '-P 2yn'
_space_group_name_H-M_alt        'P 1 21/n 1'
_symmetry_space_group_name_Hall  '-P 2yn'
_symmetry_space_group_name_H-M   'P 1 21/n 1'
_atom_sites_solution_hydrogens   .
_cell_angle_alpha                90
_cell_angle_beta                 102.3090(10)
_cell_angle_gamma                90
_cell_formula_units_Z            2
_cell_length_a                   8.0018(5)
_cell_length_b                   14.5125(10)
_cell_length_c                   13.1948(9)
_cell_measurement_reflns_used    3710
_cell_measurement_temperature    100(2)
_cell_measurement_theta_max      28.281
_cell_measurement_theta_min      2.113
_cell_volume                     1497.04(17)
_computing_structure_refinement  'SHELXL-2013 (Sheldrick, 2013)'
_diffrn_ambient_temperature      100(2)
_diffrn_measured_fraction_theta_full 0.997
_diffrn_measured_fraction_theta_max 0.998
_diffrn_measurement_device_type  NA
_diffrn_measurement_method       NA
_diffrn_radiation_type           MoK\a
_diffrn_radiation_wavelength     0.71073
_diffrn_reflns_av_unetI/netI     0.0210
_diffrn_reflns_Laue_measured_fraction_full 0.997
_diffrn_reflns_Laue_measured_fraction_max 0.998
_diffrn_reflns_limit_h_max       10
_diffrn_reflns_limit_h_min       -10
_diffrn_reflns_limit_k_max       19
_diffrn_reflns_limit_k_min       -19
_diffrn_reflns_limit_l_max       17
_diffrn_reflns_limit_l_min       -17
_diffrn_reflns_number            5888
_diffrn_reflns_point_group_measured_fraction_full 0.997
_diffrn_reflns_point_group_measured_fraction_max 0.998
_diffrn_reflns_theta_full        25.242
_diffrn_reflns_theta_max         28.281
_diffrn_reflns_theta_min         2.113
_diffrn_source                   NA
_exptl_absorpt_coefficient_mu    17.114
_exptl_absorpt_correction_T_max  0.746634
_exptl_absorpt_correction_T_min  0.387931
_exptl_absorpt_correction_type   multi-scan
_exptl_absorpt_process_details   'SADABS-2012/1 (Bruker, 2012)'
_exptl_crystal_colour            black
_exptl_crystal_density_diffrn    5.486
_exptl_crystal_description       rectangular
_exptl_crystal_F_000             2104
_exptl_crystal_size_max          0.2
_exptl_crystal_size_mid          0.2
_exptl_crystal_size_min          0.05
_refine_diff_density_max         2.499
_refine_diff_density_min         -1.261
_refine_diff_density_rms         0.339
_refine_ls_extinction_coef       .
_refine_ls_extinction_method     none
_refine_ls_goodness_of_fit_ref   1.092
_refine_ls_hydrogen_treatment    undef
_refine_ls_matrix_type           full
_refine_ls_number_parameters     106
_refine_ls_number_reflns         3710
_refine_ls_number_restraints     37
_refine_ls_restrained_S_all      1.086
_refine_ls_R_factor_all          0.0353
_refine_ls_R_factor_gt           0.0277
_refine_ls_shift/su_max          0.001
_refine_ls_shift/su_mean         0.000
_refine_ls_structure_factor_coef Fsqd
_refine_ls_weighting_details
'w=1/[\s^2^(Fo^2^)+(0.0166P)^2^+32.4927P] where P=(Fo^2^+2Fc^2^)/3'
_refine_ls_weighting_scheme      calc
_refine_ls_wR_factor_gt          0.0564
_refine_ls_wR_factor_ref         0.0588
_reflns_Friedel_coverage         0.000
_reflns_Friedel_fraction_full    .
_reflns_Friedel_fraction_max     .
_reflns_number_gt                3331
_reflns_number_total             3710
_reflns_threshold_expression     'I > 2\s(I)'
_cod_data_source_file            ICA-2015-424-329-335-2.cif
_cod_data_source_block           twin4_a
_cod_database_code               1518980
#BEGIN Tags that were not found in dictionaries:
_shelx_space_group_comment
;
The symmetry employed for this shelxl refinement is uniquely defined
by the following loop, which should always be used as a source of
symmetry information in preference to the above space-group names.
They are only intended as comments.
;
_shelxl_version_number           2013-4
_shelx_res_file
;
TITL twin4 in P2(1)/n
CELL 0.71073 8.0018 14.5125 13.1948 90 102.309 90
ZERR 2 0.0005 0.001 0.0009 0 0.001 0
LATT 1
SYMM 0.5-X,0.5+Y,0.5-Z

SFAC Tc  I K
UNIT 16  26 2
DELU

ACTA

OMIT 3 4 3
OMIT 0 0 2
OMIT -3 4 1
OMIT 1 6 5
OMIT 2 0 0
OMIT 7 1 4
OMIT -4 8 4
OMIT -4 9 5

L.S. 10
PLAN  20
TEMP -173.09
REM Solution 1 R1 0.102, Alpha = 0.0369 in P2(1)/n
REM Tc4 I6.5
BOND
LIST 6
FMAP 2
SHEL 999 0.75

WGHT    0.016600   32.492706
FVAR       0.13733
I2    2    0.740206    0.276322    0.948495    11.00000    0.01058    0.00650 =
         0.00926    0.00061    0.00150   -0.00209
I6    2    0.883413    0.408959    1.251055    11.00000    0.01232    0.01155 =
         0.00903    0.00146    0.00392   -0.00225
I1    2    1.188496    0.276514    0.911031    11.00000    0.01093    0.00777 =
         0.01259   -0.00215    0.00151    0.00242
I3    2    1.337489    0.399384    1.227046    11.00000    0.01026    0.00845 =
         0.01013    0.00219    0.00033    0.00144
I7    2    1.500000    0.500000    1.000000    10.50000    0.01068    0.01310 =
         0.01831    0.00150    0.00606   -0.00063
I5    2    0.548108    0.351310    0.684664    11.00000    0.01290    0.01165 =
         0.01105    0.00025   -0.00304   -0.00329
I4    2    1.023987    0.355962    0.627904    11.00000    0.01271    0.02104 =
         0.01308   -0.00846    0.00413   -0.00123
TC4   1    0.889072    0.423038    1.050363    11.00000    0.00751    0.00586 =
         0.00659    0.00053    0.00116   -0.00033
TC2   1    1.035774    0.428254    0.821409    11.00000    0.00681    0.00724 =
         0.00725   -0.00110    0.00183   -0.00029
TC3   1    0.775479    0.431332    0.842786    11.00000    0.00642    0.00590 =
         0.00646    0.00027    0.00105   -0.00014
TC1   1    1.152258    0.419189    1.032937    11.00000    0.00742    0.00541 =
         0.00721   -0.00024    0.00116    0.00054
K1    3    0.339112    0.502991    0.501461    10.50000    0.01384    0.02040 =
         0.01708    0.01681    0.00441    0.00666
HKLF 4

REM  twin4 in P2(1)/n
REM R1 =  0.0277 for    3331 Fo > 4sig(Fo)  and  0.0353 for all    3710 data
REM    106 parameters refined using     37 restraints

END

WGHT      0.0166     32.5170

REM Highest difference peak  2.499,  deepest hole -1.261,  1-sigma level  0.339
Q1    1   0.3415  0.5186  0.5384  11.00000  0.05    2.50
Q2    1   0.2835  0.5109  0.4864  11.00000  0.05    2.39
Q3    1   0.3538  0.5138  0.4829  11.00000  0.05    2.06
Q4    1   0.3710  0.4854  0.5041  11.00000  0.05    1.93
Q5    1   0.8803  0.4225  0.8411  11.00000  0.05    1.19
Q6    1   1.1729  0.3813  0.9721  11.00000  0.05    1.19
Q7    1   1.1934  0.4079  1.2650  11.00000  0.05    1.19
Q8    1   0.7918  0.4728  0.7964  11.00000  0.05    1.15
Q9    1   0.8554  0.3594  0.7785  11.00000  0.05    1.15
Q10   1   0.8375  0.3387  0.9447  11.00000  0.05    1.10
Q11   1   0.5534  0.3501  0.7657  11.00000  0.05    1.09
Q12   1   0.7030  0.3592  0.9821  11.00000  0.05    1.09
Q13   1   1.0255  0.4226  0.7171  11.00000  0.05    1.08
Q14   1   0.7419  0.5219  1.2375  11.00000  0.05    1.07
Q15   1   0.9128  0.2246  0.5998  11.00000  0.05    1.06
Q16   1   0.4912  0.2531  0.7078  11.00000  0.05    1.04
Q17   1   0.1737  0.5411  0.4424  11.00000  0.05    1.03
Q18   1   0.6649  0.2202  0.6984  11.00000  0.05    1.02
Q19   1   1.4245  0.3622  0.9826  11.00000  0.05    1.02
Q20   1   0.6587  0.2980  1.1797  11.00000  0.05    1.01
;
_shelx_res_checksum              7037
_shelx_hkl_file
;
   1   0   0    0.60    0.40
   2   0   0    5.20    0.90
   3   0   0    1.70    1.00
   4   0   0  240.28    4.60
   5   0   0    1.90    1.10
   6   0   0  516.05    8.80
   7   0   0    4.20    9.80
   8   0   0  288.17   11.00
   9   0   0    0.70    3.20
  10   0   0  177.48   12.00
  11   0   0    0.30    8.20
  12   0   0   14.60    6.00
   1   1   0 1545.55    7.60
   2   1   0  157.08    1.80
   3   1   0  233.18    3.50
   4   1   0   81.99    3.40
   5   1   0  245.78    3.30
   6   1   0 2515.85   15.30
   7   1   0    0.60    2.50
   8   1   0  432.16   10.00
   9   1   0  622.24   12.00
  10   1   0    8.70    5.00
  11   1   0  229.28   11.00
  12   1   0    5.20    5.30
   0   2   0  684.23   10.80
   1   2   0   62.09    1.20
   2   2   0 1105.69    6.00
   3   2   0   39.50    1.50
   4   2   0  824.62    6.70
   5   2   0  636.54    5.60
   6   2   0  225.48    4.90
   7   2   0 2969.90   24.40
   8   2   0  305.57    7.30
   9   2   0   89.39    5.90
  10   2   0    0.00   11.40
  11   2   0  103.39   10.60
  12   2   0   14.20    9.30
   0   3   0    4.10    1.00
   1   3   0  121.29    1.60
   2   3   0 2702.43   14.00
   3   3   0  100.19    2.00
   4   3   0 2276.27   16.50
   5   3   0  328.27    3.90
   6   3   0  317.67    5.90
   7   3   0  433.56   11.00
   8   3   0 1587.54   16.20
   9   3   0  163.48    6.10
  10   3   0   16.00    5.10
  11   3   0  315.27   14.40
  12   3   0   44.60   21.60
   0   4   0 2015.40   25.20
   1   4   0   92.29    1.60
   2   4   0 2401.46   13.00
   3   4   0    2.40    1.10
   4   4   0  926.11   14.40
   5   4   0  102.19    2.30
   6   4   0   97.39    3.30
   7   4   0  859.21   16.50
   8   4   0    6.60    7.00
   9   4   0  383.96    8.40
  10   4   0  202.08   11.70
  11   4   0  860.31   24.00
   0   5   0    0.50    1.40
   1   5   0 2344.97   13.00
   2   5   0  153.98    1.90
   3   5   0  193.98    5.70
   4   5   0 1192.68   29.80
   5   5   0  270.17    4.20
   6   5   0   47.00    3.30
   7   5   0   85.19    4.10
   8   5   0   24.60    3.70
   9   5   0 1096.29   15.30
  10   5   0  298.87   13.90
  11   5   0  261.77   16.00
   0   6   0 6423.26   74.99
   1   6   0  261.57    3.20
   2   6   0 3661.33   18.10
   3   6   0  591.04    6.40
   4   6   0 1698.43   12.90
   5   6   0   67.99    2.70
   6   6   0   30.60    2.90
   7   6   0  357.56   14.20
   8   6   0  197.18    6.70
   9   6   0  280.77    8.80
  10   6   0   12.60    5.00
  11   6   0   92.49   14.70
   0   7   0    3.40    1.50
   1   7   0 3932.21   20.50
   2   7   0  680.93    5.90
   3   7   0  788.62   12.50
   4   7   0   94.89   10.00
   5   7   0    4.80    1.30
   6   7   0  222.18    5.50
   7   7   0    7.70    2.80
   8   7   0   37.00    4.00
   9   7   0    3.70    2.70
  10   7   0    0.00    9.60
  11   7   0   29.50   14.70
   0   8   0   21.80    2.10
   1   8   0   38.80    1.90
   2   8   0  226.58    3.40
   3   8   0   53.79    2.10
   4   8   0  355.26   15.90
   5   8   0  565.64    7.70
   6   8   0  335.47    8.20
   7   8   0 3160.08   30.70
   8   8   0   20.20    4.00
   9   8   0  159.08    8.40
  10   8   0    4.20    4.90
  11   8   0  313.27   29.50
   0   9   0    2.80    1.60
   1   9   0  321.07    4.30
   2   9   0 1325.57   10.00
   3   9   0   19.40    2.80
   4   9   0  224.88   15.20
   5   9   0  269.47    5.50
   6   9   0    7.20    4.10
   7   9   0  125.99    5.40
   8   9   0   81.99    5.90
   9   9   0  110.59    7.30
  10   9   0  176.88   10.00
  11   9   0   72.79  111.09
   0  10   0  169.38    5.70
   1  10   0  167.98    3.20
   2  10   0  698.23    6.80
   3  10   0   51.29    3.90
   4  10   0 1453.25   21.40
   5  10   0  261.67    5.80
   6  10   0  270.97    9.90
   7  10   0   43.50    4.90
   8  10   0  162.78    7.50
   9  10   0  555.64   12.80
  10  10   0   36.50    7.50
   0  11   0    2.00    2.20
   1  11   0   12.70    1.50
   2  11   0  154.28    3.90
   3  11   0   26.90    6.90
   4  11   0  401.36   17.50
   5  11   0 1457.45   13.50
   6  11   0  139.29    6.40
   7  11   0   48.10    5.30
   8  11   0 1514.35   19.50
   9  11   0  122.59    7.90
  10  11   0   15.30    9.10
   0  12   0 2377.56   42.00
   1  12   0  420.66    6.50
   2  12   0  278.97    5.60
   3  12   0  340.37    7.90
   4  12   0  526.55   17.80
   5  12   0  139.29    4.90
   6  12   0   91.09    9.70
   7  12   0  311.77   12.20
   8  12   0  212.68    8.60
   9  12   0   37.10    5.30
  10  12   0   35.30   29.00
   0  13   0   14.70    3.90
   1  13   0  628.04    9.10
   2  13   0  944.31   12.50
   3  13   0 1092.99   20.10
   4  13   0    7.50    4.20
   5  13   0   14.50    2.50
   6  13   0   42.40    9.00
   7  13   0   61.69    5.50
   8  13   0  177.98    9.90
   9  13   0    5.80    3.80
   0  14   0 5072.99   79.89
   1  14   0    4.90    3.80
   2  14   0  134.09    6.00
   3  14   0  109.99    9.00
   4  14   0  981.60   14.70
   5  14   0  360.16    7.70
   6  14   0    8.30    6.70
   7  14   0  684.53   13.70
   8  14   0   57.49    7.60
   9  14   0   37.60    5.80
   0  15   0   23.00    4.60
   1  15   0  114.49    6.50
   2  15   0  146.99    5.70
   3  15   0   19.50    5.90
   4  15   0    5.70    8.10
   5  15   0   55.09    4.70
   6  15   0 1068.39   17.00
   7  15   0   20.40    4.80
   8  15   0  450.25   13.80
   0  16   0 1147.39   40.00
   1  16   0  120.79    6.70
   2  16   0  219.48    7.40
   3  16   0   18.80    5.00
   4  16   0  192.68    8.10
   5  16   0   90.19    6.10
   6  16   0   11.70    9.10
   7  16   0   35.30    6.10
   8  16   0    6.30    6.70
   0  17   0   12.70    7.20
   1  17   0  121.39    6.60
   2  17   0    3.70    2.60
   3  17   0    5.00    5.50
   4  17   0   65.59    6.80
   5  17   0   45.30    5.30
   6  17   0   64.19    7.60
   7  17   0  340.07   12.80
   0  18   0    3.80    6.50
   1  18   0   98.99    8.00
   2  18   0  643.84   11.60
   3  18   0  308.57   11.80
   4  18   0  439.96   12.20
   5  18   0   58.39    6.20
   6  18   0    0.00    7.10
   7  18   0  453.35   69.39
   0  19   0    2.80    6.80
   1  19   0  846.42   18.60
   2  19   0  125.09    7.30
   3  19   0  142.49    8.30
   4  19   0  159.58   13.20
   5  19   0   11.10    4.20
   6  19   0   19.00   14.00
   0  20   0  203.98   19.10
   1  20   0   12.50    5.80
   2  20   0  608.24   15.30
   3  20   0  131.59    8.90
   4  20   0   22.80    6.50
   5  20   0    7.20    7.20
   0  21   0    1.30    8.30
   1  21   0  258.37   12.50
   2  21   0   33.10    5.70
   3  21   0   11.70   14.50
   4  21   0  636.44   37.90
   2  22   0   22.70   12.70
 -12   0   1    0.80    4.70
 -11   0   1 1434.96   36.30
 -10   0   1    0.00   23.90
  -9   0   1  202.48   10.50
  -8   0   1    2.00    3.10
  -7   0   1   12.70    2.60
  -6   0   1    3.50    1.80
  -5   0   1   70.09    3.20
  -4   0   1    7.20    1.70
  -3   0   1 9431.26   68.39
  -2   0   1    3.00    0.80
  -1   0   1 1905.21   11.70
   0   0   1    6.60    1.00
   1   0   1   70.29    1.80
   2   0   1    1.80    0.70
   3   0   1  485.25    8.80
   4   0   1    0.00   18.80
   5   0   1  229.58    4.60
   6   0   1    6.00    1.80
   7   0   1  150.48    5.90
   8   0   1    4.20    5.40
   9   0   1  148.19   10.80
  10   0   1    3.60    7.60
  11   0   1  734.13   27.00
  12   0   1    0.00   16.00
 -12   1   1   95.69    9.20
 -11   1   1   44.20    7.10
 -10   1   1    8.60    4.90
  -9   1   1  519.85   10.90
  -8   1   1  132.59    6.70
  -7   1   1 1296.97   12.90
  -6   1   1   21.40    1.70
  -5   1   1   37.00    1.70
  -4   1   1  960.30    8.20
  -3   1   1   44.30    1.50
  -2   1   1 4823.92   20.50
  -1   1   1    1.90    0.40
   0   1   1 3176.68   28.00
   1   1   1   59.69    1.10
   2   1   1 1833.62    9.30
   3   1   1  568.14    4.60
   4   1   1  278.27    5.90
   5   1   1 3571.94   17.80
   6   1   1   33.70    2.50
   7   1   1  589.24    8.40
   8   1   1 1532.15   17.70
   9   1   1  108.69    6.60
  10   1   1   57.89    7.80
  11   1   1   71.19   10.90
  12   1   1  267.27   43.70
 -12   2   1  376.96   16.90
 -11   2   1  491.95   13.70
 -10   2   1  320.77   10.70
  -9   2   1   13.30    2.80
  -8   2   1   62.29    4.40
  -7   2   1   66.49    3.70
  -6   2   1  220.28    4.20
  -5   2   1  893.81    6.80
  -4   2   1 2040.80   16.90
  -3   2   1 1454.95    9.50
  -2   2   1  951.50    6.00
  -1   2   1  266.97    2.30
   0   2   1  396.96    4.20
   1   2   1   27.30    0.90
   2   2   1 1949.90    9.70
   3   2   1  120.59    3.00
   4   2   1 8122.79   39.40
   5   2   1    4.10    0.90
   6   2   1   19.90    1.90
   7   2   1  148.39    6.00
   8   2   1  381.76    8.70
   9   2   1  296.87    8.60
  10   2   1    2.80    4.90
  11   2   1  206.98   10.40
 -12   3   1    7.80    6.20
 -11   3   1 1060.09   24.80
 -10   3   1   62.19    8.10
  -9   3   1  144.19    6.20
  -8   3   1  342.17    7.30
  -7   3   1    4.80    2.50
  -6   3   1 1027.10    9.60
  -5   3   1 1670.43   10.30
  -4   3   1  593.84    5.50
  -3   3   1   30.00    1.20
  -2   3   1 6968.60   31.80
  -1   3   1   29.00    1.00
   0   3   1  308.57    3.80
   1   3   1    2.60    0.50
   2   3   1  497.05    3.50
   3   3   1  437.16    4.00
   4   3   1   69.09    7.40
   5   3   1  768.02    6.40
   6   3   1  130.79    3.80
   7   3   1   17.70    2.40
   8   3   1   16.70    4.30
   9   3   1  972.90   13.60
  10   3   1    0.00    5.00
  11   3   1  148.49   13.00
 -12   4   1   57.59   13.90
 -11   4   1  539.75   22.90
 -10   4   1   24.30    8.90
  -9   4   1    1.50    2.00
  -8   4   1  771.22   10.90
  -7   4   1  684.83   10.30
  -6   4   1   93.79    3.90
  -5   4   1  416.36    4.60
  -4   4   1 2570.94   17.00
  -3   4   1   26.70    1.70
  -2   4   1  103.39    1.90
  -1   4   1  475.25    3.70
   0   4   1 1881.81   15.40
   1   4   1   53.89    1.30
   2   4   1   33.40    1.20
   3   4   1  308.17    3.50
   4   4   1  175.38   27.80
   5   4   1    2.60    0.80
   6   4   1  130.69    4.30
   7   4   1  525.35    7.80
   8   4   1  995.60   14.30
   9   4   1  361.36    8.30
  10   4   1   12.90    5.50
  11   4   1   41.30    9.20
 -12   5   1  164.88   38.50
 -11   5   1   53.09   13.50
 -10   5   1  148.29   12.20
  -9   5   1  147.69    6.90
  -8   5   1  288.97    6.60
  -7   5   1  162.78   11.00
  -6   5   1  394.16    5.70
  -5   5   1   22.40    1.70
  -4   5   1 2758.02   22.40
  -3   5   1  237.18    4.20
  -2   5   1 1078.59    6.80
  -1   5   1   19.60    1.10
   0   5   1    4.50    0.90
   1   5   1  433.56    3.90
   2   5   1 1686.83    9.40
   3   5   1   72.19    6.80
   4   5   1  768.92    6.80
   5   5   1  941.91    8.70
   6   5   1  271.97    5.90
   7   5   1 2648.64   23.20
   8   5   1  268.07    8.50
   9   5   1  120.19    6.50
  10   5   1   16.00   12.90
  11   5   1  230.18   15.10
 -11   6   1  178.08   17.40
 -10   6   1    0.00    7.70
  -9   6   1  139.99    7.10
  -8   6   1   84.99    5.80
  -7   6   1  324.57    5.90
  -6   6   1  606.24    8.30
  -5   6   1    6.50    1.20
  -4   6   1  192.18    6.40
  -3   6   1 2363.96   26.50
  -2   6   1  454.45    4.40
  -1   6   1 2176.18   11.90
   0   6   1  571.14    6.90
   1   6   1 1416.36    8.70
   2   6   1 2946.91   14.40
   3   6   1 1184.28    8.50
   4   6   1   11.80    3.90
   5   6   1  469.25    5.80
   6   6   1  347.47    5.80
   7   6   1  153.68    4.80
   8   6   1   77.59   10.60
   9   6   1   83.79    6.10
  10   6   1    0.00    7.90
  11   6   1  364.06   17.50
 -11   7   1   22.40   10.20
 -10   7   1   59.69    7.30
  -9   7   1  549.85   10.40
  -8   7   1   16.70    4.90
  -7   7   1  205.58   10.70
  -6   7   1  322.27    7.30
  -5   7   1   17.00    1.70
  -4   7   1  295.87    5.00
  -3   7   1   55.59    2.30
  -2   7   1 1642.14   11.30
  -1   7   1   39.60    1.70
   0   7   1 9076.39   72.79
   1   7   1    7.50    1.00
   2   7   1  111.99    2.20
   3   7   1  111.89    2.80
   4   7   1   67.19    4.70
   5   7   1  924.81    9.00
   6   7   1  561.44    9.40
   7   7   1  142.09    7.70
   8   7   1    3.80    3.80
   9   7   1  267.97    9.10
  10   7   1  221.08   11.00
  11   7   1   43.90   14.90
 -11   8   1    0.00   15.90
 -10   8   1  112.69   10.20
  -9   8   1   73.69    5.00
  -8   8   1   69.49    5.60
  -7   8   1    0.00    4.20
  -6   8   1  214.18    7.10
  -5   8   1   69.29    3.50
  -4   8   1  280.77   21.10
  -3   8   1  253.97    6.60
  -2   8   1   54.69    2.10
  -1   8   1 1037.00    8.00
   0   8   1 1899.81   18.30
   1   8   1  880.51    6.80
   2   8   1 2181.68   12.90
   3   8   1  729.63    6.70
   4   8   1 1373.36   12.20
   5   8   1   57.29    3.30
   6   8   1 1150.38   14.40
   7   8   1  319.67   10.10
   8   8   1  427.76   13.00
   9   8   1  367.76   10.40
  10   8   1   25.40    6.00
  11   8   1   84.99  262.27
 -11   9   1  195.58   18.10
 -10   9   1   24.20    6.50
  -9   9   1   23.60    3.60
  -8   9   1   96.49    6.00
  -7   9   1   81.99   17.00
  -6   9   1  138.19   13.50
  -5   9   1  201.88    4.90
  -4   9   1 3848.11   32.00
  -3   9   1   41.50    3.40
  -2   9   1  944.41    8.00
  -1   9   1    4.00    1.00
   0   9   1 1007.70   12.80
   1   9   1    1.80    0.90
   2   9   1   75.79    2.00
   3   9   1   63.99    5.50
   4   9   1  160.78    4.70
   5   9   1  521.55    7.80
   6   9   1    9.70    3.20
   7   9   1  981.60   14.40
   8   9   1   77.89    7.90
   9   9   1  897.81   16.40
  10   9   1    0.00    8.10
 -10  10   1  111.09   12.70
  -9  10   1    2.80    2.50
  -8  10   1  475.95   11.00
  -7  10   1  461.95    9.80
  -6  10   1  104.89    6.20
  -5  10   1  339.07    6.40
  -4  10   1 1016.50   13.80
  -3  10   1  369.76    8.80
  -2  10   1   17.40    1.60
  -1  10   1   17.50    1.60
   0  10   1  166.18    4.00
   1  10   1    2.70    1.00
   2  10   1  277.27    4.30
   3  10   1   22.40    3.10
   4  10   1    8.80    2.70
   5  10   1  124.09    4.70
   6  10   1    4.30    5.50
   7  10   1  159.98    6.70
   8  10   1 1073.59   17.30
   9  10   1   37.40    5.10
  10  10   1    1.10    8.00
 -10  11   1    0.00    5.50
  -9  11   1  439.96   10.90
  -8  11   1  160.88    8.40
  -7  11   1    9.50    6.80
  -6  11   1 1960.90   20.10
  -5  11   1  145.49    5.10
  -4  11   1   19.30    3.40
  -3  11   1  331.87    8.70
  -2  11   1  759.02    7.30
  -1  11   1   64.09    2.70
   0  11   1   84.69    4.00
   1  11   1   20.70    1.70
   2  11   1 2938.21   17.80
   3  11   1  167.28    8.50
   4  11   1  251.27    8.40
   5  11   1   69.29    4.00
   6  11   1  144.79   10.20
   7  11   1  280.67   10.90
   8  11   1   18.60    5.00
   9  11   1   39.20    5.10
  10  11   1    0.00    7.90
 -10  12   1  343.47   23.70
  -9  12   1   36.10    4.80
  -8  12   1   15.20    6.00
  -7  12   1  153.08    7.50
  -6  12   1  133.99    8.10
  -5  12   1  149.79    5.30
  -4  12   1   67.99    8.50
  -3  12   1 1038.10   19.50
  -2  12   1   42.40    3.00
  -1  12   1  167.88    4.50
   0  12   1 5014.20   52.49
   1  12   1  147.29    4.20
   2  12   1    2.90    1.50
   3  12   1    0.30    7.10
   4  12   1 1124.99   17.40
   5  12   1   98.09    4.90
   6  12   1   62.69    6.40
   7  12   1   59.69    5.40
   8  12   1   32.00    5.50
   9  12   1   27.70    5.00
  -9  13   1   43.50    5.50
  -8  13   1   12.60    5.10
  -7  13   1   40.60    8.90
  -6  13   1  155.28    6.90
  -5  13   1   53.29    3.80
  -4  13   1  439.46   10.50
  -3  13   1  110.69    6.70
  -2  13   1 1471.85   16.10
  -1  13   1    3.90    1.90
   0  13   1 2064.29   26.70
   1  13   1  369.96    6.60
   2  13   1   28.40    3.10
   3  13   1    3.50    4.50
   4  13   1  592.74    9.80
   5  13   1    5.50    2.10
   6  13   1  156.38    9.10
   7  13   1  124.49    8.90
   8  13   1  511.65   12.70
   9  13   1  729.73   16.30
  -9  14   1   85.19    7.10
  -8  14   1   88.19    7.80
  -7  14   1  490.15   11.70
  -6  14   1   10.50    5.80
  -5  14   1   51.09    4.00
  -4  14   1   30.80    6.80
  -3  14   1 1398.56   29.20
  -2  14   1  103.69    5.50
  -1  14   1   63.69    5.00
   0  14   1  100.29    5.00
   1  14   1  173.88    6.30
   2  14   1   17.90    2.90
   3  14   1  226.08   12.50
   4  14   1 1323.07   16.60
   5  14   1  332.17    8.30
   6  14   1   63.09    9.90
   7  14   1  207.18   12.80
   8  14   1  187.48   10.10
   9  14   1   15.20    6.70
  -9  15   1   26.90    7.00
  -8  15   1    5.20    5.40
  -7  15   1  446.66   18.50
  -6  15   1   75.89   17.30
  -5  15   1    4.70    2.30
  -4  15   1  705.23   16.70
  -3  15   1  108.69    8.60
  -2  15   1  919.81   13.30
  -1  15   1   49.60    6.10
   0  15   1    2.00    2.40
   1  15   1   80.69    5.40
   2  15   1   24.10    3.30
   3  15   1    0.00    4.00
   4  15   1  455.15   12.10
   5  15   1  860.91   14.50
   6  15   1   38.40    6.60
   7  15   1  443.86   13.20
   8  15   1  201.48   10.10
  -8  16   1   21.70    6.90
  -7  16   1  371.26   12.20
  -6  16   1    0.00    6.90
  -5  16   1   80.39    5.90
  -4  16   1  138.19   20.00
  -3  16   1   24.10    6.20
  -2  16   1   52.29    4.30
  -1  16   1    5.60    4.00
   0  16   1  341.37   13.80
   1  16   1   84.29    6.30
   2  16   1  350.96    8.60
   3  16   1   18.90    4.90
   4  16   1  452.25   14.40
   5  16   1    2.50    2.90
   6  16   1  144.69    9.80
   7  16   1   65.19    6.70
   8  16   1  229.08   20.40
  -7  17   1  180.68   12.30
  -6  17   1    0.00    7.80
  -5  17   1   49.60    5.00
  -4  17   1 1017.20   17.50
  -3  17   1  165.18    9.20
  -2  17   1  587.74   10.40
  -1  17   1    3.30    3.80
   0  17   1  164.38   10.20
   1  17   1   31.40    5.20
   2  17   1   87.79    5.80
   3  17   1  655.83   14.20
   4  17   1  131.59   12.50
   5  17   1   42.90    5.40
   6  17   1   12.00    8.40
   7  17   1   67.99    8.40
  -7  18   1  297.37   27.40
  -6  18   1  134.59   12.00
  -5  18   1   52.59    5.30
  -4  18   1    0.00   12.90
  -3  18   1   33.10    5.70
  -2  18   1  117.59    6.70
  -1  18   1   13.90    5.30
   0  18   1  323.77   14.70
   1  18   1  228.18   10.40
   2  18   1  218.68    8.30
   3  18   1    2.60    4.50
   4  18   1   17.60   18.00
   5  18   1   41.30    5.50
   6  18   1   10.50    6.50
   7  18   1   80.19  259.77
  -6  19   1    2.70   11.10
  -5  19   1   63.59    7.00
  -4  19   1  479.95   14.90
  -3  19   1   27.50    6.00
  -2  19   1    7.60    3.30
  -1  19   1   27.40    6.30
   0  19   1  223.38   12.80
   1  19   1  462.15   13.90
   2  19   1   80.89    6.10
   3  19   1   81.19   10.10
   4  19   1   17.20    6.40
   5  19   1   63.69    6.70
   6  19   1   11.50   15.20
  -5  20   1   71.49   10.20
  -4  20   1   26.10   12.40
  -3  20   1  418.56   15.50
  -2  20   1   46.10    6.30
  -1  20   1  135.19    9.90
   0  20   1  149.69   11.20
   1  20   1  558.14   15.10
   2  20   1   13.50    4.50
   3  20   1    0.00    6.10
   4  20   1    0.20   13.60
   5  20   1    9.10    8.70
  -4  21   1   23.30    9.60
  -3  21   1   86.09   12.50
  -2  21   1   51.79    6.60
  -1  21   1    6.80    5.80
   0  21   1  418.76   18.50
   1  21   1   10.20    5.40
   2  21   1  198.98   11.20
   3  21   1   77.59   16.70
   2  22   1  348.77   27.80
 -12   0   2   17.60    6.70
 -11   0   2    0.00    9.30
 -10   0   2  474.75   19.30
  -9   0   2    3.20    3.10
  -8   0   2  613.64   12.60
  -7   0   2    1.70    3.90
  -6   0   2  212.18    5.90
  -5   0   2    1.20    1.10
  -4   0   2 1615.24   14.30
  -3   0   2    0.20    0.90
  -2   0   2 1830.12   12.50
  -1   0   2    3.10    0.80
   0   0   2   15.40    1.10
   1   0   2    2.50    1.10
   2   0   2  388.36    4.30
   3   0   2    1.10    1.60
   4   0   2  115.19    3.40
   5   0   2    3.50    1.30
   6   0   2  160.68    6.30
   7   0   2   16.70    5.80
   8   0   2   40.70   11.50
   9   0   2    2.10    3.50
  10   0   2   11.30    6.90
  11   0   2    2.50    8.60
 -12   1   2    2.70    3.90
 -11   1   2    4.00   19.10
 -10   1   2   28.60    6.40
  -9   1   2  390.26    8.70
  -8   1   2   52.79    4.10
  -7   1   2    3.60    2.10
  -6   1   2  339.77    4.90
  -5   1   2  128.59    2.40
  -4   1   2  903.41    7.80
  -3   1   2 3846.22   18.40
  -2   1   2 1050.79    5.90
  -1   1   2  164.08    1.70
   0   1   2   19.40    0.90
   1   1   2  393.86    3.20
   2   1   2 7021.50   30.80
   3   1   2   14.20    1.40
   4   1   2 2588.34   19.20
   5   1   2    4.10    0.90
   6   1   2    1.40    1.20
   7   1   2  129.99    9.60
   8   1   2    4.50    4.40
   9   1   2  758.72   13.80
  10   1   2   37.60    6.20
  11   1   2   33.60    6.90
 -12   2   2    5.90    4.70
 -11   2   2   25.40    9.10
 -10   2   2    0.00    8.50
  -9   2   2  124.69    5.10
  -8   2   2  193.98    7.20
  -7   2   2  709.93   10.60
  -6   2   2  689.43    7.00
  -5   2   2  145.49    2.50
  -4   2   2 2877.91   19.80
  -3   2   2   30.50    1.40
  -2   2   2 2002.20    9.80
  -1   2   2   49.40    1.10
   0   2   2  332.07    4.10
   1   2   2   14.90    0.90
   2   2   2  899.91    5.60
   3   2   2  433.46    5.50
   4   2   2  633.44   11.00
   5   2   2   67.29    2.20
   6   2   2   47.50    2.90
   7   2   2  226.38    8.80
   8   2   2  283.67    8.80
   9   2   2  132.59    7.30
  10   2   2   43.80    8.60
  11   2   2  212.68   18.70
 -12   3   2  326.87   23.50
 -11   3   2   48.30    8.40
 -10   3   2   65.99    6.00
  -9   3   2   28.40    2.90
  -8   3   2  173.28    6.40
  -7   3   2    0.30    5.90
  -6   3   2 1758.42   13.90
  -5   3   2  542.45    5.40
  -4   3   2  160.58    3.70
  -3   3   2  112.89    2.10
  -2   3   2 1807.32    9.20
  -1   3   2  747.13    4.70
   0   3   2 1929.31   16.90
   1   3   2 1493.05    8.10
   2   3   2  295.17    2.90
   3   3   2   59.09    1.90
   4   3   2 1678.83   10.70
   5   3   2  187.68    3.00
   6   3   2  240.18    4.50
   7   3   2   71.69    7.80
   8   3   2  139.89   14.90
   9   3   2  489.75    9.90
  10   3   2   35.70    9.90
  11   3   2    9.80    9.80
 -12   4   2    8.40    9.00
 -11   4   2  336.27   18.20
 -10   4   2  124.69   11.50
  -9   4   2  281.37    6.20
  -8   4   2   12.90    3.20
  -7   4   2  849.72   11.80
  -6   4   2  429.96    6.80
  -5   4   2  185.18    2.80
  -4   4   2  151.38   14.50
  -3   4   2    6.50    1.20
  -2   4   2  571.14    4.10
  -1   4   2  243.58    2.50
   0   4   2 6654.43   53.19
   1   4   2   66.99    1.60
   2   4   2  259.37    2.90
   3   4   2 1664.73   10.30
   4   4   2  215.58    6.10
   5   4   2  507.65    5.10
   6   4   2 1349.96   12.20
   7   4   2  318.37    8.30
   8   4   2  128.79   10.70
   9   4   2    3.50    2.40
  10   4   2   49.60   13.30
  11   4   2   99.19   20.80
 -12   5   2  342.07   27.50
 -11   5   2    0.00   10.90
 -10   5   2   42.80   14.20
  -9   5   2  377.96    7.80
  -8   5   2   30.30    3.90
  -7   5   2 1329.17   12.20
  -6   5   2  213.48    4.90
  -5   5   2    1.30    0.90
  -4   5   2 1340.57   20.60
  -3   5   2  793.42    8.30
  -2   5   2  858.71    5.70
  -1   5   2 1101.69    6.60
   0   5   2 5798.22   47.10
   1   5   2    2.20    0.70
   2   5   2   49.90    1.60
   3   5   2   31.40    1.70
   4   5   2 3055.79   17.70
   5   5   2  988.00    8.50
   6   5   2   84.19    4.70
   7   5   2   20.70    3.80
   8   5   2  100.09    6.30
   9   5   2    6.30    2.60
  10   5   2   52.49   13.30
  11   5   2   36.80   12.40
 -11   6   2   28.70    9.40
 -10   6   2  143.69    9.70
  -9   6   2   58.79    4.50
  -8   6   2  632.74   13.50
  -7   6   2  211.78    5.20
  -6   6   2 1161.58   12.40
  -5   6   2   10.40    1.40
  -4   6   2  514.35    6.90
  -3   6   2   47.50    3.10
  -2   6   2 1416.66    8.90
  -1   6   2  138.89    2.50
   0   6   2  142.09    3.10
   1   6   2  236.58    3.00
   2   6   2  201.18    2.70
   3   6   2   68.59    2.10
   4   6   2  498.25    8.10
   5   6   2 2234.78   15.20
   6   6   2    6.60    2.00
   7   6   2  256.27    8.90
   8   6   2  104.39    6.90
   9   6   2  230.38    8.70
  10   6   2    0.00    7.20
  11   6   2   63.49   32.90
 -11   7   2   59.89   26.20
 -10   7   2    0.00   25.60
  -9   7   2    2.80    2.10
  -8   7   2   43.90    4.80
  -7   7   2    7.30    2.40
  -6   7   2  124.39    4.90
  -5   7   2  212.68    4.00
  -4   7   2   32.80    4.80
  -3   7   2 2458.15   17.50
  -2   7   2 1289.27    8.60
  -1   7   2  119.49    2.40
   0   7   2   25.40    1.60
   1   7   2   51.89    1.70
   2   7   2 1405.16    8.90
   3   7   2    0.80    1.50
   4   7   2  552.94    7.40
   5   7   2   21.70    2.00
   6   7   2   11.80    3.10
   7   7   2 2031.40   23.10
   8   7   2  192.48    8.30
   9   7   2   55.79    5.50
  10   7   2   13.20    6.00
  11   7   2 1713.33  543.75
 -11   8   2  450.45   20.30
 -10   8   2  102.69    8.40
  -9   8   2  103.79    5.80
  -8   8   2  417.26   11.10
  -7   8   2    1.40   10.80
  -6   8   2   16.60    2.70
  -5   8   2    6.50    1.60
  -4   8   2 3554.34   25.60
  -3   8   2   21.60    2.00
  -2   8   2   80.89    2.30
  -1   8   2    3.20    1.00
   0   8   2   48.30    2.10
   1   8   2  279.97    3.40
   2   8   2    3.50    0.90
   3   8   2  102.49    3.70
   4   8   2    0.00   29.70
   5   8   2 2441.26   18.80
   6   8   2   16.20    3.60
   7   8   2   76.59    6.50
   8   8   2  105.79    8.60
   9   8   2   44.70    5.10
  10   8   2    6.40    6.30
 -11   9   2   45.30   11.10
 -10   9   2   43.30    6.50
  -9   9   2   11.00    3.00
  -8   9   2   35.80    4.60
  -7   9   2  103.39    5.90
  -6   9   2   33.20    3.80
  -5   9   2  539.55    7.80
  -4   9   2  657.83   27.10
  -3   9   2   15.80    3.00
  -2   9   2 2859.11   17.20
  -1   9   2  236.28    3.50
   0   9   2  666.73    8.90
   1   9   2   21.40    1.60
   2   9   2    8.30    1.10
   3   9   2  841.52   10.10
   4   9   2 2073.19   17.80
   5   9   2    1.00    1.60
   6   9   2   34.80    8.50
   7   9   2   47.60    5.00
   8   9   2  208.08   12.30
   9   9   2  821.92   15.80
  10   9   2   22.30    6.40
 -10  10   2   77.39    8.20
  -9  10   2  408.26   10.20
  -8  10   2  108.89    8.00
  -7  10   2  514.25   11.10
  -6  10   2  423.16    9.90
  -5  10   2   50.99    3.30
  -4  10   2  417.56   12.80
  -3  10   2   52.69    4.30
  -2  10   2   17.00    1.60
  -1  10   2  439.36    5.40
   0  10   2   12.90    1.50
   1  10   2  267.97    4.00
   2  10   2 1123.29    9.50
   3  10   2 1797.12   15.90
   4  10   2 1279.97   14.20
   5  10   2  121.09    5.30
   6  10   2  275.97    8.70
   7  10   2   42.60    6.80
   8  10   2   36.60    7.00
   9  10   2    8.60    3.70
  10  10   2   44.40   14.20
 -10  11   2    0.00    7.50
  -9  11   2  573.24   11.80
  -8  11   2   30.60    5.10
  -7  11   2  285.37    8.20
  -6  11   2   85.99    5.60
  -5  11   2  338.57    6.70
  -4  11   2   18.10    3.60
  -3  11   2  374.06    7.40
  -2  11   2  862.91    8.40
  -1  11   2   63.49    2.80
   0  11   2   58.49    3.60
   1  11   2  446.36    5.80
   2  11   2   40.40    2.40
   3  11   2  413.96    8.00
   4  11   2  422.96    9.60
   5  11   2  292.87    6.90
   6  11   2   16.70    5.60
   7  11   2  144.79    7.30
   8  11   2   39.20    7.40
   9  11   2   19.50    4.30
  10  11   2    3.40  173.28
 -10  12   2    3.70    7.50
  -9  12   2  194.68    9.00
  -8  12   2    7.90    4.20
  -7  12   2   73.79    7.50
  -6  12   2  384.06   12.50
  -5  12   2   12.10    2.30
  -4  12   2  414.86    9.50
  -3  12   2   56.99    6.80
  -2  12   2   95.79    4.10
  -1  12   2  114.49    3.80
   0  12   2   24.70    2.80
   1  12   2    3.00    1.40
   2  12   2   26.40    2.50
   3  12   2   25.60    7.10
   4  12   2   89.89    5.40
   5  12   2  509.75    9.40
   6  12   2   40.90    6.20
   7  12   2 1650.13   22.80
   8  12   2   56.19    8.60
   9  12   2    2.20    3.30
 -10  13   2   12.40  129.49
  -9  13   2    4.10    3.20
  -8  13   2  281.07   11.10
  -7  13   2  247.18    9.10
  -6  13   2  112.79    9.10
  -5  13   2   80.39    4.60
  -4  13   2    0.00    8.40
  -3  13   2 1100.49   19.00
  -2  13   2 2555.44   21.60
  -1  13   2    3.40    2.00
   0  13   2  191.78    6.50
   1  13   2    0.90    1.90
   2  13   2    0.60    1.80
   3  13   2   95.29    6.60
   4  13   2   10.20    7.40
   5  13   2  305.17    7.80
   6  13   2  227.18    9.70
   7  13   2  162.38    7.60
   8  13   2  138.29   10.10
   9  13   2  341.17   11.80
  -9  14   2  104.09    7.70
  -8  14   2  343.37   14.00
  -7  14   2    0.00    5.80
  -6  14   2  383.26   15.40
  -5  14   2   13.80    2.40
  -4  14   2  138.49    6.30
  -3  14   2  229.08    8.80
  -2  14   2  294.17    7.20
  -1  14   2   23.60    4.00
   0  14   2  709.63   13.70
   1  14   2    3.80    3.40
   2  14   2  351.56    8.00
   3  14   2  304.67    8.40
   4  14   2  314.57   16.60
   5  14   2  224.78    7.60
   6  14   2   32.80    5.70
   7  14   2   33.40    5.60
   8  14   2   15.70    5.90
   9  14   2   39.50   11.20
  -9  15   2   14.40    5.10
  -8  15   2   24.20    6.30
  -7  15   2    5.70    4.50
  -6  15   2  113.69    8.50
  -5  15   2  587.34   11.40
  -4  15   2  177.98   15.20
  -3  15   2  131.39    6.50
  -2  15   2  250.77    7.30
  -1  15   2   12.70    3.90
   0  15   2   18.10    3.10
   1  15   2  147.69    6.70
   2  15   2 1060.89   14.40
   3  15   2   82.29    6.20
   4  15   2  677.03   16.30
   5  15   2  418.36   10.40
   6  15   2   21.00    8.90
   7  15   2   19.60    8.00
   8  15   2    7.20    7.50
  -8  16   2   95.99    8.80
  -7  16   2   74.89   11.70
  -6  16   2  182.88   12.30
  -5  16   2   17.00    3.40
  -4  16   2 1795.42   25.10
  -3  16   2   14.20    5.50
  -2  16   2  483.15    9.80
  -1  16   2   84.89    6.20
   0  16   2  108.79    8.30
   1  16   2  408.86    9.80
   2  16   2  205.38    7.10
   3  16   2  287.47    9.70
   4  16   2   14.60    7.50
   5  16   2   39.20    5.10
   6  16   2   46.10    8.20
   7  16   2  292.17   12.80
   8  16   2  247.18  381.66
  -8  17   2    0.00   12.20
  -7  17   2  152.08    9.00
  -6  17   2    1.40    7.30
  -5  17   2    6.10    2.80
  -4  17   2    0.00   16.00
  -3  17   2   57.09    6.60
  -2  17   2   49.99    4.60
  -1  17   2   74.79    6.70
   0  17   2   53.69    6.60
   1  17   2  205.18    8.90
   2  17   2  661.73   12.10
   3  17   2   12.20    5.80
   4  17   2    2.30    7.20
   5  17   2  349.17   11.40
   6  17   2    5.20    8.10
   7  17   2   27.70   12.00
  -7  18   2    0.00   33.20
  -6  18   2  339.37   17.10
  -5  18   2    1.20    2.80
  -4  18   2  796.42   15.20
  -3  18   2  159.38   12.50
  -2  18   2   93.89    6.20
  -1  18   2    7.20    5.90
   0  18   2  132.29    9.90
   1  18   2    6.00    4.60
   2  18   2   81.79    5.80
   3  18   2  427.56   11.30
   4  18   2   74.39    7.20
   5  18   2  600.64   14.30
   6  18   2   35.80    7.30
  -6  19   2  364.16   50.69
  -5  19   2    9.50    4.00
  -4  19   2  278.17   14.40
  -3  19   2   42.10    7.90
  -2  19   2  189.18    7.40
  -1  19   2   21.20    6.50
   0  19   2 1423.96   33.70
   1  19   2    1.30    4.10
   2  19   2   14.00    3.60
   3  19   2    0.00    8.10
   4  19   2  499.25   14.70
   5  19   2   25.50    4.90
  -5  20   2  123.29   10.70
  -4  20   2  569.44   14.20
  -3  20   2   73.49    8.70
  -2  20   2  641.34   15.60
  -1  20   2   10.90    5.80
   0  20   2  858.81   25.90
   1  20   2  228.88   11.90
   2  20   2    7.00    3.90
   3  20   2   34.40    7.30
   4  20   2   19.20    9.10
  -4  21   2   20.90    9.60
  -3  21   2  154.58   13.80
  -2  21   2   11.00    4.50
  -1  21   2   15.40    6.00
   0  21   2  127.99   10.80
   1  21   2    4.10    5.00
   2  21   2   79.99    7.70
   3  21   2   38.80  280.07
  -2  22   2   49.30   22.40
   2  22   2    3.50    8.60
 -12   0   3    2.10    6.80
 -11   0   3  204.28   57.59
 -10   0   3    0.00   11.60
  -9   0   3   60.19    5.30
  -8   0   3    3.30    2.50
  -7   0   3  126.49    4.50
  -6   0   3    1.10    1.60
  -5   0   3  115.89    3.40
  -4   0   3    0.00    2.10
  -3   0   3 3326.17   25.60
  -2   0   3    5.80    0.80
  -1   0   3  418.86    5.40
   0   0   3    1.60    1.10
   1   0   3   46.00    1.70
   2   0   3    3.40    1.30
   3   0   3  674.73    8.90
   4   0   3   38.90   14.90
   5   0   3 1164.98   11.70
   6   0   3    0.40    2.50
   7   0   3 4728.53   47.70
   8   0   3    0.00    6.70
   9   0   3  474.15   15.80
  10   0   3    6.60   13.70
  11   0   3  416.86   21.10
 -12   1   3   18.30    6.30
 -11   1   3  155.58   12.20
 -10   1   3    0.00    5.80
  -9   1   3    2.80    1.90
  -8   1   3  564.34    8.90
  -7   1   3   30.80    2.20
  -6   1   3    5.60    1.30
  -5   1   3   23.30    1.40
  -4   1   3  400.36    4.40
  -3   1   3    3.20    1.10
  -2   1   3 4583.14   20.60
  -1   1   3   21.80    1.10
   0   1   3  237.28    3.30
   1   1   3 1260.67    8.00
   2   1   3   29.90    1.40
   3   1   3  260.27    7.00
   4   1   3   26.50   20.70
   5   1   3  683.43    5.80
   6   1   3  310.57    6.50
   7   1   3   32.10    4.80
   8   1   3    2.10    4.40
   9   1   3   11.30    3.30
  10   1   3   34.10    6.10
  11   1   3    0.00    9.00
 -12   2   3   62.79   12.80
 -11   2   3   91.29   10.60
 -10   2   3   55.69    5.50
  -9   2   3  470.05    7.80
  -8   2   3  381.66    9.60
  -7   2   3  534.75   10.30
  -6   2   3 1140.19    8.90
  -5   2   3 1038.00    7.50
  -4   2   3   46.80    4.50
  -3   2   3  524.25    4.60
  -2   2   3  137.49    1.80
  -1   2   3    4.00    0.80
   0   2   3 1950.20   17.10
   1   2   3  172.08    2.30
   2   2   3 1532.55    9.10
   3   2   3 1871.41   12.30
   4   2   3   81.79    3.00
   5   2   3   20.50    1.60
   6   2   3   67.89    4.70
   7   2   3  485.35    9.10
   8   2   3   76.19   11.80
   9   2   3    2.10    2.50
  10   2   3    0.00    5.90
  11   2   3   84.49    9.40
 -12   3   3  189.48   21.00
 -11   3   3  487.45   23.20
 -10   3   3  397.26   12.10
  -9   3   3  734.13   10.00
  -8   3   3   58.49    4.10
  -7   3   3  547.35    7.10
  -6   3   3  648.34    7.70
  -5   3   3  240.88    3.30
  -4   3   3  624.64   11.80
  -3   3   3   28.30    2.20
  -2   3   3  179.68    2.20
  -1   3   3  142.79    2.10
   0   3   3 1680.93   15.40
   1   3   3 1204.08    7.20
   2   3   3  136.49    2.10
   3   3   3 5625.54   30.20
   4   3   3   81.69    3.90
   5   3   3  275.67    4.10
   6   3   3   18.50    3.50
   7   3   3   16.20    3.70
   8   3   3   73.49    8.40
   9   3   3  373.46    9.60
  10   3   3   60.19   24.50
  11   3   3   29.90   23.40
 -11   4   3  365.56   29.30
 -10   4   3  118.89   10.10
  -9   4   3   29.70    3.00
  -8   4   3  118.89    5.80
  -7   4   3  313.47   10.80
  -6   4   3  187.68    4.50
  -5   4   3   53.69    1.90
  -4   4   3 3693.03   24.50
  -3   4   3    0.20    3.10
  -2   4   3   33.70    1.40
  -1   4   3   78.49    1.70
   0   4   3  531.25    6.60
   1   4   3  360.66    3.60
   2   4   3  160.58    2.40
   3   4   3    0.00    6.10
   4   4   3  699.23    8.90
   5   4   3 1117.89    9.10
   6   4   3  154.88    4.90
   7   4   3  468.45   16.00
   8   4   3   73.49   21.00
   9   4   3  750.92   13.10
  10   4   3   30.20    7.10
  11   4   3    0.20   28.60
 -11   5   3    8.80   17.00
 -10   5   3    0.00   14.60
  -9   5   3  122.99    5.50
  -8   5   3   14.00    2.90
  -7   5   3   16.10   10.10
  -6   5   3   14.90    2.00
  -5   5   3    7.10    1.20
  -4   5   3 4970.50   35.00
  -3   5   3  860.81    7.50
  -2   5   3 2200.48   11.70
  -1   5   3  262.67    3.00
   0   5   3  395.26    5.70
   1   5   3  938.71    6.60
   2   5   3 2057.59   11.60
   3   5   3  286.57    5.00
   4   5   3    0.00    5.10
   5   5   3   53.59    2.80
   6   5   3   10.00    3.40
   7   5   3   41.80    3.80
   8   5   3  153.58    7.60
   9   5   3   20.80    3.60
  10   5   3    0.00   14.00
  11   5   3  453.65  305.97
 -11   6   3  233.18   40.80
 -10   6   3    2.40    8.20
  -9   6   3  140.69    6.30
  -8   6   3  904.41   13.90
  -7   6   3   53.99    4.80
  -6   6   3  539.45    8.00
  -5   6   3   26.30    1.90
  -4   6   3    0.00    9.90
  -3   6   3    0.00    7.10
  -2   6   3 2131.49   11.70
  -1   6   3  369.96    3.80
   0   6   3   21.80    1.60
   1   6   3   84.79    2.10
   2   6   3  195.88    2.90
   3   6   3  344.87    4.20
   4   6   3 1468.75   11.50
   5   6   3 1287.77   11.60
   6   6   3    7.20    3.00
   7   6   3  704.53   16.70
   8   6   3  178.68    9.20
   9   6   3  763.12   14.80
  10   6   3    2.50    6.00
 -11   7   3    5.30   13.80
 -10   7   3   37.50    5.50
  -9   7   3  141.99    6.70
  -8   7   3  821.62   14.60
  -7   7   3    2.60    2.40
  -6   7   3  454.95    8.20
  -5   7   3   68.39    2.90
  -4   7   3 1311.87   11.50
  -3   7   3  181.68    3.30
  -2   7   3 2074.79   12.40
  -1   7   3  138.79    2.40
   0   7   3 1654.63   16.60
   1   7   3   79.79    2.20
   2   7   3 2030.40   12.40
   3   7   3    2.40    1.30
   4   7   3 2927.51   19.60
   5   7   3   97.59    3.90
   6   7   3    2.80    3.00
   7   7   3   66.99    5.70
   8   7   3   61.69    6.20
   9   7   3  155.08    8.60
  10   7   3   14.20    7.90
 -11   8   3   47.80   20.30
 -10   8   3   92.39    6.70
  -9   8   3   33.00    3.60
  -8   8   3  159.88    7.90
  -7   8   3 1131.99   13.00
  -6   8   3  353.56    7.80
  -5   8   3  270.47    5.30
  -4   8   3 1671.63   18.10
  -3   8   3    0.00    6.10
  -2   8   3 1697.63   11.10
  -1   8   3  102.39    2.20
   0   8   3 2412.36   23.00
   1   8   3   95.29    2.40
   2   8   3 1043.10    7.90
   3   8   3   10.40    2.00
   4   8   3  987.10   10.70
   5   8   3  112.79    4.30
   6   8   3  281.67    9.90
   7   8   3   53.59   12.90
   8   8   3   21.30    6.80
   9   8   3   15.40    3.80
  10   8   3    3.00    7.90
 -11   9   3  175.38   15.20
 -10   9   3    7.00    7.60
  -9   9   3   87.69    5.40
  -8   9   3  553.74   13.80
  -7   9   3  140.09    6.00
  -6   9   3 1199.58   14.70
  -5   9   3  191.58    5.00
  -4   9   3 1623.34   17.70
  -3   9   3  205.58    5.60
  -2   9   3   12.90    1.40
  -1   9   3  182.58    2.90
   0   9   3   82.69    2.90
   1   9   3 1056.99    8.00
   2   9   3  180.98    3.30
   3   9   3  145.29    6.00
   4   9   3  317.27    7.20
   5   9   3  135.79    5.40
   6   9   3  182.38    6.90
   7   9   3   48.80    5.80
   8   9   3   39.20    5.90
   9   9   3  186.18    9.20
  10   9   3    0.00   17.70
 -11  10   3    1.90   17.50
 -10  10   3   50.29    7.20
  -9  10   3   54.49    4.50
  -8  10   3   14.00    5.20
  -7  10   3  294.47   10.70
  -6  10   3  102.89    6.30
  -5  10   3   39.30    3.10
  -4  10   3 1017.80   20.60
  -3  10   3    0.40    2.80
  -2  10   3  303.77    4.70
  -1  10   3   42.90    2.40
   0  10   3 1916.61   19.90
   1  10   3   71.89    2.70
   2  10   3  367.26    5.20
   3  10   3 1193.58   16.80
   4  10   3  207.88    8.30
   5  10   3  330.37    7.20
   6  10   3    0.00    3.80
   7  10   3   11.70   11.40
   8  10   3   47.20    7.80
   9  10   3  467.85   12.60
  10  10   3   69.99   15.80
 -10  11   3  199.58   11.50
  -9  11   3   30.50    4.20
  -8  11   3  181.48    9.80
  -7  11   3   93.79    8.00
  -6  11   3  144.79   15.20
  -5  11   3    2.10    1.70
  -4  11   3 1665.33   18.70
  -3  11   3  531.65    9.30
  -2  11   3 1217.88   10.50
  -1  11   3  198.38    4.10
   0  11   3  260.97    6.50
   1  11   3  211.28    4.10
   2  11   3 1391.76   11.50
   3  11   3  997.50   16.20
   4  11   3   20.90   10.60
   5  11   3  426.86    8.40
   6  11   3   21.70    5.20
   7  11   3   36.70    5.50
   8  11   3    5.60    5.20
   9  11   3   22.10    4.60
 -10  12   3  163.98   10.90
  -9  12   3    9.80    3.20
  -8  12   3   40.80    6.90
  -7  12   3  189.08    7.70
  -6  12   3  174.58    8.30
  -5  12   3  471.95    7.70
  -4  12   3 1427.26   18.50
  -3  12   3  511.65    8.40
  -2  12   3  161.18    4.70
  -1  12   3    3.00    1.50
   0  12   3    6.80    2.20
   1  12   3  147.19    4.80
   2  12   3  353.76    6.40
   3  12   3  957.30   13.30
   4  12   3  603.84   13.70
   5  12   3   17.50    3.00
   6  12   3  402.66   19.80
   7  12   3    0.00    5.70
   8  12   3   14.10    6.10
   9  12   3   14.00    4.20
 -10  13   3    0.30   13.40
  -9  13   3  323.87    9.80
  -8  13   3  220.38   13.60
  -7  13   3   17.50    7.40
  -6  13   3    0.00    5.90
  -5  13   3  269.57    6.80
  -4  13   3   49.50    4.20
  -3  13   3  141.09    5.10
  -2  13   3   18.60    2.60
  -1  13   3   83.19    4.20
   0  13   3  736.23   13.70
   1  13   3   28.80    3.30
   2  13   3  418.76    8.00
   3  13   3    0.00    4.30
   4  13   3  203.68   11.10
   5  13   3  594.74   10.60
   6  13   3  103.09    7.20
   7  13   3   28.80    4.90
   8  13   3    0.00    5.50
   9  13   3  150.78   14.80
  -9  14   3   73.79    5.90
  -8  14   3  157.18   10.50
  -7  14   3  135.99    6.20
  -6  14   3   17.70    5.10
  -5  14   3  525.55    9.10
  -4  14   3   35.10   12.20
  -3  14   3  687.43   13.60
  -2  14   3   67.49    4.60
  -1  14   3   85.59    5.20
   0  14   3  637.84   12.90
   1  14   3  379.56   11.30
   2  14   3  537.85    9.80
   3  14   3   13.20    4.50
   4  14   3    0.00    4.30
   5  14   3  173.18    7.20
   6  14   3    3.70    9.30
   7  14   3  218.18    8.90
   8  14   3   34.80    7.20
  -9  15   3    0.70    4.10
  -8  15   3    8.80    4.80
  -7  15   3    2.60    4.20
  -6  15   3 1023.50   18.30
  -5  15   3   91.29    5.40
  -4  15   3  331.87    9.20
  -3  15   3   19.30    4.30
  -2  15   3    1.70    2.00
  -1  15   3   22.60    4.80
   0  15   3    3.40    2.60
   1  15   3  178.18    8.60
   2  15   3  671.03   11.40
   3  15   3   66.49   11.90
   4  15   3   76.59   21.80
   5  15   3  615.24   12.50
   6  15   3    0.00    8.40
   7  15   3   30.30    5.40
   8  15   3   31.80   11.80
  -8  16   3   37.10    6.20
  -7  16   3  312.07   12.60
  -6  16   3   21.70    7.10
  -5  16   3  263.37    8.50
  -4  16   3   36.70    7.50
  -3  16   3   17.10    5.00
  -2  16   3  217.98    7.40
  -1  16   3   40.70    6.30
   0  16   3  599.14   18.80
   1  16   3   97.09    8.50
   2  16   3  102.59    6.00
   3  16   3    6.10    4.30
   4  16   3  163.68    8.50
   5  16   3   23.40    4.40
   6  16   3  124.99   10.50
   7  16   3  982.40   21.20
  -8  17   3    6.60   10.60
  -7  17   3    0.00    8.00
  -6  17   3   51.09    8.40
  -5  17   3   16.00    3.50
  -4  17   3   37.70    7.40
  -3  17   3  128.39   12.90
  -2  17   3  404.46    9.60
  -1  17   3  106.79    7.90
   0  17   3  435.36   16.50
   1  17   3  684.23   14.10
   2  17   3   73.39    5.50
   3  17   3  479.65   14.90
   4  17   3   37.70    6.20
   5  17   3   57.49    6.30
   6  17   3   28.40   12.50
   7  17   3   12.60  114.99
  -7  18   3  429.46   40.10
  -6  18   3  130.89   12.00
  -5  18   3  276.77    9.70
  -4  18   3    0.00   11.30
  -3  18   3    1.60    5.20
  -2  18   3  157.38    7.70
  -1  18   3  247.88   10.50
   0  18   3  337.67   15.00
   1  18   3    8.70    5.50
   2  18   3   61.29    5.30
   3  18   3   40.80    6.60
   4  18   3 1059.19   20.50
   5  18   3  545.25   14.00
   6  18   3    1.50   11.50
  -6  19   3   24.60   24.50
  -5  19   3  105.49    7.20
  -4  19   3  454.25   15.30
  -3  19   3  248.08   11.80
  -2  19   3  365.46   10.00
  -1  19   3   53.89    7.40
   0  19   3    1.80    5.00
   1  19   3   87.79    9.60
   2  19   3   16.90    3.70
   3  19   3  134.39    8.80
   4  19   3  331.57   15.20
   5  19   3  128.49    8.90
  -5  20   3    7.80    5.60
  -4  20   3    1.20    6.00
  -3  20   3   38.20    7.30
  -2  20   3   95.09    7.90
  -1  20   3   76.59    8.90
   0  20   3    3.60    5.30
   1  20   3    5.40    5.60
   2  20   3   16.20    4.60
   3  20   3   58.29    7.70
   4  20   3   18.60   22.30
  -4  21   3  214.18   35.30
  -3  21   3    0.00   14.70
  -2  21   3  755.92   17.40
  -1  21   3    3.00    5.60
   0  21   3  231.18   14.00
   1  21   3   10.10    5.80
   2  21   3    2.70    4.70
   3  21   3  312.17  442.16
  -2  22   3  114.29   27.80
 -12   0   4   94.99   15.30
 -10   0   4  269.97   13.20
  -9   0   4    0.40    2.10
  -8   0   4 3229.18   33.30
  -7   0   4    3.00    2.50
  -6   0   4  137.89    5.00
  -5   0   4    1.60    1.10
  -4   0   4 3169.88   25.60
  -3   0   4    5.00    1.60
  -2   0   4  970.10    8.10
  -1   0   4    2.40    1.10
   0   0   4  861.21   12.60
   1   0   4    4.00    2.00
   2   0   4   65.89    3.20
   3   0   4    0.00    2.70
   4   0   4 2306.37   19.00
   5   0   4    4.00    2.00
   6   0   4  697.23   17.20
   7   0   4    5.00    3.70
   8   0   4  142.49   18.00
   9   0   4    4.10    3.70
  10   0   4    8.50    8.80
  11   0   4    0.00   15.10
 -12   1   4   99.89   10.90
 -10   1   4  111.89    7.00
  -9   1   4  312.87    6.80
  -8   1   4  554.84    7.60
  -7   1   4  504.55   11.50
  -6   1   4   76.99    3.00
  -5   1   4  751.42    6.10
  -4   1   4  488.45    6.00
  -3   1   4   36.90    1.60
  -2   1   4 3202.28   15.60
  -1   1   4  972.70    6.70
   0   1   4 1682.73   16.50
   1   1   4   30.00    1.60
   2   1   4  113.09    2.20
   3   1   4 1107.29   10.80
   4   1   4  543.35    6.30
   5   1   4 3437.36   21.70
   6   1   4    8.70    2.80
   7   1   4  444.56   11.50
   8   1   4    1.70    4.40
   9   1   4   97.29    6.80
  10   1   4   53.69    8.30
  11   1   4   13.40   12.50
 -12   2   4    6.50    7.60
 -10   2   4   17.50    5.30
  -9   2   4    2.10    1.70
  -8   2   4  329.07    7.50
  -7   2   4   90.79    4.00
  -6   2   4 2838.82   16.50
  -5   2   4  411.76    4.40
  -4   2   4  746.13   33.20
  -3   2   4  461.85    5.60
  -2   2   4 1069.29    6.80
  -1   2   4 2654.83   13.00
   0   2   4 2062.89   18.30
   1   2   4 3842.52   19.00
   2   2   4   56.09    1.80
   3   2   4 1043.50   21.00
   4   2   4   42.40    2.50
   5   2   4  247.28    4.80
   6   2   4   27.00    3.00
   7   2   4   68.89    5.30
   8   2   4  207.38   11.70
   9   2   4  108.89    6.50
  10   2   4  104.49   11.40
  11   2   4 1826.32   64.99
 -12   3   4   11.10    7.90
 -10   3   4   82.49   11.80
  -9   3   4  259.97    5.80
  -8   3   4  461.75    7.70
  -7   3   4   52.09    2.80
  -6   3   4  966.30    9.50
  -5   3   4  303.87    3.80
  -4   3   4 1274.97    9.10
  -3   3   4   24.20    1.90
  -2   3   4   21.00    1.20
  -1   3   4    2.10    0.80
   0   3   4 5763.82   46.90
   1   3   4  242.28    2.90
   2   3   4 2393.16   12.70
   3   3   4   26.80    4.30
   4   3   4   29.50    7.90
   5   3   4 1038.20    9.50
   6   3   4   28.60    3.60
   7   3   4   57.09   12.00
   8   3   4   28.70   11.00
   9   3   4    5.90    2.90
  10   3   4   57.49    8.60
 -10   4   4   46.80    8.70
  -9   4   4    1.90    1.60
  -8   4   4   77.39    4.40
  -7   4   4  163.68    9.70
  -6   4   4    2.50    1.40
  -5   4   4   51.49    1.90
  -4   4   4 7526.15   38.10
  -3   4   4    5.10    8.60
  -2   4   4  630.44    5.00
  -1   4   4   51.99    1.80
   0   4   4   17.50    1.50
   1   4   4 3287.77   17.00
   2   4   4 1779.12   10.50
   3   4   4 2647.04   20.60
   4   4   4  122.69    3.30
   5   4   4   73.39    2.90
   6   4   4    2.40    2.30
   7   4   4  684.43   11.80
   8   4   4  140.09    7.00
   9   4   4   50.09    4.80
  10   4   4   16.90   13.70
 -10   5   4  432.56   16.60
  -9   5   4  160.58    5.50
  -8   5   4  136.19    5.10
  -7   5   4 1451.85   14.70
  -6   5   4  260.17    4.90
  -5   5   4  257.77    4.20
  -4   5   4   89.99    6.00
  -3   5   4   10.90    1.70
  -2   5   4 1524.15    9.30
  -1   5   4   40.70    1.90
   0   5   4 1416.26   14.40
   1   5   4 1537.35    9.90
   2   5   4 1472.45    9.70
   3   5   4  390.36    5.10
   4   5   4    6.60    1.90
   5   5   4   19.20    2.10
   6   5   4  156.78    9.70
   7   5   4  328.87   10.90
   8   5   4   11.70    4.70
   9   5   4  313.47    9.40
  10   5   4    0.00    9.50
 -10   6   4  246.78    9.90
  -9   6   4   70.19    4.60
  -8   6   4 2474.95   23.30
  -7   6   4   37.80    5.80
  -6   6   4  264.57    5.00
  -5   6   4  346.47    4.90
  -4   6   4  286.97    4.10
  -3   6   4   19.00    2.20
  -2   6   4  184.38    2.80
  -1   6   4   27.60    1.60
   0   6   4 1021.70   11.60
   1   6   4  389.96    4.40
   2   6   4   12.30    1.20
   3   6   4  248.18    5.30
   4   6   4 2675.83   29.80
   5   6   4   59.79    3.40
   6   6   4   47.80    4.60
   7   6   4   89.59   13.80
   8   6   4  659.93   17.00
   9   6   4  580.74   13.30
  10   6   4    5.60    8.00
 -10   7   4   30.00    6.30
  -9   7   4  881.21   13.20
  -8   7   4    9.70    3.40
  -7   7   4  839.12   12.00
  -6   7   4  160.48    5.20
  -5   7   4   15.00    1.60
  -4   7   4  283.97    5.40
  -3   7   4   23.60    1.70
  -2   7   4 2308.37   13.50
  -1   7   4  469.45    4.80
   0   7   4  117.19    3.30
   1   7   4 1880.01   11.60
   2   7   4   43.90    2.10
   3   7   4 1051.09   10.80
   4   7   4   13.00    5.40
   5   7   4  202.58    5.20
   6   7   4    7.90    3.70
   7   7   4  891.61   16.00
   8   7   4    5.20    4.40
   9   7   4  123.29    8.00
  10   7   4   11.60    6.30
 -10   8   4   10.10    7.10
  -9   8   4    1.40    2.00
  -8   8   4  419.76   10.10
  -7   8   4  120.79    4.80
  -6   8   4  232.48    7.70
  -5   8   4   12.30    1.90
  -4   8   4   77.29   11.00
  -3   8   4  198.58    4.40
  -2   8   4  103.29    2.30
  -1   8   4  109.79    2.60
   0   8   4   35.80    2.10
   1   8   4    3.50    1.00
   2   8   4   56.89    2.30
   3   8   4  299.37    7.00
   4   8   4  494.25    9.90
   5   8   4   86.09    4.30
   6   8   4  156.48    7.40
   7   8   4 1105.19   22.00
   8   8   4  450.55   12.10
   9   8   4  464.15   12.50
  10   8   4    1.60    6.30
 -11   9   4  174.08   24.40
 -10   9   4  128.99    8.90
  -9   9   4  373.46    9.20
  -8   9   4   44.50    4.80
  -7   9   4 2099.69   21.10
  -6   9   4  748.53   10.70
  -5   9   4    9.20    1.90
  -4   9   4    0.00    4.20
  -3   9   4   68.09    8.80
  -2   9   4  645.84    6.50
  -1   9   4   70.59    2.40
   0   9   4 2700.73   26.00
   1   9   4  133.39    3.10
   2   9   4    9.00    1.30
   3   9   4 1368.26   12.10
   4   9   4   12.10    3.40
   5   9   4  814.52   11.60
   6   9   4  206.38    7.80
   7   9   4  645.64   16.60
   8   9   4   82.99    7.70
   9   9   4    3.40    3.40
  10   9   4   48.50   31.90
 -10  10   4    4.60    6.80
  -9  10   4    4.50    2.60
  -8  10   4  667.33   12.40
  -7  10   4   87.89    9.10
  -6  10   4  822.42   12.50
  -5  10   4    1.80    1.50
  -4  10   4    0.00    2.70
  -3  10   4    0.00   13.10
  -2  10   4  862.51    8.40
  -1  10   4   80.19    3.30
   0  10   4 3316.87   31.30
   1  10   4 2246.68   15.30
   2  10   4   32.50    2.10
   3  10   4 1406.16   19.50
   4  10   4   27.70    4.30
   5  10   4   57.39    4.20
   6  10   4   63.09    5.90
   7  10   4  120.99    8.00
   8  10   4    1.30    4.30
   9  10   4    4.50    3.50
 -10  11   4   34.90   10.50
  -9  11   4    5.00    2.90
  -8  11   4  153.28    7.50
  -7  11   4  246.48    7.60
  -6  11   4   11.80    5.60
  -5  11   4  710.33    9.80
  -4  11   4  326.47    8.70
  -3  11   4   98.59    7.40
  -2  11   4  649.64    7.40
  -1  11   4   38.30    2.50
   0  11   4 1227.08   16.60
   1  11   4  668.73    7.90
   2  11   4   64.99    3.10
   3  11   4   70.29    4.70
   4  11   4  549.05   15.20
   5  11   4  151.48    6.40
   6  11   4    8.70    6.20
   7  11   4  317.37   20.10
   8  11   4   47.60    7.50
   9  11   4  379.96   12.30
 -10  12   4   35.00    9.40
  -9  12   4  157.08    8.00
  -8  12   4  584.04   14.30
  -7  12   4  104.29    6.90
  -6  12   4  577.44   11.10
  -5  12   4   25.40    2.90
  -4  12   4  811.82   17.00
  -3  12   4  470.95    8.40
  -2  12   4   80.79    4.00
  -1  12   4  807.92    9.40
   0  12   4 1035.50   16.50
   1  12   4   63.69    3.60
   2  12   4    6.70    1.80
   3  12   4  375.66   15.00
   4  12   4    0.00   20.40
   5  12   4    3.70    2.30
   6  12   4   25.80    5.80
   7  12   4 1025.50   19.70
   8  12   4   29.80    6.10
   9  12   4    9.70    4.10
 -10  13   4    8.50   24.50
  -9  13   4  179.58    9.40
  -8  13   4   70.49    8.30
  -7  13   4  365.06    9.30
  -6  13   4  351.26    9.30
  -5  13   4   45.60    3.80
  -4  13   4   12.60    8.60
  -3  13   4  180.78    6.70
  -2  13   4  109.19    4.90
  -1  13   4    7.50    3.00
   0  13   4   17.40    2.90
   1  13   4  133.79    5.50
   2  13   4  291.67    6.80
   3  13   4  437.06   11.20
   4  13   4  126.49   10.60
   5  13   4 1647.34   19.10
   6  13   4    1.90   13.60
   7  13   4   37.60    7.50
   8  13   4   22.50    6.20
  -9  14   4   12.30    4.30
  -8  14   4  535.55   15.90
  -7  14   4   60.99    9.70
  -6  14   4  137.29    6.90
  -5  14   4    9.00    2.40
  -4  14   4    3.70   13.30
  -3  14   4   15.00    7.50
  -2  14   4  230.98    6.90
  -1  14   4  419.26   11.60
   0  14   4  350.56    9.50
   1  14   4   12.40    4.40
   2  14   4  458.45    9.20
   3  14   4   20.20    7.70
   4  14   4  202.88    8.80
   5  14   4  166.08    7.30
   6  14   4    0.00   11.90
   7  14   4  161.78    8.80
   8  14   4   16.70    8.00
  -9  15   4  336.27   14.30
  -8  15   4   51.19    7.20
  -7  15   4  724.63   16.70
  -6  15   4   55.89   13.90
  -5  15   4  121.19    6.30
  -4  15   4  185.98   11.40
  -3  15   4   51.89    6.20
  -2  15   4  261.07    7.50
  -1  15   4  173.38    8.30
   0  15   4   76.99    4.90
   1  15   4   59.69    7.90
   2  15   4   16.90    3.10
   3  15   4  940.41   16.60
   4  15   4  705.13   15.30
   5  15   4   59.19    5.70
   6  15   4    0.00   12.20
   7  15   4  592.14   23.80
   8  15   4   73.99  129.99
  -8  16   4   31.60    8.00
  -7  16   4   12.50    9.80
  -6  16   4  629.74   14.20
  -5  16   4    3.00    2.80
  -4  16   4  439.66   14.40
  -3  16   4   92.49    9.10
  -2  16   4  301.67    8.40
  -1  16   4  492.15   11.10
   0  16   4  149.88    9.50
   1  16   4  687.43   14.00
   2  16   4   38.00    4.10
   3  16   4  170.98   20.10
   4  16   4   14.80    9.30
   5  16   4    4.50    3.30
   6  16   4   52.09    7.60
   7  16   4   15.60   10.80
  -8  17   4   11.90   25.60
  -7  17   4  168.18   12.10
  -6  17   4    1.50    4.60
  -5  17   4    3.60    2.90
  -4  17   4  592.44   13.90
  -3  17   4   60.89    6.10
  -2  17   4  897.51   14.10
  -1  17   4  170.78   10.60
   0  17   4 2613.94   47.10
   1  17   4   10.90    5.20
   2  17   4    2.70    2.60
   3  17   4  237.48   10.00
   4  17   4  151.88   11.10
   5  17   4   35.00    5.50
   6  17   4    6.20    7.00
  -7  18   4    0.00   20.50
  -6  18   4   28.60    7.50
  -5  18   4   32.40    4.70
  -4  18   4 1205.68   19.80
  -3  18   4    0.00    9.90
  -2  18   4   70.49    5.50
  -1  18   4    0.50    4.40
   0  18   4   12.30    5.40
   1  18   4   35.50    7.40
   2  18   4  179.18    8.00
   3  18   4   16.10   10.80
   4  18   4   34.50   18.60
   5  18   4   48.30    6.00
   6  18   4   90.19   30.00
  -6  19   4   10.30    8.10
  -5  19   4    8.20    3.60
  -4  19   4   12.80    6.90
  -3  19   4  218.08    9.10
  -2  19   4   97.79    6.50
  -1  19   4  137.79   10.20
   0  19   4   20.20    6.10
   1  19   4   82.09    9.40
   2  19   4  828.22   17.00
   3  19   4   76.99    8.50
   4  19   4    0.00    7.60
   5  19   4   48.70    8.80
  -5  20   4    3.50    4.50
  -4  20   4  524.05   15.90
  -3  20   4    0.00    7.30
  -2  20   4    2.40    3.70
  -1  20   4   33.60    7.30
   0  20   4  149.69   11.30
   1  20   4   11.10    5.90
   2  20   4  111.29    9.50
   3  20   4   39.00    8.00
   4  20   4  316.57   26.40
  -3  21   4   26.90  154.88
  -2  21   4  239.78   12.10
  -1  21   4    5.00    5.30
   0  21   4    7.40    6.10
   1  21   4   60.39    9.30
   2  21   4  206.38   22.90
   3  21   4   40.40  322.37
 -12   0   5    0.00    4.60
 -11   0   5 2620.34  105.39
 -10   0   5    0.00   20.10
  -9   0   5  398.36   13.00
  -8   0   5    3.00    2.70
  -7   0   5  832.82   12.30
  -6   0   5    1.70    1.60
  -5   0   5    3.30    1.20
  -4   0   5    0.00    3.00
  -3   0   5  242.38    8.20
  -2   0   5    4.60    1.40
  -1   0   5  788.32    8.70
   0   0   5    1.10    1.30
   1   0   5  691.23    7.90
   2   0   5    5.00    1.20
   3   0   5 3367.86   46.20
   4   0   5    2.70   28.40
   5   0   5  210.48    6.60
   6   0   5    0.20    3.80
   7   0   5 1058.79   19.00
   8   0   5    8.40    7.60
   9   0   5  848.12   22.40
  10   0   5    0.00    9.70
 -12   1   5   11.00    5.00
 -11   1   5   84.09   22.40
 -10   1   5   81.89    7.70
  -9   1   5    7.10    2.10
  -8   1   5 1966.00   16.60
  -7   1   5   68.29    2.90
  -6   1   5 2177.08   13.30
  -5   1   5  433.26    4.50
  -4   1   5  994.70   17.40
  -3   1   5  680.53    7.30
  -2   1   5  191.18    2.60
  -1   1   5  610.24    4.70
   0   1   5 1177.38   12.80
   1   1   5  503.15    4.40
   2   1   5 1398.96   10.00
   3   1   5  833.12    8.20
   4   1   5   88.69    5.90
   5   1   5  150.48    4.30
   6   1   5    6.90    2.30
   7   1   5  153.28   10.50
   8   1   5  347.37   10.50
   9   1   5 1710.33   23.40
  10   1   5   34.70    7.20
 -12   2   5  253.17   15.50
 -11   2   5   60.39   19.40
 -10   2   5  285.37   11.10
  -9   2   5  291.07    6.90
  -8   2   5   60.79    4.20
  -7   2   5  641.84   24.20
  -6   2   5  313.67    4.30
  -5   2   5  187.98    2.90
  -4   2   5 1229.08   11.20
  -3   2   5  218.28    5.40
  -2   2   5 1031.60    7.00
  -1   2   5  700.63    5.80
   0   2   5 9999.00   79.19
   1   2   5  555.14    5.10
   2   2   5   64.19    2.20
   3   2   5 1819.42   13.70
   4   2   5  114.99    3.40
   5   2   5  708.33    8.70
   6   2   5   57.19    4.10
   7   2   5 1651.43   22.60
   8   2   5  190.78   10.20
   9   2   5    2.40    2.80
  10   2   5   59.09   10.10
 -12   3   5   30.40    7.80
 -11   3   5  128.39   42.50
 -10   3   5   14.30    6.10
  -9   3   5  276.27    6.70
  -8   3   5  192.78    5.90
  -7   3   5  721.53   11.20
  -6   3   5  182.58    3.70
  -5   3   5   53.49    2.00
  -4   3   5   35.20    8.70
  -3   3   5  985.10   25.60
  -2   3   5  130.59    2.20
  -1   3   5   92.09    2.10
   0   3   5  456.45    6.30
   1   3   5 6141.79   27.90
   2   3   5  114.99    2.60
   3   3   5    1.40    4.70
   4   3   5  890.71    9.00
   5   3   5  355.06    6.10
   6   3   5   79.39    4.50
   7   3   5 1117.69   18.10
   8   3   5    6.40    7.30
   9   3   5  631.44   13.00
  10   3   5   48.40    8.60
 -11   4   5   82.99   53.59
 -10   4   5    0.00   12.80
  -9   4   5    2.40    1.90
  -8   4   5  148.49    8.30
  -7   4   5 1307.07   17.00
  -6   4   5  511.25    6.70
  -5   4   5   27.30    1.50
  -4   4   5  624.94    7.00
  -3   4   5 1056.99    7.90
  -2   4   5 2838.02   14.80
  -1   4   5  814.02    6.70
   0   4   5 6868.31   56.19
   1   4   5 2154.08   12.60
   2   4   5  325.97    3.90
   3   4   5  450.25    6.40
   4   4   5  109.19    3.50
   5   4   5 1502.95   13.50
   6   4   5   39.60    4.60
   7   4   5 1134.69   18.10
   8   4   5  676.73   13.40
   9   4   5    6.20    2.90
  10   4   5   32.70   17.10
 -11   5   5  149.19   31.10
 -10   5   5  242.88   18.30
  -9   5   5   34.00    3.20
  -8   5   5   13.30    3.80
  -7   5   5   34.90    4.00
  -6   5   5 1669.03   13.80
  -5   5   5   25.20    2.00
  -4   5   5  227.68   14.50
  -3   5   5  277.47    5.20
  -2   5   5 2435.66   13.40
  -1   5   5 1101.99    8.10
   0   5   5 1585.84   16.10
   1   5   5   20.10    1.50
   2   5   5   26.40    1.60
   3   5   5  577.44   11.00
   4   5   5  134.59    9.10
   5   5   5  444.06    6.60
   6   5   5   54.69    5.00
   7   5   5  538.45   14.50
   8   5   5  579.94   13.20
   9   5   5  117.29    6.80
  10   5   5   14.00    8.80
 -11   6   5 1008.20   74.69
 -10   6   5   49.40   13.40
  -9   6   5  546.55   10.00
  -8   6   5  159.18    6.20
  -7   6   5 1317.17   16.50
  -6   6   5    5.90    1.80
  -5   6   5    3.50    1.20
  -4   6   5  691.33    8.50
  -3   6   5    3.90    3.80
  -2   6   5   20.20    1.40
  -1   6   5  110.19    2.70
   0   6   5 1212.68   13.40
   1   6   5   17.70    1.60
   2   6   5   46.10    2.10
   3   6   5  684.13    7.70
   4   6   5   26.40   21.60
   5   6   5    7.20    1.90
   6   6   5   33.90    6.10
   7   6   5  344.87    8.90
   8   6   5   43.60    7.00
   9   6   5    8.50    3.60
  10   6   5    0.50    8.50
 -11   7   5    6.60   25.40
 -10   7   5 2250.87   40.30
  -9   7   5   67.39    4.80
  -8   7   5  248.98    7.30
  -7   7   5    5.70    2.70
  -6   7   5  459.55    8.60
  -5   7   5   64.09    3.20
  -4   7   5  147.39    6.80
  -3   7   5    1.80    1.50
  -2   7   5  668.43    6.10
  -1   7   5   17.40    1.50
   0   7   5   37.20    2.20
   1   7   5  206.08    3.80
   2   7   5 1448.36   10.40
   3   7   5    4.30    3.30
   4   7   5   89.49    4.70
   5   7   5  706.53   10.10
   6   7   5    9.50    4.10
   7   7   5    0.00    3.60
   8   7   5  586.84   16.70
   9   7   5  280.87   10.40
  10   7   5    8.50    9.30
 -11   8   5   86.09   20.50
 -10   8   5    0.00   11.10
  -9   8   5    2.20    2.20
  -8   8   5   41.20    5.20
  -7   8   5  541.25   25.80
  -6   8   5  222.38    7.80
  -5   8   5   34.60    2.70
  -4   8   5 7077.39   39.90
  -3   8   5   39.20    2.40
  -2   8   5   54.19    2.30
  -1   8   5   95.89    2.70
   0   8   5  214.28    4.90
   1   8   5  820.82    7.70
   2   8   5   54.89    2.50
   3   8   5  172.08    4.30
   4   8   5  455.55    9.90
   5   8   5  222.28    6.10
   6   8   5   96.69   10.90
   7   8   5  136.39    8.50
   8   8   5  105.49    9.10
   9   8   5    3.10    3.10
  10   8   5   87.99   24.30
 -11   9   5   52.69   14.30
 -10   9   5    0.00    7.80
  -9   9   5  180.98    6.60
  -8   9   5   23.90    4.10
  -7   9   5    4.10    4.40
  -6   9   5   42.40    3.90
  -5   9   5    5.60    1.70
  -4   9   5   81.19   14.90
  -3   9   5  378.86    6.60
  -2   9   5   21.40    1.80
  -1   9   5  384.56    4.90
   0   9   5   27.50    2.20
   1   9   5  995.10    8.90
   2   9   5 1296.87   10.50
   3   9   5  726.63   19.20
   4   9   5   27.60    7.40
   5   9   5 1283.77   16.10
   6   9   5   48.90    9.30
   7   9   5    7.60    8.60
   8   9   5  423.56   15.60
   9   9   5   98.29    7.60
 -11  10   5  311.57   23.40
 -10  10   5   20.20    9.90
  -9  10   5    1.40    2.50
  -8  10   5   78.89    8.10
  -7  10   5   56.79    4.60
  -6  10   5  578.04    9.90
  -5  10   5  457.95    7.60
  -4  10   5  160.98   12.40
  -3  10   5  892.81   16.50
  -2  10   5 2092.39   14.40
  -1  10   5  581.44    7.50
   0  10   5 4239.08   38.80
   1  10   5 1745.63   12.80
   2  10   5   47.80    2.60
   3  10   5    6.00    4.30
   4  10   5  101.39   10.10
   5  10   5  120.19    6.00
   6  10   5   21.10    5.20
   7  10   5  167.18   11.00
   8  10   5  621.64   14.90
   9  10   5   39.80    5.70
 -10  11   5   84.69    9.90
  -9  11   5    1.90    2.90
  -8  11   5  168.58    8.60
  -7  11   5   66.69    5.00
  -6  11   5  796.62   12.60
  -5  11   5   63.69    3.90
  -4  11   5  292.47    9.50
  -3  11   5  922.51   16.40
  -2  11   5  662.83    7.70
  -1  11   5  390.26    6.30
   0  11   5 1118.69   15.80
   1  11   5  724.53    8.20
   2  11   5  191.08    4.30
   3  11   5    4.30    4.60
   4  11   5  210.58    7.80
   5  11   5  478.35   10.00
   6  11   5    2.30    4.20
   7  11   5  340.67   12.90
   8  11   5   43.20    8.30
   9  11   5  109.99    8.30
 -10  12   5    8.60    8.70
  -9  12   5   61.39    6.00
  -8  12   5  251.17    8.90
  -7  12   5  433.36   11.70
  -6  12   5   78.59    6.00
  -5  12   5   59.79    4.20
  -4  12   5   89.99    5.50
  -3  12   5  259.07   12.20
  -2  12   5  905.41   10.70
  -1  12   5   75.19    3.80
   0  12   5    4.60    2.30
   1  12   5  244.58    5.50
   2  12   5  691.93    9.40
   3  12   5   61.69    5.30
   4  12   5  188.08    8.10
   5  12   5   82.29    5.70
   6  12   5   68.19    8.50
   7  12   5  885.31   18.70
   8  12   5   53.19    8.20
 -10  13   5   55.69  240.08
  -9  13   5  133.89    8.50
  -8  13   5 2377.36   25.70
  -7  13   5   26.60    4.80
  -6  13   5  190.98    8.60
  -5  13   5    3.40    2.10
  -4  13   5  445.46    8.70
  -3  13   5   65.99    4.50
  -2  13   5  138.99    5.50
  -1  13   5  216.18    6.40
   0  13   5    5.90    2.50
   1  13   5  145.09    5.20
   2  13   5  290.17    7.10
   3  13   5  133.29    6.60
   4  13   5    0.00    5.20
   5  13   5 1234.88   17.30
   6  13   5   26.50    9.90
   7  13   5   13.70    7.00
   8  13   5  197.08   11.20
  -9  14   5    5.10    3.50
  -8  14   5   44.10    8.00
  -7  14   5   74.59   11.20
  -6  14   5  373.46   10.20
  -5  14   5  118.19    6.10
  -4  14   5 1251.67   17.60
  -3  14   5   32.80    4.70
  -2  14   5  548.25    9.90
  -1  14   5  127.69    6.10
   0  14   5  295.97    8.80
   1  14   5  774.32   12.40
   2  14   5   36.10    3.80
   3  14   5   70.49   10.00
   4  14   5  594.54   14.60
   5  14   5   66.69    5.60
   6  14   5    0.00    6.60
   7  14   5    2.00    8.70
   8  14   5    0.00   97.19
  -9  15   5    4.50    5.40
  -8  15   5  386.66   14.40
  -7  15   5    9.40    4.40
  -6  15   5   16.20    5.60
  -5  15   5  254.87    7.80
  -4  15   5  246.58   14.10
  -3  15   5  751.62   13.70
  -2  15   5  566.04   10.50
  -1  15   5  424.06   10.60
   0  15   5  234.68    8.10
   1  15   5  401.26   11.80
   2  15   5   15.80    3.10
   3  15   5   26.70    6.00
   4  15   5  201.98   11.20
   5  15   5   36.00    5.00
   6  15   5    0.00    8.80
   7  15   5  222.38   11.50
  -8  16   5    2.10    6.00
  -7  16   5    0.00    5.20
  -6  16   5   47.00    8.20
  -5  16   5    2.00    2.70
  -4  16   5  144.89    7.70
  -3  16   5    0.50    4.40
  -2  16   5  108.49    6.10
  -1  16   5  233.48   12.10
   0  16   5 1516.85   32.00
   1  16   5  176.58    8.00
   2  16   5  163.78    7.60
   3  16   5 1622.74   24.50
   4  16   5   25.70   13.40
   5  16   5  155.78    9.70
   6  16   5   14.00    8.50
   7  16   5  262.07  352.76
  -7  17   5   29.30   10.80
  -6  17   5  538.55   14.70
  -5  17   5    6.40    3.20
  -4  17   5  122.49    7.40
  -3  17   5  224.88   13.10
  -2  17   5  187.88    7.70
  -1  17   5  190.78    7.90
   0  17   5    7.80    4.90
   1  17   5  560.04   12.70
   2  17   5   68.29    6.00
   3  17   5  129.59    9.90
   4  17   5    0.00    8.20
   5  17   5   43.60    6.30
   6  17   5   94.89   10.70
  -7  18   5  396.66   37.90
  -6  18   5  165.68    9.80
  -5  18   5   81.89    6.60
  -4  18   5    0.00    6.40
  -3  18   5   12.50    5.90
  -2  18   5  205.68    8.30
  -1  18   5   69.09    7.90
   0  18   5   12.10    5.40
   1  18   5  812.72   19.70
   2  18   5   26.70    4.60
   3  18   5    8.50    8.90
   4  18   5  155.58   11.10
   5  18   5  414.76   13.70
  -6  19   5    2.00    7.20
  -5  19   5   59.89    6.00
  -4  19   5   39.80   12.20
  -3  19   5    0.00    7.50
  -2  19   5   22.00    4.00
  -1  19   5  144.09   10.30
   0  19   5   14.60    5.70
   1  19   5  201.28   10.70
   2  19   5    1.70    3.30
   3  19   5   20.60   13.10
   4  19   5   76.39   11.80
  -5  20   5  143.89   19.90
  -4  20   5   54.19    9.00
  -3  20   5    1.20    6.90
  -2  20   5    0.10    3.80
  -1  20   5    0.70    5.80
   0  20   5   83.59    9.10
   1  20   5   15.50    8.20
   2  20   5   46.20    6.90
   3  20   5    0.00   10.00
  -3  21   5  150.48  244.48
  -2  21   5   51.69    7.60
  -1  21   5  316.77   14.60
   0  21   5    3.00    6.80
   1  21   5   28.60   17.10
   2  21   5    1.90   12.70
 -12   0   6  208.98   22.00
 -11   0   6   15.70   11.80
 -10   0   6 1220.48   28.00
  -9   0   6    3.90    3.20
  -8   0   6   12.90    6.10
  -7   0   6    1.30    4.70
  -6   0   6   95.79    4.60
  -5   0   6    1.10    1.10
  -4   0   6 2195.08   18.60
  -3   0   6    6.30    2.70
  -2   0   6  754.92   10.20
  -1   0   6    6.90    2.40
   0   0   6    5.10    1.60
   1   0   6    3.70    1.60
   2   0   6 3147.59   24.80
   3   0   6    0.00    3.30
   4   0   6 2052.79   28.20
   5   0   6    2.30    2.10
   6   0   6   97.29   33.20
   7   0   6   29.60    8.50
   8   0   6   59.29    9.80
   9   0   6    3.30    4.40
  10   0   6   11.30    9.50
 -12   1   6    2.50    5.30
 -11   1   6 1272.57   26.50
 -10   1   6   32.10    5.00
  -9   1   6  269.87    7.40
  -8   1   6 1100.49   14.90
  -7   1   6   73.89    6.30
  -6   1   6  690.53    6.70
  -5   1   6  205.28    3.10
  -4   1   6 5206.58   26.00
  -3   1   6  657.13    9.10
  -2   1   6  340.77    4.30
  -1   1   6   62.49    1.90
   0   1   6    8.60    1.30
   1   1   6  450.85    6.00
   2   1   6  211.28    3.60
   3   1   6  122.99    5.30
   4   1   6   25.20    3.60
   5   1   6 2242.68   17.90
   6   1   6    6.20    2.50
   7   1   6  107.39    6.60
   8   1   6    3.90    4.00
   9   1   6   50.59    5.60
  10   1   6   37.70    7.20
 -12   2   6    5.90    8.10
 -11   2   6  186.08   10.40
 -10   2   6   64.19    9.70
  -9   2   6   38.40    3.80
  -8   2   6    9.40    2.80
  -7   2   6  228.18    6.20
  -6   2   6  190.68    3.80
  -5   2   6  184.98    3.00
  -4   2   6  766.32    6.30
  -3   2   6 3530.45   23.00
  -2   2   6  750.42    6.40
  -1   2   6  312.67    4.00
   0   2   6 1602.84   15.70
   1   2   6 1103.09    8.30
   2   2   6   74.59    2.40
   3   2   6   85.49    9.60
   4   2   6 1124.29   19.30
   5   2   6  648.44    8.80
   6   2   6  108.19    5.00
   7   2   6  425.46    9.60
   8   2   6   23.90    8.00
   9   2   6  533.85   12.90
  10   2   6    6.40    6.60
 -12   3   6    7.20    8.50
 -11   3   6    0.00    8.80
 -10   3   6  180.08    8.60
  -9   3   6    2.70    1.80
  -8   3   6   28.80    4.20
  -7   3   6    2.60    2.20
  -6   3   6    6.70    1.40
  -5   3   6  112.09    2.50
  -4   3   6  326.57    4.40
  -3   3   6  381.86    4.60
  -2   3   6 8800.12   41.50
  -1   3   6   28.30    2.50
   0   3   6 2513.55   23.10
   1   3   6  298.97    4.10
   2   3   6  326.87    4.40
   3   3   6  623.54   10.10
   4   3   6  336.17    9.00
   5   3   6  203.88    5.20
   6   3   6   86.09    7.00
   7   3   6  947.21   14.80
   8   3   6  942.61   16.70
   9   3   6  155.38    8.50
  10   3   6  145.49   10.60
 -11   4   6  316.77   20.00
 -10   4   6   97.49    8.40
  -9   4   6   18.70    2.70
  -8   4   6 1020.60   13.50
  -7   4   6   10.70    6.20
  -6   4   6  116.19    4.30
  -5   4   6   41.30    1.90
  -4   4   6  638.94    9.30
  -3   4   6 1772.32   18.30
  -2   4   6  371.46    4.10
  -1   4   6  186.88    3.60
   0   4   6   18.90    1.70
   1   4   6  758.12    6.50
   2   4   6    1.00    0.80
   3   4   6 1194.18   10.70
   4   4   6  320.37    8.30
   5   4   6  164.38    4.80
   6   4   6   75.69    8.80
   7   4   6  268.17    8.20
   8   4   6  122.79   10.50
   9   4   6   39.40    4.80
  10   4   6   53.09   10.40
 -11   5   6  104.29   12.10
 -10   5   6   96.59   10.60
  -9   5   6  323.47    8.00
  -8   5   6    6.20    4.30
  -7   5   6  438.16   19.70
  -6   5   6 1808.12   14.50
  -5   5   6  118.79    3.20
  -4   5   6  678.33    6.30
  -3   5   6   10.90    4.20
  -2   5   6  199.28    3.10
  -1   5   6  130.29    2.70
   0   5   6  136.19    3.70
   1   5   6  424.36    5.80
   2   5   6    3.90    1.00
   3   5   6  173.78    4.20
   4   5   6    0.00    2.40
   5   5   6 4418.16   28.20
   6   5   6   48.10    4.70
   7   5   6  206.88    9.30
   8   5   6  174.78    8.50
   9   5   6  146.59    8.10
  10   5   6  186.58   28.40
 -11   6   6    0.00    9.60
 -10   6   6  199.88    8.60
  -9   6   6  162.28    7.60
  -8   6   6   36.00    5.80
  -7   6   6    6.90    4.10
  -6   6   6  220.68    4.80
  -5   6   6   33.30    2.30
  -4   6   6  257.37   10.10
  -3   6   6  294.37    5.50
  -2   6   6  452.35    5.00
  -1   6   6 1271.77    9.20
   0   6   6 1838.22   18.90
   1   6   6  352.36    5.20
   2   6   6   39.80    2.10
   3   6   6   64.49    4.60
   4   6   6  615.14    9.60
   5   6   6  550.74    9.30
   6   6   6   33.10    7.80
   7   6   6   13.80    3.90
   8   6   6  166.98    8.20
   9   6   6  163.48    9.30
  10   6   6    5.80  155.48
 -11   7   6  960.30   29.80
 -10   7   6   51.09    7.90
  -9   7   6  187.48    7.60
  -8   7   6   19.60    3.60
  -7   7   6  232.28    7.80
  -6   7   6 1337.77   13.30
  -5   7   6 1101.69   11.20
  -4   7   6  301.47   15.70
  -3   7   6  437.86    9.80
  -2   7   6  383.26    4.70
  -1   7   6 1917.21   12.90
   0   7   6  177.08    4.50
   1   7   6    5.60    1.40
   2   7   6  211.28    3.70
   3   7   6 1050.49   20.30
   4   7   6  398.46   14.90
   5   7   6   64.19    4.40
   6   7   6   10.60    5.70
   7   7   6  369.86   12.40
   8   7   6    1.20    5.10
   9   7   6  396.76   12.50
  10   7   6    1.60  162.68
 -11   8   6  224.08   21.70
 -10   8   6  172.08   11.30
  -9   8   6   77.59    6.00
  -8   8   6   30.00    4.30
  -7   8   6  254.37    9.60
  -6   8   6   31.50    3.60
  -5   8   6  130.29    4.30
  -4   8   6   21.40    9.30
  -3   8   6  518.75    8.00
  -2   8   6  405.16    5.00
  -1   8   6  706.43    7.20
   0   8   6  173.48    4.60
   1   8   6  604.34    6.90
   2   8   6  298.67    4.50
   3   8   6 1117.39   11.20
   4   8   6  288.87   11.50
   5   8   6  387.46    8.40
   6   8   6    0.00    3.60
   7   8   6  395.26   11.60
   8   8   6  281.77   10.90
   9   8   6  539.55   14.10
 -11   9   6   58.09   15.20
 -10   9   6   14.50    8.20
  -9   9   6    5.70    2.90
  -8   9   6   34.20    5.10
  -7   9   6   16.90   11.80
  -6   9   6 1200.88   14.20
  -5   9   6   36.70    3.10
  -4   9   6  122.09    6.90
  -3   9   6   40.10   10.20
  -2   9   6  847.72    8.30
  -1   9   6  276.77    5.20
   0   9   6 1203.18   14.70
   1   9   6 2492.65   16.70
   2   9   6  212.28    4.10
   3   9   6   79.29    4.90
   4   9   6  198.18    9.10
   5   9   6  868.71   13.20
   6   9   6   38.50    8.20
   7   9   6   13.50    8.90
   8   9   6  387.66   12.90
   9   9   6  402.86   13.20
 -10  10   6  301.77   16.50
  -9  10   6   16.70    3.70
  -8  10   6   22.90    5.30
  -7  10   6   35.00    6.00
  -6  10   6  118.09    7.60
  -5  10   6   17.70    2.50
  -4  10   6  252.87    7.90
  -3  10   6 1193.18   19.40
  -2  10   6   44.60    2.70
  -1  10   6   11.10    1.90
   0  10   6 1126.59   14.40
   1  10   6  595.34    7.40
   2  10   6   79.99    3.30
   3  10   6  204.18    6.30
   4  10   6   30.90    5.10
   5  10   6  440.06    9.60
   6  10   6    8.80    5.30
   7  10   6  798.62   17.00
   8  10   6   13.80    6.80
   9  10   6    5.40    3.70
 -10  11   6    8.10    7.60
  -9  11   6  336.67   10.50
  -8  11   6   54.79    8.70
  -7  11   6  279.97   10.50
  -6  11   6  471.75    9.30
  -5  11   6   48.20    3.80
  -4  11   6  837.52   11.90
  -3  11   6   81.99    4.90
  -2  11   6  288.87    5.20
  -1  11   6   10.20    2.50
   0  11   6  118.39    4.80
   1  11   6   10.50    2.10
   2  11   6    1.20    1.30
   3  11   6  798.42   13.10
   4  11   6  174.28   12.10
   5  11   6  774.02   13.00
   6  11   6   24.00    5.60
   7  11   6  980.90   21.20
   8  11   6  333.77   12.30
 -10  12   6  108.59   26.50
  -9  12   6   41.80    5.20
  -8  12   6    6.90    5.10
  -7  12   6   23.00    4.90
  -6  12   6  135.89    6.90
  -5  12   6    3.70    2.10
  -4  12   6  451.45   12.60
  -3  12   6 1422.86   17.10
  -2  12   6    2.60    1.70
  -1  12   6    2.90    2.10
   0  12   6  261.97    7.30
   1  12   6  481.05    7.70
   2  12   6   13.80    2.20
   3  12   6 1029.20   15.10
   4  12   6  822.62   15.00
   5  12   6   52.19    4.90
   6  12   6   34.90    6.10
   7  12   6    7.90    6.00
   8  12   6  193.18   11.80
  -9  13   6    9.20    4.00
  -8  13   6  176.68    9.70
  -7  13   6  209.68    9.00
  -6  13   6  220.58    9.20
  -5  13   6   64.29    4.60
  -4  13   6  528.75   11.40
  -3  13   6  271.77   10.30
  -2  13   6  579.14    9.30
  -1  13   6   87.69    5.00
   0  13   6  400.06   10.00
   1  13   6  261.97    6.70
   2  13   6  367.56    8.80
   3  13   6  961.40   18.20
   4  13   6  240.18    9.30
   5  13   6  103.59    6.50
   6  13   6    4.60   11.20
   7  13   6   27.40   10.20
   8  13   6    0.00    8.10
  -9  14   6   18.60    4.80
  -8  14   6  249.58   10.80
  -7  14   6  493.35   13.10
  -6  14   6    0.00    5.30
  -5  14   6    7.40    2.50
  -4  14   6    1.90    4.20
  -3  14   6  206.58    7.90
  -2  14   6  360.96    8.20
  -1  14   6    0.00    7.00
   0  14   6  812.82   15.50
   1  14   6   17.50    4.20
   2  14   6  135.69    7.20
   3  14   6    6.00    7.70
   4  14   6  541.05   20.00
   5  14   6    1.90    3.00
   6  14   6  118.99   11.40
   7  14   6  258.07   12.20
  -9  15   6   16.30    9.30
  -8  15   6  247.28   13.30
  -7  15   6  186.98   12.00
  -6  15   6  151.48    8.40
  -5  15   6   38.10    4.20
  -4  15   6 1869.41   23.80
  -3  15   6   12.30   13.20
  -2  15   6  112.79    6.00
  -1  15   6  277.97   11.80
   0  15   6   28.50    3.80
   1  15   6  628.34   13.40
   2  15   6  214.08    8.30
   3  15   6   43.00    7.30
   4  15   6    0.00    8.50
   5  15   6   41.70    5.30
   6  15   6    0.00   11.50
   7  15   6   75.49  218.98
  -8  16   6   40.40    8.80
  -7  16   6    0.00    5.50
  -6  16   6   16.10    7.60
  -5  16   6    7.00    3.20
  -4  16   6   11.50    7.20
  -3  16   6 1433.06   21.40
  -2  16   6  280.97    8.10
  -1  16   6   34.40    6.80
   0  16   6 1296.77   29.20
   1  16   6   29.70    7.50
   2  16   6  164.98    8.40
   3  16   6  297.37   12.40
   4  16   6   37.10    7.80
   5  16   6  489.95   14.10
   6  16   6   75.69   10.50
  -7  17   6   46.10    7.60
  -6  17   6  513.45   14.50
  -5  17   6   10.70    3.50
  -4  17   6    0.00    5.50
  -3  17   6   24.40    8.60
  -2  17   6  244.68    8.10
  -1  17   6   46.00    8.70
   0  17   6   57.79    7.10
   1  17   6   44.10    7.20
   2  17   6   83.09    6.50
   3  17   6   40.90   10.40
   4  17   6    0.00    7.60
   5  17   6  618.34   15.80
  -7  18   6   74.29  143.59
  -6  18   6   10.80    5.90
  -5  18   6    5.10    3.70
  -4  18   6   24.30   16.90
  -3  18   6  339.17   11.10
  -2  18   6   67.39    5.70
  -1  18   6  262.17   16.10
   0  18   6   71.79    8.00
   1  18   6  122.99   10.80
   2  18   6  193.68    9.60
   3  18   6   12.40    7.30
   4  18   6  246.58   15.20
   5  18   6   12.60    6.80
  -5  19   6   33.00    5.40
  -4  19   6  269.17   13.80
  -3  19   6   42.30    7.70
  -2  19   6  669.23   15.40
  -1  19   6    1.20    6.70
   0  19   6   82.69    8.80
   1  19   6  112.09   10.90
   2  19   6  141.19    9.10
   3  19   6  158.28    9.70
   4  19   6   82.89   12.70
  -4  20   6  388.36   21.80
  -3  20   6   26.80    7.20
  -2  20   6    4.40    3.90
  -1  20   6  112.89   10.00
   0  20   6   14.60    6.40
   1  20   6  124.69   12.80
   2  20   6    3.30    4.60
   3  20   6   41.20   18.70
  -3  21   6   45.80  178.28
  -2  21   6   62.89   10.30
  -1  21   6   91.29   14.40
   0  21   6   15.60   20.20
   1  21   6  219.98   34.90
 -12   0   7    1.10    5.50
 -11   0   7  273.37   31.90
 -10   0   7    3.10   10.70
  -9   0   7   11.70    4.20
  -8   0   7    3.70    4.30
  -7   0   7  134.49    6.20
  -6   0   7    1.30    2.00
  -5   0   7   69.19    3.30
  -4   0   7    0.00   15.20
  -3   0   7 2248.88   43.60
  -2   0   7    3.40    1.40
  -1   0   7  500.75    6.40
   0   0   7    3.00    2.30
   1   0   7 5251.77   37.40
   2   0   7    3.50    1.30
   3   0   7  582.04   32.40
   4   0   7   36.50   12.30
   5   0   7  279.37    8.40
   6   0   7    3.30    3.70
   7   0   7   27.00    5.20
   8   0   7    0.00    8.60
   9   0   7  168.78   13.40
  10   0   7   25.80   24.00
 -12   1   7   65.69    8.40
 -11   1   7   38.30    6.90
 -10   1   7   23.30    5.00
  -9   1   7  243.98    8.10
  -8   1   7   26.30    5.00
  -7   1   7  734.03   10.20
  -6   1   7  766.92    9.20
  -5   1   7  212.68    3.30
  -4   1   7  104.19    5.00
  -3   1   7    0.00    7.20
  -2   1   7  467.15    5.50
  -1   1   7 1543.95   10.60
   0   1   7  160.48    4.00
   1   1   7  153.68    3.20
   2   1   7  257.37    3.60
   3   1   7  244.48    5.80
   4   1   7 2388.56   19.80
   5   1   7  509.45    7.90
   6   1   7   69.49    6.40
   7   1   7  836.72   19.90
   8   1   7    6.90    5.90
   9   1   7   50.39    5.80
  10   1   7   31.90   12.10
 -12   2   7  133.19   13.50
 -11   2   7   35.60   12.00
 -10   2   7  582.64   13.10
  -9   2   7  248.88    8.20
  -8   2   7   20.50    3.90
  -7   2   7  347.17    9.00
  -6   2   7 1355.66   12.40
  -5   2   7  100.39    2.90
  -4   2   7   32.40    2.40
  -3   2   7  390.46    8.60
  -2   2   7  360.86    4.30
  -1   2   7  299.37    4.50
   0   2   7  881.91   10.40
   1   2   7  469.25    5.10
   2   2   7   48.70    2.30
   3   2   7  607.24    9.60
   4   2   7  163.38   15.90
   5   2   7  845.92   10.40
   6   2   7   16.40    3.20
   7   2   7   28.30    6.40
   8   2   7  133.89   12.50
   9   2   7   53.89    6.00
  10   2   7    9.10   11.80
 -12   3   7   51.59   15.40
 -11   3   7    0.00   23.30
 -10   3   7   20.30    5.10
  -9   3   7    5.80    2.20
  -8   3   7   23.10    4.30
  -7   3   7  420.16    8.60
  -6   3   7  390.76    6.60
  -5   3   7   35.00    1.90
  -4   3   7 1120.19    8.90
  -3   3   7  468.65    5.00
  -2   3   7    3.40    1.00
  -1   3   7  309.07    4.20
   0   3   7 1124.39   12.60
   1   3   7  355.16    6.40
   2   3   7   37.90    2.20
   3   3   7  147.39    5.10
   4   3   7   83.49    5.90
   5   3   7  491.35    7.80
   6   3   7   17.90    3.70
   7   3   7  343.17    9.50
   8   3   7   79.29    7.90
   9   3   7  775.02   15.00
  10   3   7   24.60   17.60
 -12   4   7   13.20   17.00
 -11   4   7  475.65   25.20
 -10   4   7    0.00    9.10
  -9   4   7   20.50    3.10
  -8   4   7   68.09   12.20
  -7   4   7  125.99    7.60
  -6   4   7   21.90    3.00
  -5   4   7  319.57    4.40
  -4   4   7   18.70    2.90
  -3   4   7  151.78    5.70
  -2   4   7  608.34    5.60
  -1   4   7  101.49    2.80
   0   4   7  146.69    3.90
   1   4   7   99.79    2.90
   2   4   7  192.98    3.70
   3   4   7 2361.66   17.90
   4   4   7  229.88   12.50
   5   4   7   16.50    2.40
   6   4   7  186.38    7.40
   7   4   7    2.70    6.00
   8   4   7  170.18    9.70
   9   4   7  175.18    8.80
 -12   5   7  358.96   45.70
 -11   5   7  129.59   14.10
 -10   5   7    0.00   11.00
  -9   5   7  123.29    6.60
  -8   5   7   20.60    8.80
  -7   5   7   33.80    3.90
  -6   5   7 1229.18   13.20
  -5   5   7  409.46    5.60
  -4   5   7    6.00    1.80
  -3   5   7 3071.99   19.00
  -2   5   7   42.00    2.00
  -1   5   7  696.43    7.40
   0   5   7    9.60    1.60
   1   5   7  794.52    7.40
   2   5   7 1854.41   13.50
   3   5   7  393.86    7.50
   4   5   7  660.83    9.50
   5   5   7    8.70    2.00
   6   5   7    7.80   20.40
   7   5   7   36.20    5.30
   8   5   7   36.90    6.20
   9   5   7  312.07   10.30
 -11   6   7  170.38   17.40
 -10   6   7   11.30    5.30
  -9   6   7    1.80    2.40
  -8   6   7  420.86   11.50
  -7   6   7  319.87   10.10
  -6   6   7  391.66    6.90
  -5   6   7    3.60    1.30
  -4   6   7 2801.02   27.60
  -3   6   7  224.98    7.20
  -2   6   7  246.38    3.80
  -1   6   7 1697.13   12.30
   0   6   7   32.60    2.30
   1   6   7    2.90    1.30
   2   6   7  154.88    3.80
   3   6   7 1224.18   14.80
   4   6   7   20.30    6.60
   5   6   7 1609.24   16.80
   6   6   7    0.00    6.00
   7   6   7  638.24   13.90
   8   6   7  111.29    7.80
   9   6   7   16.60    4.30
 -11   7   7    3.00    9.90
 -10   7   7  325.07   10.70
  -9   7   7  191.48    8.10
  -8   7   7    6.00    4.80
  -7   7   7  194.78   20.60
  -6   7   7   27.70    3.50
  -5   7   7    6.70    1.70
  -4   7   7  343.17    5.50
  -3   7   7  147.59    3.60
  -2   7   7  824.62    7.50
  -1   7   7   64.09    2.70
   0   7   7  276.37    5.90
   1   7   7   93.79    3.00
   2   7   7  218.58    4.40
   3   7   7  211.38    5.70
   4   7   7  588.84   10.40
   5   7   7  853.51   13.00
   6   7   7    2.70    4.00
   7   7   7   33.80    5.70
   8   7   7    0.40    5.50
   9   7   7   10.00    4.00
 -11   8   7  191.98   20.20
 -10   8   7    0.00    5.10
  -9   8   7    8.00    3.00
  -8   8   7 1549.64   22.40
  -7   8   7  137.09    7.00
  -6   8   7  524.45   11.00
  -5   8   7    3.20    1.60
  -4   8   7  350.86    9.60
  -3   8   7   17.10    4.00
  -2   8   7    6.60    1.40
  -1   8   7  157.98    4.40
   0   8   7   94.59    3.60
   1   8   7   70.09    3.70
   2   8   7  195.38    4.40
   3   8   7  862.81   12.00
   4   8   7   11.00    4.00
   5   8   7 1253.37   16.20
   6   8   7   11.00    4.40
   7   8   7   27.60    5.30
   8   8   7   33.80    9.50
   9   8   7  137.29    9.10
 -11   9   7   61.69   21.70
 -10   9   7   59.39    9.30
  -9   9   7  109.29    7.30
  -8   9   7  523.85   12.80
  -7   9   7   35.80    5.00
  -6   9   7   20.50    4.70
  -5   9   7  198.28    5.60
  -4   9   7   23.60    3.40
  -3   9   7 2175.98   20.30
  -2   9   7 4086.89   23.50
  -1   9   7  348.17    6.70
   0   9   7  866.31   12.20
   1   9   7  764.52    7.90
   2   9   7  180.78    4.50
   3   9   7  165.58    5.60
   4   9   7   45.10    5.40
   5   9   7    4.30    2.60
   6   9   7    1.80    4.10
   7   9   7  206.68    8.90
   8   9   7   17.00    7.10
   9   9   7    2.50    6.40
 -10  10   7   58.89    8.50
  -9  10   7  327.67   10.50
  -8  10   7  127.89   11.20
  -7  10   7  168.78    7.50
  -6  10   7   81.59    5.40
  -5  10   7  168.08    5.60
  -4  10   7   50.19    4.30
  -3  10   7   88.89    4.50
  -2  10   7  675.03    7.80
  -1  10   7  159.48    5.00
   0  10   7   52.29    3.20
   1  10   7  206.28    5.00
   2  10   7    3.50    1.50
   3  10   7   27.20    7.20
   4  10   7  157.28   12.60
   5  10   7  284.77    9.10
   6  10   7   75.39    7.70
   7  10   7  532.65   15.20
   8  10   7  169.58   10.30
 -10  11   7  155.18   10.70
  -9  11   7    5.70    3.40
  -8  11   7   87.69    7.10
  -7  11   7   46.70    7.00
  -6  11   7  140.29    6.70
  -5  11   7   15.50    2.60
  -4  11   7  623.54   13.70
  -3  11   7   94.09    4.80
  -2  11   7  311.97    5.60
  -1  11   7   51.89    3.30
   0  11   7  316.37    7.90
   1  11   7   54.09    5.40
   2  11   7  302.37    5.90
   3  11   7   68.59    4.90
   4  11   7  533.15   11.90
   5  11   7 1119.49   17.40
   6  11   7   93.89   13.40
   7  11   7   41.40    6.20
   8  11   7    6.00    6.60
 -10  12   7  335.47   53.09
  -9  12   7   35.30    5.00
  -8  12   7   29.20    5.60
  -7  12   7  142.49   20.10
  -6  12   7 1477.55   21.50
  -5  12   7  110.89    5.90
  -4  12   7 2528.35   24.50
  -3  12   7   51.99    5.00
  -2  12   7  173.68    5.00
  -1  12   7    9.20    3.00
   0  12   7    2.20    2.30
   1  12   7   56.99    4.90
   2  12   7  342.67    8.00
   3  12   7  260.37    7.80
   4  12   7   90.69   12.50
   5  12   7  290.57    9.40
   6  12   7   34.30    8.30
   7  12   7    0.50    5.20
   8  12   7   14.30   10.30
  -9  13   7   62.79    6.80
  -8  13   7    6.80    6.70
  -7  13   7   11.40    7.00
  -6  13   7   36.10    6.80
  -5  13   7   38.40    4.00
  -4  13   7  537.85   11.10
  -3  13   7    0.00    5.20
  -2  13   7   46.40    3.80
  -1  13   7   78.29    5.50
   0  13   7   68.79    4.60
   1  13   7  143.49    8.70
   2  13   7   17.40    3.30
   3  13   7   12.60    7.50
   4  13   7  690.23   16.80
   5  13   7  146.99    7.80
   6  13   7  173.58   11.00
   7  13   7   39.70   14.00
  -9  14   7   72.39    9.80
  -8  14   7  107.19    9.10
  -7  14   7   27.20    5.60
  -6  14   7  349.27   10.30
  -5  14   7   14.20    3.10
  -4  14   7   57.49    7.10
  -3  14   7  360.06    9.70
  -2  14   7   66.49    4.80
  -1  14   7    3.00    3.50
   0  14   7   95.79    5.50
   1  14   7 1913.11   23.50
   2  14   7    3.60    2.60
   3  14   7  146.19   17.30
   4  14   7    2.80    6.10
   5  14   7   56.59    6.30
   6  14   7   18.50    7.80
   7  14   7  529.45   20.80
  -8  15   7   51.49    8.30
  -7  15   7  192.68    8.90
  -6  15   7  162.98    8.50
  -5  15   7  143.99    7.60
  -4  15   7   63.99   12.50
  -3  15   7   28.00    5.60
  -2  15   7 1132.39   16.20
  -1  15   7  208.28   11.70
   0  15   7  557.04   13.10
   1  15   7  273.17    9.70
   2  15   7    3.90    2.90
   3  15   7   83.59   10.20
   4  15   7  184.08   10.00
   5  15   7   24.40    5.10
   6  15   7    0.00    7.80
  -8  16   7  307.37   21.10
  -7  16   7   93.59   11.30
  -6  16   7   69.59    9.70
  -5  16   7   22.80    4.20
  -4  16   7  240.78    9.80
  -3  16   7  194.08   19.90
  -2  16   7   97.89    6.30
  -1  16   7  357.46    9.90
   0  16   7   34.90    6.00
   1  16   7  250.57    9.60
   2  16   7   46.90    5.20
   3  16   7   51.69    8.40
   4  16   7   69.49    9.20
   5  16   7  152.18   10.70
  -7  17   7   14.80   12.10
  -6  17   7  306.77   13.80
  -5  17   7    3.70    3.40
  -4  17   7  171.78   10.80
  -3  17   7  124.59    9.00
  -2  17   7    2.20    2.50
  -1  17   7   54.29    7.30
   0  17   7   46.30    6.60
   1  17   7    0.30    6.20
   2  17   7  222.58    9.70
   3  17   7  152.58    9.30
   4  17   7    5.60    7.00
   5  17   7 1228.88   27.40
  -6  18   7   43.60   12.50
  -5  18   7   13.30    4.10
  -4  18   7 1097.89   20.70
  -3  18   7  199.88    9.10
  -2  18   7   54.59    5.30
  -1  18   7   47.10    8.00
   0  18   7  127.59    9.80
   1  18   7   11.70    6.80
   2  18   7   10.60    4.10
   3  18   7  187.08   10.20
   4  18   7  123.29   14.30
  -5  19   7  142.89   10.30
  -4  19   7   49.30    7.60
  -3  19   7  480.05   14.20
  -2  19   7   71.09    6.80
  -1  19   7   54.49    8.80
   0  19   7    5.30    7.00
   1  19   7   59.49    9.10
   2  19   7   63.89    7.10
   3  19   7   60.99   14.00
  -4  20   7  182.68   22.10
  -3  20   7   71.79   11.30
  -2  20   7    4.40    4.10
  -1  20   7  175.28   12.40
   0  20   7   39.20    9.70
   1  20   7  133.19   13.00
   2  20   7    2.10    7.20
  -2  21   7  201.58   32.30
  -1  21   7   57.69   16.20
   1  21   7   46.90   30.80
 -12   0   8    1.80    6.70
 -11   0   8    6.00    8.10
 -10   0   8   45.00    8.30
  -9   0   8    1.60    3.40
  -8   0   8  853.81   20.80
  -7   0   8  179.28   38.00
  -6   0   8 2049.49   26.20
  -5   0   8    0.40    1.50
  -4   0   8 3629.64   35.20
  -3   0   8    5.50    3.90
  -2   0   8 2278.77   20.20
  -1   0   8   15.50   29.60
   0   0   8   83.59    5.20
   1   0   8   39.90   12.20
   2   0   8  349.17    8.00
   3   0   8    0.00    4.50
   4   0   8  534.35   15.00
   5   0   8    1.60    2.10
   6   0   8  211.48   10.10
   7   0   8   31.30   10.20
   8   0   8   26.60   27.00
   9   0   8    2.10    4.60
  10   0   8  456.05  396.46
 -12   1   8  166.08   14.40
 -11   1   8   77.99   10.20
 -10   1   8  127.99    8.10
  -9   1   8    8.10    2.80
  -8   1   8  175.38    6.20
  -7   1   8  145.49    4.90
  -6   1   8  456.25    7.00
  -5   1   8   31.80    2.30
  -4   1   8  272.87    6.10
  -3   1   8  319.37    6.20
  -2   1   8  692.83    7.00
  -1   1   8   73.69    2.40
   0   1   8   22.40    1.70
   1   1   8  105.59    5.90
   2   1   8  138.79    3.50
   3   1   8  556.64   14.60
   4   1   8   91.09   11.90
   5   1   8  155.28    5.30
   6   1   8    9.40    4.10
   7   1   8    0.00    6.40
   8   1   8  110.49   13.00
   9   1   8    3.40    3.50
  10   1   8  395.46  733.93
 -12   2   8   59.59    9.20
 -11   2   8  162.88   11.40
 -10   2   8   34.20    5.10
  -9   2   8  373.96    9.60
  -8   2   8   45.90    7.50
  -7   2   8   21.20    7.70
  -6   2   8   37.60    3.10
  -5   2   8  444.66    6.40
  -4   2   8   25.30    3.50
  -3   2   8 1388.46   12.20
  -2   2   8  447.86    5.10
  -1   2   8   56.99    2.70
   0   2   8  657.63    8.90
   1   2   8  674.93    9.00
   2   2   8  164.98    3.80
   3   2   8  671.43   13.40
   4   2   8  206.68    8.00
   5   2   8  237.28    6.10
   6   2   8    9.20    4.50
   7   2   8  910.61   19.70
   8   2   8   59.59    6.70
   9   2   8   18.60    4.40
 -12   3   8    5.10    6.40
 -11   3   8    0.00   14.00
 -10   3   8   26.20    5.60
  -9   3   8    6.40    2.40
  -8   3   8 1279.27   16.90
  -7   3   8   47.80    3.80
  -6   3   8  318.47    6.30
  -5   3   8  410.76    6.20
  -4   3   8    0.00    8.00
  -3   3   8  667.33   10.00
  -2   3   8  874.11    7.30
  -1   3   8 2346.17   14.70
   0   3   8  307.77    5.70
   1   3   8 1572.44   10.70
   2   3   8    3.70    1.30
   3   3   8  913.01   11.30
   4   3   8  505.15   10.20
   5   3   8   88.49    4.70
   6   3   8  122.69    6.10
   7   3   8    6.30    5.50
   8   3   8    2.80    6.20
   9   3   8    4.10    3.60
 -12   4   8  132.89   21.60
 -11   4   8   97.19   23.80
 -10   4   8    0.00    5.20
  -9   4   8   68.69    4.90
  -8   4   8  509.25   12.20
  -7   4   8 1135.99   17.10
  -6   4   8   68.79    4.30
  -5   4   8   24.80    2.20
  -4   4   8    7.10    3.30
  -3   4   8   15.40    9.10
  -2   4   8  214.38    3.30
  -1   4   8  324.57    4.50
   0   4   8  216.18    4.90
   1   4   8   45.10    3.30
   2   4   8  776.72    8.40
   3   4   8  535.65   11.10
   4   4   8    6.00    3.00
   5   4   8 1934.11   17.50
   6   4   8   10.20    7.40
   7   4   8  194.38    9.30
   8   4   8   12.60   10.90
   9   4   8  704.43   15.90
 -11   5   8   60.69   13.30
 -10   5   8  334.87   11.90
  -9   5   8  206.58    7.40
  -8   5   8    0.00    6.40
  -7   5   8    3.20    3.70
  -6   5   8  738.63   12.90
  -5   5   8    9.20    1.90
  -4   5   8 1046.70   10.50
  -3   5   8   24.00    3.80
  -2   5   8    3.30    1.10
  -1   5   8  154.88    3.90
   0   5   8    9.00    1.70
   1   5   8  701.93    7.40
   2   5   8    2.70    1.30
   3   5   8   39.90   13.90
   4   5   8  375.46   11.80
   5   5   8   27.30    2.80
   6   5   8   60.49    7.30
   7   5   8  248.48    9.60
   8   5   8  168.68   10.20
   9   5   8    9.20    3.60
 -11   6   8  122.49   15.10
 -10   6   8  203.78    9.00
  -9   6   8   30.60    4.10
  -8   6   8    8.50    5.80
  -7   6   8  766.42   17.80
  -6   6   8   33.70    4.40
  -5   6   8   99.89    4.70
  -4   6   8 4607.44   27.30
  -3   6   8  212.78    4.90
  -2   6   8  124.49    3.10
  -1   6   8   23.40    2.00
   0   6   8  348.57    6.70
   1   6   8   27.30    2.40
   2   6   8  602.84    7.30
   3   6   8  479.15    8.20
   4   6   8   66.49    4.30
   5   6   8   17.20    2.90
   6   6   8   60.09   11.80
   7   6   8 1058.29   23.30
   8   6   8  329.17   18.50
   9   6   8    7.30    4.20
 -11   7   8   23.30   12.10
 -10   7   8  109.59   10.40
  -9   7   8  189.98    8.10
  -8   7   8   11.30    6.70
  -7   7   8   40.80    5.50
  -6   7   8  123.39    6.10
  -5   7   8   22.10    2.60
  -4   7   8   94.29    4.40
  -3   7   8 2640.44   21.60
  -2   7   8  251.47    4.20
  -1   7   8    2.80    1.40
   0   7   8   20.00    2.30
   1   7   8 4032.70   22.40
   2   7   8  170.08    4.30
   3   7   8   45.40    6.30
   4   7   8   40.10    4.90
   5   7   8   55.89    4.60
   6   7   8   16.60    6.50
   7   7   8    7.30    4.60
   8   7   8   11.40    7.10
   9   7   8  210.68   11.50
 -11   8   8  544.15   35.80
 -10   8   8    3.50    5.70
  -9   8   8   31.10    4.30
  -8   8   8  237.68    9.60
  -7   8   8  768.42   14.60
  -6   8   8  107.59    7.60
  -5   8   8  313.97    6.70
  -4   8   8  283.97    9.80
  -3   8   8   56.89    9.50
  -2   8   8  655.43    7.10
  -1   8   8  262.27    4.80
   0   8   8  606.34    9.80
   1   8   8  372.66    5.70
   2   8   8  251.87    5.00
   3   8   8 4201.08   32.00
   4   8   8   29.30   10.60
   5   8   8    3.50    2.40
   6   8   8  203.78   11.80
   7   8   8  158.38   13.00
   8   8   8    1.10    5.40
   9   8   8  174.18   20.80
 -11   9   8   16.20  205.88
 -10   9   8  167.28    9.00
  -9   9   8   25.30    4.20
  -8   9   8  437.36   13.80
  -7   9   8   46.80    5.70
  -6   9   8   22.50    7.40
  -5   9   8   40.20    3.50
  -4   9   8  361.96    8.20
  -3   9   8   99.09    4.70
  -2   9   8  112.79    4.10
  -1   9   8   21.20    2.80
   0   9   8   11.20    2.30
   1   9   8  121.59    4.50
   2   9   8   37.50    2.80
   3   9   8    0.00   10.20
   4   9   8  217.08    8.80
   5   9   8  341.17    9.50
   6   9   8    6.00    4.80
   7   9   8   27.80    7.40
   8   9   8   23.50    7.60
 -10  10   8  136.19    8.70
  -9  10   8  202.68    9.20
  -8  10   8  153.28    8.60
  -7  10   8  582.84   13.00
  -6  10   8   38.00    5.70
  -5  10   8   33.00    3.50
  -4  10   8  578.74   11.10
  -3  10   8    1.40    5.30
  -2  10   8  314.37    5.70
  -1  10   8  113.29    4.70
   0  10   8  735.73   11.50
   1  10   8  109.99    4.40
   2  10   8   19.60    2.30
   3  10   8   45.40    8.40
   4  10   8    5.20    5.80
   5  10   8 1611.84   21.50
   6  10   8   43.20    6.50
   7  10   8  201.08   12.60
   8  10   8  158.58   11.30
 -10  11   8   57.39    8.60
  -9  11   8   50.89    5.50
  -8  11   8  204.98    9.90
  -7  11   8   48.60    5.80
  -6  11   8  617.64   12.60
  -5  11   8  467.55    9.30
  -4  11   8   87.19    7.20
  -3  11   8  159.48   11.10
  -2  11   8   10.00    2.00
  -1  11   8 1998.90   16.00
   0  11   8   62.09    4.00
   1  11   8    2.00    2.70
   2  11   8   43.90    3.20
   3  11   8  686.53   15.00
   4  11   8  919.11   23.50
   5  11   8  281.97    9.50
   6  11   8   11.80    6.70
   7  11   8   14.80    7.40
   8  11   8   36.40   14.60
  -9  12   8   88.29    7.20
  -8  12   8  285.57   11.30
  -7  12   8  110.79    6.60
  -6  12   8   17.80    5.80
  -5  12   8  441.46    9.30
  -4  12   8  124.09    7.70
  -3  12   8   88.79   12.90
  -2  12   8   25.10    2.80
  -1  12   8  284.37    6.50
   0  12   8   38.70    3.60
   1  12   8  122.19    8.80
   2  12   8  154.18    6.80
   3  12   8   65.59   10.80
   4  12   8   77.09    6.50
   5  12   8  262.97    9.30
   6  12   8   18.90    8.00
   7  12   8  107.89   10.50
  -9  13   8   13.20    4.50
  -8  13   8  145.99   10.00
  -7  13   8    0.00    4.70
  -6  13   8  868.91   16.30
  -5  13   8   37.60    4.00
  -4  13   8   95.39    5.70
  -3  13   8  287.47   15.10
  -2  13   8  130.59    6.20
  -1  13   8  733.63   11.30
   0  13   8    8.90    3.00
   1  13   8  708.93   12.60
   2  13   8   97.49    6.10
   3  13   8  483.55   14.80
   4  13   8  134.69   10.40
   5  13   8   28.00    4.50
   6  13   8    0.00    8.20
   7  13   8  186.68   10.40
  -9  14   8   34.80   10.40
  -8  14   8    5.00    5.10
  -7  14   8    4.30    8.10
  -6  14   8  616.94   14.30
  -5  14   8   18.80    3.40
  -4  14   8   28.50   10.90
  -3  14   8  192.88    7.60
  -2  14   8   46.20    4.40
  -1  14   8  109.09   15.00
   0  14   8  526.55   12.50
   1  14   8  296.97   10.30
   2  14   8   25.90    4.00
   3  14   8  653.53   14.80
   4  14   8  207.78   12.80
   5  14   8  394.96   12.70
   6  14   8    7.90    6.50
  -8  15   8   11.40    7.40
  -7  15   8    0.00    5.00
  -6  15   8  430.66   13.30
  -5  15   8    1.80    2.60
  -4  15   8  171.18   10.60
  -3  15   8   73.89    7.00
  -2  15   8   67.39    5.30
  -1  15   8   23.10    7.50
   0  15   8  281.47    9.40
   1  15   8  313.77   11.00
   2  15   8   94.89    6.80
   3  15   8   34.70   10.20
   4  15   8  255.97   14.20
   5  15   8  153.48   10.00
   6  15   8   17.90   14.20
  -8  16   8  250.77  210.98
  -7  16   8   89.39   17.60
  -6  16   8   18.40    6.10
  -5  16   8  249.38    9.50
  -4  16   8  604.94   14.70
  -3  16   8  136.19   11.20
  -2  16   8  333.87    9.40
  -1  16   8    0.00    6.70
   0  16   8    2.20    5.80
   1  16   8    2.90    4.80
   2  16   8   53.49    5.60
   3  16   8   94.89    8.30
   4  16   8  151.18   12.90
   5  16   8   88.79    8.60
  -7  17   8   14.70  213.28
  -6  17   8   62.89    8.70
  -5  17   8    0.70    2.90
  -4  17   8  134.49    8.30
  -3  17   8  268.67   10.90
  -2  17   8  187.48    8.30
  -1  17   8  305.57   11.20
   0  17   8    8.40    6.60
   1  17   8  852.01   19.30
   2  17   8  106.19    7.50
   3  17   8   17.90    9.80
   4  17   8  456.85   15.20
   5  17   8   62.59   22.10
  -6  18   8  100.99   19.40
  -5  18   8    1.90    3.20
  -4  18   8   90.79   10.10
  -3  18   8   38.40    6.80
  -2  18   8  282.47    9.50
  -1  18   8   14.70    6.50
   0  18   8   18.10    7.40
   1  18   8    1.90    7.70
   2  18   8   25.40    4.80
   3  18   8    0.00    8.10
   4  18   8    0.00   24.40
  -5  19   8   26.70   22.00
  -4  19   8  235.78   11.90
  -3  19   8    3.60    8.40
  -2  19   8   46.20    6.30
  -1  19   8   23.00    7.40
   0  19   8   18.40    8.30
   1  19   8  248.78   15.50
   2  19   8   70.99    8.60
   3  19   8   47.60   21.50
  -3  20   8   39.20   19.20
  -2  20   8    3.20    5.30
  -1  20   8   39.10   10.40
   0  20   8  738.53   38.40
   1  20   8    0.00   32.20
   2  20   8    8.50   17.70
 -12   0   9    4.10    5.80
 -11   0   9  170.58   24.30
 -10   0   9    0.00    6.90
  -9   0   9   98.79    9.30
  -8   0   9    6.80    7.00
  -7   0   9    0.60    3.60
  -6   0   9    5.60    3.20
  -5   0   9  637.14   11.50
  -4   0   9   29.70   21.10
  -3   0   9 2378.36   33.10
  -2   0   9    1.00    1.40
  -1   0   9 1111.99   13.30
   0   0   9    5.00    2.70
   1   0   9 5387.46   47.90
   2   0   9    2.10    2.00
   3   0   9  861.61   29.40
   4   0   9    4.40    4.40
   5   0   9   55.79    5.60
   6   0   9    0.60    3.70
   7   0   9  534.35   15.30
   8   0   9    0.00   10.10
   9   0   9   37.40    8.00
 -12   1   9    2.30    4.80
 -11   1   9  263.87   11.50
 -10   1   9   33.30    6.20
  -9   1   9   42.80    4.80
  -8   1   9    4.70    3.50
  -7   1   9  496.35   11.00
  -6   1   9 1546.45   14.50
  -5   1   9   11.90    1.90
  -4   1   9   82.59    3.80
  -3   1   9   64.39    5.30
  -2   1   9   11.80    1.60
  -1   1   9 1194.48    9.60
   0   1   9  377.06    6.50
   1   1   9  849.52    9.00
   2   1   9   20.60    2.20
   3   1   9 3059.09   23.50
   4   1   9   11.40    7.60
   5   1   9   76.29    4.50
   6   1   9    2.50    3.20
   7   1   9  240.18   14.20
   8   1   9  318.37   12.40
   9   1   9    9.40    4.20
 -12   2   9   35.90    8.90
 -11   2   9    0.00    9.80
 -10   2   9  187.98    9.20
  -9   2   9    1.20    2.50
  -8   2   9  647.64   12.50
  -7   2   9   83.59    5.30
  -6   2   9  105.19    4.70
  -5   2   9   27.70    2.50
  -4   2   9 1686.53   20.10
  -3   2   9  248.48    9.00
  -2   2   9   56.29    2.80
  -1   2   9  996.80   10.40
   0   2   9 1529.35   16.60
   1   2   9  130.99    4.30
   2   2   9    2.50    1.40
   3   2   9    0.00    6.10
   4   2   9  349.57    9.00
   5   2   9  430.96    8.00
   6   2   9    3.10    3.30
   7   2   9   30.80    5.70
   8   2   9  698.63   16.20
   9   2   9  474.45   13.40
 -11   3   9  104.69   14.20
 -10   3   9  267.97   11.50
  -9   3   9  298.97    8.40
  -8   3   9  402.96    9.70
  -7   3   9  994.10   13.90
  -6   3   9   12.40    2.80
  -5   3   9   11.40    1.90
  -4   3   9  472.95    9.30
  -3   3   9  135.29    5.70
  -2   3   9   27.80    1.90
  -1   3   9   38.30    4.60
   0   3   9    3.20    1.50
   1   3   9  327.97    5.40
   2   3   9   93.19    3.60
   3   3   9   20.80   10.90
   4   3   9  274.27    9.00
   5   3   9 2492.25   21.20
   6   3   9   30.50    5.60
   7   3   9   52.79    6.10
   8   3   9  165.98    9.90
   9   3   9   23.00    5.30
 -11   4   9   19.40   10.20
 -10   4   9  420.36   14.70
  -9   4   9   57.89    5.00
  -8   4   9 2377.16   26.40
  -7   4   9   51.39   10.00
  -6   4   9  206.28    7.00
  -5   4   9  489.05    7.20
  -4   4   9  306.17    8.80
  -3   4   9   99.99   15.50
  -2   4   9  267.67    4.40
  -1   4   9 1790.02   12.10
   0   4   9  510.55    8.30
   1   4   9   55.89    3.60
   2   4   9  100.89    3.90
   3   4   9  753.52   16.60
   4   4   9  377.16    8.40
   5   4   9   33.70    3.30
   6   4   9    6.50    7.40
   7   4   9   41.20   10.70
   8   4   9   99.09   11.40
   9   4   9   57.29    6.30
 -11   5   9   34.70   12.40
 -10   5   9  278.67   11.80
  -9   5   9  230.08    8.00
  -8   5   9   29.20    8.10
  -7   5   9  313.97   11.40
  -6   5   9   80.79    5.20
  -5   5   9   53.39    3.40
  -4   5   9   11.80    2.60
  -3   5   9  200.18    7.50
  -2   5   9 1846.12   13.70
  -1   5   9  217.18    4.90
   0   5   9   86.19    3.40
   1   5   9 4409.76   26.40
   2   5   9   81.59    3.70
   3   5   9   10.00    6.00
   4   5   9   63.49    4.40
   5   5   9  598.44    9.50
   6   5   9   59.69    6.00
   7   5   9   44.70    6.70
   8   5   9  151.68   11.30
   9   5   9   19.40    5.90
 -11   6   9    0.00   13.90
 -10   6   9  122.69    7.80
  -9   6   9  174.48    7.90
  -8   6   9  136.39    9.20
  -7   6   9 1114.49   16.90
  -6   6   9  353.46    9.00
  -5   6   9  605.54    9.60
  -4   6   9  283.97    9.50
  -3   6   9  650.53   14.50
  -2   6   9   90.29    3.40
  -1   6   9  125.09    3.50
   0   6   9   26.20    2.40
   1   6   9  839.32   10.90
   2   6   9  128.59    4.10
   3   6   9 1009.60   14.90
   4   6   9   81.09    5.40
   5   6   9   30.60    3.50
   6   6   9  105.89    7.00
   7   6   9 1100.19   22.20
   8   6   9   24.90   10.20
   9   6   9   73.69   14.10
 -11   7   9   18.50   12.60
 -10   7   9   21.80    6.00
  -9   7   9    6.50    2.90
  -8   7   9   21.40    5.30
  -7   7   9   42.50   13.40
  -6   7   9 1803.92   20.10
  -5   7   9    0.50    1.90
  -4   7   9 1446.96   16.40
  -3   7   9  109.19    5.40
  -2   7   9   76.09    3.30
  -1   7   9   12.70    3.60
   0   7   9 1807.72   20.20
   1   7   9 1153.08   11.70
   2   7   9    8.50    1.80
   3   7   9  106.29    5.60
   4   7   9    5.80    6.10
   5   7   9   75.19    5.40
   6   7   9   13.70    6.00
   7   7   9   22.70    6.80
   8   7   9  531.25   17.60
   9   7   9   24.80   13.50
 -11   8   9  146.49  144.99
 -10   8   9   16.10    6.20
  -9   8   9   24.50    4.20
  -8   8   9  367.16   11.00
  -7   8   9  564.74   20.40
  -6   8   9  816.32   15.00
  -5   8   9  423.46    8.50
  -4   8   9  703.83   13.60
  -3   8   9  396.66   11.70
  -2   8   9   14.10    1.90
  -1   8   9   37.60    3.50
   0   8   9 1388.56   17.00
   1   8   9   80.19    6.80
   2   8   9  132.69    4.50
   3   8   9   78.29   12.50
   4   8   9  182.08    9.00
   5   8   9   25.00    3.60
   6   8   9  112.09    9.20
   7   8   9   47.00   14.90
   8   8   9   40.80    8.10
 -10   9   9    0.00    6.10
  -9   9   9    6.10    3.30
  -8   9   9   12.20    5.30
  -7   9   9  311.27   15.30
  -6   9   9  700.93   14.00
  -5   9   9   40.00    4.00
  -4   9   9  384.66   10.60
  -3   9   9   20.40    4.90
  -2   9   9   10.90    2.00
  -1   9   9  461.25    6.90
   0   9   9  359.76    7.70
   1   9   9 2894.31   21.40
   2   9   9  150.18    4.70
   3   9   9  115.89    5.70
   4   9   9    4.20    7.10
   5   9   9   23.00    3.90
   6   9   9  290.97   14.70
   7   9   9   70.39    7.10
   8   9   9   16.40   98.69
 -10  10   9  571.94   15.80
  -9  10   9   71.39    6.50
  -8  10   9 1306.67   20.50
  -7  10   9   72.99    7.60
  -6  10   9    7.10    4.90
  -5  10   9  127.09    6.60
  -4  10   9   58.09    5.50
  -3  10   9  309.87    8.00
  -2  10   9   67.59    3.70
  -1  10   9   11.40    3.20
   0  10   9  167.08    5.40
   1  10   9    2.90    2.80
   2  10   9  457.95    7.60
   3  10   9   63.19   10.20
   4  10   9  186.18   10.40
   5  10   9   66.09    5.80
   6  10   9   20.50    8.90
   7  10   9  983.60   21.60
 -10  11   9   14.80   95.79
  -9  11   9    9.60    3.90
  -8  11   9  517.35   13.30
  -7  11   9 1175.88   21.80
  -6  11   9   63.59    6.10
  -5  11   9   24.20    3.60
  -4  11   9  626.44   13.80
  -3  11   9    0.00    4.40
  -2  11   9  589.34    8.40
  -1  11   9    4.80    3.10
   0  11   9  181.08    6.40
   1  11   9   22.20    4.00
   2  11   9  104.59    4.70
   3  11   9  228.68   14.20
   4  11   9  226.48   12.10
   5  11   9   71.09    6.00
   6  11   9    9.30    5.20
   7  11   9   80.79    8.80
  -9  12   9    5.90    3.60
  -8  12   9  255.37   10.70
  -7  12   9  102.09   16.80
  -6  12   9  110.69    8.50
  -5  12   9   30.90    4.00
  -4  12   9  211.78   13.40
  -3  12   9    3.50    6.80
  -2  12   9  151.88    5.70
  -1  12   9  499.55    9.40
   0  12   9    7.10    2.70
   1  12   9  282.27    8.00
   2  12   9  382.66    9.20
   3  12   9  117.79   11.90
   4  12   9  154.28    9.00
   5  12   9    3.60    2.90
   6  12   9    0.00    5.80
   7  12   9  101.99   11.20
  -9  13   9   21.10    6.20
  -8  13   9    7.10    6.20
  -7  13   9  109.49    7.80
  -6  13   9  664.13   14.80
  -5  13   9    3.60    2.70
  -4  13   9  124.09    8.80
  -3  13   9  177.28    7.40
  -2  13   9  819.32   12.90
  -1  13   9  204.58   10.10
   0  13   9  856.01   18.30
   1  13   9   64.09    7.30
   2  13   9    4.40    2.80
   3  13   9  406.56   12.90
   4  13   9   48.50    7.40
   5  13   9  225.68    9.40
   6  13   9   42.70    8.80
   7  13   9  343.07  230.08
  -8  14   9    6.90    7.10
  -7  14   9   18.40    7.80
  -6  14   9   59.09    7.20
  -5  14   9   53.79    5.60
  -4  14   9  785.62   19.80
  -3  14   9 1113.09   18.00
  -2  14   9   17.00    3.40
  -1  14   9   76.59    8.30
   0  14   9  818.92   18.20
   1  14   9 1131.59   18.90
   2  14   9   26.80    4.50
   3  14   9   64.59   16.00
   4  14   9   53.99   13.40
   5  14   9   26.90    5.40
   6  14   9   23.30    9.30
  -8  15   9   56.69   19.00
  -7  15   9  611.74   21.10
  -6  15   9  113.09    8.90
  -5  15   9    1.00    2.80
  -4  15   9  176.08    9.40
  -3  15   9  236.18   10.10
  -2  15   9   90.99    6.20
  -1  15   9   84.79    8.90
   0  15   9  504.05   17.10
   1  15   9  209.78   12.30
   2  15   9   36.10    5.10
   3  15   9 1238.98   22.40
   4  15   9   25.60    7.60
   5  15   9   19.90    5.00
   6  15   9   51.89  450.25
  -7  16   9    4.80    7.60
  -6  16   9   31.40    8.40
  -5  16   9    0.00    3.10
  -4  16   9   42.40    7.60
  -3  16   9  106.49    8.10
  -2  16   9   23.00    3.90
  -1  16   9   15.30    5.10
   0  16   9   76.19    9.80
   1  16   9    4.40    5.50
   2  16   9  185.88    9.80
   3  16   9  401.26   13.90
   4  16   9  171.28   17.30
   5  16   9  372.16   20.40
  -6  17   9   25.80    8.00
  -5  17   9   18.80    5.10
  -4  17   9   21.40    7.20
  -3  17   9    8.30    8.00
  -2  17   9  236.18    8.80
  -1  17   9  270.27   18.10
   0  17   9    7.30    6.60
   1  17   9   32.20    7.40
   2  17   9    9.80    4.10
   3  17   9   67.79   15.90
   4  17   9    0.00   27.20
  -5  18   9   13.90    4.60
  -4  18   9  289.47   15.50
  -3  18   9    4.80    8.70
  -2  18   9   10.60    3.60
  -1  18   9  366.36   16.90
   0  18   9   29.30    8.60
   1  18   9    2.50    7.10
   2  18   9  138.59    9.70
   3  18   9   41.70   18.00
  -4  19   9   11.20   11.00
  -3  19   9  439.36   15.70
  -2  19   9    2.40    4.30
  -1  19   9   17.10   11.50
   0  19   9  712.23   34.60
   1  19   9  588.04   25.00
   2  19   9   57.59   13.20
  -2  20   9   33.30   13.60
  -1  20   9  321.47   33.00
 -11   0  10    1.50    8.50
 -10   0  10  265.87   15.10
  -9   0  10    3.90    4.10
  -8   0  10  452.05   19.30
  -7   0  10   44.40   16.00
  -6   0  10 1686.73   25.10
  -5   0  10    1.30    2.00
  -4   0  10  484.15   12.60
  -3   0  10    4.30    4.00
  -2   0  10 1277.97   17.00
  -1   0  10   35.60   38.50
   0   0  10 1049.40   22.80
   1   0  10    5.70   16.60
   2   0  10  565.04   11.50
   3   0  10    0.00    4.30
   4   0  10   82.89    6.60
   5   0  10    2.50    2.90
   6   0  10  392.46   12.70
   7   0  10    0.00    8.40
   8   0  10 1318.57   42.50
   9   0  10    0.90   16.60
 -11   1  10    8.70    6.70
 -10   1  10    0.30    5.70
  -9   1  10   12.00    3.30
  -8   1  10   13.30    4.10
  -7   1  10  481.95   10.00
  -6   1  10  498.35    8.20
  -5   1  10   30.60    2.70
  -4   1  10   99.89   16.40
  -3   1  10 1307.27   15.90
  -2   1  10 1037.20   10.60
  -1   1  10  167.48    7.70
   0   1  10 1114.49   14.70
   1   1  10 2848.81   29.60
   2   1  10  182.38    5.00
   3   1  10  142.69    6.50
   4   1  10    2.10    5.00
   5   1  10   80.49    4.70
   6   1  10  411.96    9.10
   7   1  10  892.51   18.40
   8   1  10    1.60    7.50
   9   1  10  793.32   32.50
 -11   2  10  809.72   21.70
 -10   2  10   44.00    6.30
  -9   2  10    1.30    2.50
  -8   2  10  404.26   11.50
  -7   2  10  654.43   20.40
  -6   2  10   48.90    4.20
  -5   2  10  282.27    5.80
  -4   2  10 2178.98   19.00
  -3   2  10  849.41   13.80
  -2   2  10   24.60    2.20
  -1   2  10   80.09    4.20
   0   2  10  117.89    3.80
   1   2  10 3149.28   21.90
   2   2  10   53.09    3.40
   3   2  10  532.05   11.90
   4   2  10   78.39   10.80
   5   2  10  103.59    5.30
   6   2  10    0.00    3.70
   7   2  10  669.43   15.40
   8   2  10    7.90    7.30
   9   2  10    6.30    8.70
 -11   3  10  101.99   11.70
 -10   3  10 1917.51   34.10
  -9   3  10  241.08    7.90
  -8   3  10  681.23   12.50
  -7   3  10  487.45   16.60
  -6   3  10  786.92   11.10
  -5   3  10  627.74    8.60
  -4   3  10  229.98    6.30
  -3   3  10   16.20   10.10
  -2   3  10  343.57    5.30
  -1   3  10  184.78    5.50
   0   3  10 1003.50   12.90
   1   3  10  197.18    7.30
   2   3  10  654.93    8.80
   3   3  10  390.06   10.90
   4   3  10   93.89    5.00
   5   3  10    1.50    1.90
   6   3  10   85.29   24.40
   7   3  10  212.78    9.70
   8   3  10  132.39   12.20
   9   3  10    5.20    9.30
 -11   4  10  796.02   25.80
 -10   4  10    8.00    6.80
  -9   4  10    1.00    2.20
  -8   4  10    6.30    5.60
  -7   4  10  316.57   17.20
  -6   4  10  577.54   11.90
  -5   4  10   50.89    3.30
  -4   4  10 1202.58   15.00
  -3   4  10  526.55   11.10
  -2   4  10  318.07    5.60
  -1   4  10   85.79    3.60
   0   4  10  383.96    7.30
   1   4  10   26.50    5.50
   2   4  10   42.70    3.10
   3   4  10  577.34   16.30
   4   4  10   68.99   11.10
   5   4  10   14.90    2.80
   6   4  10  145.99    8.60
   7   4  10   93.79    7.90
   8   4  10    1.60    6.90
   9   4  10   36.70   13.00
 -11   5  10    0.00    9.10
 -10   5  10  331.77   14.30
  -9   5  10    1.20    2.40
  -8   5  10   15.00    5.30
  -7   5  10  500.75   15.20
  -6   5  10    4.30    3.50
  -5   5  10    8.40    1.80
  -4   5  10   44.00    8.30
  -3   5  10 2154.28   17.50
  -2   5  10  391.76    6.40
  -1   5  10    0.00   25.20
   0   5  10  518.95    8.80
   1   5  10  727.33    9.50
   2   5  10   43.60    3.30
   3   5  10  280.97    7.10
   4   5  10   69.49    5.20
   5   5  10  335.27    7.70
   6   5  10   20.20    6.10
   7   5  10   16.20    5.20
   8   5  10  361.26   15.80
   9   5  10  644.54   30.40
 -11   6  10   36.90   18.00
 -10   6  10    0.00    5.30
  -9   6  10   71.59    6.00
  -8   6  10  424.46   15.60
  -7   6  10    0.00    8.00
  -6   6  10  294.67    9.10
  -5   6  10  143.39    5.70
  -4   6  10  404.96    7.60
  -3   6  10  115.69    7.80
  -2   6  10  230.28    5.00
  -1   6  10  966.70   11.50
   0   6  10 2735.83   27.80
   1   6  10  495.75    7.60
   2   6  10   18.30    2.30
   3   6  10 1398.96   15.90
   4   6  10   11.40    6.60
   5   6  10  354.86    8.90
   6   6  10   23.00    5.80
   7   6  10    0.60    4.80
   8   6  10  702.63   20.60
 -11   7  10  101.29  300.57
 -10   7  10  123.69    8.50
  -9   7  10  352.36   10.60
  -8   7  10   14.60    5.20
  -7   7  10    5.50    3.60
  -6   7  10  607.64   11.80
  -5   7  10   31.30    3.60
  -4   7  10   75.39    8.50
  -3   7  10  377.16    7.30
  -2   7  10  458.25    7.00
  -1   7  10  225.38    6.90
   0   7  10  554.54    9.60
   1   7  10   26.50    3.10
   2   7  10   21.30    2.40
   3   7  10  356.66   15.60
   4   7  10   62.59    5.80
   5   7  10 2032.30   23.10
   6   7  10   23.80    6.00
   7   7  10   71.89    7.00
   8   7  10   24.20   13.00
 -10   8  10  122.69    8.50
  -9   8  10    1.90    2.80
  -8   8  10   25.40    6.70
  -7   8  10  109.79    8.30
  -6   8  10   42.50    5.30
  -5   8  10  248.68    7.40
  -4   8  10   45.00    4.60
  -3   8  10  321.67   27.60
  -2   8  10  128.99    4.20
  -1   8  10 2623.44   19.00
   0   8  10  831.72   13.70
   1   8  10  418.96    7.40
   2   8  10   97.49    4.40
   3   8  10   63.99    5.00
   4   8  10    2.70    4.50
   5   8  10  172.68    7.90
   6   8  10    2.80    4.80
   7   8  10  174.18    9.50
 -10   9  10 1034.70   20.30
  -9   9  10  102.29    7.40
  -8   9  10   67.59    7.50
  -7   9  10  293.17    9.70
  -6   9  10  326.97   10.70
  -5   9  10   48.10    4.50
  -4   9  10   96.29    6.10
  -3   9  10  893.21   12.40
  -2   9  10  476.15    7.50
  -1   9  10  304.27   11.70
   0   9  10  536.75   10.80
   1   9  10  115.19    5.40
   2   9  10  137.69    5.00
   3   9  10    0.00    4.60
   4   9  10   42.90    5.30
   5   9  10  800.32   15.10
   6   9  10   31.60    8.40
   7   9  10  203.38   10.40
 -10  10  10   21.30   12.70
  -9  10  10   12.30    3.80
  -8  10  10  136.89    8.40
  -7  10  10  247.78   11.10
  -6  10  10   80.09    6.70
  -5  10  10    7.30    2.60
  -4  10  10  731.23   14.60
  -3  10  10  464.45   10.40
  -2  10  10   56.69    3.60
  -1  10  10  132.29    4.80
   0  10  10   81.79    4.60
   1  10  10    2.00    3.10
   2  10  10    6.00    2.00
   3  10  10  310.57   18.30
   4  10  10   41.70   13.20
   5  10  10    8.60    3.20
   6  10  10    3.60    5.70
   7  10  10   56.29    7.20
  -9  11  10  151.28    9.00
  -8  11  10  335.37   11.90
  -7  11  10  166.38   12.00
  -6  11  10    5.10    5.10
  -5  11  10  346.27    9.70
  -4  11  10   64.49   11.00
  -3  11  10  358.56   14.90
  -2  11  10    9.30    2.10
  -1  11  10  185.68    6.00
   0  11  10   59.09    4.90
   1  11  10  544.95    9.50
   2  11  10  180.68    5.70
   3  11  10  444.36   12.70
   4  11  10  181.58    8.70
   5  11  10  272.97    9.80
   6  11  10   27.20    8.20
   7  11  10    0.00   12.90
  -9  12  10  119.59    8.40
  -8  12  10    7.80    5.70
  -7  12  10  110.09   16.20
  -6  12  10    6.40    4.80
  -5  12  10  141.69    7.50
  -4  12  10  719.53   14.70
  -3  12  10  575.84   12.70
  -2  12  10  118.89    5.80
  -1  12  10  104.49    6.80
   0  12  10  340.37   10.10
   1  12  10 2926.11   26.20
   2  12  10    1.20    2.50
   3  12  10  515.15   14.60
   4  12  10  359.96   12.50
   5  12  10  516.85   12.70
   6  12  10   13.50    6.00
  -9  13  10    7.00    8.60
  -8  13  10    2.70    5.80
  -7  13  10  106.19    7.40
  -6  13  10  401.86   12.60
  -5  13  10  229.68    8.40
  -4  13  10  449.56   16.90
  -3  13  10  256.87   13.60
  -2  13  10  112.19    6.20
  -1  13  10  133.69    7.00
   0  13  10    3.60    3.70
   1  13  10  892.81   16.50
   2  13  10    7.90    3.10
   3  13  10  270.47   11.50
   4  13  10   92.39   12.40
   5  13  10    4.20    3.90
   6  13  10   34.70   13.10
  -8  14  10   34.20    9.30
  -7  14  10  218.48    9.60
  -6  14  10  447.96   13.80
  -5  14  10   18.00    3.90
  -4  14  10   28.60    5.80
  -3  14  10    5.50   12.40
  -2  14  10 1155.18   17.20
  -1  14  10   84.69   13.00
   0  14  10   34.40    5.30
   1  14  10  413.26   12.80
   2  14  10    5.00    3.20
   3  14  10   12.10    7.00
   4  14  10   42.10    8.90
   5  14  10    1.60    3.70
  -8  15  10   27.80  240.88
  -7  15  10    3.40    9.10
  -6  15  10  242.58   11.60
  -5  15  10    2.80    3.20
  -4  15  10    8.40    9.10
  -3  15  10  256.97   11.20
  -2  15  10  387.16   10.50
  -1  15  10  253.17   12.60
   0  15  10  166.28   11.40
   1  15  10   24.40    8.30
   2  15  10  132.99    9.00
   3  15  10    0.00    7.70
   4  15  10   24.90   12.60
   5  15  10  609.44   21.00
  -7  16  10  180.58  194.98
  -6  16  10    0.00    9.40
  -5  16  10  138.99    9.90
  -4  16  10   80.59    9.30
  -3  16  10    3.70    7.80
  -2  16  10   92.69    6.60
  -1  16  10  484.45   13.50
   0  16  10   94.59   12.40
   1  16  10  466.05   17.00
   2  16  10    2.90    3.30
   3  16  10   77.29   13.50
   4  16  10   39.80   13.20
  -5  17  10  204.58   11.10
  -4  17  10    7.70    6.70
  -3  17  10  186.08   10.60
  -2  17  10  144.19    8.30
  -1  17  10    6.30    8.20
   0  17  10    6.40    8.00
   1  17  10  391.56   16.90
   2  17  10  143.49    9.70
   3  17  10    7.50    9.20
  -5  18  10   40.40   24.00
  -4  18  10  342.37   15.30
  -3  18  10   79.59    8.60
  -2  18  10    3.00    3.20
  -1  18  10   16.90    9.30
   0  18  10  133.29   15.40
   1  18  10  150.98   16.70
   2  18  10  115.29   10.60
  -3  19  10  282.97   18.90
  -2  19  10    2.00   10.20
  -1  19  10    9.00   15.00
   0  19  10   54.09   17.40
 -11   0  11   67.89   19.10
 -10   0  11   10.10    8.60
  -9   0  11  656.73   19.60
  -8   0  11    0.00    7.30
  -7   0  11  215.18    9.30
  -6   0  11    3.50    3.60
  -5   0  11   25.80    3.80
  -4   0  11   40.30   12.00
  -3   0  11 1226.88   27.00
  -2   0  11    4.50    2.40
  -1   0  11 1359.16   19.70
   0   0  11    3.00    3.10
   1   0  11  753.92   16.40
   2   0  11    5.10    2.60
   3   0  11  649.64   17.20
   4   0  11   10.30    9.90
   5   0  11 2547.25   32.30
   6   0  11    0.00    5.70
   7   0  11   82.09   10.00
   8   0  11   14.40   12.20
 -11   1  11  182.18   10.00
 -10   1  11   84.89    8.20
  -9   1  11  246.78    9.30
  -8   1  11   38.50    7.10
  -7   1  11  137.49    6.30
  -6   1  11  387.76    8.20
  -5   1  11  709.23    9.50
  -4   1  11 1255.77   14.00
  -3   1  11   21.00   19.10
  -2   1  11 1864.81   15.80
  -1   1  11 1002.60   26.50
   0   1  11  214.78    7.80
   1   1  11  354.86   11.30
   2   1  11   25.00    2.70
   3   1  11   42.20    8.10
   4   1  11  562.24   11.00
   5   1  11 1258.67   15.10
   6   1  11  504.75   10.70
   7   1  11    1.20    5.20
   8   1  11   13.00    8.50
 -11   2  11   42.40    9.80
 -10   2  11  272.87   12.00
  -9   2  11   18.70    3.90
  -8   2  11  314.27   10.50
  -7   2  11   10.00    8.20
  -6   2  11    3.10    2.50
  -5   2  11  340.27    6.60
  -4   2  11  334.07    8.40
  -3   2  11  357.36    7.00
  -2   2  11 1513.05   13.80
  -1   2  11   69.19   18.60
   0   2  11   41.90    3.40
   1   2  11  420.76    7.60
   2   2  11   36.50    3.10
   3   2  11    1.90    6.00
   4   2  11   16.80    5.20
   5   2  11   31.90    3.60
   6   2  11    3.60    5.80
   7   2  11   46.20    6.40
   8   2  11    0.00   11.80
 -11   3  11 1150.68   30.00
 -10   3  11   56.29   10.20
  -9   3  11  169.88    7.80
  -8   3  11  163.78    7.60
  -7   3  11   73.19   12.60
  -6   3  11   12.40    3.10
  -5   3  11   19.60    2.50
  -4   3  11  240.48   10.20
  -3   3  11 1149.19   13.70
  -2   3  11   62.09    3.60
  -1   3  11  394.26    8.10
   0   3  11  130.19    6.40
   1   3  11 1170.98   14.10
   2   3  11   26.20    2.70
   3   3  11  668.53   17.20
   4   3  11    0.00    8.30
   5   3  11 1366.96   15.80
   6   3  11   77.59    7.50
   7   3  11  110.79   10.50
   8   3  11   52.29    9.30
 -11   4  11   10.80   15.60
 -10   4  11  368.06   17.10
  -9   4  11   13.50    3.50
  -8   4  11   42.00   10.40
  -7   4  11   12.90    7.70
  -6   4  11    0.00    7.10
  -5   4  11    5.10    1.80
  -4   4  11    3.10    3.40
  -3   4  11 1315.47   17.50
  -2   4  11  300.77    5.90
  -1   4  11 1353.06   12.90
   0   4  11   41.30    4.30
   1   4  11  163.28   13.20
   2   4  11   60.59    3.70
   3   4  11  398.16   10.10
   4   4  11  821.42   12.20
   5   4  11  121.19    5.70
   6   4  11  101.89    9.00
   7   4  11  344.57   12.80
   8   4  11   20.80    9.00
 -11   5  11   55.39  169.18
 -10   5  11   72.89    9.10
  -9   5  11   42.50    4.70
  -8   5  11   92.89   10.20
  -7   5  11  191.78    9.80
  -6   5  11 2363.86   26.00
  -5   5  11  405.86    7.30
  -4   5  11  752.42   12.60
  -3   5  11  320.87    6.80
  -2   5  11  566.84    8.00
  -1   5  11   96.69    7.80
   0   5  11  581.84   12.00
   1   5  11  419.26    8.20
   2   5  11  142.19    5.00
   3   5  11  254.67    9.00
   4   5  11  245.78    8.10
   5   5  11   77.69    5.60
   6   5  11   22.90    8.90
   7   5  11  149.39    9.00
   8   5  11    3.40   17.60
 -10   6  11   14.30    6.60
  -9   6  11    9.80    3.60
  -8   6  11   58.79    6.90
  -7   6  11   10.40    4.00
  -6   6  11  124.19    6.80
  -5   6  11    4.60    2.00
  -4   6  11   35.10    4.20
  -3   6  11  508.25   13.90
  -2   6  11   66.39    3.60
  -1   6  11   11.90    5.50
   0   6  11  543.95   11.70
   1   6  11  133.59    7.20
   2   6  11    5.00    1.90
   3   6  11  796.42   12.20
   4   6  11  223.18   10.80
   5   6  11 1124.69   16.30
   6   6  11   39.60   10.00
   7   6  11    0.00    5.30
 -10   7  11    2.00    6.00
  -9   7  11   35.30    4.80
  -8   7  11  385.36   15.50
  -7   7  11  163.18   11.50
  -6   7  11   42.40    5.50
  -5   7  11   11.90    3.10
  -4   7  11   62.49    4.60
  -3   7  11  110.89    5.60
  -2   7  11  896.61   10.50
  -1   7  11   11.80    3.10
   0   7  11  129.19    5.80
   1   7  11  122.29    7.00
   2   7  11  111.49    5.00
   3   7  11   49.00    5.10
   4   7  11   34.00    5.40
   5   7  11  219.98    8.10
   6   7  11   97.09   10.40
   7   7  11   73.29    7.80
 -10   8  11    6.60    6.30
  -9   8  11   85.89    6.80
  -8   8  11  117.49    9.00
  -7   8  11   41.70   10.20
  -6   8  11    1.00    3.60
  -5   8  11    6.10    2.40
  -4   8  11  674.03   12.80
  -3   8  11 1255.97   15.30
  -2   8  11  814.62   10.00
  -1   8  11   88.29    6.30
   0   8  11   66.99    4.50
   1   8  11   20.20    4.10
   2   8  11  298.07    6.60
   3   8  11   26.20    4.40
   4   8  11  216.58    8.20
   5   8  11   82.29    6.10
   6   8  11  141.09    9.70
   7   8  11   18.80    6.40
 -10   9  11  825.62   29.90
  -9   9  11    2.90    3.20
  -8   9  11  342.57   14.40
  -7   9  11  283.57    9.90
  -6   9  11  111.49    7.30
  -5   9  11  293.67    8.60
  -4   9  11  140.69    9.00
  -3   9  11   29.70    5.50
  -2   9  11  234.98    6.30
  -1   9  11  100.39    5.40
   0   9  11   20.50    3.30
   1   9  11   77.49    5.50
   2   9  11    4.50    2.00
   3   9  11    0.00   13.80
   4   9  11    0.60    4.70
   5   9  11  303.97   10.30
   6   9  11    0.00   10.80
   7   9  11  263.67   12.50
  -9  10  11    3.60    3.40
  -8  10  11    9.90    6.10
  -7  10  11   58.59   14.60
  -6  10  11   63.29    7.50
  -5  10  11   65.19    5.40
  -4  10  11   89.19    6.30
  -3  10  11  651.53   12.60
  -2  10  11    3.10    1.90
  -1  10  11   57.69    4.40
   0  10  11   21.20    4.00
   1  10  11  934.41   15.30
   2  10  11    1.50    1.80
   3  10  11 1154.08   17.40
   4  10  11  752.82   21.50
   5  10  11    2.70    3.00
   6  10  11   46.00    8.20
  -9  11  11   57.69    6.20
  -8  11  11  359.56   12.50
  -7  11  11  306.47   19.00
  -6  11  11 1121.79   19.70
  -5  11  11    7.70    2.90
  -4  11  11 1045.30   23.60
  -3  11  11  840.62   16.40
  -2  11  11  713.23   10.60
  -1  11  11   13.50    4.70
   0  11  11  139.59    7.30
   1  11  11  157.58    7.90
   2  11  11   82.99    4.70
   3  11  11  150.68    8.10
   4  11  11  293.37   10.40
   5  11  11  355.26   11.20
   6  11  11  144.99   10.90
  -9  12  11   11.30    8.50
  -8  12  11   52.09    8.00
  -7  12  11   45.80    6.10
  -6  12  11  217.38   10.20
  -5  12  11  106.29    7.00
  -4  12  11    6.40    6.10
  -3  12  11  607.14   13.70
  -2  12  11  267.07    7.70
  -1  12  11   35.80   12.80
   0  12  11  174.48    8.40
   1  12  11  230.78   14.40
   2  12  11  280.27    9.50
   3  12  11    0.00    6.40
   4  12  11   16.50    9.40
   5  12  11   42.50    5.40
   6  12  11   16.20    7.70
  -8  13  11   12.00    8.60
  -7  13  11  285.57   11.10
  -6  13  11  123.49   10.70
  -5  13  11   85.39    6.50
  -4  13  11  100.79    9.20
  -3  13  11   93.09   11.20
  -2  13  11  562.54   11.80
  -1  13  11  428.66   15.30
   0  13  11    2.20    3.90
   1  13  11  643.64   15.20
   2  13  11    3.60    3.20
   3  13  11   21.70   11.40
   4  13  11  137.69   10.70
   5  13  11    6.10    4.30
  -8  14  11   22.00  180.08
  -7  14  11  110.09   11.30
  -6  14  11   63.39    8.10
  -5  14  11   11.30    3.70
  -4  14  11  275.77   12.50
  -3  14  11  901.91   17.60
  -2  14  11   91.99    6.90
  -1  14  11   12.00    8.20
   0  14  11    6.10    4.40
   1  14  11  207.08   11.80
   2  14  11    7.40    4.30
   3  14  11   33.50    8.00
   4  14  11    0.00    7.40
   5  14  11  478.55   19.40
  -7  15  11   57.19  121.09
  -6  15  11    3.10    6.90
  -5  15  11  145.79    9.20
  -4  15  11  269.47   14.50
  -3  15  11    5.40   19.50
  -2  15  11    3.80    3.20
  -1  15  11  405.96   15.40
   0  15  11  181.08   12.00
   1  15  11  235.48   12.70
   2  15  11  130.99   10.00
   3  15  11   10.00   11.40
   4  15  11   71.39   11.30
  -6  16  11    5.70    9.00
  -5  16  11   75.69    7.90
  -4  16  11  240.58   13.30
  -3  16  11   23.50   12.50
  -2  16  11    5.40    4.00
  -1  16  11  547.15   21.30
   0  16  11    4.50    7.20
   1  16  11   20.00    7.30
   2  16  11  111.39    9.60
   3  16  11   99.89   18.40
  -5  17  11   60.29    8.30
  -4  17  11    0.00   13.30
  -3  17  11  671.53   18.30
  -2  17  11   22.40    5.40
  -1  17  11   37.10   15.40
   0  17  11  152.98   15.70
   1  17  11    0.00   12.50
   2  17  11  222.88   12.60
  -4  18  11  140.59   22.10
  -3  18  11  837.62   22.80
  -2  18  11   65.39    7.90
  -1  18  11  101.59   17.70
   0  18  11  279.77   34.50
   1  18  11  117.29   16.30
   2  18  11    0.00    7.00
  -2  19  11   38.90   27.60
 -11   0  12   10.90   16.40
 -10   0  12   41.00   10.00
  -9   0  12    1.30    3.90
  -8   0  12    0.00    9.10
  -7   0  12    0.00    5.00
  -6   0  12  122.79    9.50
  -5   0  12    1.90    2.10
  -4   0  12   11.10    4.60
  -3   0  12    7.00    4.50
  -2   0  12  396.86    9.70
  -1   0  12   17.50   16.50
   0   0  12   86.29   10.20
   1   0  12   34.90   29.70
   2   0  12  438.06   11.40
   3   0  12    8.90    6.10
   4   0  12    0.00    5.50
   5   0  12    4.60    3.60
   6   0  12   98.39   11.60
   7   0  12    0.30    8.70
 -11   1  12   76.39   13.50
 -10   1  12   26.70    7.00
  -9   1  12    9.10    3.40
  -8   1  12   33.50    5.50
  -7   1  12 1127.39   19.20
  -6   1  12  465.65    8.90
  -5   1  12  472.75    8.10
  -4   1  12  429.76    8.40
  -3   1  12   96.79    6.00
  -2   1  12    9.60    2.00
  -1   1  12  525.95   10.90
   0   1  12   15.30    3.50
   1   1  12   25.90    4.40
   2   1  12    6.30    2.00
   3   1  12   79.69    7.30
   4   1  12   37.80    8.60
   5   1  12  155.48    6.90
   6   1  12  160.28   12.20
   7   1  12    9.00    6.00
 -11   2  12    0.00   56.99
 -10   2  12  195.58   10.70
  -9   2  12   91.19    6.90
  -8   2  12  621.74   12.80
  -7   2  12  171.68    7.00
  -6   2  12  548.05    9.70
  -5   2  12    1.00    1.60
  -4   2  12  230.78    8.80
  -3   2  12  468.85   12.50
  -2   2  12  166.98    5.00
  -1   2  12   13.90    6.70
   0   2  12  176.88    7.60
   1   2  12  622.14   11.80
   2   2  12    3.60    1.90
   3   2  12 1255.07   16.70
   4   2  12  874.41   21.30
   5   2  12   54.69    4.20
   6   2  12    0.00    6.90
   7   2  12   97.49    9.60
 -10   3  12   52.39   10.30
  -9   3  12    3.60    2.80
  -8   3  12   13.60   13.40
  -7   3  12   56.59    8.50
  -6   3  12    1.10    3.50
  -5   3  12   53.49    3.80
  -4   3  12  302.67    9.70
  -3   3  12  479.35   11.80
  -2   3  12  211.88    5.30
  -1   3  12  289.37   11.10
   0   3  12  162.08    7.50
   1   3  12   89.99   11.10
   2   3  12  353.26    7.00
   3   3  12   33.50    8.90
   4   3  12  317.67    8.80
   5   3  12   54.49    4.30
   6   3  12    9.80    7.00
   7   3  12   98.09    9.80
 -10   4  12  331.17   18.80
  -9   4  12   49.20    5.20
  -8   4  12  321.07   11.90
  -7   4  12  156.78    7.10
  -6   4  12  852.41   13.50
  -5   4  12    8.00    2.20
  -4   4  12   96.99    7.70
  -3   4  12 1360.36   17.50
  -2   4  12   43.70    3.20
  -1   4  12 1105.29   14.10
   0   4  12  203.18    8.30
   1   4  12  335.77    9.60
   2   4  12  811.72   10.80
   3   4  12    6.40    4.20
   4   4  12    0.00    4.80
   5   4  12  443.06    9.20
   6   4  12  538.25   14.30
   7   4  12   51.99   10.10
 -10   5  12    4.50    7.70
  -9   5  12   49.00    4.60
  -8   5  12    8.50    7.30
  -7   5  12   46.80    5.60
  -6   5  12  142.19    7.50
  -5   5  12    4.80    2.00
  -4   5  12   19.20    4.20
  -3   5  12   47.60    6.50
  -2   5  12  720.23    9.60
  -1   5  12   57.69    7.30
   0   5  12   62.29    5.20
   1   5  12    5.00   11.70
   2   5  12  363.56    7.80
   3   5  12  171.28    7.00
   4   5  12  128.59    6.40
   5   5  12   37.30    4.30
   6   5  12   27.50    7.00
   7   5  12  188.38   10.30
 -10   6  12   23.20    7.20
  -9   6  12   17.80    4.10
  -8   6  12    1.50    6.20
  -7   6  12  139.19   13.20
  -6   6  12  668.03   14.00
  -5   6  12  142.99    6.10
  -4   6  12   97.19    5.50
  -3   6  12  136.69   13.60
  -2   6  12  150.38    5.00
  -1   6  12  410.66    8.50
   0   6  12   42.50    4.70
   1   6  12  294.97   11.10
   2   6  12   27.90    3.30
   3   6  12  221.58    9.90
   4   6  12  474.85   10.20
   5   6  12    2.50    2.90
   6   6  12  285.57   14.90
   7   6  12    8.70    6.60
 -10   7  12   70.49    9.30
  -9   7  12   83.89    6.70
  -8   7  12   39.40    6.40
  -7   7  12   36.00    5.60
  -6   7  12  306.07    9.70
  -5   7  12  476.85   10.30
  -4   7  12  197.88    6.40
  -3   7  12 1274.67   16.60
  -2   7  12   63.59    4.00
  -1   7  12  227.18    7.80
   0   7  12   89.89    6.00
   1   7  12 1316.77   17.30
   2   7  12   14.60    2.70
   3   7  12  177.28    8.50
   4   7  12    5.40    4.70
   5   7  12  865.21   15.10
   6   7  12    3.10    8.70
   7   7  12   74.49   10.70
 -10   8  12  179.08   24.30
  -9   8  12  230.58   10.50
  -8   8  12   16.10    8.20
  -7   8  12   15.20    5.10
  -6   8  12  668.63   15.10
  -5   8  12  396.16    9.50
  -4   8  12  191.18    9.50
  -3   8  12   56.59    5.30
  -2   8  12   16.40    2.40
  -1   8  12   34.40    4.60
   0   8  12    8.80    3.50
   1   8  12  408.66    9.70
   2   8  12    4.20    2.20
   3   8  12   98.89   11.20
   4   8  12  333.67   11.60
   5   8  12  413.66   11.00
   6   8  12   95.29    8.80
   7   8  12  206.68  164.08
  -9   9  12    0.10    3.40
  -8   9  12    0.00   11.20
  -7   9  12    0.00    7.60
  -6   9  12  110.79    7.40
  -5   9  12  160.48    7.90
  -4   9  12  228.08    8.30
  -3   9  12   57.49    4.80
  -2   9  12   26.50    3.00
  -1   9  12   76.99    5.80
   0   9  12  205.08    8.60
   1   9  12  395.66   10.20
   2   9  12  426.26    9.40
   3   9  12  644.34   14.70
   4   9  12  135.39   11.40
   5   9  12  262.57    9.90
   6   9  12  100.59    9.90
  -9  10  12    1.30    3.20
  -8  10  12  292.07   11.30
  -7  10  12  123.59   13.60
  -6  10  12    2.90    5.70
  -5  10  12   21.10    3.80
  -4  10  12  194.38   10.30
  -3  10  12 1415.86   21.40
  -2  10  12  492.45    8.80
  -1  10  12  417.26   14.90
   0  10  12  157.48    8.90
   1  10  12  851.11   16.20
   2  10  12   39.30    4.10
   3  10  12   26.40    6.50
   4  10  12  284.37   10.60
   5  10  12  138.19    8.50
   6  10  12  131.79   11.30
  -9  11  12   66.09   23.00
  -8  11  12   18.60    6.90
  -7  11  12    8.80    5.80
  -6  11  12   86.39    7.90
  -5  11  12    4.00    2.80
  -4  11  12  307.57   12.30
  -3  11  12  121.49   11.60
  -2  11  12  124.69    5.90
  -1  11  12  191.38    8.90
   0  11  12  110.59    7.90
   1  11  12   34.50    7.50
   2  11  12  143.39    8.20
   3  11  12  232.08   11.00
   4  11  12   97.89    8.50
   5  11  12  419.46   12.20
   6  11  12   36.00   15.40
  -8  12  12  130.89   10.90
  -7  12  12   14.50    5.70
  -6  12  12  176.38    9.70
  -5  12  12    2.60    2.80
  -4  12  12   69.59    8.50
  -3  12  12   33.90   11.80
  -2  12  12  289.07    8.30
  -1  12  12 1383.56   20.70
   0  12  12   89.29    7.50
   1  12  12   69.89    8.20
   2  12  12    7.00    3.90
   3  12  12    0.00    7.20
   4  12  12  284.27   17.40
   5  12  12  116.69    8.20
  -8  13  12    0.00   32.40
  -7  13  12  594.34   15.70
  -6  13  12  119.99    8.80
  -5  13  12  433.16   11.70
  -4  13  12    7.30    6.20
  -3  13  12   19.70    9.30
  -2  13  12  312.27   10.90
  -1  13  12  262.47   15.70
   0  13  12  155.48   10.70
   1  13  12    0.00    5.40
   2  13  12    6.20    4.30
   3  13  12   77.69   15.20
   4  13  12    3.30   11.50
   5  13  12 1002.80   27.10
  -7  14  12   56.19   16.70
  -6  14  12    4.80    6.20
  -5  14  12  121.89    8.50
  -4  14  12  383.56   13.20
  -3  14  12   34.70    6.50
  -2  14  12   17.10    4.80
  -1  14  12   41.10   10.20
   0  14  12    0.60    5.10
   1  14  12    0.00    6.00
   2  14  12    2.50    4.50
   3  14  12  484.55   18.60
   4  14  12   25.60   24.30
  -6  15  12   69.29   14.40
  -5  15  12  162.98    9.90
  -4  15  12    2.70    6.80
  -3  15  12   47.60    7.50
  -2  15  12    0.30    3.40
  -1  15  12   12.30   10.20
   0  15  12   49.00   10.00
   1  15  12  538.75   20.20
   2  15  12   37.50    7.00
   3  15  12   56.69   18.90
  -5  16  12    3.70    4.00
  -4  16  12  444.86   17.30
  -3  16  12  225.18   15.30
  -2  16  12   82.09    8.10
  -1  16  12    6.30    8.00
   0  16  12    0.00   13.60
   1  16  12  453.65   23.90
   2  16  12   52.89    8.20
   3  16  12    8.20  115.89
  -4  17  12  513.35   23.50
  -3  17  12   44.50   10.10
  -2  17  12   52.19    7.40
  -1  17  12   10.80   14.30
   0  17  12    0.00   13.50
   1  17  12   45.70  158.88
   2  17  12  103.99   14.80
  -2  18  12    0.00    8.70
  -1  18  12    4.40   17.10
 -10   0  13    0.00    9.50
  -9   0  13  302.67   15.70
  -8   0  13    2.90    8.50
  -7   0  13  281.97   11.50
  -6   0  13    1.00    3.40
  -5   0  13  209.68    8.70
  -4   0  13    0.00    5.90
  -3   0  13  274.47   16.20
  -2   0  13    2.00    2.30
  -1   0  13 1823.52   35.00
   0   0  13    3.00    5.60
   1   0  13   46.50    8.80
   2   0  13    6.30    3.70
   3   0  13  110.89   15.40
   4   0  13    0.00    9.60
   5   0  13   66.39    7.60
   6   0  13    2.90    7.70
   7   0  13  419.16   21.60
 -10   1  13    0.70    6.80
  -9   1  13    4.20    3.30
  -8   1  13   12.70    5.60
  -7   1  13  208.28    7.00
  -6   1  13   11.30    3.50
  -5   1  13    6.40    2.20
  -4   1  13  114.29    5.20
  -3   1  13  394.96    8.60
  -2   1  13    3.10    1.60
  -1   1  13    4.10    3.10
   0   1  13  206.88   10.20
   1   1  13  360.36   11.20
   2   1  13    5.80    2.60
   3   1  13    0.00   12.40
   4   1  13  692.23   12.40
   5   1  13  222.58    7.60
   6   1  13   65.49    7.30
   7   1  13   73.89   11.80
 -10   2  13    0.00    6.80
  -9   2  13   26.60    4.80
  -8   2  13  427.56   12.70
  -7   2  13  483.65   17.60
  -6   2  13    5.00    3.20
  -5   2  13   77.29    4.40
  -4   2  13  829.22   13.10
  -3   2  13  257.87    7.20
  -2   2  13   39.50    3.20
  -1   2  13   30.10    8.90
   0   2  13    2.40    4.10
   1   2  13 1084.29   22.50
   2   2  13   73.39    5.20
   3   2  13  563.44   13.40
   4   2  13  403.96    9.80
   5   2  13   12.40    3.30
   6   2  13   12.20    8.50
   7   2  13    7.50    6.40
 -10   3  13   16.20   11.90
  -9   3  13   18.60    3.90
  -8   3  13   39.20    8.10
  -7   3  13   46.80    5.70
  -6   3  13   90.49    6.00
  -5   3  13  475.65    8.50
  -4   3  13    4.70    5.00
  -3   3  13 1308.07   18.10
  -2   3  13   18.00    2.50
  -1   3  13  500.35   11.30
   0   3  13  193.88   10.10
   1   3  13   58.09    6.50
   2   3  13  178.48    7.60
   3   3  13   11.20   14.90
   4   3  13   36.80    7.80
   5   3  13   65.99    5.00
   6   3  13   22.00    8.10
   7   3  13    0.00    7.90
 -10   4  13   24.30   11.40
  -9   4  13  431.26   11.20
  -8   4  13   31.60    8.80
  -7   4  13  150.18    9.70
  -6   4  13  591.84   11.90
  -5   4  13  347.27    7.30
  -4   4  13  933.01   12.90
  -3   4  13  278.47    9.80
  -2   4  13  140.79    5.20
  -1   4  13   24.50    8.00
   0   4  13   77.59    6.90
   1   4  13  499.45   11.90
   2   4  13  470.15   10.50
   3   4  13  851.11   15.90
   4   4  13   35.20    5.90
   5   4  13  183.08    7.10
   6   4  13   76.69   12.10
   7   4  13   23.00   11.10
 -10   5  13  480.75   22.30
  -9   5  13   37.50    4.80
  -8   5  13    0.00    6.20
  -7   5  13   89.89    9.30
  -6   5  13    6.40    5.70
  -5   5  13  286.47    7.00
  -4   5  13   70.79    5.30
  -3   5  13  292.47    9.00
  -2   5  13  153.58    5.20
  -1   5  13  697.73   12.70
   0   5  13    3.60    4.10
   1   5  13  594.44   14.80
   2   5  13  284.67    8.90
   3   5  13    0.00   10.20
   4   5  13  304.57   11.90
   5   5  13   84.19    5.80
   6   5  13   19.50    7.40
   7   5  13   74.79   26.40
 -10   6  13    1.40   85.99
  -9   6  13    3.60    3.20
  -8   6  13    0.00    7.60
  -7   6  13  952.20   24.10
  -6   6  13    0.30    6.90
  -5   6  13    9.80    2.50
  -4   6  13  292.87    7.40
  -3   6  13  102.79   10.70
  -2   6  13  139.19    5.10
  -1   6  13  410.46   11.40
   0   6  13   60.39    5.40
   1   6  13   49.30    6.30
   2   6  13   42.00    4.60
   3   6  13  456.45   20.30
   4   6  13   58.79    6.60
   5   6  13  499.25   11.60
   6   6  13  354.06   12.80
   7   6  13   14.00  121.89
 -10   7  13   13.40   89.99
  -9   7  13    1.80    3.10
  -8   7  13  655.83   15.20
  -7   7  13    1.10    4.40
  -6   7  13  220.08    9.10
  -5   7  13   43.90    4.60
  -4   7  13   52.89    5.60
  -3   7  13   69.19    5.20
  -2   7  13  951.00   12.10
  -1   7  13  101.89   15.20
   0   7  13  500.85   13.70
   1   7  13  237.98   14.40
   2   7  13  555.04   11.40
   3   7  13   24.90    7.90
   4   7  13    0.00    7.00
   5   7  13   49.90    5.60
   6   7  13   32.70    7.60
  -9   8  13    2.60    3.50
  -8   8  13  986.50   18.90
  -7   8  13  412.76   13.60
  -6   8  13  118.79    9.10
  -5   8  13    7.80    2.90
  -4   8  13   28.70    5.00
  -3   8  13   33.10    4.60
  -2   8  13   46.70    3.60
  -1   8  13   41.10    9.00
   0   8  13    5.60    3.80
   1   8  13  191.88   10.40
   2   8  13  382.66    9.70
   3   8  13   81.49    8.80
   4   8  13    1.10    6.50
   5   8  13  281.07    9.70
   6   8  13  571.34   20.30
  -9   9  13   42.70    6.30
  -8   9  13    4.90    7.00
  -7   9  13   97.09    7.60
  -6   9  13  848.92   18.20
  -5   9  13   39.90    4.70
  -4   9  13   13.20    5.30
  -3   9  13 1001.10   15.30
  -2   9  13    1.60    2.00
  -1   9  13   67.89    9.00
   0   9  13   42.60    5.20
   1   9  13  264.87   17.20
   2   9  13  160.58    7.90
   3   9  13   20.90   12.20
   4   9  13  278.57   15.30
   5   9  13   63.79    6.90
   6   9  13  166.38   18.10
  -9  10  13   88.19   25.50
  -8  10  13    6.50    7.80
  -7  10  13  264.87   12.60
  -6  10  13  924.21   17.70
  -5  10  13  194.08    8.30
  -4  10  13  712.73   15.20
  -3  10  13    0.00   15.20
  -2  10  13   23.00    3.50
  -1  10  13  387.56   15.30
   0  10  13   91.19    7.60
   1  10  13   29.80    7.00
   2  10  13  157.88    7.60
   3  10  13  437.06   16.00
   4  10  13   47.10    9.70
   5  10  13    9.90    4.40
  -8  11  13   99.49    8.70
  -7  11  13  105.69    7.80
  -6  11  13    3.50    5.90
  -5  11  13  134.29    8.00
  -4  11  13   20.00    7.90
  -3  11  13   22.50    7.50
  -2  11  13   24.20    4.20
  -1  11  13  284.17   10.00
   0  11  13   96.79    7.80
   1  11  13  424.56   13.10
   2  11  13   83.29    7.90
   3  11  13    1.40   10.30
   4  11  13  197.18   11.40
   5  11  13    5.50    5.20
  -8  12  13    0.00   34.20
  -7  12  13  172.58   10.60
  -6  12  13    9.40    5.50
  -5  12  13   12.70    3.60
  -4  12  13  110.09   11.50
  -3  12  13   39.90    6.10
  -2  12  13  342.47   12.00
  -1  12  13   96.29    8.20
   0  12  13   85.59    7.80
   1  12  13  616.84   17.90
   2  12  13   35.90    8.00
   3  12  13   60.09   12.30
   4  12  13  125.29   12.20
   5  12  13    4.10    6.10
  -7  13  13    1.80   10.00
  -6  13  13   64.19    8.90
  -5  13  13    2.40    3.10
  -4  13  13  266.37   11.80
  -3  13  13  270.57   12.50
  -2  13  13    8.10    3.80
  -1  13  13    4.70    6.10
   0  13  13    1.50    5.30
   1  13  13  129.09   17.40
   2  13  13   50.49    9.10
   3  13  13  137.89   14.70
   4  13  13  261.47   29.20
  -6  14  13  123.99   12.70
  -5  14  13   18.70    4.50
  -4  14  13   54.39    7.90
  -3  14  13    6.30    7.80
  -2  14  13    6.20    4.30
  -1  14  13   43.00    8.90
   0  14  13   61.69    8.30
   1  14  13   61.49   18.30
   2  14  13   19.20    7.40
   3  14  13  507.55   30.70
  -6  15  13  362.66  248.98
  -5  15  13   20.40    4.80
  -4  15  13  292.67   13.20
  -3  15  13  199.58   13.50
  -2  15  13   85.49    9.20
  -1  15  13   14.40   13.20
   0  15  13    0.40    7.70
   1  15  13   51.29   14.70
   2  15  13   15.70    7.90
  -5  16  13   42.90   13.10
  -4  16  13  235.08   14.70
  -3  16  13  334.77   19.30
  -2  16  13   20.30    5.90
  -1  16  13  367.26   28.20
   0  16  13    3.40   14.90
   1  16  13  135.19  132.99
  -2  17  13   10.60    6.60
  -1  17  13   53.99  294.57
 -10   0  14  742.93   27.20
  -9   0  14    1.00    4.80
  -8   0  14 1092.29   31.20
  -7   0  14    2.70   13.40
  -6   0  14   27.90    6.40
  -5   0  14    2.00    2.90
  -4   0  14  309.57   11.20
  -3   0  14    0.00    5.10
  -2   0  14  297.97   10.40
  -1   0  14    1.20    8.70
   0   0  14  720.43   29.90
   1   0  14    0.00   10.80
   2   0  14   29.80    5.90
   3   0  14    0.00    8.80
   4   0  14   89.29   11.30
   5   0  14    0.00    4.30
   6   0  14  334.17   20.40
 -10   1  14  301.17   14.50
  -9   1  14    8.20    4.00
  -8   1  14  432.26   13.10
  -7   1  14  775.32   14.70
  -6   1  14   13.70    4.30
  -5   1  14   39.30    3.50
  -4   1  14   43.50    9.10
  -3   1  14  250.27    8.20
  -2   1  14  119.89    5.80
  -1   1  14   29.80   10.00
   0   1  14  170.28   10.00
   1   1  14 1522.65   22.70
   2   1  14  384.16   11.00
   3   1  14   29.20    8.60
   4   1  14    0.00    5.50
   5   1  14   75.59    6.40
   6   1  14  309.97   12.00
 -10   2  14   11.50   14.40
  -9   2  14   55.59    6.30
  -8   2  14    5.30    6.50
  -7   2  14   25.50    5.30
  -6   2  14   38.30    4.70
  -5   2  14  115.99    5.60
  -4   2  14   67.39    5.50
  -3   2  14    0.00   14.10
  -2   2  14   96.79    5.20
  -1   2  14  578.14   21.20
   0   2  14   14.50    4.90
   1   2  14  128.09   15.60
   2   2  14  211.78    8.40
   3   2  14  554.34   17.30
   4   2  14  175.48    9.10
   5   2  14   50.39    5.50
   6   2  14   29.40    8.60
 -10   3  14    0.00   17.40
  -9   3  14   27.50    5.20
  -8   3  14    6.60    6.70
  -7   3  14    7.60    5.80
  -6   3  14 2372.56   27.20
  -5   3  14    2.20    2.00
  -4   3  14  506.35   10.20
  -3   3  14  579.04   10.20
  -2   3  14   13.50    2.50
  -1   3  14   36.00    5.90
   0   3  14  195.08   10.60
   1   3  14  704.83   15.50
   2   3  14   33.70    4.30
   3   3  14   44.10    7.50
   4   3  14  126.49   12.30
   5   3  14  119.99    7.60
   6   3  14  104.29    9.40
  -9   4  14   13.10    4.10
  -8   4  14  329.57   13.20
  -7   4  14  479.35   12.80
  -6   4  14  122.69    8.40
  -5   4  14  730.13   11.10
  -4   4  14   13.40   10.40
  -3   4  14   46.50    4.40
  -2   4  14  257.57    7.00
  -1   4  14   18.70    9.70
   0   4  14  418.06   15.10
   1   4  14  133.99   14.50
   2   4  14   95.89    6.40
   3   4  14   37.90    9.00
   4   4  14  108.09    7.70
   5   4  14   15.60    4.30
   6   4  14   18.20   11.10
  -9   5  14   11.70    3.80
  -8   5  14  135.69   10.60
  -7   5  14   89.59    7.20
  -6   5  14   36.70    6.10
  -5   5  14   29.90    3.50
  -4   5  14  125.79    7.70
  -3   5  14   87.89    6.60
  -2   5  14  221.88    6.40
  -1   5  14  362.56   12.90
   0   5  14    6.00    4.50
   1   5  14 2394.06   29.30
   2   5  14  271.17    9.10
   3   5  14  506.65   12.80
   4   5  14  414.96   13.00
   5   5  14  141.49    9.20
   6   5  14    0.00   13.00
  -9   6  14    5.00    3.50
  -8   6  14  729.43   19.50
  -7   6  14  595.74   22.10
  -6   6  14   35.80    6.30
  -5   6  14    2.40    2.50
  -4   6  14  522.15   11.50
  -3   6  14  422.06   10.40
  -2   6  14    4.80    2.40
  -1   6  14   85.19    6.50
   0   6  14  621.24   18.50
   1   6  14   38.50    7.80
   2   6  14  225.18    8.50
   3   6  14    4.00    5.30
   4   6  14   24.90    7.60
   5   6  14   33.20    5.70
   6   6  14   57.99   19.60
  -9   7  14  334.97   12.50
  -8   7  14  106.49    8.60
  -7   7  14   74.29    7.10
  -6   7  14   42.50    6.60
  -5   7  14   11.40    3.20
  -4   7  14   46.80    5.50
  -3   7  14  263.27    8.70
  -2   7  14   82.39    5.40
  -1   7  14  649.83   14.50
   0   7  14  110.99    8.30
   1   7  14  568.34   13.10
   2   7  14   10.10    3.20
   3   7  14  149.99   16.50
   4   7  14   67.59   13.30
   5   7  14  127.19   10.40
   6   7  14    0.00   23.30
  -9   8  14   25.20    6.70
  -8   8  14   27.20    6.80
  -7   8  14  769.52   17.10
  -6   8  14   51.99    6.50
  -5   8  14   53.49    5.10
  -4   8  14    0.00    7.50
  -3   8  14  748.33   13.20
  -2   8  14   69.19    4.90
  -1   8  14  206.68    9.70
   0   8  14  273.67   12.20
   1   8  14  101.69    9.50
   2   8  14  492.65   12.10
   3   8  14  350.06   11.60
   4   8  14   33.80    8.90
   5   8  14  241.28   15.50
  -8   9  14    4.00    7.60
  -7   9  14    5.30    6.60
  -6   9  14  726.03   15.80
  -5   9  14  287.37    9.80
  -4   9  14   15.40    5.00
  -3   9  14  295.47   13.50
  -2   9  14  106.39    6.40
  -1   9  14  936.71   18.70
   0   9  14   38.00    6.00
   1   9  14  101.89    7.60
   2   9  14  145.09    8.00
   3   9  14  137.79   10.40
   4   9  14  188.28   12.00
   5   9  14  109.09   16.10
  -8  10  14   38.40   10.00
  -7  10  14  218.38   19.30
  -6  10  14  155.68    9.10
  -5  10  14  416.56   11.30
  -4  10  14  762.82   21.30
  -3  10  14   34.10    7.10
  -2  10  14   31.70    4.10
  -1  10  14   63.69    7.10
   0  10  14    5.60    5.70
   1  10  14   19.10   10.70
   2  10  14   91.09    6.60
   3  10  14    0.00   14.10
   4  10  14   28.30    9.20
   5  10  14   70.09   17.10
  -7  11  14   77.79    8.70
  -6  11  14  229.18   10.90
  -5  11  14    3.30    3.00
  -4  11  14    0.00    9.00
  -3  11  14    0.00   10.10
  -2  11  14   76.69    6.20
  -1  11  14    0.00   10.70
   0  11  14  567.44   21.00
   1  11  14 2543.15   33.60
   2  11  14   13.30    4.80
   3  11  14  205.38   25.00
   4  11  14  156.98   17.80
  -7  12  14   46.00   12.00
  -6  12  14    3.40    6.20
  -5  12  14  409.46   11.60
  -4  12  14  254.37   10.30
  -3  12  14    7.90    7.00
  -2  12  14   53.19    6.50
  -1  12  14   36.40   13.80
   0  12  14  169.38   10.40
   1  12  14  160.58   16.30
   2  12  14   78.59   10.20
   3  12  14   29.10   16.20
  -7  13  14  515.45  426.56
  -6  13  14  180.18   15.50
  -5  13  14    1.20    3.30
  -4  13  14   55.19    9.30
  -3  13  14  289.77   14.80
  -2  13  14   40.30    6.50
  -1  13  14  140.29   13.10
   0  13  14  294.97   15.20
   1  13  14   26.70   11.60
   2  13  14   29.90    7.70
   3  13  14  295.77   88.19
  -6  14  14  155.38   36.40
  -5  14  14   47.30    6.20
  -4  14  14   34.60    6.90
  -3  14  14    0.00   14.90
  -2  14  14   21.10    6.40
  -1  14  14  148.29   15.80
   0  14  14  203.98   17.10
   1  14  14    0.00   22.30
   2  14  14  118.59   13.60
  -5  15  14    6.70    6.10
  -4  15  14   11.30   13.70
  -3  15  14  452.75   20.50
  -2  15  14   33.50    7.00
  -1  15  14   19.40   12.00
   0  15  14  198.48   29.70
   1  15  14  256.57   39.70
  -3  16  14  100.79  214.88
  -2  16  14   73.69   10.00
  -1  16  14    0.00  246.48
   0  16  14  118.49   26.10
 -10   0  15  119.89  219.18
  -9   0  15    9.30    5.60
  -8   0  15   20.70   10.70
  -7   0  15  132.19    9.30
  -6   0  15   10.90    5.50
  -5   0  15 1047.70   19.20
  -4   0  15    7.50    5.50
  -3   0  15  252.57   16.20
  -2   0  15    3.50    2.90
  -1   0  15  121.59   11.90
   0   0  15    5.30    7.40
   1   0  15  479.55   20.00
   2   0  15    3.60    4.10
   3   0  15  615.64   34.80
   4   0  15    0.00   19.60
   5   0  15    5.50    5.20
   6   0  15    0.00   16.20
 -10   1  15 1079.19  405.76
  -9   1  15    1.10    3.50
  -8   1  15    0.00   11.00
  -7   1  15  452.05   16.30
  -6   1  15   47.00    7.00
  -5   1  15   39.50    4.00
  -4   1  15  442.46   10.30
  -3   1  15  707.33   13.40
  -2   1  15  857.11   13.80
  -1   1  15   15.00   19.30
   0   1  15  674.13   20.60
   1   1  15  698.93   16.20
   2   1  15  169.08    9.20
   3   1  15  203.98   13.40
   4   1  15  175.08   10.00
   5   1  15   14.10    4.20
   6   1  15  212.78   28.20
  -9   2  15    2.20    3.60
  -8   2  15    0.00   13.10
  -7   2  15  126.79   14.70
  -6   2  15  258.97    9.10
  -5   2  15   74.49    4.80
  -4   2  15 1154.18   21.90
  -3   2  15  143.19   10.70
  -2   2  15  458.15   10.10
  -1   2  15  804.52   17.40
   0   2  15   26.30    6.00
   1   2  15 1118.69   24.40
   2   2  15  108.79    7.60
   3   2  15    0.00    6.60
   4   2  15   79.79    8.00
   5   2  15   74.89    6.60
   6   2  15   20.40   13.70
  -9   3  15    5.60    4.10
  -8   3  15    0.00    9.30
  -7   3  15   22.90    8.90
  -6   3  15   52.89    6.50
  -5   3  15   97.49    5.40
  -4   3  15   16.00    7.40
  -3   3  15 1063.09   15.30
  -2   3  15  103.49    6.20
  -1   3  15    7.90   13.30
   0   3  15  185.38   10.80
   1   3  15  153.38    9.50
   2   3  15  143.69    8.60
   3   3  15   10.40    5.90
   4   3  15  385.26   12.30
   5   3  15  887.41   17.90
   6   3  15  154.88   26.80
  -9   4  15   20.50    4.10
  -8   4  15  204.28   11.50
  -7   4  15   51.89    7.20
  -6   4  15  165.28    9.20
  -5   4  15    0.80    2.10
  -4   4  15   75.89    5.10
  -3   4  15  136.79   12.40
  -2   4  15   39.20    4.10
  -1   4  15  590.14   16.90
   0   4  15  377.56   14.90
   1   4  15  608.14   15.00
   2   4  15   35.40    5.00
   3   4  15    0.00    5.80
   4   4  15   16.30    7.10
   5   4  15   51.19    7.20
  -9   5  15  446.76   12.40
  -8   5  15  118.69   11.20
  -7   5  15    9.30    5.40
  -6   5  15  235.98   10.20
  -5   5  15  148.49    7.00
  -4   5  15   41.30    6.00
  -3   5  15  486.95   10.40
  -2   5  15  317.47    8.70
  -1   5  15   52.49   25.10
   0   5  15  439.76   16.10
   1   5  15    3.60    5.00
   2   5  15  229.48    9.60
   3   5  15  244.08    9.90
   4   5  15   49.20    8.60
   5   5  15   21.20    5.60
  -9   6  15  127.59   14.00
  -8   6  15  203.68   11.00
  -7   6  15   13.00    5.10
  -6   6  15  295.37   11.30
  -5   6  15    4.00    3.00
  -4   6  15   59.49    9.10
  -3   6  15 1540.85   22.40
  -2   6  15    0.90    2.30
  -1   6  15  332.47   11.00
   0   6  15  120.49    9.00
   1   6  15  140.39    8.70
   2   6  15   80.29    6.60
   3   6  15  192.58   15.80
   4   6  15   91.99   10.40
   5   6  15    2.10    4.30
  -9   7  15    0.00    6.00
  -8   7  15  229.28   16.60
  -7   7  15    1.00    6.50
  -6   7  15  436.26   13.00
  -5   7  15   36.50    4.60
  -4   7  15   17.70    4.70
  -3   7  15  265.67    8.80
  -2   7  15  393.16    9.60
  -1   7  15   11.50    7.60
   0   7  15  217.08   11.50
   1   7  15  357.36   11.50
   2   7  15    8.90    3.60
   3   7  15  200.98   11.00
   4   7  15    0.00    9.10
   5   7  15   95.49   16.70
  -8   8  15    0.00    7.60
  -7   8  15   10.00    8.50
  -6   8  15   37.00    9.30
  -5   8  15   92.09    6.60
  -4   8  15  146.89   11.30
  -3   8  15  255.87   10.10
  -2   8  15  123.79    7.20
  -1   8  15  178.18    9.10
   0   8  15  305.77   13.40
   1   8  15  224.78   11.90
   2   8  15  140.59    8.40
   3   8  15   45.10   12.50
   4   8  15  257.37   13.70
   5   8  15  103.89   23.40
  -8   9  15   34.70  182.88
  -7   9  15   28.10    9.50
  -6   9  15  317.37   12.00
  -5   9  15   20.60    4.10
  -4   9  15  384.16   12.60
  -3   9  15  537.05   13.60
  -2   9  15    9.90    3.30
  -1   9  15    0.00    6.90
   0   9  15    2.00    5.00
   1   9  15  152.28   13.20
   2   9  15  419.96   11.50
   3   9  15   72.49    8.90
   4   9  15   88.49   17.60
  -7  10  15    2.30    6.90
  -6  10  15   94.19    8.90
  -5  10  15   10.50    3.70
  -4  10  15   14.80    9.50
  -3  10  15   81.29   14.50
  -2  10  15  225.98    8.60
  -1  10  15  227.48   10.60
   0  10  15  281.47   15.30
   1  10  15    2.20    8.20
   2  10  15   22.60    4.40
   3  10  15  303.87   16.50
   4  10  15    2.90   15.90
  -7  11  15  128.89   17.00
  -6  11  15  199.18   11.40
  -5  11  15   52.29    5.70
  -4  11  15   64.89    8.20
  -3  11  15  140.99   10.50
  -2  11  15  449.16   12.80
  -1  11  15   22.50   26.20
   0  11  15    5.70    6.30
   1  11  15    0.00   10.20
   2  11  15    1.80    6.00
   3  11  15   39.70   30.90
  -6  12  15   26.80    7.10
  -5  12  15   32.00    5.10
  -4  12  15  144.09   15.10
  -3  12  15   13.70    9.60
  -2  12  15  792.92   20.00
  -1  12  15  104.69   11.50
   0  12  15   73.49    9.20
   1  12  15  461.15   23.20
   2  12  15   18.00    7.20
   3  12  15   24.00  202.28
  -5  13  15    0.70    3.30
  -4  13  15  126.99   11.30
  -3  13  15    0.00   10.90
  -2  13  15  310.27   13.20
  -1  13  15    0.00    8.50
   0  13  15  201.98   16.30
   1  13  15  204.28   25.20
   2  13  15  171.48   25.00
  -5  14  15  149.09   14.50
  -4  14  15  190.28   26.90
  -3  14  15  184.38   24.30
  -2  14  15    1.80    4.90
  -1  14  15  403.16   20.80
   0  14  15   21.10   14.30
  -2  15  15   78.49   11.40
  -1  15  15    0.00   21.70
  -9   0  16    4.10    6.10
  -8   0  16  620.04   39.50
  -7   0  16    2.60    8.30
  -6   0  16  137.99   11.80
  -5   0  16    2.10    3.40
  -4   0  16  241.48   10.90
  -3   0  16    3.40   10.30
  -2   0  16 2645.54   42.40
  -1   0  16    0.00   17.50
   0   0  16  212.58   18.60
   1   0  16    0.00   20.90
   2   0  16  672.13   21.30
   3   0  16    0.00    9.40
   4   0  16   37.70   11.20
   5   0  16    3.10    6.20
  -9   1  16   19.60    5.50
  -8   1  16    7.50    7.40
  -7   1  16   31.50    5.10
  -6   1  16  834.62   14.70
  -5   1  16   12.80    2.90
  -4   1  16   15.20   11.30
  -3   1  16  228.18    8.10
  -2   1  16   12.00    3.60
  -1   1  16   42.10   14.30
   0   1  16    3.30    5.20
   1   1  16   42.10   10.40
   2   1  16   25.00    4.70
   3   1  16   69.09   10.90
   4   1  16  722.43   19.30
   5   1  16  302.37   14.10
  -9   2  16  134.29   14.20
  -8   2  16    2.80    7.40
  -7   2  16   25.10    6.70
  -6   2  16   89.39    7.40
  -5   2  16  170.28    7.20
  -4   2  16   56.09    8.80
  -3   2  16  467.85   15.80
  -2   2  16  307.57   10.00
  -1   2  16  610.14   23.20
   0   2  16    5.40    5.50
   1   2  16   60.99    7.90
   2   2  16    1.70    3.30
   3   2  16   72.09    8.30
   4   2  16   32.40    7.70
   5   2  16  530.75   20.50
  -9   3  16   89.39   29.20
  -8   3  16  315.47   13.70
  -7   3  16  277.07   11.80
  -6   3  16  673.13   12.30
  -5   3  16   56.09    4.40
  -4   3  16  160.58    7.30
  -3   3  16   97.99    7.30
  -2   3  16  212.08    9.20
  -1   3  16   36.30    9.10
   0   3  16  157.88   10.50
   1   3  16  107.19   10.10
   2   3  16   70.89    6.50
   3   3  16   11.80    7.20
   4   3  16    9.40    7.30
   5   3  16    0.90    6.10
  -9   4  16    5.30    7.60
  -8   4  16    1.20    6.80
  -7   4  16   72.89   11.50
  -6   4  16   12.80   11.70
  -5   4  16  180.08    7.40
  -4   4  16   27.10    5.30
  -3   4  16  233.28    9.20
  -2   4  16  549.65   12.90
  -1   4  16    0.00   13.00
   0   4  16  116.19    9.40
   1   4  16    8.40    5.30
   2   4  16   36.90    5.30
   3   4  16  262.07   11.30
   4   4  16   16.50    9.40
   5   4  16  988.50   62.29
  -9   5  16   61.19   11.70
  -8   5  16  238.28   15.30
  -7   5  16   12.50    8.20
  -6   5  16   38.60    7.50
  -5   5  16  178.58    7.40
  -4   5  16  340.67   11.40
  -3   5  16    0.00   10.40
  -2   5  16  198.88    7.80
  -1   5  16  608.64   14.10
   0   5  16   12.60    5.70
   1   5  16  131.59    9.70
   2   5  16  208.38   10.40
   3   5  16    8.90    9.60
   4   5  16   13.60    7.60
   5   5  16   76.49   25.30
  -8   6  16  122.49   17.50
  -7   6  16   21.40    5.70
  -6   6  16  486.65   16.20
  -5   6  16   15.30    3.80
  -4   6  16   66.79    6.20
  -3   6  16    7.10    5.00
  -2   6  16  196.08    8.00
  -1   6  16    5.80    6.60
   0   6  16  425.56   16.40
   1   6  16   28.50    7.20
   2   6  16   48.00    5.60
   3   6  16  196.28   12.90
   4   6  16  189.08   20.10
  -8   7  16   13.60   15.60
  -7   7  16   40.20    7.50
  -6   7  16  182.38    9.80
  -5   7  16  448.46   11.40
  -4   7  16  108.29    6.90
  -3   7  16  867.01   18.20
  -2   7  16   78.49    6.00
  -1   7  16   11.30    7.70
   0   7  16   50.09    7.00
   1   7  16  287.27   11.90
   2   7  16   44.20    5.50
   3   7  16    3.40   13.10
   4   7  16    9.00  134.99
  -7   8  16    5.00    6.10
  -6   8  16    0.00    8.20
  -5   8  16  371.76   11.00
  -4   8  16   25.30    6.90
  -3   8  16   20.70   10.40
  -2   8  16   46.70    5.20
  -1   8  16  348.67   13.10
   0   8  16  178.88   11.10
   1   8  16  679.53   17.00
   2   8  16   10.20    3.80
   3   8  16    2.70   10.00
  -7   9  16    0.00   12.90
  -6   9  16   74.99    9.90
  -5   9  16  257.07   10.00
  -4   9  16  369.46   16.70
  -3   9  16   51.19    8.90
  -2   9  16  464.75   11.90
  -1   9  16  338.07   14.60
   0   9  16   17.50    7.00
   1   9  16  285.27   11.30
   2   9  16   97.29    7.50
   3   9  16   17.30   18.50
  -6  10  16   82.79   12.20
  -5  10  16    5.90    3.40
  -4  10  16  106.19   10.20
  -3  10  16  492.05   16.20
  -2  10  16    1.80    3.10
  -1  10  16   26.00    8.20
   0  10  16   95.39   10.20
   1  10  16   87.89   14.30
   2  10  16  140.19   11.20
   3  10  16  160.78  151.68
  -6  11  16   57.99   17.80
  -5  11  16    4.20    3.40
  -4  11  16    0.00   10.30
  -3  11  16  426.46   19.90
  -2  11  16   20.10    4.90
  -1  11  16  153.78   11.00
   0  11  16    6.10    6.80
   1  11  16   15.50    9.50
   2  11  16    5.90   21.00
  -5  12  16    2.50    4.30
  -4  12  16    0.90   10.30
  -3  12  16  169.78   13.30
  -2  12  16  279.57   12.70
  -1  12  16   33.60   16.20
   0  12  16   24.10    7.60
   1  12  16    2.80   30.80
  -4  13  16   95.09   29.40
  -3  13  16  837.92   48.20
  -2  13  16  112.79   10.10
  -1  13  16   69.89   23.50
   0  13  16   83.69   12.60
  -2  14  16  502.45   35.30
  -8   0  17    0.00   11.90
  -7   0  17   18.50    7.80
  -6   0  17    4.70    7.90
  -5   0  17  421.56   13.20
  -4   0  17    0.00   10.80
  -3   0  17 1035.60   36.40
  -2   0  17    2.30    4.60
  -1   0  17  682.43   24.30
   0   0  17    5.90    8.40
   1   0  17  377.86   20.00
   2   0  17    4.10    5.80
   3   0  17  106.09   14.60
  -8   1  17    9.20    9.40
  -7   1  17   28.30    6.60
  -6   1  17   55.09    7.80
  -5   1  17   59.39    4.80
  -4   1  17   18.10    5.40
  -3   1  17  318.77   13.90
  -2   1  17   11.20    3.80
  -1   1  17  231.78   11.20
   0   1  17    8.70    6.10
   1   1  17   60.49   10.80
   2   1  17  126.79    8.70
   3   1  17    4.70    7.00
  -8   2  17  303.07   13.20
  -7   2  17  179.58   10.60
  -6   2  17  458.95   11.30
  -5   2  17   68.09    4.80
  -4   2  17   49.70    7.40
  -3   2  17   56.79    7.00
  -2   2  17    4.10    3.00
  -1   2  17   13.70    7.80
   0   2  17  150.28   11.20
   1   2  17   19.10    8.30
   2   2  17  886.71   17.90
   3   2  17    5.00    8.00
  -8   3  17   24.10   10.00
  -7   3  17  206.98   10.00
  -6   3  17  137.49    7.90
  -5   3  17  123.89    6.20
  -4   3  17  418.86   11.60
  -3   3  17    2.50    5.90
  -2   3  17  326.87   10.80
  -1   3  17  123.09   10.30
   0   3  17  117.89   10.10
   1   3  17  267.87   11.40
   2   3  17   83.39    7.30
   3   3  17  382.36   21.70
  -8   4  17    0.00   12.30
  -7   4  17  196.78   10.50
  -6   4  17  574.24   14.40
  -5   4  17  282.17    8.10
  -4   4  17    0.00    6.40
  -3   4  17   10.20    6.10
  -2   4  17   57.79    5.90
  -1   4  17    9.60    5.90
   0   4  17   11.10    5.80
   1   4  17   66.69    9.80
   2   4  17    4.90    3.50
   3   4  17   89.49    8.90
  -8   5  17   24.20   32.10
  -7   5  17   12.20    9.10
  -6   5  17    0.00    7.20
  -5   5  17    2.50    2.70
  -4   5  17   81.39   11.20
  -3   5  17    0.00    8.30
  -2   5  17    8.20    3.60
  -1   5  17   89.49    9.20
   0   5  17    5.00    5.70
   1   5  17  168.38   10.10
   2   5  17   17.30    4.30
   3   5  17    4.20    7.30
  -7   6  17   18.10    6.40
  -6   6  17   66.79   12.20
  -5   6  17   15.80    4.10
  -4   6  17   16.50    6.80
  -3   6  17  693.03   16.20
  -2   6  17   28.70    4.70
  -1   6  17  294.67   11.40
   0   6  17  292.97   14.30
   1   6  17  313.37   14.00
   2   6  17    6.90    3.90
   3   6  17  297.47   17.40
  -7   7  17   66.49   11.80
  -6   7  17   21.90    7.80
  -5   7  17    3.80    3.40
  -4   7  17  318.77   12.90
  -3   7  17   88.69   10.40
  -2   7  17  279.67   10.20
  -1   7  17  116.99   10.80
   0   7  17   52.29    7.60
   1   7  17    5.10    5.30
   2   7  17  112.29    8.50
   3   7  17   23.40  196.68
  -7   8  17   45.80  304.17
  -6   8  17  398.46   21.40
  -5   8  17    0.60    3.10
  -4   8  17   27.00    8.60
  -3   8  17  283.47   12.20
  -2   8  17  236.88   10.30
  -1   8  17  100.79   13.60
   0   8  17  232.38   12.80
   1   8  17  147.19   10.10
   2   8  17   20.10    4.60
  -6   9  17   75.59   12.80
  -5   9  17    9.40    4.50
  -4   9  17    7.20   10.90
  -3   9  17    0.00    7.60
  -2   9  17    2.30    3.30
  -1   9  17    7.00    7.90
   0   9  17   26.20    7.80
   1   9  17    0.70    6.00
   2   9  17   74.19    8.50
  -5  10  17   21.40    6.10
  -4  10  17    0.00    7.70
  -3  10  17   46.30   13.80
  -2  10  17    2.20    3.80
  -1  10  17  319.37   15.20
   0  10  17   10.90    7.20
   1  10  17    4.70    7.10
  -5  11  17  140.49   21.90
  -4  11  17    0.00   14.30
  -3  11  17    7.00   16.90
  -2  11  17   92.29   10.30
  -1  11  17   56.29    9.70
   0  11  17  154.88   13.10
   1  11  17   20.60    9.30
  -3  12  17   22.70  111.79
  -1  12  17    0.00   16.80
  -7   0  18   11.70   19.10
  -6   0  18   60.19   18.90
  -5   0  18    1.50    3.70
  -4   0  18  601.24   23.10
  -3   0  18    9.90    9.70
  -2   0  18   49.30    9.20
  -1   0  18    9.70   18.30
   0   0  18    8.90    9.70
   1   0  18    0.00   12.50
   2   0  18  104.79   11.80
  -7   1  18  378.26   13.50
  -6   1  18   44.70    8.50
  -5   1  18  236.28    8.70
  -4   1  18   14.90    9.20
  -3   1  18  222.08   11.60
  -2   1  18   48.80    5.90
  -1   1  18  196.58   11.60
   0   1  18  304.17   15.30
   1   1  18    9.60    9.20
   2   1  18  130.29    9.20
  -7   2  18   41.50    6.30
  -6   2  18   11.00    6.70
  -5   2  18  161.88    7.90
  -4   2  18   30.50    7.20
  -3   2  18   22.80    7.90
  -2   2  18    5.20    3.70
  -1   2  18   71.99    8.70
   0   2  18   41.60    7.70
   1   2  18  145.69   10.50
   2   2  18  163.38   10.10
  -7   3  18   87.09    8.20
  -6   3  18    0.00    8.00
  -5   3  18    9.60    3.30
  -4   3  18    0.00   10.00
  -3   3  18   37.90    7.50
  -2   3  18   17.00    4.50
  -1   3  18   13.50    8.60
   0   3  18   48.10    8.10
   1   3  18    4.80    6.50
   2   3  18   76.29    7.10
  -7   4  18  226.98   13.80
  -6   4  18  110.79   10.10
  -5   4  18    2.60    3.10
  -4   4  18   40.10    6.70
  -3   4  18    2.50   10.20
  -2   4  18   53.69    6.20
  -1   4  18  264.57   12.00
   0   4  18   69.99    9.00
   1   4  18   57.49    8.70
   2   4  18   16.50    4.50
  -7   5  18  236.88   48.40
  -6   5  18  137.99   12.10
  -5   5  18   48.40    5.80
  -4   5  18  106.39    8.30
  -3   5  18  217.48   10.70
  -2   5  18  437.06   12.40
  -1   5  18   10.70    7.30
   0   5  18  198.38   12.90
   1   5  18    0.00    5.80
   2   5  18  748.93   20.70
  -7   6  18   28.40  226.08
  -6   6  18  657.13   25.70
  -5   6  18    3.00    4.10
  -4   6  18   41.10    8.80
  -3   6  18  230.58   13.10
  -2   6  18   92.29    7.20
  -1   6  18  295.67   14.50
   0   6  18   18.80    7.00
   1   6  18  373.96   19.00
   2   6  18   38.20   10.40
  -6   7  18   27.10   19.90
  -5   7  18  144.19   11.00
  -4   7  18   92.59    8.60
  -3   7  18  497.85   15.80
  -2   7  18    1.80    3.30
  -1   7  18   31.30    7.00
   0   7  18    1.00    6.10
   1   7  18    3.10    6.30
  -5   8  18   66.09   12.60
  -4   8  18    0.10   11.80
  -3   8  18  103.99   10.20
  -2   8  18   23.90    4.90
  -1   8  18    3.50    8.10
   0   8  18    1.90    6.30
   1   8  18  145.39   20.10
  -5   9  18    8.50    9.40
  -4   9  18   96.79   19.70
  -3   9  18  231.78   23.60
  -2   9  18  191.28   10.80
  -1   9  18   11.90    7.50
  -4  10  18    0.90   15.40
  -3  10  18   73.89  281.17
  -2  10  18    7.10    8.10
  -1  10  18  268.67   36.70
  -6   0  19    4.70   16.90
  -5   0  19  448.86   16.10
  -4   0  19   12.00   11.10
  -3   0  19   44.30   14.20
  -2   0  19    4.90    5.10
  -1   0  19   70.39   13.70
   0   0  19    0.50    9.90
  -6   1  19  372.86   24.60
  -5   1  19  135.09    8.10
  -4   1  19  174.98   17.60
  -3   1  19   11.50    7.20
  -2   1  19    3.30    3.60
  -1   1  19  116.19   10.00
   0   1  19  170.68   12.60
  -6   2  19   34.40   10.10
  -5   2  19    3.70    3.50
  -4   2  19   20.60    7.50
  -3   2  19   71.49    8.40
  -2   2  19   27.60    5.20
  -1   2  19   13.80    9.90
   0   2  19   72.49    9.50
  -6   3  19    0.00   14.60
  -5   3  19   58.69    6.00
  -4   3  19   30.50    7.40
  -3   3  19  953.50   23.20
  -2   3  19   67.09    6.90
  -1   3  19  118.09    9.40
   0   3  19  120.19   11.00
  -5   4  19    5.90    4.30
  -4   4  19  151.08   10.20
  -3   4  19    0.00    8.30
  -2   4  19  206.58   10.40
  -1   4  19   58.19    8.60
   0   4  19  229.88   33.60
  -5   5  19  119.29   17.90
  -4   5  19   17.70    8.10
  -3   5  19   17.10    7.50
  -2   5  19   29.60    5.30
  -1   5  19  232.78   11.70
   0   5  19   27.20   18.50
  -5   6  19  225.08   20.30
  -4   6  19   46.70   20.90
  -3   6  19   18.00   20.30
  -2   6  19   42.20    6.00
  -1   6  19  102.39   15.70
   0   6  19   12.30   17.70
  -4   7  19   46.90  250.17
  -3   7  19   30.50  108.79
  -2   7  19  451.45   23.20
  -1   7  19    9.60   10.90
  -2   8  19   13.80   11.70
  -5   2  20   16.70   15.40
  -2   2  20   15.80   13.80
;
_shelx_hkl_checksum              67269
#END Tags that were not found in dictionaries
loop_
_space_group_symop_operation_xyz
'x, y, z'
'-x+1/2, y+1/2, -z+1/2'
'-x, -y, -z'
'x-1/2, -y-1/2, z-1/2'
loop_
_atom_site_label
_atom_site_type_symbol
_atom_site_fract_x
_atom_site_fract_y
_atom_site_fract_z
_atom_site_U_iso_or_equiv
_atom_site_adp_type
_atom_site_occupancy
_atom_site_site_symmetry_order
_atom_site_calc_flag
_atom_site_refinement_flags_posn
_atom_site_refinement_flags_adp
_atom_site_refinement_flags_occupancy
_atom_site_disorder_assembly
_atom_site_disorder_group
I2 I 0.74021(6) 0.27632(3) 0.94849(3) 0.00887(9) Uani 1 1 d . U . . .
I6 I 0.88341(6) 0.40896(3) 1.25106(3) 0.01072(10) Uani 1 1 d . U . . .
I1 I 1.18850(6) 0.27651(3) 0.91103(4) 0.01058(10) Uani 1 1 d . U . . .
I3 I 1.33749(6) 0.39938(3) 1.22705(4) 0.00989(9) Uani 1 1 d . U . . .
I7 I 1.5000 0.5000 1.0000 0.01359(14) Uani 1 2 d S U P . .
I5 I 0.54811(6) 0.35131(3) 0.68466(4) 0.01270(10) Uani 1 1 d . U . . .
I4 I 1.02399(6) 0.35596(4) 0.62790(4) 0.01541(11) Uani 1 1 d . U . . .
Tc4 Tc 0.88907(7) 0.42304(4) 1.05036(4) 0.00671(11) Uani 1 1 d . U . . .
Tc2 Tc 1.03577(7) 0.42825(4) 0.82141(4) 0.00705(11) Uani 1 1 d . U . . .
Tc3 Tc 0.77548(7) 0.43133(4) 0.84279(4) 0.00631(11) Uani 1 1 d . U . . .
Tc1 Tc 1.15226(7) 0.41919(4) 1.03294(4) 0.00674(11) Uani 1 1 d . U . . .
K1 K 0.3391(4) 0.5030(2) 0.5015(3) 0.0169(7) Uani 0.5 1 d . U P . .
loop_
_atom_site_aniso_label
_atom_site_aniso_U_11
_atom_site_aniso_U_22
_atom_site_aniso_U_33
_atom_site_aniso_U_23
_atom_site_aniso_U_13
_atom_site_aniso_U_12
I2 0.0106(2) 0.0065(2) 0.0093(2) 0.00061(16) 0.00150(16) -0.00209(16)
I6 0.0123(2) 0.0116(2) 0.0090(2) 0.00146(16) 0.00392(16) -0.00225(17)
I1 0.0109(2) 0.0078(2) 0.0126(2) -0.00215(16) 0.00151(17) 0.00242(16)
I3 0.0103(2) 0.0084(2) 0.0101(2) 0.00219(16) 0.00033(16) 0.00144(16)
I7 0.0107(3) 0.0131(3) 0.0183(3) 0.0015(3) 0.0061(3) -0.0006(2)
I5 0.0129(2) 0.0117(2) 0.0111(2) 0.00025(17) -0.00304(17) -0.00329(17)
I4 0.0127(2) 0.0210(3) 0.0131(2) -0.00846(19) 0.00413(18) -0.00123(19)
Tc4 0.0075(3) 0.0059(2) 0.0066(2) 0.0005(2) 0.0012(2) -0.0003(2)
Tc2 0.0068(2) 0.0072(3) 0.0073(3) -0.0011(2) 0.0018(2) -0.0003(2)
Tc3 0.0064(2) 0.0059(2) 0.0065(2) 0.00027(19) 0.00105(19) -0.0001(2)
Tc1 0.0074(2) 0.0054(2) 0.0072(2) -0.00024(19) 0.0012(2) 0.0005(2)
K1 0.0138(15) 0.0204(17) 0.0171(16) 0.0168(14) 0.0044(13) 0.0067(13)
loop_
_atom_type_symbol
_atom_type_description
_atom_type_scat_dispersion_real
_atom_type_scat_dispersion_imag
_atom_type_scat_source
Tc Tc -1.4390 0.7593 'International Tables Vol C Tables 4.2.6.8 and 6.1.1.4'
I I -0.4742 1.8119 'International Tables Vol C Tables 4.2.6.8 and 6.1.1.4'
K K 0.2009 0.2494 'International Tables Vol C Tables 4.2.6.8 and 6.1.1.4'
loop_
_geom_angle_atom_site_label_1
_geom_angle_atom_site_label_2
_geom_angle_atom_site_label_3
_geom_angle
_geom_angle_site_symmetry_1
_geom_angle_site_symmetry_3
Tc4 I2 Tc3 60.53(2) . .
Tc4 I6 Tc2 61.41(2) . 3_767
Tc2 I1 Tc1 61.95(2) . .
Tc1 I3 Tc3 60.18(2) . 3_767
Tc1 I3 K1 137.08(5) . 1_656
Tc3 I3 K1 84.35(5) 3_767 1_656
Tc1 I7 Tc1 180.0 3_867 .
Tc3 I5 K1 114.37(7) . .
Tc3 I5 K1 92.86(6) . 3_666
K1 I5 K1 43.77(10) . 3_666
Tc2 I4 K1 94.96(6) . 3_666
Tc2 I4 K1 106.81(6) . 1_655
K1 I4 K1 90.90(7) 3_666 1_655
Tc1 Tc4 Tc1 90.99(3) . 3_767
Tc1 Tc4 I2 105.45(3) . .
Tc1 Tc4 I2 120.11(3) 3_767 .
Tc1 Tc4 I6 109.03(3) . .
Tc1 Tc4 I6 118.19(3) 3_767 .
I2 Tc4 I6 109.87(2) . .
Tc1 Tc4 Tc3 91.04(3) . .
Tc1 Tc4 Tc3 62.24(2) 3_767 .
I2 Tc4 Tc3 60.34(2) . .
I6 Tc4 Tc3 159.77(3) . .
Tc1 Tc4 Tc2 89.74(3) . 3_767
Tc1 Tc4 Tc2 62.93(2) 3_767 3_767
I2 Tc4 Tc2 164.15(3) . 3_767
I6 Tc4 Tc2 59.53(2) . 3_767
Tc3 Tc4 Tc2 125.17(3) . 3_767
Tc3 Tc2 I1 108.80(3) . .
Tc3 Tc2 I6 109.94(3) . 3_767
I1 Tc2 I6 139.74(3) . 3_767
Tc3 Tc2 Tc4 89.65(3) . 3_767
I1 Tc2 Tc4 110.99(3) . 3_767
I6 Tc2 Tc4 59.06(2) 3_767 3_767
Tc3 Tc2 I4 106.65(3) . .
I1 Tc2 I4 91.06(2) . .
I6 Tc2 I4 88.17(2) 3_767 .
Tc4 Tc2 I4 147.01(3) 3_767 .
Tc3 Tc2 Tc1 89.78(3) . .
I1 Tc2 Tc1 59.133(19) . .
I6 Tc2 Tc1 110.42(2) 3_767 .
Tc4 Tc2 Tc1 55.01(2) 3_767 .
I4 Tc2 Tc1 149.66(3) . .
Tc2 Tc3 I2 105.11(3) . .
Tc2 Tc3 Tc4 90.35(3) . .
I2 Tc3 Tc4 59.128(19) . .
Tc2 Tc3 Tc1 90.47(3) . 3_767
I2 Tc3 Tc1 112.84(3) . 3_767
Tc4 Tc3 Tc1 55.84(2) . 3_767
Tc2 Tc3 I3 103.60(3) . 3_767
I2 Tc3 I3 150.34(3) . 3_767
Tc4 Tc3 I3 113.66(3) . 3_767
Tc1 Tc3 I3 59.48(2) 3_767 3_767
Tc2 Tc3 I5 113.38(3) . .
I2 Tc3 I5 85.05(2) . .
Tc4 Tc3 I5 141.75(3) . .
Tc1 Tc3 I5 145.98(3) 3_767 .
I3 Tc3 I5 90.35(2) 3_767 .
Tc4 Tc1 Tc4 89.01(3) . 3_767
Tc4 Tc1 I1 108.42(3) . .
Tc4 Tc1 I1 117.39(3) 3_767 .
Tc4 Tc1 I3 104.63(3) . .
Tc4 Tc1 I3 120.34(3) 3_767 .
I1 Tc1 I3 112.45(2) . .
Tc4 Tc1 Tc3 90.11(3) . 3_767
Tc4 Tc1 Tc3 61.92(2) 3_767 3_767
I1 Tc1 Tc3 161.46(3) . 3_767
I3 Tc1 Tc3 60.33(2) . 3_767
Tc4 Tc1 Tc2 88.84(3) . .
Tc4 Tc1 Tc2 62.06(2) 3_767 .
I1 Tc1 Tc2 58.91(2) . .
I3 Tc1 Tc2 166.15(3) . .
Tc3 Tc1 Tc2 123.98(3) 3_767 .
Tc4 Tc1 I7 156.43(3) . .
Tc4 Tc1 I7 68.833(19) 3_767 .
I1 Tc1 I7 89.599(19) . .
I3 Tc1 I7 81.175(18) . .
Tc3 Tc1 I7 72.709(18) 3_767 .
Tc2 Tc1 I7 87.72(2) . .
K1 K1 I5 69.60(12) 3_666 .
K1 K1 I5 66.63(12) 3_666 3_666
I5 K1 I5 136.23(10) . 3_666
K1 K1 I4 134.84(17) 3_666 3_666
I5 K1 I4 154.94(10) . 3_666
I5 K1 I4 68.49(5) 3_666 3_666
K1 K1 I3 77.31(16) 3_666 1_454
I5 K1 I3 108.07(9) . 1_454
I5 K1 I3 62.24(5) 3_666 1_454
I4 K1 I3 86.43(7) 3_666 1_454
K1 K1 I4 135.93(17) 3_666 1_455
I5 K1 I4 67.26(5) . 1_455
I5 K1 I4 155.36(10) 3_666 1_455
I4 K1 I4 89.10(7) 3_666 1_455
I3 K1 I4 107.91(9) 1_454 1_455
loop_
_geom_bond_atom_site_label_1
_geom_bond_atom_site_label_2
_geom_bond_distance
_geom_bond_site_symmetry_2
I2 Tc4 2.6602(7) .
I2 Tc3 2.6933(7) .
I6 Tc4 2.6660(7) .
I6 Tc2 2.6790(7) 3_767
I1 Tc2 2.6693(7) .
I1 Tc1 2.6754(7) .
I3 Tc1 2.6872(7) .
I3 Tc3 2.7104(7) 3_767
I3 K1 3.918(4) 1_656
I7 Tc1 3.1341(6) 3_867
I7 Tc1 3.1341(6) .
I5 Tc3 2.7191(7) .
I5 K1 3.430(3) .
I5 K1 3.502(3) 3_666
I4 Tc2 2.7434(8) .
I4 K1 3.665(3) 3_666
I4 K1 3.936(3) 1_655
Tc4 Tc1 2.1674(8) .
Tc4 Tc1 2.5308(8) 3_767
Tc4 Tc3 2.6983(8) .
Tc4 Tc2 2.7291(8) 3_767
Tc2 Tc3 2.1611(8) .
Tc2 I6 2.6790(7) 3_767
Tc2 Tc4 2.7292(8) 3_767
Tc2 Tc1 2.7508(8) .
Tc3 Tc1 2.7065(8) 3_767
Tc3 I3 2.7104(7) 3_767
Tc1 Tc4 2.5309(8) 3_767
Tc1 Tc3 2.7064(8) 3_767
K1 K1 2.585(7) 3_666
K1 I5 3.502(3) 3_666
K1 I4 3.665(3) 3_666
K1 I3 3.918(4) 1_454
K1 I4 3.936(3) 1_455
