#------------------------------------------------------------------------------
#$Date: 2016-02-18 17:37:37 +0200 (Thu, 18 Feb 2016) $
#$Revision: 176729 $
#$URL: svn://www.crystallography.net/cod/cif/1/51/82/1518269.cif $
#------------------------------------------------------------------------------
#
# This file is available in the Crystallography Open Database (COD),
# http://www.crystallography.net/
#
# All data on this site have been placed in the public domain by the
# contributors.
#
data_1518269
loop_
_publ_author_name
'Chen, Wenwen'
'Wang, Bo'
'Liu, Nan'
'Huang, Dayun'
'Wang, Xinyan'
'Hu, Yuefei'
_publ_section_title
;
 Tandem Synthesis of 3-Halo-5-Substituted Isoxazoles from 1-Copper(I)
 Alkynes and Dihaloformaldoximes.
;
_journal_issue                   23
_journal_name_full               'Organic letters'
_journal_page_first              6140
_journal_paper_doi               10.1021/ol503008t
_journal_volume                  16
_journal_year                    2014
_chemical_absolute_configuration ad
_chemical_formula_sum            'C9 H6 Br N O'
_chemical_formula_weight         224.06
_chemical_name_systematic
; 
 ? 
;
_space_group_crystal_system      monoclinic
_space_group_IT_number           4
_space_group_name_Hall           'P 2yb'
_space_group_name_H-M_alt        'P 1 21 1'
_symmetry_space_group_name_Hall  'P 2yb'
_symmetry_space_group_name_H-M   'P 1 21 1'
_atom_sites_solution_hydrogens   mixed
_audit_creation_method           SHELXL-2014
_cell_angle_alpha                90
_cell_angle_beta                 93.215(4)
_cell_angle_gamma                90
_cell_formula_units_Z            2
_cell_length_a                   9.584(3)
_cell_length_b                   4.1885(11)
_cell_length_c                   11.089(3)
_cell_measurement_reflns_used    888
_cell_measurement_temperature    296(2)
_cell_measurement_theta_max      21.80
_cell_measurement_theta_min      2.89
_cell_volume                     444.4(2)
_computing_cell_refinement       'Bruker SAINT'
_computing_data_collection       'Bruker APEX2'
_computing_data_reduction        'Bruker SAINT'
_computing_molecular_graphics    'Bruker SHELXTL'
_computing_publication_material  'Bruker SHELXTL'
_computing_structure_refinement  'SHELXL-2014 (Sheldrick, 2014)'
_computing_structure_solution    'SHELXS-97 (Sheldrick, 2008)'
_diffrn_ambient_temperature      296(2)
_diffrn_measured_fraction_theta_full 1.000
_diffrn_measured_fraction_theta_max 0.997
_diffrn_measurement_device_type  'Bruker APEX-II CCD'
_diffrn_measurement_method       '\f and \w scans'
_diffrn_radiation_type           MoK\a
_diffrn_radiation_wavelength     0.71073
_diffrn_reflns_av_R_equivalents  0.0427
_diffrn_reflns_av_unetI/netI     0.1001
_diffrn_reflns_Laue_measured_fraction_full 1.000
_diffrn_reflns_Laue_measured_fraction_max 0.997
_diffrn_reflns_limit_h_max       13
_diffrn_reflns_limit_h_min       -12
_diffrn_reflns_limit_k_max       5
_diffrn_reflns_limit_k_min       -5
_diffrn_reflns_limit_l_max       15
_diffrn_reflns_limit_l_min       -15
_diffrn_reflns_number            4256
_diffrn_reflns_point_group_measured_fraction_full 0.938
_diffrn_reflns_point_group_measured_fraction_max 0.925
_diffrn_reflns_theta_full        25.242
_diffrn_reflns_theta_max         30.018
_diffrn_reflns_theta_min         1.839
_exptl_absorpt_coefficient_mu    4.572
_exptl_absorpt_correction_T_max  0.746
_exptl_absorpt_correction_T_min  0.463
_exptl_absorpt_correction_type   multi-scan
_exptl_absorpt_process_details   sadabs
_exptl_crystal_colour            colourless
_exptl_crystal_density_diffrn    1.674
_exptl_crystal_description       Block
_exptl_crystal_F_000             220
_exptl_crystal_size_max          0.250
_exptl_crystal_size_mid          0.100
_exptl_crystal_size_min          0.020
_refine_diff_density_max         0.545
_refine_diff_density_min         -0.376
_refine_diff_density_rms         0.079
_refine_ls_abs_structure_details
; 
 Flack x determined using 381 quotients [(I+)-(I-)]/[(I+)+(I-)] 
 (Parsons, Flack and Wagner, Acta Cryst. B69 (2013) 249-259). 
;
_refine_ls_abs_structure_Flack   0.06(3)
_refine_ls_extinction_method     none
_refine_ls_goodness_of_fit_ref   0.939
_refine_ls_hydrogen_treatment    mixed
_refine_ls_matrix_type           full
_refine_ls_number_parameters     113
_refine_ls_number_reflns         2405
_refine_ls_number_restraints     1
_refine_ls_restrained_S_all      0.938
_refine_ls_R_factor_all          0.1128
_refine_ls_R_factor_gt           0.0474
_refine_ls_shift/su_max          0.004
_refine_ls_shift/su_mean         0.000
_refine_ls_structure_factor_coef Fsqd
_refine_ls_weighting_details
'w=1/[\s^2^(Fo^2^)+(0.0300P)^2^] where P=(Fo^2^+2Fc^2^)/3'
_refine_ls_weighting_scheme      calc
_refine_ls_wR_factor_gt          0.0900
_refine_ls_wR_factor_ref         0.1094
_reflns_Friedel_coverage         0.645
_reflns_Friedel_fraction_full    0.854
_reflns_Friedel_fraction_max     0.832
_reflns_number_gt                1302
_reflns_number_total             2405
_reflns_threshold_expression     'I > 2\s(I)'
_cod_data_source_file            ol503008t_si_002.cif
_cod_data_source_block           mo_dm14406_0m
_cod_depositor_comments          'Adding full bibliography for 1518269.cif.'
_cod_original_cell_volume        444.5(2)
_cod_database_code               1518269
#BEGIN Tags that were not found in dictionaries:
_shelx_space_group_comment
; 
The symmetry employed for this shelxl refinement is uniquely defined 
by the following loop, which should always be used as a source of 
symmetry information in preference to the above space-group names. 
They are only intended as comments. 
;
_shelx_estimated_absorpt_t_min   0.394
_shelx_estimated_absorpt_t_max   0.914
_shelxl_version_number           2014-3
_shelx_res_file
; 
TITL mo_dm14406_0m in P2(1) 
CELL 0.71073 9.5845 4.1885 11.0889 90.000 93.215 90.000 
ZERR 2.00 0.0025 0.0011 0.0029 0.000 0.004 0.000 
LATT -1 
SYMM -x, y+1/2, -z 
SFAC C  H  N  O  Br 
UNIT 18  12  2  2  2 
L.S. 4 
ACTA 
BOND $H 
FMAP 2 
PLAN 10 
HTAB O1 N1_$1 
EQIV $1 -x+2, y-1/2, -z+1 
SIZE 0.020 0.100 0.250 
htab 
conf 
wpdb -1 
TEMP 23.000 
WGHT    0.030000 
FVAR       0.38274 
BR1   5    0.645491    1.223680    0.446922    11.00000    0.06296    0.06244 = 
         0.05677   -0.00001    0.00735    0.00383 
N1    3    0.881561    0.888292    0.434718    11.00000    0.04791    0.05289 = 
         0.04190    0.00087    0.00147   -0.00691 
O1    4    0.973932    0.714385    0.368929    11.00000    0.05919    0.08099 = 
         0.04470    0.01480   -0.00038    0.00867 
C1    1    0.636994    0.990221   -0.066699    11.00000    0.05651    0.06736 = 
         0.05278   -0.00076   -0.00539   -0.00655 
AFIX  43 
H1    2    0.565957    1.108063   -0.034164    11.00000   -1.20000 
AFIX   0 
C2    1    0.638139    0.943056   -0.188565    11.00000    0.08099    0.08270 = 
         0.05233    0.00918   -0.01917   -0.00709 
AFIX  43 
H2    2    0.566901    1.028720   -0.239002    11.00000   -1.20000 
AFIX   0 
C3    1    0.741858    0.772788   -0.237159    11.00000    0.11584    0.08743 = 
         0.04129   -0.01591    0.01034   -0.03337 
AFIX  43 
H3    2    0.741922    0.745208   -0.320374    11.00000   -1.20000 
AFIX   0 
C4    1    0.845620    0.642637   -0.164104    11.00000    0.08383    0.07059 = 
         0.08661   -0.02634    0.03947   -0.01860 
AFIX  43 
H4    2    0.916790    0.526933   -0.197419    11.00000   -1.20000 
AFIX   0 
C5    1    0.845223    0.681715   -0.042626    11.00000    0.05033    0.05881 = 
         0.07023   -0.00718    0.00313   -0.00066 
AFIX  43 
H5    2    0.914781    0.586787    0.007058    11.00000   -1.20000 
AFIX   0 
C6    1    0.743181    0.859979    0.007735    11.00000    0.04605    0.04575 = 
         0.03854   -0.00100   -0.00256   -0.01090 
C7    1    0.746283    0.910988    0.135523    11.00000    0.04886    0.04808 = 
         0.05254    0.00130   -0.00409   -0.00620 
C8    1    0.758984    0.946738    0.240964    11.00000    0.05427    0.04878 = 
         0.04720    0.00632   -0.00208   -0.00174 
C9    1    0.779772    0.990654    0.365135    11.00000    0.04779    0.05041 = 
         0.03479    0.00520    0.00170   -0.00784 
H1A   2    1.012919    0.625359    0.415790    11.00000    0.06593 
HKLF 4 1 1 0 0 0 1 0 0 0 1 
  
REM  mo_dm14406_0m in P2(1) 
REM R1 =  0.0474 for    1302 Fo > 4sig(Fo)  and  0.1128 for all    2405 data 
REM    113 parameters refined using      1 restraints 
  
END 
  
WGHT      0.0335      0.0000 
  
REM Instructions for potential hydrogen bonds 
HTAB O1 N1_$1 
  
REM Highest difference peak  0.545,  deepest hole -0.376,  1-sigma level  0.079 
Q1    1   0.6556  1.2364  0.3774  11.00000  0.05    0.55 
Q2    1   0.5954  1.0954  0.5397  11.00000  0.05    0.34 
Q3    1   0.6499  1.2055  0.5225  11.00000  0.05    0.33 
Q4    1   0.6757  1.2362  0.5783  11.00000  0.05    0.32 
Q5    1   0.5557  1.2344  0.3847  11.00000  0.05    0.31 
Q6    1   0.6908  1.3691  0.3616  11.00000  0.05    0.31 
Q7    1   0.7261  0.9243  0.3111  11.00000  0.05    0.29 
Q8    1   0.5979  1.3808  0.5400  11.00000  0.05    0.28 
Q9    1   0.6355  1.0924  0.4416  11.00000  0.05    0.26 
Q10   1   0.7038  1.0797 -0.1637  11.00000  0.05    0.26 
;
_shelx_res_checksum              73800
_shelx_hkl_file
; 
   1   0   0   34.33    2.33 
   1   0   0   34.40    2.23 
   2   0   0  504.95   32.01 
   2   0   0  476.09   30.67 
   3   0   0  369.76   24.33 
   3   0   0  373.94   23.31 
   4   0   0  142.21    8.93 
   4   0   0  138.28    9.32 
   5   0   0   20.00    1.71 
   5   0   0   19.16    1.59 
   6   0   0   38.25    2.90 
   6   0   0   37.48    2.72 
   7   0   0   64.52    4.43 
   7   0   0   65.63    4.69 
   8   0   0   61.30    4.51 
   8   0   0   60.01    4.23 
   9   0   0    4.82    1.40 
   9   0   0    4.89    1.16 
  10   0   0   26.57    2.79 
  11   0   0    3.14    1.69 
  11   0   0    3.98    1.36 
  12   0   0    0.73    1.74 
  13   0   0    0.59    2.01 
   0  -1   0    0.58    0.39 
   0  -1   0   -0.36    0.38 
   0  -1   0   -0.15    0.32 
   1  -1   0  396.84   27.81 
   1  -1   0  431.73   24.88 
  -1  -1   0  428.36   24.84 
  -1  -1   0  429.35   26.66 
   1  -1   0  440.84   26.62 
   2  -1   0  877.47   53.14 
  -2  -1   0  875.64   53.22 
   2  -1   0  849.19   55.52 
  -2  -1   0  823.53   49.57 
   2  -1   0  850.17   49.64 
   2   1   0  827.78   53.21 
  -3  -1   0   85.44    5.49 
   3  -1   0   82.42    6.18 
   3   1   0  101.45    6.13 
   3   1   0   96.72    5.97 
   4  -1   0   47.86    3.35 
   4  -1   0   44.24    3.15 
   4   1   0   48.94    3.23 
   4   1   0   42.96    3.19 
   5  -1   0  194.19   11.93 
   5  -1   0  182.27   12.53 
   5   1   0  186.16   12.42 
   5   1   0  188.08   12.02 
   6  -1   0   63.31    4.00 
   6  -1   0   63.01    4.32 
   6   1   0   55.29    4.10 
   6   1   0   53.19    4.11 
   7  -1   0   16.37    1.62 
   7  -1   0   15.01    1.87 
   7   1   0   17.35    1.83 
   7   1   0   16.66    1.76 
   8  -1   0   51.92    4.02 
   8   1   0   48.54    3.83 
   8   1   0   50.98    3.84 
   9  -1   0   10.80    1.39 
   9  -1   0   11.06    1.87 
   9   1   0    8.66    1.60 
   9   1   0    8.40    1.68 
  10  -1   0    3.04    1.65 
  10   1   0    1.08    1.38 
  10   1   0    3.78    1.49 
  11  -1   0    2.23    1.80 
  11   1   0    1.94    1.55 
  11   1   0    1.64    1.59 
  12  -1   0    4.39    2.00 
  12   1   0    2.21    1.68 
  13  -1   0    1.26    2.12 
   0  -2   0  138.55    9.32 
   0  -2   0  139.45    8.32 
   0  -2   0  139.43    8.90 
   1  -2   0   15.64    1.41 
   1  -2   0   18.36    1.41 
  -1  -2   0   15.37    1.57 
  -1  -2   0   16.66    1.30 
   1  -2   0   17.39    1.59 
  -1  -2   0   16.52    1.49 
   2  -2   0   18.58    1.50 
  -2  -2   0   18.31    1.40 
   2  -2   0   17.89    1.44 
  -2  -2   0   17.01    1.63 
   2  -2   0   16.98    1.70 
  -3  -2   0  117.81    7.22 
   3  -2   0  119.43    7.70 
   3  -2   0  117.57    8.22 
   3   2   0  129.61    7.94 
   4  -2   0   82.68    5.17 
  -4  -2   0   80.33    4.85 
   4  -2   0   79.89    5.61 
   4   2   0   80.48    5.54 
   4   2   0   73.01    5.41 
   5  -2   0    7.80    0.96 
  -5  -2   0    7.40    0.84 
   5  -2   0    6.96    1.32 
   5   2   0    7.03    1.19 
   5   2   0    6.90    1.34 
  -6  -2   0   65.80    4.17 
   6  -2   0   66.05    4.91 
   6  -2   0   73.13    4.48 
   6   2   0   60.84    4.65 
   6   2   0   63.29    4.74 
   7  -2   0   15.35    2.02 
   7   2   0   13.51    1.59 
   7   2   0   12.64    1.91 
   8  -2   0    2.43    1.46 
   8   2   0    3.62    1.55 
   8   2   0    3.20    1.18 
   9  -2   0   -1.10    1.47 
   9   2   0    3.03    1.65 
  10  -2   0    2.99    1.87 
  10   2   0    9.38    2.07 
  11  -2   0    2.84    1.97 
  11   2   0    2.40    1.92 
  12  -2   0    1.07    2.05 
  12   2   0   -2.76    1.84 
   0  -3   0   -0.37    0.88 
   0  -3   0   -0.82    0.74 
   0  -3   0   -0.08    0.97 
   1  -3   0   77.58    5.63 
  -1  -3   0   78.86    4.99 
   1  -3   0   78.72    5.05 
  -1  -3   0   78.65    5.63 
   1  -3   0   82.67    5.32 
  -1  -3   0   78.22    5.39 
   2  -3   0   60.88    4.63 
  -2  -3   0   59.59    4.41 
   2  -3   0   64.05    4.17 
  -2  -3   0   63.74    4.01 
   2  -3   0   62.83    4.27 
   3  -3   0    2.96    0.92 
  -3  -3   0    3.45    0.82 
   3  -3   0    4.11    1.35 
   3   3   0    3.75    1.37 
   4  -3   0   18.28    1.62 
  -4  -3   0   15.47    1.46 
   4  -3   0   16.24    2.10 
   4   3   0   15.28    2.06 
   5  -3   0   30.36    3.00 
   5   3   0   32.04    2.75 
   5   3   0   26.90    2.84 
   6  -3   0    7.06    1.79 
   6   3   0    5.70    1.43 
   6   3   0    7.51    1.73 
   7  -3   0    2.51    1.61 
   7   3   0    0.57    1.64 
   8  -3   0    9.78    2.21 
   8   3   0    9.56    2.12 
   9  -3   0    6.25    2.10 
   9   3   0    6.17    2.20 
  10  -3   0    2.99    2.16 
  10   3   0    2.23    2.21 
  11  -3   0    2.89    2.33 
  11   3   0    1.53    2.32 
   0  -4   0   36.43    2.86 
   0  -4   0   37.08    3.33 
   0  -4   0   37.15    3.03 
   1  -4   0    8.71    1.67 
  -1  -4   0    6.82    1.31 
   1  -4   0    7.13    1.43 
   1  -4   0    9.46    1.44 
  -1  -4   0    9.92    1.58 
   2  -4   0    1.52    1.41 
   2  -4   0    1.94    1.13 
   2  -4   0    1.34    1.19 
  -2  -4   0    1.75    1.04 
   2   4   0    2.14    1.48 
  -3  -4   0   18.40    1.84 
   3  -4   0   18.16    2.35 
   3   4   0   24.88    2.60 
   4  -4   0    5.71    1.81 
   4   4   0    7.68    1.93 
   5  -4   0    0.51    1.62 
   5   4   0    2.79    1.76 
   6  -4   0    5.89    2.00 
   6   4   0    5.19    2.02 
   7  -4   0   10.08    2.27 
   7   4   0    8.06    2.23 
   8  -4   0    1.00    2.01 
   8   4   0    0.39    2.15 
   9  -4   0   -0.24    2.17 
   9   4   0   -0.07    2.25 
   0  -5   0    1.38    1.71 
   0   5   0    0.28    1.67 
   1  -5   0    0.67    1.75 
  -1  -5   0    0.99    1.32 
   1   5   0    4.03    1.89 
   2  -5   0    3.69    1.87 
   2   5   0    5.11    2.00 
   3  -5   0    0.34    1.79 
   3   5   0    0.47    1.84 
   4  -5   0    0.03    1.83 
   4   5   0    0.23    1.97 
   5  -5   0    1.44    1.95 
   5   5   0    4.68    2.17 
   6  -5   0    2.48    2.03 
   6   5   0    0.68    2.25 
   7  -5   0    0.80    2.19 
   7   5   0    2.11    2.39 
  12   0  -1    1.03    1.80 
  11   0  -1    2.76    1.67 
  11   0  -1    2.11    1.28 
  10   0  -1    3.15    1.16 
  10   0  -1    0.10    1.39 
   9   0  -1   30.13    2.53 
   9   0  -1   29.43    2.73 
   8   0  -1   -0.66    1.07 
   8   0  -1    0.33    1.00 
   7   0  -1   83.32    5.50 
   7   0  -1   80.62    5.76 
   6   0  -1  134.34    8.63 
   6   0  -1  133.31    9.02 
   5   0  -1   14.97    1.39 
   5   0  -1   15.96    1.45 
   4   0  -1   76.03    5.16 
   4   0  -1   76.33    4.95 
   3   0  -1  247.97   15.48 
   3   0  -1  243.73   16.14 
   2   0  -1    8.44    0.76 
   2   0  -1    7.93    0.75 
   1   0  -1    0.39    0.18 
   1   0  -1    0.10    0.15 
   0   0   1  181.25   11.00 
   0   0  -1  194.37   11.80 
   1   0   1  141.93    8.43 
  -1   0  -1  146.30    9.04 
   2   0   1   32.57    2.20 
   2   0   1   32.94    2.31 
   3   0   1  392.85   24.84 
   3   0   1  400.67   25.95 
   4   0   1  215.19   14.05 
   4   0   1  210.60   13.42 
   5   0   1    1.56    0.70 
   5   0   1    0.24    0.57 
   6   0   1   13.48    1.39 
   6   0   1   14.33    1.50 
   7   0   1   51.74    3.86 
   7   0   1   50.60    3.59 
   8   0   1   22.76    2.26 
   8   0   1   20.70    1.98 
   9   0   1    0.60    1.28 
   9   0   1    2.36    1.05 
  10   0   1    6.94    1.71 
  10   0   1    7.50    1.37 
  11   0   1    2.26    1.67 
  12   0   1    3.27    1.87 
  13   0   1   -0.79    1.99 
  13  -1  -1    1.54    2.09 
  13   1  -1    1.18    1.76 
  12  -1  -1    2.34    1.94 
  12   1  -1    3.53    1.75 
  11  -1  -1    9.07    2.10 
  11   1  -1    8.00    1.77 
  10  -1  -1    2.21    1.59 
  10   1  -1    1.61    1.35 
  10   1  -1    0.20    1.40 
   9  -1  -1   18.03    2.35 
   9   1  -1   19.31    2.18 
   9   1  -1   23.67    2.21 
   8  -1  -1   18.32    2.15 
   8  -1  -1   30.50    2.60 
   8   1  -1   29.50    2.37 
   8   1  -1   26.51    2.46 
   7  -1  -1    7.05    1.41 
   7  -1  -1    7.09    1.17 
   7   1  -1    8.11    1.23 
   7   1  -1    6.40    1.37 
   6  -1  -1   13.11    1.58 
   6  -1  -1   15.35    1.48 
   6   1  -1   12.70    1.36 
   6   1  -1   10.75    1.47 
   5  -1  -1  162.62    9.79 
   5  -1  -1  159.95   10.25 
   5   1  -1  143.76   10.07 
   5   1  -1  143.54    9.80 
   4  -1  -1  143.42   10.03 
   4  -1  -1  147.19   10.46 
   4   1  -1  165.58   10.04 
   4   1  -1  168.65   10.32 
   3  -1  -1   60.15    4.88 
  -3  -1   1   70.02    4.60 
   3  -1  -1   80.55    5.09 
   3   1  -1   77.99    4.93 
   3   1  -1   80.10    4.88 
   2  -1  -1  317.85   21.16 
  -2  -1   1  300.89   19.74 
   2   1  -1  372.70   22.01 
   2   1  -1  355.65   21.18 
   1  -1  -1  855.08   57.12 
  -1  -1   1  855.77   51.04 
  -1  -1   1  863.03   57.04 
   1  -1  -1  861.41   54.71 
   1   1  -1  942.12   54.73 
   0  -1  -1  112.51    7.22 
   0  -1  -1  120.61    6.71 
   0  -1  -1  110.49    7.55 
   0  -1   1  114.34    7.50 
   0   1  -1  108.76    7.18 
   1  -1   1  250.56   14.19 
  -1  -1  -1  240.79   15.20 
  -1  -1  -1  232.42   14.10 
   1  -1   1  242.37   15.10 
   1  -1   1  240.85   15.83 
  -2  -1  -1  578.96   35.84 
   2  -1   1  584.74   33.44 
   2  -1   1  552.01   37.37 
  -3  -1  -1   16.47    1.48 
   3  -1   1   16.67    1.31 
   3  -1   1   18.63    1.49 
  -3  -1  -1   16.81    1.13 
   4  -1   1    8.83    1.06 
   4  -1   1    9.43    0.86 
   4   1   1    7.45    1.06 
   4   1   1    7.41    1.05 
   5  -1   1  156.70   10.49 
   5  -1   1  170.09    9.92 
   5   1   1  148.91   10.40 
   5   1   1  147.86   10.05 
   6  -1   1   65.49    5.21 
   6  -1   1   74.06    4.84 
   6   1   1   76.68    5.03 
   6   1   1   76.79    5.13 
   7  -1   1    5.93    1.33 
   7   1   1    5.35    1.17 
   7   1   1    5.89    1.29 
   8  -1   1    7.62    1.21 
   8  -1   1   14.05    1.81 
   8   1   1   13.23    1.66 
   8   1   1   13.14    1.63 
   9  -1   1   19.69    2.29 
   9   1   1   18.21    2.14 
   9   1   1   20.66    2.25 
  10  -1   1    6.76    1.82 
  10   1   1    9.84    1.75 
  10   1   1   10.75    1.84 
  11  -1   1    3.84    1.85 
  11   1   1    5.10    1.60 
  11   1   1    2.40    1.69 
  12  -1   1    1.95    2.02 
  12   1   1    1.92    1.73 
  12   1   1    2.87    1.88 
  13  -1   1    0.93    2.17 
  12  -2  -1    1.78    2.08 
  12   2  -1   -0.07    1.98 
  11  -2  -1    3.93    2.02 
  11   2  -1    3.04    1.91 
  10  -2  -1   12.05    2.21 
  10   2  -1    6.69    2.03 
   9  -2  -1    0.97    1.61 
   9   2  -1    3.65    1.72 
   8  -2  -1    6.36    1.66 
   8   2  -1    5.51    1.59 
   7  -2  -1   21.33    2.15 
   7  -2  -1   20.71    2.35 
  -7  -2   1   22.23    1.93 
   7   2  -1   19.46    1.89 
   7   2  -1   18.30    2.22 
   6  -2  -1   54.52    4.45 
   6  -2  -1   59.60    4.17 
  -6  -2   1   59.82    3.86 
   6   2  -1   57.30    4.09 
   6   2  -1   59.69    4.32 
   5  -2  -1   12.94    1.43 
  -5  -2   1   13.34    1.27 
   5  -2  -1   12.38    1.69 
   5   2  -1   13.26    1.33 
   5   2  -1   11.59    1.61 
   4  -2  -1   30.83    2.36 
   4  -2  -1   30.71    2.68 
  -4  -2   1   27.10    2.21 
   4   2  -1   41.34    2.61 
   3  -2  -1  554.14   33.32 
   3  -2  -1  542.14   34.89 
  -3  -2   1  523.23   31.08 
   3   2  -1  503.90   33.40 
   2  -2  -1  112.57    7.03 
   2  -2  -1  112.66    7.45 
  -2  -2   1  108.66    6.58 
   2   2  -1  102.15    7.10 
  -1  -2   1  140.51    9.47 
   1  -2  -1  149.31    9.57 
  -1  -2   1  140.60    8.51 
   1  -2  -1  141.06    8.51 
   1  -2  -1  141.18    9.10 
   1   2  -1  141.55    9.12 
   0  -2   1  239.03   14.87 
   0  -2   1  237.98   13.92 
   0  -2   1  234.31   15.53 
   0  -2  -1  232.06   13.87 
   0  -2  -1  228.78   14.90 
   0  -2  -1  239.58   15.59 
   1  -2   1   78.74    5.09 
   1  -2   1   76.47    5.40 
  -1  -2  -1   78.91    5.21 
  -1  -2  -1   76.75    5.43 
  -1  -2  -1   78.62    4.76 
   1  -2   1   82.53    4.89 
  -2  -2  -1   33.85    2.17 
   2  -2   1   33.83    2.58 
   2  -2   1   33.14    2.35 
   2  -2   1   33.75    2.30 
  -2  -2  -1   32.97    2.53 
  -3  -2  -1   89.43    6.11 
   3  -2   1   91.08    6.35 
   3  -2   1   94.17    5.88 
   3  -2   1   94.03    5.72 
  -3  -2  -1   90.87    5.50 
   4  -2   1  128.27    8.38 
   4  -2   1  136.51    8.08 
   4  -2   1  131.95    9.02 
  -4  -2  -1  128.62    7.84 
  -4  -2  -1  127.40    8.66 
   4   2   1  136.95    9.01 
   4   2   1  139.92    8.73 
  -5  -2  -1   38.96    2.53 
   5  -2   1   38.44    3.20 
   5  -2   1   39.99    2.67 
   5   2   1   42.08    3.25 
   5   2   1   40.85    3.12 
   6  -2   1    7.95    1.59 
   6   2   1   12.65    1.59 
   6   2   1   12.81    1.78 
   7  -2   1   63.27    4.55 
   7   2   1   57.27    4.36 
   7   2   1   53.76    4.22 
   8  -2   1   14.13    1.98 
   8   2   1   10.46    1.87 
   8   2   1   11.21    1.63 
   9  -2   1   -1.14    1.46 
   9   2   1   -1.60    1.23 
   9   2   1   -1.93    1.54 
  10  -2   1    4.94    1.90 
  10   2   1    2.66    1.82 
  11  -2   1    0.31    1.87 
  11   2   1    0.02    1.91 
  12  -2   1    1.84    2.06 
  12   2   1   -1.15    1.94 
  11  -3  -1   -0.08    2.20 
  11   3  -1    0.06    2.25 
  10  -3  -1    0.98    2.06 
  10   3  -1   -1.95    2.04 
   9  -3  -1    2.45    1.91 
   9   3  -1    0.08    1.97 
   8  -3  -1   12.29    2.28 
   8   3  -1   12.05    2.22 
   7  -3  -1    1.16    1.59 
   7   3  -1    4.43    1.78 
   6  -3  -1    7.70    1.78 
   6   3  -1    6.98    1.74 
   5  -3  -1   55.02    4.39 
   5  -3  -1   53.73    3.78 
  -5  -3   1   56.62    3.62 
   5   3  -1   51.73    4.18 
   5   3  -1   52.32    3.98 
  -4  -3   1   28.02    2.14 
   4  -3  -1   27.88    2.18 
   4  -3  -1   26.46    2.66 
   4   3  -1   20.75    2.49 
   3  -3  -1   15.10    1.63 
   3  -3  -1   18.51    2.09 
  -3  -3   1   16.56    1.55 
   3   3  -1   16.47    1.96 
   2  -3  -1   19.99    2.10 
  -2  -3   1   21.41    1.73 
   2  -3  -1   18.21    1.80 
   2   3  -1   16.36    1.99 
   1  -3  -1   65.99    4.92 
  -1  -3   1   65.35    4.29 
  -1  -3   1   68.48    4.81 
   1  -3  -1   68.22    4.31 
   1  -3  -1   65.20    4.57 
   1   3  -1   66.54    4.67 
   0  -3   1   17.87    1.84 
   0  -3   1   16.51    1.67 
   0  -3   1   15.60    1.61 
   0  -3  -1   18.91    1.59 
   0  -3  -1   16.25    1.72 
   0  -3  -1   16.29    1.93 
  -1  -3  -1   14.95    1.43 
   1  -3   1   17.63    1.69 
   1  -3   1   17.70    1.85 
   1  -3   1   15.75    1.61 
  -1  -3  -1   17.50    1.76 
  -1  -3  -1   15.03    1.87 
   2  -3   1   78.29    5.02 
   2  -3   1   80.89    5.16 
  -2  -3  -1   75.12    5.36 
   2  -3   1   77.40    5.60 
  -2  -3  -1   76.02    4.82 
   3  -3   1   35.30    2.76 
   3  -3   1   36.06    2.58 
  -3  -3  -1   35.35    2.95 
  -3  -3  -1   35.23    2.43 
   3  -3   1   32.74    3.04 
   4  -3   1    8.57    1.48 
  -4  -3  -1    6.96    0.94 
   4  -3   1    9.27    1.67 
   4   3   1   11.38    1.78 
   5  -3   1   63.80    4.63 
   5   3   1   59.00    4.53 
   5   3   1   53.35    4.46 
   6  -3   1   10.02    1.88 
   6   3   1    7.60    1.84 
   6   3   1    6.94    1.58 
   7  -3   1    1.88    1.56 
   7   3   1   -1.37    1.38 
   7   3   1   -0.32    1.64 
   8  -3   1    0.84    1.66 
   8   3   1    1.39    1.79 
   9  -3   1    3.36    1.89 
   9   3   1    5.50    2.12 
  10  -3   1    1.09    2.00 
  10   3   1    1.70    2.17 
  11  -3   1    2.40    2.18 
  11   3   1   -1.23    2.23 
   9  -4  -1    1.72    2.24 
   9   4  -1    1.09    2.31 
   8  -4  -1    0.09    2.06 
   8   4  -1   -0.91    2.09 
   7  -4  -1    0.49    1.98 
   7   4  -1    4.09    2.09 
   6  -4  -1    4.83    1.94 
   6   4  -1    4.20    1.99 
   5  -4  -1    0.17    1.61 
   5   4  -1    0.39    1.67 
   4  -4  -1    1.26    1.51 
   4   4  -1    3.02    1.67 
   3  -4  -1   12.03    1.64 
   3  -4  -1   12.12    2.07 
  -3  -4   1   11.61    1.48 
   3   4  -1   13.56    2.01 
   2  -4  -1    6.76    1.66 
  -2  -4   1    6.81    1.27 
   2  -4  -1    7.61    1.40 
   2   4  -1    7.12    1.75 
   1  -4  -1   -0.97    1.12 
   1  -4  -1    0.26    1.35 
  -1  -4   1   -1.60    1.19 
  -1  -4   1   -0.23    1.04 
   1   4  -1    3.65    1.43 
   0  -4  -1   19.74    2.47 
   0  -4   1   25.46    2.24 
   0  -4  -1   20.91    2.09 
   0  -4  -1   23.32    2.31 
   0  -4   1   24.97    2.53 
   0   4  -1   25.88    2.42 
  -1  -4  -1   16.76    1.70 
   1  -4   1   15.91    2.09 
   1  -4   1   16.94    1.88 
  -1  -4  -1   14.68    1.96 
  -1   4  -1   17.66    1.98 
   2  -4   1    1.28    1.24 
   2  -4   1    0.82    1.30 
  -2  -4  -1    0.85    0.93 
  -2  -4  -1    1.55    1.33 
   3  -4   1   15.81    1.91 
   3  -4   1   11.90    1.97 
  -3  -4  -1   12.00    1.90 
   3   4   1   11.46    2.10 
   4  -4   1    6.06    1.79 
   4   4   1    5.73    1.90 
   5  -4   1    0.83    1.56 
   5   4   1    2.39    1.87 
   6  -4   1    0.38    1.73 
   6   4   1   -0.18    1.82 
   7  -4   1    3.77    2.00 
   7   4   1    4.45    2.08 
   8  -4   1   -0.83    1.90 
   8   4   1   -0.95    2.06 
   9  -4   1   -0.10    2.16 
   9   4   1   -1.25    2.23 
   7  -5  -1    0.73    2.19 
   7   5  -1    2.22    2.40 
   6  -5  -1   -1.08    2.00 
   6   5  -1   -0.35    2.17 
   5  -5  -1    0.14    1.95 
   5   5  -1    1.16    2.06 
   4  -5  -1    5.15    2.05 
   4   5  -1    3.51    2.08 
   3  -5  -1   -0.77    1.77 
   3   5  -1    3.19    1.89 
   2  -5  -1    1.45    1.82 
   2   5  -1    4.95    1.95 
   1  -5  -1    5.37    1.88 
  -1  -5   1    6.14    1.52 
   1  -5  -1    2.94    1.65 
   1   5  -1    6.18    1.92 
   0  -5  -1    1.01    1.55 
   0  -5   1   -0.30    1.33 
   1  -5   1    2.43    1.49 
  -1  -5  -1    3.26    1.67 
   1  -5   1    1.87    1.76 
   1   5   1    0.61    1.71 
   2  -5   1    3.71    1.84 
   2   5   1    3.46    1.91 
   3  -5   1    0.47    1.75 
   3   5   1    0.96    1.99 
   4  -5   1    0.37    1.74 
   4   5   1   -2.25    1.93 
   5  -5   1   -1.00    1.81 
   5   5   1    1.47    2.12 
   6  -5   1    2.59    2.12 
   6   5   1    1.90    2.26 
   7  -5   1   -0.28    2.18 
   7   5   1   -0.62    2.33 
  12   0  -2    3.55    1.58 
  11   0  -2    5.46    1.74 
  11   0  -2    5.37    1.47 
  10   0  -2    7.74    1.43 
   9   0  -2   24.56    2.31 
   9   0  -2   26.82    2.50 
   8   0  -2    0.60    0.98 
   8   0  -2    0.96    1.12 
   7   0  -2   12.42    1.55 
   7   0  -2   12.42    1.45 
   6   0  -2  187.52   11.94 
   6   0  -2  185.78   12.43 
   5   0  -2  152.21   10.17 
   5   0  -2  153.02    9.77 
   4   0  -2  132.06    8.31 
   4   0  -2  127.73    8.62 
   3   0  -2  563.27   37.98 
   3   0  -2  601.00   36.45 
   2   0  -2   68.81    4.41 
   2   0  -2   67.41    4.55 
   1   0  -2  219.60   13.53 
   1   0  -2  209.78   14.07 
   0   0  -2  277.98   17.65 
   0   0   2  284.45   16.47 
   1   0   2  916.34   55.10 
  -1   0  -2  922.11   59.07 
   1   0   2 1000.00   61.67 
   2   0   2   50.85    3.52 
   2   0   2   51.02    3.09 
  -2   0  -2   51.82    3.33 
   3   0   2    2.00    0.38 
   3   0   2    1.87    0.54 
  -3   0  -2    0.97    0.45 
   4   0   2  364.25   24.24 
   4   0   2  374.52   23.19 
   5   0   2  111.80    7.42 
   5   0   2  107.61    7.04 
   6   0   2    0.75    0.89 
   6   0   2   -0.38    0.66 
   7   0   2   43.91    3.21 
   7   0   2   46.20    3.51 
   8   0   2   37.14    3.16 
   8   0   2   36.77    2.83 
   9   0   2    6.68    1.25 
   9   0   2    8.18    1.68 
  10   0   2    9.36    1.83 
  11   0   2    2.09    1.70 
  12   0   2    3.29    1.96 
  13   0   2   -1.38    1.91 
  13  -1  -2    1.22    2.03 
  13   1  -2    0.09    1.73 
  12  -1  -2    3.43    1.98 
  12   1  -2    1.58    1.72 
  11  -1  -2    7.09    1.94 
  11   1  -2    6.93    1.79 
  10  -1  -2   -0.50    1.04 
  10  -1  -2    2.19    1.57 
  10   1  -2    1.72    1.42 
   9  -1  -2    1.92    1.45 
   9  -1  -2   -2.63    0.92 
   9   1  -2    6.22    1.46 
   9   1  -2    5.69    1.25 
   8  -1  -2   39.53    3.12 
   8  -1  -2   32.04    2.85 
   8   1  -2   37.38    2.83 
   8   1  -2   32.85    2.98 
   7  -1  -2   54.99    3.90 
   7   1  -2   49.65    3.63 
   7   1  -2   45.76    3.72 
   6  -1  -2   27.13    2.20 
   6  -1  -2   21.57    2.22 
   6   1  -2   25.79    2.01 
   6   1  -2   24.85    2.24 
   5  -1  -2   74.74    5.02 
   5  -1  -2   80.34    4.92 
   5   1  -2   66.29    4.83 
   5   1  -2   66.62    4.83 
   4  -1  -2  190.69   11.78 
  -4  -1   2  166.89   11.02 
   4  -1  -2  196.46   12.22 
   4   1  -2  180.12   11.70 
   4   1  -2  180.64   12.02 
   3  -1  -2   35.57    2.89 
  -3  -1   2   32.43    2.71 
   3  -1  -2   41.72    2.92 
   3   1  -2   47.09    2.81 
   2  -1  -2   94.16    6.45 
  -2  -1   2   98.85    6.02 
   2  -1  -2   97.44    6.71 
   2   1  -2  107.38    6.41 
   1  -1  -2  802.91   56.06 
   1  -1  -2  887.43   53.74 
  -1  -1   2  861.30   50.13 
   1   1  -2  883.02   53.70 
   0  -1  -2   47.32    3.41 
   0  -1   2   49.29    3.02 
   0  -1  -2   49.44    3.24 
   0  -1   2   48.59    3.28 
   1  -1   2   14.09    1.24 
   1  -1   2   13.98    1.23 
  -1  -1  -2   12.43    1.29 
  -1   1  -2   18.30    1.08 
   2  -1   2  558.47   33.27 
  -2  -1  -2  576.54   35.67 
   2  -1   2  571.30   37.18 
   3  -1   2  173.08   10.07 
  -3  -1  -2  170.24   10.79 
   3  -1   2  170.38   11.24 
   3   1   2  162.86   11.29 
   4  -1   2   10.81    1.08 
   4  -1   2   11.43    1.23 
  -4  -1  -2    9.85    1.18 
   4   1   2    8.51    1.23 
   5  -1   2   59.71    4.40 
   5  -1   2   64.65    4.01 
   5   1   2   60.35    4.38 
   5   1   2   60.17    4.26 
   6  -1   2   54.63    4.14 
   6  -1   2   54.07    3.74 
   6   1   2   59.16    4.01 
   6   1   2   58.40    4.09 
   7  -1   2   15.02    1.61 
   7  -1   2   25.43    2.22 
   7   1   2   22.61    2.09 
   7   1   2   22.34    2.04 
   8  -1   2    5.94    1.48 
   8   1   2    5.00    1.34 
   8   1   2    7.12    1.42 
   9  -1   2   14.95    2.09 
   9   1   2   14.12    1.84 
   9   1   2   13.03    1.93 
  10  -1   2    8.17    1.81 
  10   1   2    6.51    1.76 
  10   1   2    5.51    1.66 
  11  -1   2    3.02    1.81 
  11   1   2    0.02    1.68 
  11   1   2   -0.14    1.49 
  12  -1   2    1.95    1.98 
  12   1   2    1.39    1.87 
  13  -1   2    0.78    2.18 
  12  -2  -2    0.49    2.22 
  12   2  -2    2.31    2.03 
  11  -2  -2    0.30    1.96 
  11   2  -2   -2.32    1.81 
  10  -2  -2   10.06    2.26 
  10   2  -2    7.77    2.02 
   9  -2  -2   11.54    2.18 
   9   2  -2    9.15    2.01 
  -8  -2   2   -0.47    1.11 
   8  -2  -2   -2.16    1.26 
   8  -2  -2    1.84    1.55 
   8   2  -2    0.71    1.48 
   7  -2  -2    9.86    1.75 
   7  -2  -2   12.74    1.98 
  -7  -2   2   11.40    1.60 
   7   2  -2   13.19    1.86 
   6  -2  -2   44.12    3.52 
   6  -2  -2   47.86    3.76 
  -6  -2   2   51.61    3.42 
   6   2  -2   40.87    3.55 
   6   2  -2   42.70    3.19 
  -5  -2   2    8.00    1.16 
   5  -2  -2    7.14    1.36 
   5  -2  -2    6.92    1.47 
   5   2  -2   10.78    1.52 
   5   2  -2   10.28    1.04 
   4  -2  -2   10.02    1.44 
  -4  -2   2   13.57    1.23 
   4  -2  -2   11.44    1.35 
   4   2  -2    8.53    0.95 
   4   2  -2    6.40    1.31 
  -3  -2   2  105.54    6.50 
   3  -2  -2  111.74    6.97 
   3  -2  -2  103.60    7.34 
   3   2  -2  104.98    6.99 
  -2  -2   2   75.36    4.72 
   2  -2  -2   79.70    5.05 
   2  -2  -2   76.43    5.37 
   2   2  -2   73.10    5.05 
   1  -2  -2    1.08    0.70 
  -1  -2   2    0.99    0.62 
  -1  -2   2    2.08    0.60 
   1  -2  -2    0.94    0.79 
   1   2  -2    0.99    0.64 
   0  -2   2  137.48    9.13 
   0  -2  -2  133.63    8.83 
   0  -2  -2  136.16    9.26 
   0  -2   2  137.07    8.25 
   0   2  -2  140.71    8.74 
   1  -2   2  179.50   10.40 
  -1  -2  -2  174.17   11.13 
   1  -2   2  179.35   11.55 
  -1   2  -2  163.24   10.98 
   2  -2   2    4.10    0.85 
  -2  -2  -2    4.28    0.54 
  -2  -2  -2    4.72    0.93 
   2  -2   2    3.62    0.84 
  -2   2  -2    5.37    0.59 
   3  -2   2   40.13    2.60 
  -3  -2  -2   33.74    2.75 
   3  -2   2   34.90    2.81 
   4  -2   2  106.05    6.22 
   4  -2   2  107.03    6.93 
  -4  -2  -2  100.03    6.66 
   4   2   2   84.68    6.93 
   5  -2   2   24.34    2.14 
  -5  -2  -2   27.19    2.39 
   5  -2   2   25.67    2.41 
   5   2   2   26.38    2.48 
   5   2   2   23.33    2.45 
   6  -2   2    0.82    1.19 
   6   2   2   -0.86    1.25 
   6   2   2    2.48    1.41 
   7  -2   2   32.61    2.98 
   7   2   2   31.01    2.86 
   7   2   2   33.20    2.99 
   8  -2   2    5.12    1.65 
   8   2   2    7.04    1.74 
   8   2   2    5.32    1.45 
   9  -2   2    2.00    1.64 
   9   2   2    1.74    1.38 
   9   2   2    2.81    1.65 
  10  -2   2    4.70    1.88 
  10   2   2    1.06    1.74 
  10   2   2    1.91    1.63 
  11  -2   2    3.39    1.97 
  11   2   2    2.94    2.01 
  12  -2   2    2.25    2.20 
  12   2   2    0.50    2.08 
  11  -3  -2   -0.07    2.21 
  11   3  -2    0.14    2.27 
  10  -3  -2    0.91    2.10 
  10   3  -2   -0.99    2.02 
   9  -3  -2    1.38    1.98 
   9   3  -2    1.31    1.99 
   8  -3  -2   10.38    2.19 
   8   3  -2    8.06    2.08 
   7  -3  -2    4.46    1.84 
   7   3  -2    6.70    1.89 
   6  -3  -2    1.51    1.08 
   6  -3  -2    2.03    1.49 
  -6  -3   2    3.64    0.99 
   6   3  -2    0.80    1.46 
   5  -3  -2   11.36    1.95 
  -5  -3   2   13.27    1.46 
   5  -3  -2    9.82    1.48 
   5   3  -2   17.46    1.99 
   4  -3  -2   70.99    5.35 
  -4  -3   2   70.85    4.61 
   4  -3  -2   63.70    4.82 
   4   3  -2   78.80    5.12 
   3  -3  -2    4.18    1.41 
   3  -3  -2    4.31    1.08 
  -3  -3   2    6.02    1.02 
   3   3  -2    1.43    1.18 
  -2  -3   2   23.74    2.06 
   2  -3  -2   21.31    2.04 
   2  -3  -2   22.99    2.39 
   2   3  -2   21.45    2.13 
   1  -3  -2   95.52    6.62 
   1  -3  -2   89.98    6.18 
  -1  -3   2   91.04    5.78 
  -1  -3   2   91.92    6.39 
   1   3  -2   93.28    6.17 
   0  -3   2   15.76    1.75 
   0  -3   2   15.47    1.64 
   0  -3  -2   16.43    2.05 
   0  -3  -2   16.47    1.81 
   0   3  -2   23.87    1.83 
   1  -3   2    4.02    1.06 
   1  -3   2    5.43    1.16 
  -1  -3  -2    4.42    1.17 
  -1   3  -2    3.78    0.98 
  -2  -3  -2   32.98    2.34 
   2  -3   2   35.07    2.95 
   2  -3   2   36.79    2.76 
  -2  -3  -2   30.68    2.83 
  -2   3  -2   37.74    2.57 
   3  -3   2   29.50    2.52 
  -3  -3  -2   25.02    2.36 
   3  -3   2   25.29    2.27 
  -3  -3  -2   21.57    1.76 
  -4  -3  -2    8.09    1.54 
   4  -3   2    7.54    1.41 
   4  -3   2    6.16    1.49 
   5  -3   2   17.30    1.97 
   5  -3   2   17.44    2.16 
   5   3   2   17.08    2.31 
   5   3   2   17.45    2.24 
   6  -3   2   13.39    2.04 
   6   3   2   17.37    2.18 
   6   3   2   13.21    2.22 
   7  -3   2    8.00    1.81 
   7   3   2    5.38    1.73 
   7   3   2    4.33    1.84 
   8  -3   2    0.24    1.61 
   8   3   2    2.51    1.84 
   8   3   2    0.84    1.55 
   9  -3   2    4.16    1.95 
   9   3   2    7.04    2.16 
  10  -3   2   -0.45    1.87 
  10   3   2   -0.18    2.12 
  11  -3   2   -1.27    2.08 
  11   3   2   -0.81    2.28 
   9  -4  -2   -0.46    2.20 
   9   4  -2    0.99    2.42 
   8  -4  -2    1.04    2.06 
   8   4  -2    1.65    2.12 
   7  -4  -2   -0.20    1.95 
   7   4  -2    3.12    2.06 
   6  -4  -2   13.45    2.46 
   6   4  -2   15.86    2.51 
   5  -4  -2    3.32    1.72 
   5   4  -2    2.26    1.79 
   4  -4  -2    6.59    1.40 
   4  -4  -2    8.13    1.89 
  -4  -4   2    4.37    1.15 
   4   4  -2    6.18    1.77 
   3  -4  -2   10.54    1.70 
  -3  -4   2   14.38    1.61 
   3  -4  -2   16.96    2.26 
   3   4  -2   14.72    2.03 
   2  -4  -2    8.40    1.50 
  -2  -4   2    9.52    1.38 
   2  -4  -2    6.68    1.83 
   2   4  -2    9.95    1.72 
  -1  -4   2   -0.09    1.02 
   1  -4  -2    0.95    1.19 
   1  -4  -2    1.84    1.45 
  -1  -4   2   -0.37    1.20 
   1   4  -2    1.03    1.28 
   0  -4  -2    7.94    1.77 
   0  -4   2    7.20    1.39 
   0  -4  -2    5.95    1.49 
   0  -4   2    5.35    1.52 
   0   4  -2    7.77    1.49 
   1  -4   2   24.90    2.39 
  -1  -4  -2   23.96    2.50 
   1  -4   2   24.94    2.62 
  -1   4  -2   29.08    2.44 
  -2  -4  -2    7.36    1.61 
   2  -4   2    5.56    1.58 
   2  -4   2    8.10    1.52 
  -3  -4  -2    5.55    1.66 
   3  -4   2    8.16    1.59 
   3  -4   2    5.14    1.62 
   4  -4   2   15.17    2.08 
   4  -4   2   14.26    2.23 
  -4  -4  -2   17.60    2.26 
   4   4   2   15.98    2.38 
   5  -4   2    3.35    1.72 
   5   4   2    3.23    1.89 
   5   4   2    3.57    1.87 
   6  -4   2    1.55    1.77 
   6   4   2   -2.53    1.86 
   7  -4   2    3.48    1.99 
   7   4   2    2.19    2.15 
   8  -4   2    2.98    2.16 
   8   4   2   -0.13    2.14 
   9  -4   2   -2.92    2.08 
   9   4   2   -0.89    2.29 
   7  -5  -2   -1.20    2.23 
   7   5  -2    4.39    2.50 
   6  -5  -2    1.35    2.18 
   6   5  -2    2.03    2.25 
   5  -5  -2    0.19    2.04 
   5   5  -2    1.17    2.11 
   4  -5  -2    2.50    2.07 
   4   5  -2    2.21    2.05 
   3  -5  -2   -1.29    1.86 
   3   5  -2   -0.40    1.85 
  -2  -5   2    0.35    1.26 
   2  -5  -2    1.19    1.85 
   2   5  -2    1.87    1.80 
   1  -5  -2    5.13    1.94 
  -1  -5   2    7.56    1.57 
   1  -5  -2    6.93    1.75 
   1   5  -2    8.44    1.95 
   0  -5  -2    2.07    1.63 
   0  -5   2    1.80    1.37 
  -1  -5  -2    1.52    1.59 
   1  -5   2    1.43    1.49 
   2  -5   2    3.66    1.82 
   2  -5   2    5.47    1.70 
  -2  -5  -2    4.25    1.84 
   3  -5   2    2.44    1.82 
   3  -5   2    1.24    1.58 
   3   5   2    1.37    1.91 
   4  -5   2   -0.99    1.73 
   4   5   2   -0.02    1.95 
   5  -5   2    0.15    1.93 
   5   5   2    0.62    2.16 
   6  -5   2    0.92    2.08 
   6   5   2   -0.71    2.28 
  12   0  -3    3.51    1.53 
  11   0  -3    2.83    1.40 
  10   0  -3    2.78    1.43 
  10   0  -3    3.19    1.34 
   9   0  -3   18.86    2.06 
   9   0  -3   21.80    2.19 
   8   0  -3    7.66    1.35 
   8   0  -3    5.84    1.29 
   7   0  -3   17.97    1.80 
   7   0  -3   19.28    1.88 
   6   0  -3   75.17    5.29 
   6   0  -3   77.98    5.15 
   5   0  -3   68.13    4.79 
   5   0  -3   71.48    4.67 
   4   0  -3   11.20    1.13 
   4   0  -3   11.15    1.15 
   3   0  -3  154.61   10.27 
   3   0  -3  156.60    9.91 
   2   0  -3  293.38   18.88 
   2   0  -3  283.25   18.15 
   1   0  -3   63.86    4.22 
   0   0   3   77.67    4.72 
   0   0  -3   76.76    5.03 
   1   0   3  795.55   47.57 
   1   0   3  843.63   53.26 
  -1   0  -3  808.01   51.00 
   2   0   3   57.08    3.44 
   2   0   3   59.35    3.94 
  -2   0  -3   53.72    3.67 
   3   0   3    3.11    0.72 
  -3   0  -3    3.14    0.54 
   3   0   3    3.14    0.48 
   4   0   3  330.82   20.10 
  -4   0  -3  356.28   21.58 
   4   0   3  342.96   22.58 
   5   0   3   26.60    2.06 
   5   0   3   29.50    2.30 
   6   0   3    1.89    0.75 
   6   0   3    2.21    0.99 
   7   0   3   14.74    1.83 
   7   0   3   15.86    1.57 
   8   0   3   31.61    2.51 
   8   0   3   31.58    2.90 
   9   0   3    5.56    1.24 
   9   0   3    7.66    1.73 
  10   0   3    2.89    1.67 
  11   0   3    3.35    1.81 
  12   0   3    3.28    2.00 
  13   0   3   -2.41    2.03 
  13   1  -3    1.03    1.83 
  12  -1  -3    1.88    1.99 
  12   1  -3   -0.20    1.66 
  11  -1  -3    3.93    1.53 
  11  -1  -3    3.83    1.81 
  11   1  -3    4.61    1.67 
  10  -1  -3    6.96    1.81 
  10   1  -3    6.96    1.74 
   9  -1  -3    1.70    1.22 
   9  -1  -3    4.64    1.49 
   9   1  -3    4.52    1.46 
   8  -1  -3   15.31    1.91 
   8  -1  -3   12.28    1.78 
   8   1  -3   13.57    1.79 
   8   1  -3   14.01    1.57 
   7  -1  -3   51.12    4.09 
   7  -1  -3   57.55    4.23 
   7   1  -3   55.70    4.11 
   7   1  -3   57.32    3.96 
   6  -1  -3    3.56    1.16 
   6  -1  -3    4.39    1.17 
   6   1  -3    3.50    1.08 
   6   1  -3    4.73    0.80 
   5  -1  -3   33.88    2.73 
   5  -1  -3   35.90    2.70 
   5   1  -3   31.25    2.56 
   5   1  -3   32.57    2.36 
   4  -1  -3  308.99   20.19 
   4  -1  -3  308.59   19.47 
  -4  -1   3  309.86   18.24 
   4   1  -3  296.59   19.34 
   3  -1  -3   45.51    3.38 
   3  -1  -3   50.44    3.37 
  -3  -1   3   41.37    3.15 
  -2  -1   3   15.70    1.38 
   2  -1  -3   16.50    1.44 
   2  -1  -3   13.01    1.47 
   2   1  -3   17.12    1.36 
   1  -1  -3  411.20   25.77 
  -1  -1   3  407.20   24.03 
   1  -1  -3  403.28   26.85 
   1   1  -3  415.36   25.67 
   0  -1   3  115.31    6.91 
   0  -1   3  120.04    7.60 
   0  -1  -3  122.28    7.42 
   0   1  -3  103.83    7.28 
   1  -1   3   22.43    1.64 
   1  -1   3   20.50    1.58 
  -1  -1  -3   20.82    1.68 
  -1   1  -3   21.93    1.47 
   2  -1   3  162.06   10.80 
  -2  -1  -3  161.21   10.40 
   2  -1   3  165.61    9.71 
  -3  -1  -3  132.89    8.75 
   3  -1   3  138.88    8.17 
   3  -1   3  140.64    9.12 
   3   1   3  131.21    9.21 
   4  -1   3   42.01    2.76 
   4  -1   3   39.01    3.06 
  -4  -1  -3   40.35    2.96 
   4   1   3   44.41    3.22 
   5  -1   3   12.39    1.52 
   5  -1   3   14.87    1.37 
  -5  -1  -3   12.37    1.42 
   5   1   3   10.40    1.59 
   6  -1   3   89.82    6.33 
   6   1   3   89.64    6.30 
   6   1   3   88.73    6.05 
   7  -1   3   18.14    2.09 
   7   1   3   20.33    2.09 
   7   1   3   17.85    1.96 
   8  -1   3   -0.56    1.17 
   8   1   3    0.55    1.13 
   8   1   3    0.71    1.20 
   9  -1   3   10.55    1.84 
   9   1   3    7.79    1.68 
   9   1   3    8.86    1.63 
  10  -1   3    7.38    1.90 
  10   1   3    7.01    1.71 
  10   1   3    7.87    1.86 
  11  -1   3    2.28    1.82 
  11   1   3    0.19    1.60 
  11   1   3    0.98    1.75 
  12  -1   3    1.61    2.06 
  12   1   3    0.34    1.99 
  12  -2  -3    0.00    2.14 
  12   2  -3    1.21    2.01 
  11  -2  -3   -0.26    2.00 
  11   2  -3   -1.45    1.81 
  10  -2  -3    1.58    1.91 
  10   2  -3    2.30    1.80 
   9  -2  -3   16.00    2.23 
  -9  -2   3    0.28    1.46 
   9  -2  -3    5.85    1.73 
   9   2  -3   16.47    2.13 
   8  -2  -3   -0.18    1.45 
   8  -2  -3    4.67    1.63 
  -8  -2   3   -1.21    1.22 
   8   2  -3    7.25    1.65 
  -7  -2   3    8.63    1.60 
   7  -2  -3   10.05    1.87 
   7   2  -3   11.87    1.83 
  -6  -2   3   59.28    4.39 
   6  -2  -3   67.49    4.83 
   6   2  -3   61.07    4.60 
  -5  -2   3   27.67    2.30 
   5  -2  -3   23.55    2.44 
   5  -2  -3   22.83    2.49 
   5   2  -3   26.21    2.44 
  -4  -2   3   -0.67    0.79 
   4  -2  -3   -0.19    1.03 
   4  -2  -3    1.00    1.07 
   4   2  -3    1.27    1.01 
  -3  -2   3   43.11    2.96 
   3  -2  -3   36.97    3.26 
   3  -2  -3   45.50    3.17 
   3   2  -3   42.68    3.08 
   2  -2  -3  266.32   17.28 
  -2  -2   3  257.60   15.40 
   2  -2  -3  267.98   16.52 
   2   2  -3  247.05   16.44 
   1  -2  -3   19.58    1.74 
  -1  -2   3   17.83    1.68 
   1  -2  -3   17.27    1.89 
  -1  -2   3   18.30    1.55 
   1   2  -3   24.73    1.69 
   0  -2  -3   19.87    2.01 
   0  -2  -3   20.46    1.82 
   0  -2   3   19.31    1.68 
   0  -2   3   20.28    1.70 
   0   2  -3   23.17    1.65 
  -1  -2  -3  209.16   13.85 
   1  -2   3  216.36   14.35 
   1  -2   3  207.81   12.92 
  -1   2  -3  232.00   13.67 
   2  -2   3   64.87    4.51 
   2  -2   3   63.65    4.14 
  -2  -2  -3   63.83    4.43 
  -3  -2  -3    1.03    0.86 
   3  -2   3    1.42    0.83 
   3  -2   3    1.01    0.86 
   4  -2   3   82.31    5.77 
  -4  -2  -3   85.85    5.59 
   4  -2   3   85.22    5.23 
   4   2   3   72.37    5.90 
   5  -2   3   27.85    2.61 
  -5  -2  -3   29.44    2.64 
   5  -2   3   28.20    2.39 
   5   2   3   34.45    2.88 
   6  -2   3   11.06    1.71 
   6   2   3   12.52    1.88 
   6   2   3   10.19    1.80 
   7  -2   3   14.66    1.96 
   7   2   3   15.38    2.05 
   7   2   3   13.91    2.06 
   8  -2   3    8.77    1.83 
   8   2   3    9.61    1.90 
   8   2   3   12.67    1.86 
   9  -2   3    2.72    1.68 
   9   2   3    4.26    1.63 
   9   2   3    4.63    1.74 
  10  -2   3    0.29    1.73 
  10   2   3    1.98    1.63 
  10   2   3    0.27    1.70 
  11  -2   3    1.92    2.04 
  11   2   3    0.89    1.92 
  11   2   3    2.25    1.94 
  12  -2   3   -0.94    2.12 
  12   2   3    1.62    2.10 
  11  -3  -3    1.56    2.26 
  11   3  -3    3.02    2.27 
  10  -3  -3    5.00    2.25 
  10   3  -3    6.02    2.27 
   9  -3  -3    2.73    2.03 
   9   3  -3   -0.62    1.88 
   8  -3  -3   11.26    2.34 
   8   3  -3   11.55    2.28 
  -7  -3   3   11.47    1.63 
   7  -3  -3   10.14    2.13 
   7   3  -3    8.10    2.07 
   6  -3  -3    1.97    1.24 
   6  -3  -3    0.40    1.48 
  -6  -3   3    1.33    1.06 
   6   3  -3    0.19    1.49 
   5  -3  -3    6.27    1.72 
  -5  -3   3    8.00    1.29 
   5  -3  -3    8.36    1.50 
   5   3  -3    8.19    1.66 
   4  -3  -3   60.98    4.61 
   4  -3  -3   67.08    5.06 
  -4  -3   3   69.51    4.41 
   4   3  -3   64.22    4.75 
  -3  -3   3    6.40    1.18 
   3  -3  -3    6.55    1.61 
   3  -3  -3    5.49    1.26 
   3   3  -3    7.38    1.39 
  -2  -3   3    1.30    0.97 
   2  -3  -3    3.32    1.37 
   2  -3  -3    3.07    1.15 
   2   3  -3    4.61    1.16 
  -1  -3   3   67.68    4.88 
  -1  -3   3   69.45    4.55 
   1  -3  -3   69.03    4.86 
   1  -3  -3   74.68    5.25 
   1   3  -3   67.04    4.73 
   0  -3   3   54.11    3.97 
   0  -3  -3   58.20    3.97 
   0  -3  -3   56.62    4.27 
   0  -3   3   57.31    3.70 
   0   3  -3   46.65    3.73 
  -1  -3  -3    1.15    1.08 
   1  -3   3    0.73    0.95 
   1  -3   3    0.00    0.96 
  -1   3  -3    0.01    0.77 
   2  -3   3   25.03    2.25 
   2  -3   3   24.34    2.33 
  -2  -3  -3   23.05    2.31 
  -2   3  -3   22.79    1.83 
  -3  -3  -3   38.90    3.21 
   3  -3   3   38.91    3.23 
   3  -3   3   39.89    3.01 
   4  -3   3   17.93    1.97 
   4  -3   3   17.95    2.09 
  -4  -3  -3   17.60    2.10 
   5  -3   3   12.95    1.88 
   5  -3   3   10.78    1.68 
  -5  -3  -3   11.38    1.83 
   5   3   3    9.16    2.03 
   6  -3   3   20.15    2.42 
   6   3   3   22.46    2.56 
   6   3   3   13.52    2.37 
   7  -3   3    1.91    1.62 
   7   3   3    4.74    1.85 
   7   3   3    5.20    1.96 
   8  -3   3    0.28    1.65 
   8   3   3   -2.69    1.61 
   8   3   3   -1.04    1.84 
   9  -3   3    2.41    1.82 
   9   3   3    2.64    1.77 
   9   3   3    5.62    2.10 
  10  -3   3   -0.60    1.93 
  10   3   3   -0.13    2.11 
  11  -3   3   -0.80    2.09 
  11   3   3    0.62    2.31 
   9  -4  -3   -0.27    2.18 
   9   4  -3    1.71    2.33 
   8  -4  -3    2.13    2.14 
   8   4  -3    1.39    2.23 
   7  -4  -3    1.30    1.93 
   7   4  -3    0.19    1.93 
   6  -4  -3    4.29    1.99 
   6   4  -3    4.50    1.99 
  -5  -4   3    4.64    1.29 
   5  -4  -3    6.94    2.03 
   5   4  -3    3.56    1.84 
   4  -4  -3   -0.94    1.58 
   4  -4  -3    0.62    1.27 
  -4  -4   3    0.36    1.11 
   4   4  -3   -0.27    1.53 
  -3  -4   3   11.01    1.52 
   3  -4  -3   12.70    1.75 
   3  -4  -3   13.05    2.24 
   3   4  -3    8.12    1.80 
   2  -4  -3   17.75    2.06 
   2  -4  -3   19.77    2.54 
  -2  -4   3   16.20    1.86 
   2   4  -3   18.05    2.11 
   1  -4  -3   -0.97    1.20 
   1  -4  -3    1.09    1.53 
  -1  -4   3    1.55    1.08 
   1   4  -3   -0.17    1.23 
   0  -4   3    4.75    1.32 
   0  -4  -3    4.23    1.40 
   0  -4   3    3.86    1.37 
   0   4  -3    5.32    1.29 
   1  -4   3   18.73    2.12 
   1  -4   3   18.49    2.02 
  -1  -4  -3   15.48    2.10 
  -2  -4  -3    5.44    1.57 
   2  -4   3    2.92    1.44 
   2  -4   3    3.24    1.36 
   3  -4   3    2.38    1.47 
  -3  -4  -3    1.23    1.44 
   3  -4   3    0.85    1.36 
  -4  -4  -3    3.03    1.68 
   4  -4   3    7.40    1.70 
   4  -4   3    7.41    1.80 
   5  -4   3    2.21    1.43 
  -5  -4  -3    3.70    1.74 
   5  -4   3    5.61    1.83 
   5   4   3    3.50    1.96 
   5   4   3    2.98    1.95 
   6  -4   3    0.01    1.73 
   6   4   3    0.80    1.99 
   6   4   3   -1.96    1.97 
   7  -4   3    1.19    1.98 
   7   4   3    2.71    2.16 
   8  -4   3    4.04    2.29 
   8   4   3    2.76    2.34 
   9  -4   3   -1.03    2.17 
   9   4   3    2.87    2.36 
   6  -5  -3    2.17    2.24 
   6   5  -3   -0.24    2.19 
   5  -5  -3    1.86    2.17 
   5   5  -3    1.19    2.14 
   4  -5  -3    0.62    2.10 
   4   5  -3    3.68    2.04 
   3  -5  -3    0.38    1.97 
  -3  -5   3    1.00    1.32 
   3   5  -3   -1.33    1.78 
   2  -5  -3    2.31    1.60 
  -2  -5   3   -1.13    1.26 
   2  -5  -3   -1.02    1.76 
   2   5  -3    0.48    1.73 
  -1  -5   3    2.18    1.45 
   1  -5  -3    2.04    1.61 
   0  -5  -3    2.21    1.63 
   0  -5   3    2.26    1.47 
   1  -5   3   -0.70    1.40 
  -1  -5  -3   -0.89    1.60 
   2  -5   3    2.97    1.64 
  -2  -5  -3    1.79    1.75 
  -3  -5  -3    5.86    1.97 
   3  -5   3    3.74    1.71 
   3  -5   3    0.03    1.77 
   4  -5   3   -0.51    1.70 
   4  -5   3    0.61    1.85 
   4   5   3    0.64    2.08 
   5  -5   3    1.30    2.04 
   5   5   3   -0.89    2.16 
   6  -5   3    1.93    2.24 
   6   5   3    3.15    2.41 
  13   0  -4    0.28    1.65 
  12   0  -4    5.25    1.67 
  11   0  -4    1.39    1.37 
  10   0  -4    6.79    1.50 
  10   0  -4    4.97    1.48 
   9   0  -4   18.75    2.09 
   9   0  -4   18.57    2.06 
   8   0  -4   16.51    1.92 
   8   0  -4   18.49    1.91 
   7   0  -4    2.83    1.02 
   7   0  -4    2.85    1.10 
   6   0  -4   18.10    1.89 
   6   0  -4   19.57    1.80 
   5   0  -4  221.90   14.58 
   5   0  -4  218.95   14.06 
   4   0  -4   13.03    1.31 
   4   0  -4   12.46    1.24 
   3   0  -4   91.99    6.01 
   3   0  -4   86.67    5.84 
   2   0  -4  409.38   25.76 
   1   0  -4   74.50    4.95 
   0   0  -4   10.48    1.13 
   0   0   4   11.86    1.25 
   0   0   4   11.97    1.08 
   1   0   4  509.64   29.34 
  -1   0  -4  502.39   31.45 
   1   0   4  492.27   32.86 
   2   0   4   50.80    3.22 
   2   0   4   53.08    3.73 
  -2   0  -4   51.90    3.45 
  -3   0  -4   34.90    2.43 
   3   0   4   38.75    2.73 
   3   0   4   32.45    2.24 
  -4   0  -4   70.40    4.58 
   4   0   4   70.90    4.92 
   4   0   4   68.15    4.25 
  -5   0  -4   89.13    5.75 
   5   0   4   88.68    6.14 
   5   0   4   86.55    5.75 
   6   0   4   23.00    2.15 
   6   0   4   19.58    1.78 
   7   0   4    0.96    0.87 
   7   0   4   -0.27    1.18 
   8   0   4   25.84    2.22 
   8   0   4   27.51    2.71 
   9   0   4   19.36    2.40 
  10   0   4   -0.85    1.62 
  11   0   4    4.38    1.99 
  12   0   4    0.96    1.97 
  13   1  -4    0.10    1.85 
  12  -1  -4    1.67    1.97 
  12   1  -4    0.44    1.65 
  11  -1  -4    1.55    1.33 
  11  -1  -4    5.28    1.87 
  11   1  -4    3.61    1.67 
  10  -1  -4   10.98    2.04 
  10   1  -4    8.85    1.84 
   9  -1  -4   -0.48    1.34 
   9  -1  -4    2.12    1.38 
   9   1  -4    0.36    1.35 
   8  -1  -4    7.87    1.61 
   8  -1  -4   10.61    1.71 
   8   1  -4    9.12    1.65 
   7  -1  -4   74.57    5.41 
   7  -1  -4   74.24    5.52 
   7   1  -4   79.49    5.39 
   6  -1  -4   14.38    1.65 
   6  -1  -4   13.18    1.78 
   6   1  -4   13.17    1.61 
   6   1  -4   11.07    1.23 
   5  -1  -4   22.33    2.32 
  -5  -1   4   25.44    2.33 
   5  -1  -4   21.78    2.13 
   5   1  -4   26.32    2.16 
   4  -1  -4  146.02    9.96 
   4  -1  -4  146.27    9.73 
  -4  -1   4  159.93    9.18 
   4   1  -4  142.14    9.55 
   3  -1  -4   95.36    6.34 
   3  -1  -4   90.37    6.42 
  -3  -1   4   94.12    5.97 
   3   1  -4   95.63    6.14 
   2  -1  -4    1.91    0.85 
   2  -1  -4    2.49    0.74 
  -2  -1   4    1.74    0.74 
   2   1  -4    3.35    0.70 
  -1  -1   4  116.30    7.66 
  -1  -1   4  130.15    8.32 
   1  -1  -4  125.91    8.50 
   1  -1  -4  122.03    8.22 
   1   1  -4  135.95    8.08 
   0  -1   4  277.36   17.86 
   0  -1  -4  280.83   17.28 
   0  -1   4  278.31   16.12 
   0   1  -4  255.15   17.13 
   1  -1   4  100.69    6.51 
   1  -1   4  103.68    7.17 
  -1  -1  -4  111.88    7.01 
  -1   1  -4  113.51    6.86 
  -2  -1  -4   39.05    2.64 
   2  -1   4   33.27    2.63 
   2  -1   4   37.46    2.45 
   2   1   4   34.26    2.85 
  -3  -1  -4  300.55   18.46 
   3  -1   4  270.33   19.21 
   3  -1   4  302.31   17.22 
   3   1   4  293.13   19.38 
  -4  -1  -4   35.41    2.67 
   4  -1   4   35.24    2.77 
   4  -1   4   37.88    2.51 
   4   1   4   33.97    2.98 
   5  -1   4    0.49    0.96 
  -5  -1  -4    0.74    0.89 
   5  -1   4    0.46    0.75 
   5   1   4   -0.99    1.14 
   6  -1   4   53.10    4.14 
  -6  -1  -4   51.56    3.86 
   6   1   4   54.49    3.95 
   6   1   4   57.03    4.19 
   7  -1   4   21.52    2.36 
   7   1   4   21.59    2.19 
   7   1   4   22.26    2.35 
   8  -1   4    6.34    1.53 
   8   1   4    4.51    1.51 
   8   1   4    4.27    1.33 
   9  -1   4    3.71    1.59 
   9   1   4    3.24    1.41 
   9   1   4    2.71    1.59 
  10  -1   4    5.67    1.89 
  10   1   4    4.52    1.87 
  10   1   4    4.05    1.61 
  11  -1   4    3.43    1.97 
  11   1   4    7.21    2.12 
  12  -1   4   -0.81    1.99 
  12   1   4    2.12    2.11 
  12  -2  -4    1.01    2.09 
  12   2  -4    3.25    2.13 
  11  -2  -4   -0.32    1.91 
  11   2  -4    1.07    1.95 
  10  -2  -4    2.75    1.82 
  10   2  -4    2.99    1.82 
  -9  -2   4   -0.86    1.44 
   9  -2  -4    6.32    1.83 
   9  -2  -4    6.39    1.82 
   9   2  -4    7.72    1.85 
  -8  -2   4    2.38    1.48 
   8  -2  -4    6.77    1.79 
   8  -2  -4    7.88    1.80 
   8   2  -4    7.96    1.72 
   7  -2  -4    1.52    1.38 
   7  -2  -4   -0.40    1.38 
  -7  -2   4   -2.21    1.16 
   7   2  -4    1.89    1.38 
  -6  -2   4   20.25    2.36 
   6  -2  -4   16.46    2.44 
   6  -2  -4   31.01    2.63 
   6   2  -4   25.60    2.43 
   5  -2  -4   59.41    4.25 
  -5  -2   4   46.39    4.00 
   5   2  -4   56.67    4.04 
  -4  -2   4    1.94    1.12 
   4  -2  -4    5.61    1.31 
   4  -2  -4    2.79    1.31 
   4   2  -4    5.03    1.18 
   3  -2  -4   14.80    1.88 
   3  -2  -4   16.40    1.91 
  -3  -2   4   18.57    1.79 
   3   2  -4   17.57    1.73 
  -2  -2   4  228.55   13.52 
   2  -2  -4  226.70   14.47 
   2  -2  -4  232.57   15.11 
   2   2  -4  215.19   14.35 
   1  -2  -4   25.89    2.44 
  -1  -2   4   27.49    2.16 
  -1  -2   4   26.62    2.04 
   1  -2  -4   28.98    2.30 
   1   2  -4   29.81    2.14 
   0  -2   4   10.28    1.28 
   0  -2   4   11.41    1.19 
   0  -2  -4   12.17    1.43 
   0   2  -4   14.43    1.22 
   1  -2   4  118.87    8.50 
   1  -2   4  124.33    7.75 
  -1  -2  -4  133.73    8.33 
  -1   2  -4  130.26    8.06 
   2  -2   4   64.18    4.54 
   2  -2   4   67.35    4.18 
  -2  -2  -4   61.15    4.47 
   3  -2   4   13.77    1.48 
  -3  -2  -4    9.24    1.45 
   3  -2   4   11.23    1.38 
  -4  -2  -4   34.90    2.80 
   4  -2   4   33.87    2.61 
   4  -2   4   34.73    2.79 
   4   2   4   27.45    3.09 
   5  -2   4   46.71    3.61 
   5  -2   4   46.38    3.30 
  -5  -2  -4   46.26    3.52 
   5   2   4   42.17    3.84 
   6  -2   4   12.28    1.64 
   6  -2   4   12.81    1.79 
  -6  -2  -4   15.86    1.90 
   6   2   4    9.44    1.98 
   7  -2   4    4.96    1.58 
   7   2   4    7.06    1.82 
   7   2   4    6.13    1.65 
   8  -2   4    9.37    1.90 
   8   2   4   10.88    1.98 
   8   2   4   11.32    1.99 
   9  -2   4    4.15    1.74 
   9   2   4    2.71    1.69 
   9   2   4    4.59    1.82 
  10  -2   4    0.77    1.78 
  10   2   4    1.15    1.81 
  10   2   4    0.07    1.73 
  11  -2   4    2.65    2.11 
  11   2   4    1.62    1.98 
  11   2   4    2.25    1.95 
  12   2   4   -0.54    2.11 
  11  -3  -4   -0.20    2.17 
  11   3  -4   -0.96    2.16 
  10  -3  -4    0.77    2.08 
  10   3  -4    1.35    2.10 
   9  -3  -4    0.76    1.96 
   9   3  -4   -2.15    1.71 
   8  -3  -4    5.22    1.96 
   8   3  -4    4.16    1.93 
  -7  -3   4   15.57    1.98 
   7  -3  -4   11.09    2.21 
   7  -3  -4   10.24    2.05 
   7   3  -4   12.09    2.16 
   6  -3  -4   -0.14    1.43 
   6  -3  -4    0.60    1.57 
  -6  -3   4    1.40    1.21 
   6   3  -4    1.07    1.53 
   5  -3  -4    0.82    1.43 
   5  -3  -4    1.34    1.36 
  -5  -3   4   -0.47    1.07 
   5   3  -4    0.28    1.35 
   4  -3  -4   38.80    3.16 
  -4  -3   4   36.25    3.09 
   4  -3  -4   39.64    3.54 
   4   3  -4   37.11    3.20 
   3  -3  -4   22.25    2.48 
   3  -3  -4   23.75    2.32 
  -3  -3   4   24.68    2.26 
   3   3  -4   18.49    2.17 
   2  -3  -4   -0.29    1.36 
  -2  -3   4   -0.07    0.96 
   2  -3  -4   -1.86    1.11 
   2   3  -4   -0.57    1.05 
  -1  -3   4   25.71    2.23 
  -1  -3   4   25.91    2.34 
   1  -3  -4   28.18    2.82 
   1  -3  -4   29.42    2.53 
   1   3  -4   25.18    2.28 
   0  -3   4   55.99    3.99 
   0  -3  -4   53.50    4.04 
   0  -3   4   53.28    3.77 
   0   3  -4   53.56    3.80 
   1  -3   4    4.96    1.15 
   1  -3   4    4.08    1.17 
  -1  -3  -4    4.98    1.37 
  -1   3  -4    7.02    1.04 
   2  -3   4   11.47    1.55 
   2  -3   4   13.63    1.60 
  -2  -3  -4    7.22    1.58 
   3  -3   4   26.84    2.50 
  -3  -3  -4   26.61    2.60 
   3  -3   4   26.72    2.51 
   4  -3   4   10.02    1.64 
   4  -3   4    6.92    1.47 
  -4  -3  -4    8.19    1.59 
   5  -3   4    0.93    1.19 
  -5  -3  -4    0.03    1.35 
   5  -3   4    0.00    1.30 
   5   3   4   -0.76    1.70 
   6  -3   4   11.63    2.00 
  -6  -3  -4   11.11    1.99 
   6  -3   4   11.05    1.80 
   6   3   4    9.48    2.16 
   7  -3   4    5.23    1.80 
   7   3   4    4.94    1.97 
   7   3   4    3.74    2.05 
   8  -3   4   -0.38    1.66 
   8   3   4   -2.02    1.91 
   8   3   4   -0.07    1.88 
   9  -3   4    2.76    1.96 
   9   3   4   -1.25    1.85 
   9   3   4   -0.45    2.00 
  10  -3   4    1.04    2.07 
  10   3   4   -0.27    2.07 
   9  -4  -4    3.87    2.31 
   9   4  -4   -1.49    2.17 
   8  -4  -4    0.82    2.08 
   8   4  -4   -3.16    2.00 
   7  -4  -4   -3.27    1.82 
   7   4  -4   -0.01    1.98 
   6  -4  -4    4.42    2.09 
   6   4  -4    3.94    1.96 
   5  -4  -4    6.60    2.15 
   5  -4  -4    8.28    1.80 
  -5  -4   4   10.46    1.64 
   5   4  -4    8.97    2.06 
  -4  -4   4    0.49    1.20 
   4  -4  -4    0.00    1.38 
   4  -4  -4   -0.53    1.70 
   4   4  -4    1.23    1.56 
  -3  -4   4    1.50    1.24 
   3  -4  -4   -1.02    1.63 
   3  -4  -4    2.09    1.42 
   3   4  -4    2.07    1.49 
   2  -4  -4   13.40    2.02 
  -2  -4   4   15.27    1.85 
   2  -4  -4   17.85    2.49 
   2   4  -4   18.75    2.07 
   1  -4  -4    4.17    1.47 
   1  -4  -4    6.81    1.84 
  -1  -4   4    5.06    1.27 
   1   4  -4    5.00    1.38 
   0  -4  -4   -1.78    1.25 
   0  -4   4    0.51    1.17 
   1  -4   4   16.43    1.99 
   1  -4   4   16.11    1.95 
  -1  -4  -4   10.50    1.95 
   2  -4   4   12.12    1.93 
  -2  -4  -4   10.41    1.92 
   2  -4   4   14.72    1.92 
   3  -4   4   -0.78    1.35 
  -3  -4  -4    1.12    1.47 
   3  -4   4   -0.56    1.26 
   4  -4   4    3.36    1.50 
  -4  -4  -4    4.79    1.77 
   4  -4   4    6.00    1.77 
  -5  -4  -4    5.04    1.85 
   5  -4   4    4.40    1.90 
   5  -4   4    4.75    1.58 
   5   4   4    3.60    2.09 
   6  -4   4   -0.08    1.76 
   6   4   4    0.10    2.16 
   6   4   4   -0.79    1.98 
   7  -4   4    0.50    1.92 
   7   4   4    2.04    2.23 
   7   4   4   -0.21    2.14 
   8  -4   4    0.00    2.07 
   8   4   4    2.39    2.30 
   9  -4   4    0.92    2.22 
   9   4   4    0.13    2.37 
   6  -5  -4    0.61    2.32 
   6   5  -4    2.76    2.36 
   5  -5  -4    0.10    2.10 
   5   5  -4   -1.00    2.10 
   4  -5  -4    2.35    2.19 
   4   5  -4    2.24    2.08 
  -3  -5   4    3.23    1.45 
   3  -5  -4    2.31    2.08 
   3   5  -4    2.68    1.97 
  -2  -5   4   -0.57    1.34 
   2  -5  -4    0.60    1.60 
   2  -5  -4    0.62    1.88 
   1  -5  -4    1.77    1.66 
  -1  -5   4    2.45    1.46 
   0  -5   4    1.86    1.55 
   0  -5  -4    2.72    1.73 
   1  -5   4    0.35    1.46 
  -1  -5  -4    0.94    1.67 
   2  -5   4    2.44    1.64 
  -2  -5  -4    2.64    1.80 
   3  -5   4    4.15    1.79 
  -3  -5  -4    3.98    2.00 
   4  -5   4    0.63    1.92 
   4  -5   4    2.30    1.76 
  -4  -5  -4   -0.58    1.89 
   5  -5   4   -1.45    2.03 
   5   5   4    3.49    2.31 
   6  -5   4   -1.45    2.17 
   6   5   4    0.41    2.42 
  13   0  -5   -0.41    1.72 
  12   0  -5    1.54    1.66 
  11   0  -5    2.20    1.50 
  10   0  -5    1.57    1.36 
   9   0  -5    7.85    1.56 
   8   0  -5   39.45    3.07 
   8   0  -5   35.84    2.99 
   7   0  -5   -0.06    0.94 
   7   0  -5    1.62    1.04 
   6   0  -5   10.38    1.39 
   6   0  -5   10.84    1.33 
   5   0  -5  165.79   10.88 
   5   0  -5  160.59   10.53 
   4   0  -5   29.87    2.23 
   4   0  -5   28.41    2.29 
   3   0  -5   34.14    2.51 
   3   0  -5   32.30    2.41 
   2   0  -5   99.76    6.58 
   1   0  -5   54.42    3.80 
  -1   0   5   54.25    3.59 
   0   0  -5  128.31    8.14 
   0   0   5  125.58    7.61 
   0   0   5  123.51    8.47 
  -1   0  -5  118.12    7.77 
   1   0   5  122.68    7.26 
   1   0   5  120.18    8.18 
   2   0   5  166.42   11.32 
  -2   0  -5  171.27   10.74 
   2   0   5  167.71   10.01 
   3   0   5   60.00    3.85 
  -3   0  -5   61.85    4.13 
   3   0   5   63.40    4.49 
   4   0   5   25.80    1.94 
  -4   0  -5   27.64    2.11 
   4   0   5   33.47    2.54 
   5   0   5   91.22    5.76 
   5   0   5   99.84    6.71 
  -5   0  -5   95.50    6.21 
   6   0   5    8.57    1.19 
   6   0   5   10.55    1.63 
   7   0   5    0.91    1.31 
   7   0   5    0.56    0.90 
   8   0   5   12.35    1.98 
   9   0   5    8.05    1.92 
  10   0   5    0.60    1.80 
  11   0   5    0.18    2.02 
  12   0   5    0.74    2.13 
  12  -1  -5    4.47    1.67 
 -12  -1   5    1.86    2.05 
  12   1  -5   -2.22    1.70 
  11  -1  -5    2.58    1.68 
  11  -1  -5   -0.54    1.32 
  11   1  -5    2.00    1.70 
  10  -1  -5    5.32    1.77 
  10  -1  -5   10.41    1.90 
  10   1  -5   10.20    1.86 
   9  -1  -5   -0.51    1.40 
   9  -1  -5   -1.47    1.26 
   9   1  -5    1.33    1.38 
   8  -1  -5    3.04    1.46 
   8  -1  -5    0.88    1.27 
   8   1  -5    3.98    1.36 
   7  -1  -5   30.31    2.97 
   7  -1  -5   33.69    2.83 
   7   1  -5   31.81    2.85 
   6  -1  -5   36.00    3.25 
   6  -1  -5   37.74    3.08 
  -6  -1   5   43.58    3.59 
   6   1  -5   38.52    3.10 
   5  -1  -5    0.38    1.19 
  -5  -1   5    3.84    1.32 
   5  -1  -5   -0.72    0.93 
   5   1  -5    1.69    1.03 
   4  -1  -5   54.79    4.03 
   4  -1  -5   57.42    4.18 
  -4  -1   5   64.52    4.03 
   4   1  -5   47.88    3.83 
   3  -1  -5  197.90   12.55 
   3  -1  -5  190.99   12.91 
  -3  -1   5  190.14   11.73 
   3   1  -5  194.56   12.35 
   2  -1  -5   32.41    2.69 
  -2  -1   5   28.37    2.59 
   2  -1  -5   36.32    2.66 
   2   1  -5   35.52    2.48 
   1  -1  -5   70.80    4.66 
  -1  -1   5   79.23    4.41 
  -1  -1   5   58.00    4.47 
   0  -1  -5  265.08   16.26 
   0  -1   5  246.79   15.14 
   0   1  -5  253.40   16.08 
  -1  -1  -5   24.17    1.83 
   1  -1   5   22.02    1.66 
   1  -1   5   15.07    1.57 
  -1   1  -5   20.54    1.60 
   2  -1   5    2.33    0.80 
   2  -1   5    1.30    0.69 
  -2  -1  -5    2.27    0.89 
  -2   1  -5    3.23    0.61 
   2   1   5    4.19    0.58 
   2   1   5    4.52    1.13 
   3  -1   5  136.55    9.04 
  -3  -1  -5  134.51    8.72 
   3  -1   5  133.48    8.12 
   3   1   5  130.43    9.23 
   4  -1   5   38.29    2.60 
  -4  -1  -5   37.73    2.82 
   4  -1   5   42.36    2.97 
   4   1   5   26.90    3.11 
   5  -1   5   11.16    1.36 
   5  -1   5   14.68    1.76 
  -5  -1  -5   13.52    1.56 
   5   1   5   13.83    1.99 
  -6  -1  -5   21.25    2.21 
   6  -1   5   24.36    2.46 
   6  -1   5   23.94    2.01 
   6   1   5   26.21    2.64 
   7  -1   5   19.68    2.48 
   7   1   5   28.85    2.69 
   7   1   5   24.74    2.36 
   8  -1   5    8.73    1.86 
   8   1   5    8.22    1.80 
   8   1   5    7.31    1.53 
   9  -1   5    1.94    1.65 
   9   1   5    0.78    1.37 
   9   1   5    1.51    1.69 
  10  -1   5    5.07    1.90 
  10   1   5    4.97    1.96 
  11  -1   5    0.50    1.99 
  11   1   5    1.79    2.07 
  12  -1   5    0.19    2.15 
  12   1   5   -1.17    2.12 
  12  -2  -5    1.95    2.06 
  12   2  -5    2.67    2.19 
  11  -2  -5   -0.77    1.85 
  11   2  -5   -1.85    1.80 
  10  -2  -5   -0.26    1.69 
 -10  -2   5   -1.14    1.45 
  10  -2  -5   -2.67    1.44 
  10   2  -5    1.48    1.84 
   9  -2  -5    4.83    1.84 
  -9  -2   5    4.72    1.73 
   9  -2  -5    5.49    1.81 
   9   2  -5    6.80    1.81 
  -8  -2   5   13.88    2.20 
   8  -2  -5   17.57    2.29 
   8  -2  -5   17.25    2.41 
   8   2  -5   20.16    2.37 
  -7  -2   5   -2.20    1.27 
   7  -2  -5   -0.24    1.49 
   7  -2  -5    0.04    1.34 
   7   2  -5    0.56    1.36 
   6  -2  -5   15.02    2.03 
   6  -2  -5   14.17    2.18 
  -6  -2   5   13.57    2.00 
   6   2  -5   16.64    1.97 
   5  -2  -5   67.54    4.44 
   5  -2  -5   44.99    4.37 
  -5  -2   5   45.46    4.23 
   5   2  -5   62.74    4.22 
   4  -2  -5    9.36    1.84 
   4  -2  -5   14.04    1.79 
  -4  -2   5   11.04    1.67 
   4   2  -5   11.55    1.54 
   3  -2  -5    2.96    1.29 
   3  -2  -5    1.31    1.19 
  -3  -2   5    3.80    1.19 
   3   2  -5    3.00    1.05 
   2  -2  -5  161.88   10.45 
  -2  -2   5  154.04    9.38 
   2  -2  -5  153.91   10.05 
   2   2  -5  142.39    9.83 
   1  -2  -5   46.56    3.73 
  -1  -2   5   50.97    3.51 
   1   2  -5   51.38    3.47 
   0  -2   5    3.47    0.99 
   0  -2   5    4.34    0.79 
   0  -2  -5    3.36    1.10 
   0   2  -5    4.65    0.83 
  -1  -2  -5   60.43    4.37 
   1  -2   5   60.95    4.29 
   1  -2   5   60.08    4.11 
  -1   2  -5   61.65    4.01 
   2  -2   5  100.63    6.86 
  -2  -2  -5  101.79    6.76 
   2  -2   5   97.32    6.27 
   3  -2   5   14.77    1.66 
   3  -2   5   17.52    1.78 
  -3  -2  -5   16.83    1.88 
   4  -2   5   11.25    1.41 
   4  -2   5    8.90    1.44 
  -4  -2  -5    8.74    1.49 
   4   2   5    8.38    1.93 
  -5  -2  -5   35.54    3.14 
   5  -2   5   43.39    3.22 
   5  -2   5   37.40    2.91 
   5   2   5   34.13    3.55 
   6  -2   5   20.14    2.35 
   6  -2   5   20.16    2.10 
  -6  -2  -5   24.97    2.40 
   6   2   5   21.95    2.70 
   7  -2   5   -0.17    1.16 
  -7  -2  -5    0.87    1.33 
   7  -2   5   -3.02    1.24 
   7   2   5   -1.51    1.51 
   7   2   5   -1.19    1.75 
   8  -2   5    8.77    1.90 
   8   2   5    7.83    1.92 
   8   2   5   11.26    2.17 
   9  -2   5    1.46    1.75 
   9   2   5    3.15    1.83 
   9   2   5    2.22    1.74 
  10  -2   5    1.62    1.88 
  10   2   5   -0.44    1.87 
  10   2   5    0.65    1.85 
  11  -2   5    0.19    2.08 
  11   2   5    0.70    1.94 
  11   2   5    0.89    2.07 
  11  -3  -5   -0.03    2.08 
  11   3  -5    1.99    2.37 
  10  -3  -5    3.31    2.23 
  10   3  -5    1.88    2.08 
   9  -3  -5    1.37    1.93 
   9   3  -5    2.22    1.95 
   8  -3  -5    3.08    1.87 
   8  -3  -5    0.07    1.87 
  -8  -3   5    1.44    1.67 
   8   3  -5    2.15    1.79 
  -7  -3   5   10.43    1.97 
   7  -3  -5   11.72    2.24 
   7  -3  -5   11.53    2.29 
   7   3  -5   10.23    1.99 
   6  -3  -5    7.66    1.89 
  -6  -3   5    7.19    1.63 
   6  -3  -5    5.30    1.87 
   6   3  -5    5.35    1.67 
   5  -3  -5    0.49    1.51 
   5  -3  -5    0.10    1.54 
  -5  -3   5    2.06    1.35 
   5   3  -5    1.81    1.40 
   4  -3  -5   21.39    2.52 
  -4  -3   5   23.69    2.30 
   4  -3  -5   22.71    2.57 
   4   3  -5   19.20    2.22 
  -3  -3   5   30.91    2.71 
   3  -3  -5   28.68    2.78 
   3  -3  -5   29.04    2.98 
   3   3  -5   24.51    2.51 
   2  -3  -5    2.83    1.59 
   2  -3  -5    5.37    1.52 
  -2  -3   5    5.82    1.33 
   2   3  -5    4.35    1.22 
   1  -3  -5    4.65    1.41 
  -1  -3   5    2.09    1.19 
   1   3  -5    2.26    1.06 
   0  -3  -5   76.05    5.66 
   0  -3   5   83.90    5.37 
   0  -3   5   79.31    5.59 
   0   3  -5   79.98    5.33 
  -1  -3  -5   11.72    1.84 
   1  -3   5   11.92    1.56 
   1  -3   5   12.02    1.64 
  -1   3  -5   13.78    1.33 
  -2  -3  -5   -1.42    1.19 
   2  -3   5    0.65    1.06 
   2  -3   5    0.10    1.05 
   3  -3   5   16.65    2.07 
  -3  -3  -5   20.05    2.18 
   3  -3   5   17.01    1.99 
   4  -3   5   26.39    2.60 
  -4  -3  -5   23.56    2.58 
   4  -3   5   23.75    2.35 
   4   3   5   22.17    2.86 
   5  -3   5    2.62    1.31 
  -5  -3  -5    1.73    1.47 
   5  -3   5    2.92    1.45 
   5   3   5    2.03    1.91 
  -6  -3  -5    9.11    1.94 
   6  -3   5    8.49    1.72 
   6  -3   5    6.17    1.76 
   6   3   5    6.10    2.14 
   7  -3   5    5.52    1.59 
   7  -3   5    4.56    1.80 
  -7  -3  -5    4.00    1.84 
   7   3   5    0.71    2.09 
   7   3   5    6.42    2.10 
   8  -3   5    3.61    1.90 
   8   3   5    2.93    2.07 
   8   3   5    3.10    2.20 
   9  -3   5   -4.39    1.69 
   9   3   5   -1.64    2.01 
   9   3   5    1.24    2.07 
  10  -3   5    0.00    2.11 
  10   3   5    1.87    2.20 
  10   3   5   -1.98    2.06 
   9  -4  -5    1.68    2.40 
   9   4  -5   -2.09    2.12 
   8  -4  -5   -0.41    2.25 
   8   4  -5    1.35    2.07 
   7  -4  -5    3.64    2.21 
   7   4  -5    0.06    1.89 
  -6  -4   5   -0.66    1.41 
   6  -4  -5    1.62    1.78 
   6  -4  -5   -0.65    1.90 
   6   4  -5   -1.46    1.69 
  -5  -4   5    7.66    1.68 
   5  -4  -5    3.93    2.02 
   5  -4  -5    5.62    1.89 
   5   4  -5    7.47    1.94 
  -4  -4   5    1.59    1.36 
   4  -4  -5    0.79    1.84 
   4  -4  -5    3.11    1.71 
   4   4  -5    0.24    1.57 
   3  -4  -5    0.90    1.78 
   3  -4  -5   -0.24    1.54 
  -3  -4   5   -0.41    1.24 
   3   4  -5   -1.18    1.41 
   2  -4  -5   17.31    2.26 
  -2  -4   5   12.46    1.90 
   2  -4  -5   19.16    2.53 
   2   4  -5   13.45    1.96 
  -1  -4   5    6.28    1.49 
   1  -4  -5    5.01    1.72 
   1   4  -5    2.98    1.36 
   0  -4   5   -0.57    1.16 
   0  -4  -5   -0.56    1.39 
  -1  -4  -5    3.36    1.54 
   1  -4   5    1.31    1.33 
   2  -4   5   12.26    1.96 
   2  -4   5   10.33    1.85 
  -2  -4  -5   12.22    2.05 
   3  -4   5    2.22    1.44 
  -3  -4  -5    0.48    1.62 
   3  -4   5    1.46    1.55 
   4  -4   5    1.93    1.54 
   4  -4   5   -0.10    1.66 
  -4  -4  -5    1.95    1.65 
  -5  -4  -5    3.25    1.84 
   5  -4   5    1.93    1.57 
   5  -4   5    1.88    1.81 
   5   4   5   -0.98    2.09 
   6  -4   5    1.86    1.87 
   6  -4   5   -0.76    1.55 
  -6  -4  -5    0.78    1.89 
   6   4   5    1.73    2.38 
   7  -4   5    1.50    1.91 
   7   4   5   -2.09    2.16 
   7   4   5    0.05    2.17 
   8  -4   5    0.03    2.03 
   8   4   5    0.95    2.45 
   8   4   5    0.96    2.49 
   5  -5  -5    0.43    2.26 
   5   5  -5    2.69    2.18 
   4  -5  -5    1.20    2.16 
  -4  -5   5    0.01    1.36 
   4   5  -5    1.70    1.99 
  -3  -5   5    1.15    1.40 
   3  -5  -5    2.05    1.82 
   3  -5  -5    2.93    2.22 
  -2  -5   5    1.64    1.48 
   2  -5  -5    0.67    1.79 
  -1  -5   5   -0.62    1.40 
   1  -5  -5   -0.20    1.70 
   0  -5   5    3.13    1.62 
   0  -5  -5    2.31    1.85 
  -1  -5  -5    1.75    1.86 
   1  -5   5    0.40    1.56 
   2  -5   5   -1.13    1.57 
  -2  -5  -5   -1.34    1.75 
  -3  -5  -5    4.50    2.12 
   3  -5   5    2.53    1.78 
  -4  -5  -5    2.14    2.12 
   4  -5   5    1.17    1.86 
   5  -5   5    2.48    1.86 
  -5  -5  -5    0.78    2.14 
   5   5   5    0.78    2.28 
   5   5   5    0.68    2.57 
  12   0  -6   -0.25    1.68 
  11   0  -6    4.34    1.69 
  10   0  -6    1.15    1.42 
   9   0  -6    6.04    1.54 
   8   0  -6   25.09    2.51 
   7   0  -6    5.70    1.15 
   7   0  -6    6.20    1.32 
   6   0  -6    1.63    1.07 
   6   0  -6    3.40    1.01 
   5   0  -6  108.45    7.51 
   5   0  -6  117.52    7.68 
   4   0  -6   75.37    5.23 
   4   0  -6   77.39    5.26 
   3   0  -6    0.18    0.86 
   2   0  -6  120.30    7.93 
   1   0  -6  289.19   18.30 
  -1   0   6  285.56   17.09 
   0   0   6   34.47    2.71 
   0   0   6   32.28    2.43 
   0   0  -6   34.18    2.60 
  -1   0  -6   60.59    4.27 
   1   0   6   63.12    4.01 
   1   0   6   63.08    4.54 
   2   0   6  135.28   10.02 
   2   0   6  156.13    8.87 
  -2   0  -6  150.42    9.51 
   3   0   6   79.48    6.04 
   3   0   6   88.14    5.24 
  -3   0  -6   85.49    5.61 
   4   0   6    2.23    1.23 
   4   0   6   -0.85    0.65 
  -4   0  -6   -0.65    0.76 
  -5   0  -6   99.08    6.48 
   5   0   6   97.92    6.02 
   5   0   6   99.85    7.04 
   6   0   6   17.37    2.16 
  -6   0  -6   16.66    1.64 
   7   0   6    8.62    1.75 
   8   0   6    4.17    1.68 
   9   0   6   19.49    2.69 
  10   0   6    1.47    1.98 
  11   0   6    0.70    2.19 
  12   0   6   -1.24    2.36 
 -12  -1   6    5.06    2.17 
  12  -1  -6    6.22    1.73 
  12   1  -6   -0.63    1.82 
  11  -1  -6   -2.78    1.45 
 -11  -1   6    5.57    2.08 
  11   1  -6   -0.22    1.79 
  10  -1  -6    6.21    1.71 
  10  -1  -6    6.48    1.87 
 -10  -1   6    8.56    2.14 
  10   1  -6    6.13    1.88 
  -9  -1   6    7.79    1.99 
   9  -1  -6    9.79    1.69 
   9  -1  -6    5.40    1.74 
   9   1  -6    6.22    1.66 
   8  -1  -6    0.76    1.41 
  -8  -1   6    2.15    1.65 
   8  -1  -6   -0.50    1.21 
   8   1  -6    1.94    1.34 
   7  -1  -6   19.76    2.38 
   7  -1  -6   19.60    2.17 
  -7  -1   6   24.00    2.55 
   7   1  -6   18.81    2.12 
   6  -1  -6   47.66    4.00 
   6  -1  -6   49.93    3.82 
  -6  -1   6   47.57    4.01 
   6   1  -6   51.53    3.79 
   5  -1  -6    8.92    1.41 
  -5  -1   6    9.23    1.66 
   5  -1  -6    9.79    1.73 
   5   1  -6    5.23    1.28 
   4  -1  -6   29.02    2.63 
  -4  -1   6   32.28    2.63 
   4  -1  -6   24.82    2.30 
   4   1  -6   20.03    2.24 
   3  -1  -6  215.53   13.03 
  -3  -1   6  205.24   12.16 
   3  -1  -6  199.57   13.38 
   3   1  -6  183.07   12.79 
  -2  -1   6   17.86    1.93 
   2  -1  -6   20.83    2.16 
  -2  -1   6   21.82    1.65 
   2   1  -6   23.92    1.84 
  -1  -1   6    0.01    0.86 
   1  -1  -6    2.26    1.04 
   1   1  -6    1.59    0.71 
   0  -1   6  129.27    7.53 
   0  -1  -6  102.13    7.40 
   0  -1   6  111.56    6.95 
   0   1  -6  101.70    7.25 
   1  -1   6  102.00    6.32 
  -1  -1  -6  103.23    6.79 
   1  -1   6  108.68    6.91 
   1   1   6   94.43    6.19 
  -1   1  -6   99.79    6.62 
   2  -1   6   28.33    2.08 
   2  -1   6   22.05    2.01 
  -2  -1  -6   22.75    2.12 
  -2   1  -6   21.20    1.84 
   2   1   6   22.38    2.33 
   2   1   6   23.71    1.74 
   3  -1   6   82.34    5.73 
   3  -1   6   88.36    5.20 
  -3  -1  -6   76.48    5.54 
  -3   1  -6   82.47    5.26 
   3   1   6   78.22    5.99 
   3   1   6   79.79    4.90 
  -4  -1  -6   47.95    3.69 
   4  -1   6   51.90    3.41 
   4  -1   6   55.95    3.91 
   4   1   6   45.59    4.06 
   5  -1   6   27.08    2.41 
  -5  -1  -6   21.30    2.15 
   5   1   6   19.05    2.58 
  -6  -1  -6    4.62    1.22 
   6  -1   6    2.53    1.10 
   6  -1   6    3.42    1.43 
   6   1   6    2.14    1.59 
  -7  -1  -6   21.76    2.16 
   7  -1   6   20.91    2.50 
   7   1   6   17.70    2.16 
   7   1   6   23.79    2.65 
   8  -1   6    5.29    1.88 
   8   1   6    5.44    1.55 
   8   1   6    3.53    1.84 
   9  -1   6    0.90    1.75 
   9   1   6   -1.42    1.73 
   9   1   6    1.20    1.41 
  10  -1   6    3.61    2.05 
  10   1   6   -1.23    1.85 
  11  -1   6    0.63    2.13 
  11   1   6    2.92    2.33 
  11  -2  -6    2.56    1.92 
  11   2  -6    2.58    1.99 
  10  -2  -6   -0.88    1.67 
  10  -2  -6   -0.60    1.62 
 -10  -2   6    0.99    1.69 
  10   2  -6   -0.13    1.76 
   9  -2  -6    2.56    1.64 
  -9  -2   6    1.54    1.65 
   9  -2  -6    2.30    1.80 
   9   2  -6    2.92    1.72 
   8  -2  -6   15.03    2.35 
  -8  -2   6   11.75    2.14 
   8  -2  -6   11.07    1.98 
   8   2  -6   10.46    2.04 
   7  -2  -6    7.38    1.94 
  -7  -2   6    7.29    1.77 
   7  -2  -6    3.90    1.56 
   7   2  -6    4.76    1.63 
  -6  -2   6    6.17    1.69 
   6  -2  -6    7.70    1.87 
   6  -2  -6    5.52    1.56 
   6   2  -6    5.47    1.53 
  -5  -2   6   34.77    3.28 
   5  -2  -6   36.10    3.48 
   5  -2  -6   38.24    3.28 
   5   2  -6   37.42    3.17 
   4  -2  -6   10.18    2.01 
  -4  -2   6    9.42    1.80 
   4  -2  -6   13.29    1.91 
   4   2  -6   16.80    1.78 
   3  -2  -6    7.84    1.52 
   3  -2  -6    3.78    1.58 
  -3  -2   6    4.37    1.44 
   3   2  -6    5.88    1.26 
   2  -2  -6   30.23    2.66 
  -2  -2   6   26.29    2.46 
   2  -2  -6   21.97    2.58 
   2   2  -6   26.21    2.27 
  -1  -2   6   99.23    6.23 
  -1  -2   6   95.07    6.42 
   1  -2  -6   96.53    6.61 
   1   2  -6   93.22    6.29 
   0  -2   6    9.47    1.42 
   0  -2  -6   10.35    1.63 
   0  -2   6    9.91    1.17 
   0   2  -6   11.43    1.20 
   1  -2   6   17.25    1.89 
  -1  -2  -6   21.82    2.20 
   1  -2   6   17.22    1.80 
  -1   2  -6   21.15    1.63 
   2  -2   6   51.00    3.85 
  -2  -2  -6   54.04    4.02 
   2  -2   6   51.61    3.72 
   3  -2   6   16.33    1.79 
   3  -2   6   20.44    1.95 
  -3  -2  -6   16.78    2.02 
   3   2   6   12.53    2.20 
  -4  -2  -6    0.67    1.19 
   4  -2   6    0.00    1.01 
   4  -2   6    0.61    1.06 
   4   2   6    1.92    1.72 
   5  -2   6   19.92    2.11 
  -5  -2  -6   23.66    2.38 
   5   2   6   18.88    2.66 
   6  -2   6    5.10    1.61 
   6  -2   6   11.75    1.60 
  -6  -2  -6   13.33    1.84 
   6   2   6   10.07    2.19 
  -7  -2  -6    0.12    1.36 
   7  -2   6    2.80    1.34 
   7  -2   6    0.38    1.41 
   7   2   6   -1.90    1.87 
   8  -2   6    9.00    1.93 
   8   2   6    3.44    2.01 
   8   2   6    6.08    1.90 
   9  -2   6    0.21    1.83 
   9   2   6    0.98    1.98 
   9   2   6    0.51    1.74 
  10  -2   6    1.31    2.08 
  10   2   6    0.83    1.83 
  10   2   6    0.17    2.02 
  11  -2   6    1.91    2.25 
  11   2   6    1.18    2.28 
  10  -3  -6    2.28    2.06 
  10   3  -6    3.12    2.29 
  -9  -3   6   -2.07    1.76 
   9  -3  -6    3.30    1.95 
   9   3  -6    0.66    1.98 
  -8  -3   6    0.19    1.77 
   8  -3  -6   -5.62    1.77 
   8  -3  -6    2.38    1.93 
   8   3  -6   -0.60    1.70 
  -7  -3   6    3.78    1.85 
   7  -3  -6    1.77    1.99 
   7  -3  -6    3.29    1.86 
   7   3  -6    2.91    1.74 
   6  -3  -6    5.43    2.10 
  -6  -3   6    6.01    1.88 
   6  -3  -6    8.67    2.04 
   6   3  -6    7.08    1.78 
   5  -3  -6    1.69    1.73 
  -5  -3   6    2.30    1.57 
   5  -3  -6    1.31    1.67 
   5   3  -6    3.75    1.46 
   4  -3  -6    2.92    1.71 
  -4  -3   6    6.80    1.67 
   4  -3  -6    5.61    1.91 
   4   3  -6    5.72    1.47 
   3  -3  -6   42.77    3.90 
  -3  -3   6   49.78    3.78 
   3  -3  -6   48.48    4.02 
   3   3  -6   44.20    3.53 
   2  -3  -6    3.21    1.66 
  -2  -3   6    6.26    1.48 
   2  -3  -6    3.45    1.60 
   2   3  -6    7.32    1.29 
   1  -3  -6   -0.20    1.39 
  -1  -3   6    1.14    1.28 
   1   3  -6    0.78    1.03 
   0  -3   6   40.56    3.20 
   0  -3  -6   38.36    3.47 
   0   3  -6   38.67    2.94 
  -1  -3  -6   12.61    1.98 
   1  -3   6   10.68    1.67 
   1  -3   6   14.17    1.64 
   2  -3   6    0.37    1.11 
   2  -3   6    0.07    1.16 
  -2  -3  -6   -0.20    1.33 
   3  -3   6   10.75    1.71 
  -3  -3  -6    7.60    1.76 
   3  -3   6   11.92    1.70 
  -4  -3  -6   11.33    2.03 
   4  -3   6   12.82    1.95 
   4  -3   6   13.73    1.88 
   4   3   6   12.21    2.29 
  -5  -3  -6    6.64    1.74 
   5  -3   6    4.07    1.51 
   5  -3   6    5.34    1.68 
   5   3   6    6.15    2.20 
   6  -3   6    0.63    1.43 
  -6  -3  -6   -0.26    1.62 
   6  -3   6    0.22    1.60 
   6   3   6    0.96    2.00 
   7  -3   6    6.19    1.74 
  -7  -3  -6    6.96    1.97 
   7  -3   6    7.77    1.99 
   7   3   6    2.61    2.28 
   8   3   6    1.45    2.33 
   8   3   6    1.15    2.14 
   9  -3   6   -6.46    1.70 
   9   3   6   -0.54    2.15 
   9   3   6    1.55    2.30 
  10  -3   6    0.84    2.22 
  10   3   6    2.68    2.36 
  10   3   6    0.49    2.27 
   8  -4  -6    1.40    2.23 
   8   4  -6    0.90    2.16 
   7  -4  -6   -0.49    2.15 
  -7  -4   6   -1.36    1.61 
   7   4  -6    1.05    1.91 
   6  -4  -6   -0.99    2.01 
   6  -4  -6   -2.31    1.90 
  -6  -4   6    0.76    1.56 
   6   4  -6    0.20    1.77 
   5  -4  -6    6.09    2.22 
  -5  -4   6    5.79    1.81 
   5  -4  -6    7.82    2.18 
   5   4  -6    3.58    1.77 
  -4  -4   6    2.25    1.57 
   4  -4  -6    5.25    2.03 
   4  -4  -6    3.32    1.96 
   4   4  -6    1.77    1.57 
   3  -4  -6   -2.87    1.68 
  -3  -4   6   -0.16    1.41 
   3  -4  -6   -0.03    1.74 
   3   4  -6   -1.74    1.34 
  -2  -4   6    3.23    1.55 
   2  -4  -6    3.80    1.80 
   2   4  -6    3.53    1.43 
   1  -4  -6    7.95    2.03 
  -1  -4   6   10.73    1.81 
   0  -4   6    3.43    1.52 
   0  -4  -6    4.27    1.81 
  -1  -4  -6    3.04    1.73 
   1  -4   6    4.58    1.56 
  -2  -4  -6   16.17    2.45 
   2  -4   6   16.29    2.20 
   3  -4   6    6.04    1.68 
  -3  -4  -6    3.50    1.75 
   3  -4   6    3.44    1.76 
   4  -4   6   -0.03    1.52 
  -4  -4  -6    0.28    1.72 
   4  -4   6    0.25    1.69 
   4   4   6    0.35    2.14 
   5  -4   6    2.91    1.73 
   5  -4   6    2.55    1.88 
  -5  -4  -6    4.49    1.98 
   5   4   6    3.79    2.52 
  -6  -4  -6    0.17    2.00 
   6  -4   6    1.76    1.65 
   6  -4   6    1.47    1.91 
   6   4   6    1.05    2.51 
   7  -4   6   -0.79    1.68 
   7  -4   6    1.06    2.03 
   7   4   6    2.39    2.42 
   7   4   6   -3.03    2.31 
   8  -4   6    1.80    2.08 
   8   4   6   -1.11    2.58 
   8   4   6   -0.67    2.50 
   5  -5  -6    2.40    2.44 
   5   5  -6    0.46    2.04 
   4  -5  -6    2.36    2.28 
  -4  -5   6   -0.12    1.53 
   4  -5  -6   -0.46    2.03 
  -3  -5   6    2.00    1.59 
   3  -5  -6    1.58    2.01 
  -2  -5   6   -1.07    1.50 
   2  -5  -6    0.07    1.89 
  -1  -5   6   -1.49    1.47 
   1  -5  -6    0.47    1.89 
   0  -5   6    0.56    1.63 
   0  -5  -6    1.64    1.94 
   1  -5   6    0.36    1.70 
  -1  -5  -6   -1.92    1.86 
  -2  -5  -6    2.47    2.09 
   2  -5   6    2.25    1.80 
   3  -5   6    3.49    1.86 
  -3  -5  -6    0.99    2.09 
   4  -5   6    0.83    1.72 
  -4  -5  -6    0.41    2.10 
   4   5   6    2.79    2.61 
  12   0  -7   -0.06    1.84 
  11   0  -7    2.82    1.73 
  10   0  -7   -0.55    1.47 
   9   0  -7    1.01    1.37 
   8   0  -7   26.50    2.70 
   7   0  -7    2.06    1.24 
   6   0  -7    1.28    1.15 
   6   0  -7    0.01    0.92 
   5   0  -7   10.11    1.24 
   5   0  -7    6.37    1.42 
   4   0  -7  107.79    7.29 
   3   0  -7    2.78    1.11 
   2   0  -7   27.87    2.49 
  -2   0   7   28.98    2.53 
  -1   0   7   59.06    3.89 
  -1   0   7   55.17    4.15 
   1   0  -7   58.34    4.12 
   0   0   7   46.06    3.46 
   0   0   7   41.53    3.13 
   0   0  -7   43.76    3.28 
   1   0   7    0.59    0.84 
   1   0   7    1.27    1.08 
  -1   0  -7    1.32    0.92 
  -2   0  -7   94.67    6.49 
   2   0   7   95.22    6.94 
   2   0   7  103.24    6.08 
  -3   0  -7   28.16    2.32 
   3   0   7   23.13    2.71 
   3   0   7   30.63    2.21 
  -4   0  -7    5.23    1.07 
   4   0   7    3.51    0.91 
   4   0   7    6.60    1.61 
  -5   0  -7   37.73    2.81 
   5   0   7   35.60    2.57 
   5   0   7   36.97    3.34 
  -6   0  -7    5.26    1.10 
   6   0   7    4.96    1.67 
   7   0   7    1.52    1.60 
   8   0   7    0.69    1.76 
   9   0   7    2.47    2.00 
  10   0   7    1.35    2.19 
  11   0   7    0.22    2.35 
  12  -1  -7    3.84    1.77 
 -12  -1   7    1.33    2.15 
  12   1  -7   -0.08    1.88 
 -11  -1   7   -2.10    1.91 
  11  -1  -7   -3.50    1.63 
  11   1  -7   -0.41    1.69 
 -10  -1   7    0.96    1.87 
  10  -1  -7    3.54    1.78 
  10   1  -7    4.25    1.79 
   9  -1  -7    6.93    1.61 
  -9  -1   7    3.13    1.87 
   9  -1  -7    4.25    1.78 
   9   1  -7    7.01    1.77 
   8  -1  -7   -0.34    1.44 
  -8  -1   7   -0.35    1.52 
   8  -1  -7    0.98    1.30 
   8   1  -7    0.03    1.37 
  -7  -1   7    2.52    1.54 
   7  -1  -7    2.08    1.51 
   7  -1  -7    2.04    1.31 
   7   1  -7    0.53    1.21 
  -6  -1   7   75.51    5.34 
   6  -1  -7   68.75    5.36 
   6  -1  -7   71.52    5.54 
   6   1  -7   80.87    5.33 
   5  -1  -7    6.91    1.44 
  -5  -1   7    9.58    1.77 
   5  -1  -7    7.88    1.77 
   5   1  -7    5.86    1.38 
   4  -1  -7    7.96    1.62 
  -4  -1   7    9.89    1.67 
   4  -1  -7    6.44    1.34 
   4   1  -7    7.65    1.28 
   3  -1  -7   75.53    5.34 
  -3  -1   7   81.37    5.09 
   3   1  -7   69.16    5.07 
   2  -1  -7   73.86    5.21 
  -2  -1   7   72.63    4.93 
   2   1  -7   69.80    4.88 
   1  -1  -7    6.13    1.38 
  -1  -1   7    7.04    1.30 
  -1  -1   7    7.07    0.98 
   1   1  -7    5.09    1.07 
   0  -1   7   76.70    5.07 
   0  -1   7   73.26    4.84 
   0  -1  -7   59.97    5.06 
   0   1  -7   78.25    4.98 
   1  -1   7   50.36    3.71 
  -1  -1  -7   43.29    3.87 
   1  -1   7   50.98    3.88 
  -1   1  -7   58.44    3.72 
   1   1   7   60.02    3.54 
   2  -1   7   32.03    2.56 
   2  -1   7   33.62    2.66 
  -2  -1  -7   29.25    2.66 
   2   1   7   34.88    2.99 
  -2   1  -7   30.39    2.40 
   2   1   7   29.33    2.30 
   3  -1   7    6.41    1.26 
  -3  -1  -7    6.64    1.40 
   3  -1   7    6.72    1.31 
   3   1   7    7.32    1.74 
   3   1   7    7.02    0.88 
  -3   1  -7    7.02    0.98 
  -4  -1  -7   66.46    4.66 
   4  -1   7   71.70    4.90 
   4  -1   7   66.06    4.27 
   4   1   7   53.47    4.98 
   5  -1   7   28.35    2.83 
  -5  -1  -7   30.02    2.56 
   5  -1   7   26.34    2.28 
   5   1   7   31.86    3.24 
   6  -1   7    7.89    1.71 
   6  -1   7    5.37    1.15 
  -6  -1  -7    4.53    1.30 
   6   1   7    2.19    1.76 
   7  -1   7   17.10    1.85 
   7  -1   7   18.87    2.54 
  -7  -1  -7   18.15    2.07 
   7   1   7   19.22    2.63 
   8  -1   7    6.96    2.12 
   8   1   7    8.71    1.72 
   8   1   7    7.45    2.08 
   9  -1   7    1.50    2.01 
   9   1   7    1.01    1.89 
  10  -1   7    1.50    2.21 
  10   1   7   -0.56    2.07 
  11  -1   7    0.77    2.39 
  11   1   7    2.42    2.44 
 -11  -2   7    4.97    2.02 
  11  -2  -7   -5.06    1.47 
  11  -2  -7    0.86    1.86 
  11   2  -7   -0.03    2.08 
 -10  -2   7   -0.35    1.84 
  10  -2  -7    5.26    1.99 
  10  -2  -7    0.59    1.72 
  10   2  -7    1.52    1.85 
  -9  -2   7    0.49    1.74 
   9  -2  -7   -2.19    1.69 
   9  -2  -7    2.02    1.69 
   9   2  -7    2.13    1.75 
   8  -2  -7   11.38    2.15 
  -8  -2   7   18.05    2.50 
   8  -2  -7   14.37    2.43 
   8   2  -7   12.39    2.12 
   7  -2  -7   11.34    1.95 
   7  -2  -7   11.41    2.30 
  -7  -2   7   13.69    2.21 
   7   2  -7   11.84    1.93 
  -6  -2   7    2.25    1.62 
   6  -2  -7    0.86    1.65 
   6  -2  -7    0.63    1.44 
   6   2  -7    1.33    1.35 
   5  -2  -7   19.50    2.29 
   5  -2  -7   18.84    2.55 
  -5  -2   7   20.16    2.36 
   5   2  -7   14.45    1.99 
  -4  -2   7   46.68    3.92 
   4  -2  -7   50.33    4.15 
   4  -2  -7   48.69    3.96 
   4   2  -7   49.31    3.73 
   3  -2  -7   13.58    1.94 
  -3  -2   7   11.02    1.88 
   3  -2  -7   11.14    2.04 
   3   2  -7   16.29    1.71 
   2  -2  -7   19.96    2.46 
  -2  -2   7   19.22    2.24 
   2   2  -7   22.86    2.10 
  -1  -2   7  112.95    7.22 
  -1  -2   7  104.64    6.95 
   1  -2  -7   97.20    7.39 
   1   2  -7  110.38    7.06 
   0  -2   7   25.56    2.13 
   0  -2   7   25.46    2.42 
   0  -2  -7   25.00    2.63 
   0   2  -7   25.19    2.09 
   1  -2   7    1.57    1.18 
   1  -2   7    2.12    0.99 
  -1  -2  -7    3.49    1.45 
  -1   2  -7    2.83    0.93 
   2  -2   7   69.55    4.77 
   2  -2   7   69.18    5.08 
  -2  -2  -7   72.34    5.20 
  -3  -2  -7   16.15    2.07 
   3  -2   7   12.73    1.85 
   3  -2   7   17.94    1.90 
   3   2   7   18.00    2.34 
  -4  -2  -7    5.77    1.51 
   4  -2   7    2.32    1.16 
   4   2   7    4.56    1.90 
  -5  -2  -7    1.79    1.40 
   5  -2   7    2.16    1.21 
   5   2   7    1.82    1.79 
  -6  -2  -7   28.95    2.72 
   6  -2   7   27.72    2.66 
   6  -2   7   22.62    2.30 
   6   2   7   15.47    2.92 
  -7  -2  -7   19.06    2.35 
   7  -2   7   16.16    2.01 
   7  -2   7   21.11    2.51 
   7   2   7   13.47    2.76 
   8  -2   7    8.55    2.06 
   8   2   7    4.89    1.94 
   8   2   7    4.28    2.22 
   9  -2   7    4.03    2.12 
   9   2   7    1.46    2.12 
   9   2   7    4.29    1.99 
  10  -2   7    1.04    2.22 
  10   2   7    2.59    1.99 
  10   2   7    2.94    2.29 
  10  -3  -7    0.77    2.06 
  10   3  -7    2.24    2.19 
   9  -3  -7   -1.10    2.11 
  -9  -3   7   -5.55    1.72 
   9  -3  -7    2.04    2.01 
   9   3  -7    1.57    2.02 
  -8  -3   7   -5.84    1.74 
   8  -3  -7   -2.94    2.00 
   8  -3  -7    3.27    1.97 
   8   3  -7   -1.23    1.79 
   7  -3  -7   -2.88    1.92 
   7  -3  -7    5.13    1.99 
  -7  -3   7   -0.92    1.71 
   7   3  -7    6.27    1.88 
   6  -3  -7    0.44    1.98 
   6  -3  -7   11.18    2.16 
  -6  -3   7    9.85    2.13 
   6   3  -7   11.73    2.00 
   5  -3  -7   -1.08    1.74 
  -5  -3   7    0.82    1.70 
   5  -3  -7    1.03    1.69 
   5   3  -7    3.53    1.54 
  -4  -3   7    0.56    1.60 
   4  -3  -7    1.56    1.85 
   4  -3  -7    0.23    1.60 
   4   3  -7    1.61    1.41 
  -3  -3   7   13.33    2.04 
   3  -3  -7   10.31    2.20 
   3  -3  -7   12.67    2.12 
   3   3  -7   11.74    1.75 
   2  -3  -7   10.53    2.07 
  -2  -3   7   13.09    1.97 
   2   3  -7    7.83    1.48 
  -1  -3   7   12.14    1.89 
   1  -3  -7   11.25    2.08 
   1   3  -7    9.73    1.43 
   0  -3  -7   29.55    3.00 
   0  -3   7   22.59    2.53 
   1  -3   7   35.44    3.33 
  -1  -3  -7   40.95    3.69 
   1  -3   7   40.52    3.22 
   2  -3   7    4.01    1.38 
  -2  -3  -7    1.80    1.62 
   2  -3   7    3.23    1.32 
   3  -3   7    4.21    1.50 
   3  -3   7    1.09    1.29 
  -3  -3  -7    4.24    1.66 
  -4  -3  -7   17.20    2.35 
   4  -3   7   13.60    2.23 
   4  -3   7   12.94    2.00 
   4   3   7   16.92    2.62 
   5  -3   7    1.65    1.64 
  -5  -3  -7    2.72    1.71 
   5  -3   7    1.45    1.48 
   5   3   7    4.67    2.24 
   6  -3   7    2.19    1.50 
   6  -3   7    2.55    1.70 
  -6  -3  -7   -0.05    1.66 
   6   3   7    2.90    2.22 
  -7  -3  -7    1.12    1.83 
   7  -3   7   -0.81    1.54 
   7   3   7   -0.92    2.23 
   8  -3   7   -6.50    1.64 
   8   3   7    0.50    2.17 
   8   3   7   -3.13    2.32 
   9  -3   7    6.14    2.16 
   9   3   7    1.68    2.28 
   9   3   7   -2.22    2.29 
   8  -4  -7    2.74    2.34 
   8   4  -7    0.84    2.14 
  -7  -4   7    0.74    1.92 
   7  -4  -7    0.69    2.20 
   7  -4  -7    1.28    2.38 
   7   4  -7    2.10    1.96 
  -6  -4   7    1.24    1.87 
   6  -4  -7   -0.21    2.17 
   6  -4  -7   -0.81    2.03 
   6   4  -7    0.08    1.82 
   5  -4  -7    1.68    2.20 
  -5  -4   7    0.83    1.77 
   5  -4  -7    1.87    2.12 
   5   4  -7    1.61    1.74 
   4  -4  -7    4.82    2.20 
   4  -4  -7    5.37    2.30 
  -4  -4   7    7.68    2.01 
   4   4  -7    5.90    1.74 
  -3  -4   7   -1.15    1.58 
   3  -4  -7   -1.51    1.98 
   3   4  -7    0.87    1.48 
   2  -4  -7    3.71    2.10 
  -2  -4   7    6.02    1.81 
  -1  -4   7    5.83    1.83 
   1  -4  -7    7.40    2.22 
   0  -4   7   -0.87    1.46 
   0  -4  -7    2.26    1.91 
  -1  -4  -7    0.07    1.79 
   1  -4   7    1.94    1.57 
  -2  -4  -7    2.52    1.88 
   2  -4   7    5.39    1.71 
   3  -4   7    2.39    1.66 
  -3  -4  -7    4.59    1.92 
   4  -4   7    2.88    1.86 
   4  -4   7   -0.53    1.59 
  -4  -4  -7    0.04    1.91 
   4   4   7    0.48    2.20 
   5  -4   7    3.81    1.82 
  -5  -4  -7    1.08    1.93 
   5  -4   7    0.50    1.87 
   5   4   7    1.53    2.50 
   6  -4   7    3.63    1.92 
   6  -4   7    2.25    2.11 
  -6  -4  -7    3.15    2.20 
   6   4   7    4.21    2.65 
   7  -4   7    0.35    1.88 
   7  -4   7   -0.45    2.04 
  -7  -4  -7    0.77    2.26 
   7   4   7   -0.44    2.42 
   7   4   7    0.71    2.50 
   4  -5  -7   -1.57    2.25 
  -4  -5   7   -0.46    1.71 
   3  -5  -7    3.91    2.32 
  -3  -5   7    0.99    1.68 
   2  -5  -7    4.42    2.24 
  -2  -5   7    0.78    1.65 
  -1  -5   7    1.84    1.76 
   1  -5  -7    0.70    2.20 
   0  -5   7    0.05    1.71 
   0  -5  -7    0.56    2.10 
  -1  -5  -7    1.11    2.17 
   1  -5   7    1.05    1.84 
  -2  -5  -7    1.47    2.20 
   2  -5   7   -1.45    1.81 
  -3  -5  -7   -0.04    2.21 
   3  -5   7    0.30    1.92 
  11   0  -8    2.10    1.96 
  10   0  -8   -1.43    1.60 
   9   0  -8   -1.16    1.54 
   8   0  -8    4.08    1.60 
   7   0  -8   27.42    2.79 
   6   0  -8    8.84    1.68 
   5   0  -8   13.02    1.88 
   4   0  -8  153.06   10.19 
   3   0  -8   12.59    1.79 
  -3   0   8   12.26    1.75 
  -2   0   8    8.84    1.48 
   2   0  -8    9.15    1.60 
  -1   0   8  102.18    7.29 
  -1   0   8  106.16    6.66 
   1   0  -8  108.96    7.12 
   0   0   8   45.56    3.45 
   0   0   8   40.54    3.10 
   0   0  -8   38.80    3.26 
   1   0   8    9.83    1.62 
   1   0   8    9.58    1.39 
  -1   0  -8   10.46    1.49 
   2   0   8    4.06    1.07 
  -2   0  -8    2.55    1.13 
   2   0   8    3.39    1.43 
  -3   0  -8   61.17    4.12 
   3   0   8   57.44    3.87 
   3   0   8   50.67    4.55 
  -4   0  -8  116.25    7.46 
   4   0   8  116.21    6.92 
   4   0   8  102.24    8.03 
   5   0   8    7.32    1.88 
  -5   0  -8   13.28    1.50 
   5   0   8   12.69    1.32 
   6   0   8   43.72    4.02 
   7   0   8    4.29    1.94 
   8   0   8    0.59    1.88 
   9   0   8    1.45    2.13 
  10   0   8    3.86    2.42 
  11   0   8   -1.13    2.50 
 -11  -1   8   -0.61    1.98 
  11  -1  -8    0.72    2.00 
  11   1  -8   -1.20    1.78 
  10  -1  -8    4.29    2.00 
 -10  -1   8    0.75    1.94 
  10   1  -8   -0.21    1.64 
  -9  -1   8   11.96    2.31 
   9  -1  -8    9.06    2.17 
   9   1  -8    9.23    1.92 
  -8  -1   8    2.68    1.79 
   8  -1  -8    1.74    1.72 
   8  -1  -8    1.40    1.40 
   8   1  -8    0.86    1.40 
   7  -1  -8    4.90    1.48 
  -7  -1   8    6.71    1.86 
   7  -1  -8    4.66    1.81 
   7   1  -8    6.53    1.53 
   6  -1  -8   20.58    2.70 
  -6  -1   8   29.38    2.83 
   6  -1  -8   21.41    2.40 
   6   1  -8   27.36    2.53 
   5  -1  -8   18.77    2.04 
   5  -1  -8   19.06    2.31 
  -5  -1   8   19.89    2.23 
   5   1  -8   12.31    1.84 
   4  -1  -8    8.74    1.75 
  -4  -1   8    7.64    1.59 
   4   1  -8    8.99    1.44 
  -3  -1   8   59.02    4.24 
   3  -1  -8   58.66    4.52 
  -2  -1   8  102.58    6.21 
   2  -1  -8  101.57    6.55 
   2   1  -8   79.18    6.24 
  -1  -1   8   15.38    1.89 
   1  -1  -8   16.15    2.04 
   1   1  -8   15.18    1.77 
   0  -1  -8   10.15    1.72 
   0  -1   8   13.59    1.73 
   0  -1   8    9.82    1.42 
   0   1  -8   14.54    1.62 
   0   1   8   14.72    1.55 
   1  -1   8   80.32    5.60 
   1  -1   8   73.75    5.98 
  -1  -1  -8   69.59    5.93 
   1   1   8   89.99    6.23 
  -1   1  -8   99.09    5.80 
   1   1   8   98.33    5.41 
  -2  -1  -8   29.38    2.77 
   2  -1   8   30.05    2.69 
   2  -1   8   29.30    2.61 
   2   1   8   32.76    2.36 
  -2   1  -8   25.74    2.39 
   2   1   8   33.86    3.06 
  -3  -1  -8   23.84    2.44 
   3  -1   8   26.00    2.32 
   3  -1   8   25.26    2.48 
  -3   1  -8   20.71    2.00 
   3   1   8   26.77    2.83 
   4  -1   8   24.83    2.67 
  -4  -1  -8   26.60    2.52 
   4  -1   8   25.82    2.20 
   4   1   8   25.44    2.87 
   5  -1   8   25.38    2.61 
  -5  -1  -8   22.73    2.25 
   5  -1   8   21.21    2.00 
   5   1   8   13.05    2.56 
  -6  -1  -8    6.83    1.56 
   6  -1   8   10.81    2.01 
   6  -1   8    9.85    1.43 
   6   1   8    6.42    2.12 
  -7  -1  -8    6.10    1.52 
   7  -1   8    7.65    2.10 
   7  -1   8    5.41    1.41 
   7   1   8    4.09    2.00 
   8  -1   8    4.65    2.15 
   8   1   8    1.94    2.06 
   9  -1   8    2.21    2.24 
   9   1   8    0.94    2.07 
  10  -1   8   -1.19    2.38 
  10   1   8   -2.04    2.28 
  11  -2  -8   -6.02    1.53 
 -11  -2   8    4.62    2.12 
  11   2  -8   -0.56    2.05 
  10  -2  -8    0.56    1.96 
 -10  -2   8    4.70    2.15 
  10  -2  -8    1.42    1.80 
  10   2  -8    1.49    1.99 
   9  -2  -8    2.98    1.94 
   9  -2  -8    2.78    1.74 
  -9  -2   8    1.45    1.92 
   9   2  -8    0.28    1.83 
   8  -2  -8    3.34    2.01 
   8  -2  -8    4.10    1.70 
  -8  -2   8    3.35    1.91 
   8   2  -8    4.66    1.82 
   7  -2  -8   14.10    2.52 
  -7  -2   8   15.39    2.36 
   7  -2  -8   12.03    2.12 
   7   2  -8   11.49    2.07 
   6  -2  -8    0.19    1.82 
  -6  -2   8    1.63    1.63 
   6  -2  -8   -0.47    1.40 
   6   2  -8    1.97    1.50 
   5  -2  -8   12.28    2.05 
  -5  -2   8   17.11    2.30 
   5  -2  -8   13.46    2.38 
   5   2  -8   12.59    1.91 
   4  -2  -8   19.93    2.42 
   4  -2  -8   19.84    2.70 
  -4  -2   8   19.26    2.46 
   4   2  -8   25.37    2.35 
   3  -2  -8    2.93    1.67 
  -3  -2   8    1.30    1.49 
   3   2  -8    2.75    1.20 
   2  -2  -8    2.11    1.55 
  -2  -2   8    3.56    1.47 
   2   2  -8    6.53    1.21 
   1  -2  -8   30.56    3.23 
  -1  -2   8   31.20    3.04 
   1   2  -8   35.74    2.68 
   0  -2   8   27.28    2.60 
   0  -2  -8   27.39    2.86 
   0  -2   8   27.38    2.29 
   0   2  -8   23.24    2.25 
  -1  -2  -8    1.71    1.49 
   1  -2   8   -0.44    1.04 
   1  -2   8    1.06    1.29 
  -1   2  -8    1.36    1.00 
   2  -2   8   34.25    2.90 
   2  -2   8   31.70    2.92 
  -2  -2  -8   35.30    3.24 
  -3  -2  -8   14.09    2.15 
   3  -2   8   15.96    1.93 
   3   2   8   14.91    2.35 
   4  -2   8    3.12    1.35 
   4  -2   8    0.94    1.19 
  -4  -2  -8    4.25    1.59 
   4   2   8    2.97    1.95 
   5  -2   8    1.88    1.34 
   5  -2   8    9.57    1.71 
  -5  -2  -8    4.58    1.68 
   5   2   8    4.37    2.01 
   6  -2   8    0.97    1.35 
  -6  -2  -8    2.53    1.63 
   6  -2   8    4.45    1.69 
   6   2   8    3.33    2.18 
   7  -2   8    0.58    1.48 
  -7  -2  -8    4.86    1.69 
   7  -2   8    6.40    1.88 
   7   2   8    0.87    2.20 
   8  -2   8    0.95    1.90 
  -8  -2  -8    1.24    1.68 
   8  -2   8    1.14    1.57 
   8   2   8   -2.06    2.16 
   9  -2   8    0.87    2.13 
   9   2   8   -1.47    2.20 
   9   2   8    1.57    2.01 
  10  -2   8    1.98    2.47 
  10   2   8    0.51    2.48 
   9  -3  -8    0.55    2.30 
   9  -3  -8    3.14    2.07 
  -9  -3   8   -0.30    2.11 
   9   3  -8   -0.45    1.99 
  -8  -3   8   -1.44    1.98 
   8  -3  -8    1.57    1.94 
   8  -3  -8    0.25    2.23 
   8   3  -8    1.20    1.90 
  -7  -3   8   -2.42    1.76 
   7  -3  -8   -0.60    1.83 
   7  -3  -8    0.56    2.21 
   7   3  -8   -1.21    1.62 
   6  -3  -8    7.02    2.08 
  -6  -3   8    0.99    1.95 
   6  -3  -8    1.39    2.16 
   6   3  -8    4.13    1.73 
   5  -3  -8    1.91    2.07 
   5  -3  -8    7.21    2.03 
  -5  -3   8    0.84    1.80 
   5   3  -8    9.08    1.74 
  -4  -3   8   -1.89    1.66 
   4  -3  -8   -1.61    1.65 
   4  -3  -8   -4.20    1.79 
   4   3  -8    0.47    1.37 
  -3  -3   8   12.57    2.26 
   3  -3  -8    8.61    2.41 
   3   3  -8   17.07    1.92 
   2  -3  -8    8.04    2.24 
  -2  -3   8   10.96    2.04 
   2   3  -8   13.38    1.70 
  -1  -3   8    2.89    1.62 
   1  -3  -8   -0.26    1.81 
   1   3  -8    0.76    1.17 
   0  -3  -8    3.61    1.90 
   0  -3   8    4.22    1.62 
  -1  -3  -8   14.45    2.42 
   1  -3   8   12.57    2.02 
  -2  -3  -8    7.05    2.06 
   2  -3   8    6.89    1.62 
   2  -3   8    5.21    1.68 
  -3  -3  -8    2.11    1.77 
   3  -3   8    0.06    1.49 
   3  -3   8    1.06    1.39 
   3   3   8   -0.83    1.85 
  -4  -3  -8    9.09    2.06 
   4  -3   8    7.43    1.81 
   4  -3   8    8.40    1.91 
   4   3   8    7.44    2.41 
   5  -3   8    7.54    1.85 
  -5  -3  -8    8.18    2.17 
   5  -3   8    7.99    1.97 
   5   3   8   12.13    2.78 
   6  -3   8    1.53    1.49 
  -6  -3  -8    2.42    1.81 
   6   3   8    1.25    2.33 
   7  -3   8   -5.65    1.51 
  -7  -3  -8    3.32    2.00 
   7  -3   8    2.43    1.69 
   7   3   8    3.38    2.52 
  -8  -3  -8    2.78    2.04 
   8  -3   8    9.96    2.31 
   8  -3   8    1.32    1.83 
   8   3   8    1.57    2.60 
   8   3   8    2.99    2.40 
  -7  -4   8   -1.42    2.09 
   7  -4  -8   -1.95    2.42 
   7  -4  -8    0.60    2.24 
   7   4  -8   -0.42    2.00 
  -6  -4   8    1.36    2.13 
   6  -4  -8   -1.48    2.46 
   6  -4  -8    1.70    2.20 
   6   4  -8   -2.00    1.81 
   5  -4  -8   -0.44    2.39 
  -5  -4   8    0.99    2.00 
   5  -4  -8    1.46    2.09 
   5   4  -8    1.22    1.80 
  -4  -4   8    3.05    2.10 
   4  -4  -8    2.99    2.41 
   4   4  -8    3.81    1.74 
  -3  -4   8    0.17    1.81 
   3  -4  -8    6.27    2.48 
  -2  -4   8    1.31    1.81 
   2  -4  -8   -0.06    2.20 
  -1  -4   8    5.43    2.01 
   1  -4  -8    9.04    2.47 
   0  -4   8    3.76    1.87 
   0  -4  -8    1.65    2.13 
   1  -4   8   -1.04    1.55 
  -1  -4  -8   -1.72    1.97 
   2  -4   8    3.83    1.78 
  -2  -4  -8    1.56    2.02 
   3  -4   8    1.31    1.73 
  -3  -4  -8    3.53    2.12 
  -4  -4  -8    3.28    2.19 
   4  -4   8    1.00    1.80 
   4   4   8    5.07    2.52 
   5  -4   8    0.26    1.76 
  -5  -4  -8    1.40    2.11 
   5   4   8   -2.90    2.56 
   6  -4   8   -1.30    2.08 
   6  -4   8    4.09    1.99 
  -6  -4  -8    2.20    2.31 
   6   4   8    2.32    2.69 
  -2  -5   8    2.58    1.96 
   2  -5  -8    1.40    2.47 
   1  -5  -8    0.62    2.44 
  -1  -5   8   -2.37    1.86 
   0  -5   8    0.17    1.92 
   0  -5  -8    1.59    2.43 
   1  -5   8    0.12    2.05 
  -1  -5  -8    2.15    2.45 
  11   0  -9    2.12    2.07 
  10   0  -9    2.23    1.96 
   9   0  -9   -0.64    1.64 
   8   0  -9    8.35    2.00 
   7   0  -9   11.30    2.01 
   6   0  -9    0.60    1.45 
   5   0  -9    2.51    1.45 
  -5   0   9   -0.08    1.35 
   4   0  -9   22.62    2.46 
  -4   0   9   20.22    2.30 
   3   0  -9   49.21    3.94 
  -3   0   9   48.63    3.79 
  -2   0   9    0.59    1.16 
   2   0  -9    1.25    1.24 
  -2   0   9    0.96    1.09 
   1   0  -9   63.06    4.74 
  -1   0   9   66.07    4.84 
  -1   0   9   66.43    4.45 
   0   0   9   67.88    4.89 
   0   0  -9   62.26    4.68 
   0   0   9   63.66    4.43 
   1   0   9    3.01    1.15 
   1   0   9    2.61    1.38 
  -1   0  -9    3.01    1.27 
  -2   0  -9   25.03    2.54 
   2   0   9   31.41    2.92 
   2   0   9   26.67    2.44 
  -3   0  -9   13.34    1.76 
   3   0   9   12.20    2.15 
   3   0   9   15.95    1.69 
  -4   0  -9    7.29    1.42 
   4   0   9    4.32    1.75 
   4   0   9    5.99    1.27 
   5   0   9   -1.85    1.53 
   6   0   9    7.67    2.13 
   7   0   9    4.94    2.07 
   8   0   9    0.54    2.06 
   9   0   9    3.53    2.46 
  10   0   9   -0.02    2.45 
  11  -1  -9    4.92    2.28 
 -11  -1   9   -0.39    2.06 
  11   1  -9   -1.61    1.91 
 -10  -1   9    3.51    2.16 
  10  -1  -9    3.05    2.11 
  10   1  -9    1.56    1.85 
  -9  -1   9    7.79    2.24 
   9  -1  -9    4.11    2.10 
   9   1  -9    6.08    1.85 
   8  -1  -9    1.28    1.77 
  -8  -1   9    2.00    1.84 
   8   1  -9    4.10    1.65 
   7  -1  -9    4.88    1.81 
  -7  -1   9    4.18    1.76 
   7  -1  -9    1.97    1.45 
   7   1  -9    4.39    1.52 
   6  -1  -9   16.62    2.47 
  -6  -1   9   17.09    2.31 
   6   1  -9   19.37    2.24 
   5  -1  -9   42.57    3.72 
  -5  -1   9   42.45    3.58 
   5   1  -9   41.35    3.49 
  -4  -1   9    1.89    1.28 
   4  -1  -9    1.82    1.44 
   4   1  -9    1.05    1.19 
   3  -1  -9   10.38    1.90 
  -3  -1   9   11.62    1.75 
   3   1  -9   10.40    1.67 
  -2  -1   9   55.00    3.85 
   2  -1  -9   51.50    4.11 
   2   1  -9   45.30    3.82 
   1  -1  -9   18.04    2.12 
  -1  -1   9   14.57    1.88 
  -1  -1   9    9.05    1.42 
   1   1  -9   10.89    1.74 
  -1   1   9   10.84    1.64 
   0  -1   9   10.52    1.61 
   0  -1   9    5.64    1.30 
   0  -1  -9    7.96    1.73 
   0   1   9    8.05    1.36 
   0   1  -9    8.72    1.42 
   1  -1   9   30.17    2.58 
  -1  -1  -9   24.97    2.69 
   1  -1   9   18.39    2.34 
   1   1   9   32.18    2.36 
  -1   1  -9   27.35    2.38 
   1   1   9   24.94    2.68 
   2  -1   9   24.57    2.26 
  -2  -1  -9   19.68    2.37 
   2  -1   9   20.32    2.31 
   3  -1   9    9.99    1.81 
  -3  -1  -9   13.59    1.97 
   3  -1   9   13.28    1.78 
   3   1   9   16.17    2.26 
  -4  -1  -9   16.71    2.07 
   4  -1   9   10.97    2.02 
   4  -1   9   12.57    1.68 
   4   1   9   14.97    2.35 
  -5  -1  -9   17.43    2.11 
   5  -1   9   18.01    2.37 
   5  -1   9   14.03    1.75 
   5   1   9   14.90    2.57 
   6  -1   9    4.24    1.39 
  -6  -1  -9    5.98    1.60 
   6  -1   9    6.69    2.05 
   6   1   9    4.71    2.14 
  -7  -1  -9    3.54    1.50 
   7  -1   9    2.30    1.99 
   7   1   9    0.14    2.01 
   8  -1   9    3.69    2.27 
   8   1   9    0.84    2.15 
   9  -1   9    3.67    2.59 
   9   1   9   -1.76    2.20 
  10  -1   9    1.50    2.66 
  10   1   9   -0.73    2.39 
 -10  -2   9    0.07    2.11 
  10  -2  -9    0.70    2.12 
  10   2  -9    1.17    1.95 
  -9  -2   9    1.54    2.04 
   9  -2  -9   -0.25    1.96 
   9  -2  -9   -0.46    1.72 
   9   2  -9    1.48    1.84 
  -8  -2   9   -4.04    1.74 
   8  -2  -9    2.76    2.02 
   8  -2  -9    0.72    1.67 
   8   2  -9    0.46    1.70 
  -7  -2   9   25.23    2.92 
   7  -2  -9   19.45    2.63 
   7  -2  -9   23.16    3.08 
   7   2  -9   17.95    2.51 
   6  -2  -9    4.83    2.03 
   6  -2  -9    4.25    1.71 
  -6  -2   9    4.31    1.86 
   6   2  -9    2.47    1.53 
   5  -2  -9    9.40    2.11 
  -5  -2   9    7.48    1.88 
   5   2  -9    2.46    1.43 
  -4  -2   9   29.40    2.98 
   4  -2  -9   24.41    2.99 
   4   2  -9   22.89    2.42 
   3  -2  -9   11.34    2.21 
  -3  -2   9   14.91    2.15 
   3   2  -9   12.46    1.71 
   2  -2  -9    4.25    1.71 
  -2  -2   9    3.43    1.54 
   2   2  -9    3.03    1.20 
   1  -2  -9    5.81    1.81 
  -1  -2   9    7.34    1.72 
   1   2  -9    6.60    1.36 
   0  -2  -9   17.09    2.58 
   0  -2   9   21.06    2.47 
   0   2  -9   28.57    2.30 
   1  -2   9   33.29    2.95 
   1  -2   9   29.66    2.82 
  -1  -2  -9   31.51    3.18 
   2  -2   9    6.12    1.64 
  -2  -2  -9    3.18    1.73 
   2   2   9    7.76    1.95 
   3  -2   9   35.79    3.26 
  -3  -2  -9   37.68    3.53 
   3  -2   9   36.61    3.04 
   3   2   9   34.02    3.74 
  -4  -2  -9    5.85    1.78 
   4  -2   9    4.28    1.43 
   4  -2   9   10.32    1.84 
   4   2   9    5.15    2.11 
   5  -2   9   -0.57    1.34 
   5  -2   9   -0.62    1.48 
  -5  -2  -9    0.14    1.54 
   5   2   9    0.15    1.90 
  -6  -2  -9    0.33    1.67 
   6  -2   9    5.50    1.91 
   6  -2   9    3.73    1.56 
   6   2   9    1.05    2.19 
   7  -2   9    5.46    2.10 
  -7  -2  -9    3.58    1.74 
   7  -2   9    5.13    1.72 
   7   2   9    3.44    2.41 
   8  -2   9    4.17    1.79 
  -8  -2  -9    2.15    1.83 
   8  -2   9    4.23    2.24 
   8   2   9    3.16    2.45 
   9  -2   9    1.23    2.31 
   9   2   9   -0.42    2.37 
  -9  -3   9    1.73    2.25 
   9  -3  -9    0.81    2.38 
   9  -3  -9    2.97    2.12 
   9   3  -9    3.60    2.23 
   8  -3  -9    0.35    1.96 
   8  -3  -9    0.93    2.25 
  -8  -3   9   -0.60    2.09 
   8   3  -9    0.84    1.98 
  -7  -3   9   -0.02    2.05 
   7  -3  -9    2.03    2.32 
   7  -3  -9    0.83    1.89 
   7   3  -9   -0.68    1.75 
   6  -3  -9    2.09    1.88 
   6  -3  -9    3.96    2.32 
  -6  -3   9    0.80    1.98 
   6   3  -9    0.24    1.65 
  -5  -3   9    4.85    2.12 
   5  -3  -9    4.22    2.32 
   5   3  -9    7.54    1.80 
  -4  -3   9    0.46    1.88 
   4  -3  -9    1.20    2.13 
   4   3  -9    4.06    1.60 
  -3  -3   9    1.25    1.84 
   3  -3  -9   -1.45    1.96 
   3   3  -9    2.49    1.43 
  -2  -3   9   11.40    2.21 
   2  -3  -9    7.39    2.37 
   2   3  -9   14.45    1.78 
  -1  -3   9    5.76    1.89 
   1  -3  -9    9.57    2.32 
   0  -3   9    1.30    1.67 
   0  -3  -9    1.31    1.95 
  -1  -3  -9   18.08    2.86 
   1  -3   9   22.40    2.68 
   2  -3   9    2.23    1.62 
  -2  -3  -9    3.71    2.06 
  -3  -3  -9    0.97    1.90 
   3  -3   9    0.57    1.49 
   3   3   9   -0.21    1.91 
  -4  -3  -9    0.83    1.94 
   4  -3   9    0.51    1.52 
   4  -3   9   -1.00    1.65 
   4   3   9    1.31    2.26 
   5  -3   9    4.25    1.71 
   5  -3   9   -0.58    1.67 
  -5  -3  -9    4.71    2.01 
   5   3   9    5.78    2.53 
   6  -3   9   -6.25    1.55 
  -6  -3  -9    0.56    1.95 
   6  -3   9    2.62    1.76 
   6   3   9    5.53    2.58 
   7  -3   9    4.12    2.01 
   7  -3   9    1.71    1.86 
  -7  -3  -9   -0.13    2.00 
   7   3   9    0.69    2.60 
   8  -3   9   -1.27    1.82 
  -8  -3  -9    0.55    2.08 
   8  -3   9    4.88    2.27 
   8   3   9   -2.13    2.62 
   6  -4  -9   -6.31    2.33 
  -6  -4   9   -0.03    2.18 
   6   4  -9   -2.78    1.74 
   5  -4  -9   -1.01    2.64 
  -5  -4   9   -1.25    2.10 
   5   4  -9   -0.45    1.73 
   4  -4  -9    1.47    2.49 
  -4  -4   9   -1.17    2.06 
   3  -4  -9    2.49    2.59 
  -3  -4   9    2.49    2.18 
  -2  -4   9   -1.60    1.97 
   2  -4  -9   -3.90    2.28 
   1  -4  -9    7.74    2.78 
  -1  -4   9    1.81    2.03 
   0  -4  -9    0.32    2.36 
   0  -4   9    4.11    2.07 
   1  -4   9    0.88    1.80 
  -1  -4  -9    0.58    2.23 
  -2  -4  -9    1.85    2.28 
   2  -4   9    0.44    1.76 
  -3  -4  -9    0.98    2.24 
   3  -4   9    0.68    1.88 
   3   4   9    3.99    2.57 
   4  -4   9    0.97    1.97 
  -4  -4  -9    2.68    2.25 
   4   4   9    0.50    2.59 
  -5  -4  -9   -2.12    2.25 
   5  -4   9    0.61    1.94 
   5   4   9   -2.36    2.70 
  10   0 -10    3.11    2.11 
   9   0 -10    0.83    1.82 
   8   0 -10    1.32    1.72 
  -7   0  10   11.60    2.21 
   7   0 -10   12.20    2.25 
   6   0 -10    4.95    1.80 
  -6   0  10    5.12    1.79 
   5   0 -10   -1.26    1.45 
  -5   0  10    1.23    1.50 
  -4   0  10   14.71    2.06 
   4   0 -10   14.15    2.14 
   3   0 -10   26.89    2.74 
  -3   0  10   24.82    2.50 
  -2   0  10   15.92    1.88 
   2   0 -10   13.75    1.95 
  -2   0  10   16.12    1.89 
  -1   0  10    0.72    1.13 
   1   0 -10    1.05    1.29 
  -1   0  10    2.50    1.34 
   0   0 -10   71.39    5.26 
   0   0  10   75.57    4.98 
   0   0  10   71.95    5.40 
  -1   0 -10   18.90    2.19 
   1   0  10   20.38    2.33 
   1   0  10   19.05    2.09 
   2   0  10    3.10    1.56 
  -2   0 -10   -0.04    1.21 
   2   0  10    1.19    1.19 
  -3   0 -10    4.23    1.42 
   3   0  10    6.50    1.37 
   3   0  10    6.96    1.82 
  -4   0 -10   14.04    1.87 
   4   0  10   11.99    2.22 
   5   0  10    2.43    1.79 
   6   0  10    1.66    1.91 
   7   0  10    1.05    2.04 
   8   0  10   -0.49    2.24 
   9   0  10   -2.64    2.42 
  10  -1 -10    0.26    1.99 
 -10  -1  10    0.23    2.08 
  10   1 -10    2.17    2.08 
  -9  -1  10    3.52    2.00 
   9  -1 -10    0.58    2.02 
   9   1 -10    1.80    1.83 
   8  -1 -10    8.94    2.15 
  -8  -1  10    6.43    2.06 
   8   1 -10    3.63    1.74 
   7  -1 -10   -0.11    1.68 
  -7  -1  10    2.32    1.69 
   7   1 -10    1.43    1.58 
   6  -1 -10    5.22    1.82 
  -6  -1  10    5.86    1.66 
   6   1 -10    2.86    1.61 
   5  -1 -10   20.68    2.56 
  -5  -1  10   20.75    2.39 
   5   1 -10   20.86    2.50 
   4  -1 -10    5.89    1.73 
  -4  -1  10    7.29    1.60 
   4   1 -10    3.38    1.55 
   3  -1 -10    1.62    1.54 
  -3  -1  10    1.46    1.36 
   3   1 -10    2.15    1.37 
   2  -1 -10   41.00    3.73 
  -2  -1  10   43.91    3.52 
  -2   1  10   40.90    3.36 
   2   1 -10   44.12    3.55 
  -1  -1  10   15.49    1.80 
   1  -1 -10   19.02    2.34 
  -1  -1  10   19.67    2.18 
   1   1 -10   15.86    2.00 
  -1   1  10   15.56    1.90 
   0  -1  10    6.66    1.27 
   0  -1 -10    4.77    1.56 
   0  -1  10    5.40    1.49 
   0   1  10    3.93    1.53 
   0   1  10    2.77    1.15 
   0   1 -10    5.25    1.32 
  -1  -1 -10   11.73    1.99 
   1  -1  10    8.47    1.62 
   1  -1  10   12.87    1.91 
  -1   1 -10   12.48    1.67 
   1   1  10   12.57    2.06 
   1   1  10   13.20    1.59 
  -2  -1 -10   21.00    2.53 
   2  -1  10   15.57    2.29 
   2  -1  10   24.54    2.39 
   2   1  10   27.52    2.81 
  -2   1 -10   24.66    2.21 
   3  -1  10    2.20    1.52 
   3  -1  10    9.69    1.66 
  -3  -1 -10    7.75    1.78 
   3   1  10   11.30    2.12 
   4  -1  10   -0.67    1.52 
   4  -1  10    1.27    1.32 
  -4  -1 -10    4.23    1.60 
   4   1  10    5.68    2.02 
   5  -1  10    4.86    1.43 
  -5  -1 -10    5.41    1.65 
   5  -1  10    3.20    1.84 
   5   1  10    5.24    2.16 
   6  -1  10    5.40    2.10 
  -6  -1 -10    7.35    1.73 
   6   1  10    8.93    2.34 
   7  -1  10    1.66    2.16 
   7   1  10   -3.41    1.98 
   8  -1  10    2.62    2.44 
   8   1  10    0.51    2.30 
   9  -1  10    0.88    2.64 
   9   1  10   -2.07    2.28 
  -9  -2  10    1.54    2.14 
   9  -2 -10    2.35    2.28 
   9   2 -10    0.11    1.85 
  -8  -2  10    0.83    2.01 
   8  -2 -10    0.08    1.79 
   8  -2 -10    1.94    2.13 
   8   2 -10   -1.37    1.65 
   7  -2 -10    3.72    2.08 
  -7  -2  10    5.01    2.04 
   7   2 -10    5.10    1.81 
   6  -2 -10    9.20    2.32 
  -6  -2  10    9.63    2.18 
   6   2 -10    7.18    1.81 
  -5  -2  10    1.04    1.73 
   5  -2 -10   -0.43    1.79 
   5   2 -10    0.04    1.38 
   4  -2 -10   17.82    2.74 
  -4  -2  10   17.28    2.45 
   4   2 -10   16.19    2.12 
  -3  -2  10   19.81    2.46 
   3  -2 -10   17.59    2.57 
   3   2 -10   12.66    1.96 
  -2  -2  10    0.36    1.50 
   2  -2 -10    3.79    1.85 
   2   2 -10    0.97    1.31 
   1  -2 -10   10.43    2.17 
  -1  -2  10    5.85    1.86 
   1   2 -10    8.89    1.62 
   0  -2  10   16.37    2.23 
   0  -2 -10   13.71    2.36 
  -1  -2 -10    1.07    1.73 
   1  -2  10    3.10    1.62 
  -2  -2 -10    0.13    1.71 
   2  -2  10   -0.65    1.44 
   2   2  10    0.04    1.73 
   3  -2  10    7.50    1.84 
  -3  -2 -10   11.52    2.27 
   3  -2  10    8.15    1.89 
   3   2  10   11.16    2.43 
  -4  -2 -10    3.67    1.87 
   4  -2  10    4.78    1.80 
   4  -2  10    3.75    1.60 
   4   2  10    8.25    2.30 
   5  -2  10    2.62    1.84 
   5  -2  10    2.37    1.55 
  -5  -2 -10   -0.33    1.68 
   5   2  10    1.68    2.07 
  -6  -2 -10    2.80    1.90 
   6  -2  10    3.44    1.64 
   6  -2  10    2.13    1.92 
   6   2  10    4.98    2.46 
  -7  -2 -10    0.85    1.82 
   7  -2  10    4.51    2.31 
   7  -2  10    3.31    1.69 
   7   2  10    4.93    2.53 
  -8  -2 -10   -0.07    1.88 
   8  -2  10   -0.43    2.13 
   8   2  10    4.65    2.57 
   8  -3 -10    2.35    2.53 
   8  -3 -10    0.67    2.04 
  -8  -3  10    2.46    2.38 
   8   3 -10    2.29    2.05 
  -7  -3  10    3.30    2.26 
   7  -3 -10    0.27    2.32 
   7   3 -10   -0.95    1.79 
   6  -3 -10    3.03    2.40 
  -6  -3  10    0.52    2.11 
   6   3 -10    2.14    1.79 
  -5  -3  10    6.12    2.30 
   5  -3 -10    5.34    2.40 
   5   3 -10    2.93    1.66 
   4  -3 -10    2.82    2.25 
  -4  -3  10    2.02    2.10 
   4   3 -10    0.58    1.47 
   3  -3 -10    0.68    2.16 
  -3  -3  10    0.62    1.89 
   3   3 -10   -0.30    1.36 
   2  -3 -10    1.81    2.18 
  -2  -3  10    2.81    1.95 
  -1  -3  10   -2.41    1.70 
   1  -3 -10    1.35    2.09 
   0  -3 -10   -0.33    2.12 
   0  -3  10    2.53    1.88 
  -1  -3 -10    3.71    2.22 
   1  -3  10    4.70    1.97 
   2  -3  10    5.06    1.96 
  -2  -3 -10    7.60    2.41 
   2   3  10    4.49    2.20 
   3  -3  10   -1.24    1.65 
  -3  -3 -10   -0.26    2.01 
   3   3  10    0.29    2.13 
   4  -3  10    1.13    1.68 
  -4  -3 -10    0.51    1.99 
   4   3  10    0.15    2.29 
  -5  -3 -10    4.47    2.16 
   5  -3  10    4.26    1.88 
   5   3  10    6.87    2.64 
  -6  -3 -10   -0.03    2.09 
   6  -3  10    0.96    1.98 
   6  -3  10    3.01    1.95 
   6   3  10    2.95    2.57 
   7  -3  10    2.14    2.18 
   7  -3  10   -0.05    1.86 
  -7  -3 -10    1.88    2.21 
   7   3  10    0.24    2.71 
   5  -4 -10    0.62    2.79 
  -5  -4  10   -3.28    2.24 
   4  -4 -10   -4.19    2.49 
  -4  -4  10   -1.97    2.29 
   3  -4 -10   -0.86    2.63 
  -3  -4  10    0.65    2.35 
   2  -4 -10   -1.90    2.59 
  -2  -4  10    4.27    2.32 
  -1  -4  10    2.65    2.25 
   1  -4 -10   -0.44    2.62 
   0  -4 -10    4.96    2.70 
   0  -4  10    2.99    2.18 
   1  -4  10    3.10    2.08 
  -1  -4 -10    0.99    2.58 
  -2  -4 -10    0.50    2.37 
   2  -4  10   -0.86    1.91 
  -3  -4 -10   -2.02    2.25 
   3  -4  10    2.82    2.06 
   3   4  10    1.86    2.59 
   4  -4  10    1.32    2.06 
  -4  -4 -10   -0.51    2.38 
   4   4  10   -0.77    2.68 
  10   0 -11    0.31    2.10 
 -10   0  11    0.01    2.20 
   9   0 -11    1.55    2.03 
  -9   0  11    0.74    2.10 
  -8   0  11   -0.90    1.88 
   8   0 -11    0.88    1.92 
   7   0 -11    6.52    2.07 
  -7   0  11    3.95    1.96 
  -6   0  11    6.27    1.94 
   6   0 -11    7.41    2.03 
  -5   0  11    1.19    1.58 
   5   0 -11    0.99    1.64 
  -4   0  11    3.61    1.56 
   4   0 -11    3.73    1.71 
  -3   0  11   30.80    2.83 
   3   0 -11   30.98    3.05 
  -2   0  11    4.46    1.41 
  -2   0  11    2.74    1.33 
   2   0 -11    5.04    1.62 
   1   0 -11   -2.52    1.28 
  -1   0  11    1.07    1.28 
  -1   0  11    0.07    1.27 
   0   0  11   24.96    2.59 
   0   0 -11   26.65    2.67 
   0   0  11   24.26    2.45 
   1   0  11   16.55    1.93 
  -1   0 -11   12.26    1.95 
   1   0  11   12.84    2.06 
   2   0  11    0.61    1.28 
  -2   0 -11    2.56    1.39 
   2   0  11    5.58    1.78 
   3   0  11    5.90    1.47 
  -3   0 -11    4.36    1.58 
   3   0  11    7.64    1.88 
   4   0  11    7.75    2.08 
   5   0  11    6.99    2.07 
   6   0  11    2.75    2.03 
   7   0  11    4.78    2.27 
   8   0  11    0.00    2.39 
   9   0  11    0.93    2.62 
  -9  -1  11    2.50    1.99 
   9  -1 -11    1.84    2.13 
   9   1 -11    5.18    2.22 
  -8  -1  11    4.87    1.97 
   8  -1 -11    7.54    2.18 
   8   1 -11    4.28    2.12 
   7  -1 -11    1.37    1.87 
  -7  -1  11    0.56    1.61 
   7   1 -11   -1.07    1.71 
   6  -1 -11   -0.87    1.62 
  -6  -1  11    0.26    1.45 
   6   1 -11   -1.33    1.64 
   5  -1 -11   11.93    2.18 
  -5  -1  11   11.22    2.00 
   5   1 -11   13.25    2.23 
  -4  -1  11    4.84    1.62 
   4  -1 -11    3.61    1.84 
   4   1 -11    3.68    1.69 
  -3  -1  11    2.09    1.48 
   3  -1 -11    3.81    1.68 
   3   1 -11    1.25    1.51 
  -3   1  11    4.18    1.54 
  -2  -1  11    8.89    1.88 
   2  -1 -11   10.50    2.05 
   2   1 -11    9.51    1.79 
  -2   1  11   10.26    1.75 
   1  -1 -11   23.85    2.66 
  -1  -1  11   21.61    2.42 
  -1   1  11   21.68    2.18 
   1   1 -11   21.17    2.29 
  -1   1  11   16.54    2.29 
   0  -1  11    9.25    1.81 
   0  -1 -11    8.69    1.90 
   0  -1  11    8.91    1.51 
   0   1  11    8.87    1.51 
   0   1  11    3.74    1.65 
  -1  -1 -11    4.74    1.74 
   1  -1  11    6.74    1.65 
   1  -1  11    5.96    1.49 
   1   1  11    4.41    1.31 
  -1   1 -11    6.48    1.52 
   1   1  11    4.41    1.76 
   2  -1  11   15.56    2.05 
  -2  -1 -11   11.68    2.18 
   2  -1  11   11.18    1.94 
   2   1  11   16.21    2.35 
  -3  -1 -11    7.54    1.91 
   3  -1  11    3.62    1.57 
   3   1  11    5.68    1.92 
  -4  -1 -11   -1.78    1.52 
   4  -1  11   -1.66    1.34 
   4  -1  11    1.24    1.58 
   4   1  11    4.35    2.06 
  -5  -1 -11    3.39    1.69 
   5  -1  11    2.80    1.83 
   5   1  11    5.88    2.32 
   6  -1  11   -0.25    2.02 
   6   1  11    6.80    2.39 
   7  -1  11   -0.61    2.23 
   7   1  11   -0.07    2.18 
   8  -1  11   -2.91    2.31 
   8   1  11    3.97    2.57 
  -8  -2  11   -0.15    2.00 
   8  -2 -11    0.18    2.17 
   8   2 -11   -0.25    1.82 
   7  -2 -11    0.47    2.08 
  -7  -2  11    0.80    1.97 
   7   2 -11   -0.13    1.72 
   6  -2 -11    5.97    2.25 
  -6  -2  11    8.61    2.20 
   6   2 -11    3.58    1.90 
   5  -2 -11    4.30    2.14 
  -5  -2  11    3.11    1.91 
   5   2 -11    0.82    1.65 
  -4  -2  11    1.29    1.76 
   4  -2 -11    3.09    2.01 
   4   2 -11    0.02    1.52 
   3  -2 -11   17.94    2.71 
  -3  -2  11   15.82    2.42 
   3   2 -11   16.10    2.29 
  -2  -2  11    4.29    1.80 
   2  -2 -11    3.83    1.92 
   2   2 -11    3.15    1.55 
   1  -2 -11    0.39    1.80 
  -1  -2  11    1.14    1.64 
  -1   2  11    0.21    1.29 
   1   2 -11    0.45    1.42 
   0  -2  11    4.66    1.84 
   0  -2 -11    7.32    2.12 
  -1  -2 -11    4.94    2.07 
   1  -2  11    4.74    1.83 
   1   2  11    4.18    1.88 
  -2  -2 -11    4.14    2.02 
   2  -2  11    2.29    1.74 
   2   2  11    3.90    2.03 
   3  -2  11    1.57    1.56 
  -3  -2 -11    2.30    1.98 
   3  -2  11    2.08    1.80 
   3   2  11    2.39    2.07 
  -4  -2 -11    3.07    1.94 
   4  -2  11    0.64    1.65 
   4  -2  11    0.41    1.58 
   4   2  11    3.45    2.17 
   5  -2  11    2.18    1.65 
  -5  -2 -11    1.24    1.80 
   5  -2  11    1.19    1.93 
   5   2  11    4.16    2.35 
  -6  -2 -11   -1.00    1.75 
   6  -2  11   -1.96    1.65 
   6  -2  11    0.22    2.12 
   6   2  11    0.52    2.44 
   7  -2  11   -0.30    2.16 
  -7  -2 -11   -0.98    1.88 
   7   2  11    2.16    2.51 
   7  -3 -11    3.27    2.54 
  -7  -3  11    2.35    2.37 
   7   3 -11   -1.23    1.77 
  -6  -3  11    0.39    2.20 
   6  -3 -11   -0.11    2.39 
   6   3 -11    0.95    1.77 
   5  -3 -11    8.03    2.73 
  -5  -3  11    0.22    2.17 
   5   3 -11    3.06    1.80 
  -4  -3  11    5.03    2.22 
   4  -3 -11    3.89    2.56 
   4   3 -11    1.40    1.64 
   3  -3 -11    1.21    2.28 
  -3  -3  11   -0.49    1.95 
  -2  -3  11    5.30    2.16 
   2  -3 -11    7.66    2.55 
   1  -3 -11    0.67    2.23 
  -1  -3  11    1.10    2.05 
   0  -3  11    2.84    1.99 
   0  -3 -11    1.85    2.21 
  -1  -3 -11    1.39    2.27 
   1  -3  11    0.11    1.92 
   2  -3  11    3.16    2.04 
  -2  -3 -11    2.82    2.34 
   2   3  11    2.43    2.23 
  -3  -3 -11    1.64    2.28 
   3  -3  11   -0.51    1.74 
   3   3  11    1.04    2.38 
  -4  -3 -11    1.48    2.16 
   4  -3  11    1.82    1.74 
   4   3  11    0.77    2.43 
  -5  -3 -11    3.82    2.26 
   5  -3  11   -0.67    1.80 
   5   3  11    1.98    2.52 
   6  -3  11   -0.46    1.91 
  -6  -3 -11   -0.11    2.19 
   6   3  11   -1.05    2.62 
  -3  -4  11    3.85    2.62 
   3  -4 -11   -1.89    2.83 
  -2  -4  11   -0.47    2.26 
   2  -4 -11   -4.61    2.63 
   1  -4 -11   -2.72    2.70 
  -1  -4  11   -1.08    2.29 
   0  -4  11   -1.28    2.16 
   0  -4 -11   -3.60    2.55 
  -1  -4 -11    1.56    2.78 
   1  -4  11    0.78    2.17 
   2  -4  11   -1.67    2.01 
  -2  -4 -11   -2.45    2.47 
   2   4  11    2.42    2.59 
   9   0 -12    3.24    2.34 
  -9   0  12    1.39    2.16 
   8   0 -12   -1.27    2.05 
  -8   0  12   -1.40    1.96 
   7   0 -12    2.60    2.10 
  -7   0  12    2.55    2.00 
   6   0 -12    5.94    2.13 
  -6   0  12    6.99    1.99 
   5   0 -12    1.44    1.71 
  -5   0  12    0.96    1.56 
  -4   0  12   -0.57    1.34 
   4   0 -12    0.45    1.52 
   3   0 -12   15.39    2.27 
  -3   0  12   11.61    1.85 
  -2   0  12    4.82    1.56 
   2   0 -12    5.01    1.74 
   1   0 -12    4.41    1.62 
  -1   0  12    4.13    1.47 
  -1   0  12    3.37    1.46 
   0   0  12    6.49    1.65 
   0   0 -12    7.67    1.78 
   0   0  12    8.44    1.77 
  -1   0 -12   14.67    2.15 
   1   0  12   12.13    2.12 
   1   0  12   15.95    2.05 
   2   0  12    4.64    1.79 
   2   0  12    4.06    1.52 
  -2   0 -12    3.82    1.58 
   3   0  12    0.82    1.69 
   4   0  12    7.46    2.09 
   5   0  12    6.50    2.11 
   6   0  12   -0.05    2.12 
   7   0  12    3.30    2.39 
   8   0  12    1.30    2.45 
   8  -1 -12    0.64    2.03 
  -8  -1  12    1.17    1.84 
   8   1 -12    0.51    2.06 
   7  -1 -12    0.99    1.95 
  -7  -1  12    2.35    1.73 
   7   1 -12   -0.36    2.03 
  -6  -1  12   -0.80    1.57 
   6  -1 -12    0.41    1.84 
   6   1 -12   -1.22    1.74 
  -5  -1  12    4.59    1.77 
   5  -1 -12    7.04    2.05 
   5   1 -12    4.52    1.97 
  -5   1  12    5.47    1.99 
  -4  -1  12    7.60    1.83 
   4  -1 -12   10.31    2.19 
  -4   1  12    5.22    1.86 
   4   1 -12    6.17    2.02 
   3  -1 -12    3.87    1.85 
  -3  -1  12    3.43    1.59 
  -3   1  12    0.26    1.55 
   3   1 -12    2.57    1.67 
   2  -1 -12    2.66    1.78 
  -2  -1  12    1.85    1.65 
  -2   1  12    5.57    1.51 
  -2   1  12    1.87    1.50 
   2   1 -12    3.05    1.55 
   1  -1 -12   18.29    2.53 
  -1  -1  12   19.84    2.32 
   1   1 -12   20.15    2.31 
  -1   1  12   16.02    2.30 
  -1   1  12   17.24    2.04 
   0  -1 -12    5.88    1.85 
   0  -1  12    3.20    1.66 
   0   1  12    3.77    1.80 
   0   1  12    1.88    1.36 
   0   1 -12    2.79    1.47 
   1  -1  12    1.66    1.39 
  -1  -1 -12   -0.58    1.58 
   1  -1  12    0.44    1.50 
   1   1  12    1.44    1.71 
  -2  -1 -12    6.17    1.92 
   2  -1  12    7.46    1.74 
   2  -1  12    4.06    1.72 
   2   1  12    4.83    1.85 
   3  -1  12    1.18    1.62 
  -3  -1 -12    2.76    1.81 
   3  -1  12    5.15    1.78 
   3   1  12    6.73    2.09 
   4  -1  12    3.17    1.79 
  -4  -1 -12    2.69    1.82 
   4  -1  12    1.68    1.59 
   4   1  12   -0.06    2.04 
   5  -1  12    2.54    1.94 
   5   1  12    2.04    2.24 
   6  -1  12    2.63    2.13 
   6   1  12    0.55    2.20 
   7  -1  12    3.50    2.43 
   7   1  12    4.54    2.43 
   7  -2 -12   -0.59    2.14 
  -7  -2  12   -0.76    1.97 
   7   2 -12    0.31    2.02 
   6  -2 -12    3.49    2.33 
  -6  -2  12    7.06    2.19 
   6   2 -12    4.32    2.07 
  -5  -2  12    0.33    1.83 
   5  -2 -12   -0.41    2.06 
   5   2 -12   -0.99    1.81 
  -4  -2  12    0.24    1.77 
   4  -2 -12    1.61    2.04 
   4   2 -12    2.73    1.82 
  -3  -2  12    4.74    1.98 
   3  -2 -12    4.19    2.09 
   3   2 -12    3.88    1.76 
   2  -2 -12    9.83    2.33 
  -2  -2  12    5.18    2.01 
  -2   2  12    4.43    1.72 
   2   2 -12    1.61    1.73 
  -1  -2  12    2.75    1.82 
   1  -2 -12    3.16    2.07 
   0  -2 -12    5.30    2.15 
   0  -2  12    6.75    2.03 
   0   2  12    3.33    1.94 
   1  -2  12    2.40    1.88 
  -1  -2 -12    3.41    2.06 
   1   2  12    4.86    2.07 
  -2  -2 -12    3.30    2.12 
   2  -2  12    3.97    1.90 
   2   2  12    5.35    2.24 
   3  -2  12    2.09    1.88 
  -3  -2 -12    0.65    2.11 
   3   2  12    1.95    2.14 
  -4  -2 -12    3.30    2.14 
   4  -2  12   -0.25    1.70 
   4  -2  12    1.50    1.79 
   4   2  12    0.80    2.13 
   5  -2  12   -0.71    1.90 
  -5  -2 -12    0.82    2.01 
   5  -2  12   -1.79    1.73 
   5   2  12   -0.33    2.37 
  -6  -2 -12    0.55    2.00 
   6  -2  12    0.06    2.12 
   6   2  12    1.83    2.60 
   5  -3 -12    1.30    2.53 
  -5  -3  12    0.42    2.23 
   5   3 -12   -3.60    1.75 
  -4  -3  12    7.14    2.48 
   4  -3 -12    4.41    2.66 
  -3  -3  12    0.59    2.00 
   3  -3 -12    1.65    2.47 
   2  -3 -12    1.11    2.45 
  -2  -3  12    3.99    2.17 
   1  -3 -12    1.55    2.47 
  -1  -3  12   -0.74    2.07 
   0  -3  12   -0.07    2.01 
   0  -3 -12   -1.40    2.35 
   1  -3  12    1.33    2.12 
  -1  -3 -12   -1.88    2.32 
   1   3  12    2.60    2.34 
   2  -3  12   -0.17    1.93 
  -2  -3 -12    1.17    2.45 
   2   3  12    2.12    2.46 
   3  -3  12    0.56    1.87 
  -3  -3 -12   -3.04    2.25 
   3   3  12    5.26    2.66 
  -4  -3 -12   -1.25    2.30 
   4  -3  12    0.89    1.99 
   4   3  12    1.27    2.53 
  -8   0  13    3.93    2.27 
   8   0 -13    0.77    2.22 
  -7   0  13   -0.12    1.94 
   7   0 -13   -0.68    1.99 
  -6   0  13    2.80    1.94 
   6   0 -13    3.44    2.01 
  -5   0  13   -0.64    1.59 
   5   0 -13    2.36    1.86 
  -4   0  13    2.10    1.55 
   4   0 -13    0.65    1.79 
   3   0 -13    9.58    2.03 
  -3   0  13    4.40    1.67 
   2   0 -13    6.66    1.92 
  -2   0  13    6.56    1.68 
  -1   0  13    3.73    1.66 
   1   0 -13    6.94    1.86 
   0   0  13    2.19    1.59 
   0   0 -13    3.87    1.75 
   0   0  13    2.16    1.54 
   1   0  13   10.91    2.11 
  -1   0 -13   12.96    2.12 
   1   0  13   11.93    1.98 
   2   0  13    1.42    1.64 
   3   0  13    3.57    1.87 
   4   0  13    1.79    1.83 
   5   0  13    3.44    2.14 
   6   0  13    3.45    2.20 
   7  -1 -13    3.19    2.21 
  -7  -1  13    5.21    2.01 
   7   1 -13    1.77    2.18 
  -7   1  13   -1.08    2.25 
   6  -1 -13    0.03    1.94 
  -6  -1  13   -0.54    1.74 
   6   1 -13   -0.85    2.08 
  -6   1  13   -1.93    1.93 
   5  -1 -13    2.44    1.98 
  -5  -1  13    2.33    1.82 
   5   1 -13    4.96    2.19 
  -5   1  13    1.89    1.99 
   4  -1 -13    5.53    2.09 
  -4  -1  13    5.04    1.83 
   4   1 -13    6.66    2.06 
  -4   1  13    4.45    1.93 
  -3  -1  13    2.32    1.67 
   3  -1 -13    2.65    1.92 
   3   1 -13   -1.04    1.55 
  -3   1  13   -0.12    1.57 
  -3   1  13    1.31    1.55 
  -2  -1  13   -0.51    1.58 
   2  -1 -13    1.60    1.86 
  -2   1  13   -1.14    1.28 
   2   1 -13    0.70    1.53 
  -2   1  13   -0.52    1.56 
   1  -1 -13    7.07    2.02 
  -1  -1  13    6.59    1.82 
   1   1 -13    8.98    1.94 
  -1   1  13    7.06    1.93 
  -1   1  13    7.26    1.70 
   0  -1  13    3.26    1.75 
   0  -1 -13    2.98    1.85 
   0   1  13    0.74    1.66 
   1  -1  13    4.99    1.79 
  -1  -1 -13    1.73    1.85 
   1   1  13    3.72    1.81 
  -2  -1 -13    1.16    1.83 
   2  -1  13    3.13    1.83 
   2   1  13    3.03    1.78 
   3  -1  13    7.30    2.01 
   3  -1  13    8.70    1.98 
  -3  -1 -13    7.71    2.19 
   3   1  13    5.24    2.18 
   4  -1  13    3.02    1.88 
   4   1  13    0.22    2.09 
   5  -1  13    1.42    2.06 
   5   1  13    1.36    2.24 
   6  -1  13    2.35    2.35 
   6   1  13    3.53    2.36 
  -6  -2  13    5.43    2.18 
   6  -2 -13    4.11    2.33 
   6   2 -13    0.19    2.10 
   5  -2 -13    2.09    2.17 
  -5  -2  13    1.38    1.94 
   5   2 -13   -1.49    1.92 
  -4  -2  13    2.62    2.01 
   4  -2 -13   -1.14    2.03 
   4   2 -13    1.90    1.92 
  -4   2  13   -0.27    1.90 
   3  -2 -13    6.15    2.31 
  -3  -2  13    6.24    2.07 
   3   2 -13    3.70    2.01 
  -3   2  13    2.87    1.88 
   2  -2 -13    4.95    2.27 
  -2  -2  13    5.18    2.04 
   1  -2 -13   -0.84    2.02 
  -1  -2  13   -1.20    1.85 
  -1   2  13    4.12    1.96 
   0  -2  13    2.52    1.96 
   0  -2 -13    0.37    2.03 
   0   2  13    1.56    1.92 
   1  -2  13    3.37    2.03 
  -1  -2 -13    4.09    2.27 
   1   2  13    1.84    2.12 
   2  -2  13    1.83    1.99 
  -2  -2 -13    6.75    2.41 
   2   2  13    3.69    2.27 
   3  -2  13   -1.03    1.90 
  -3  -2 -13    1.48    2.30 
   3   2  13   -0.15    2.17 
   4  -2  13    1.67    1.85 
  -4  -2 -13    2.44    2.18 
   4   2  13    3.47    2.44 
  -5  -2 -13   -1.07    2.04 
   5   2  13    1.34    2.57 
  -3  -3  13    3.54    2.20 
   3  -3 -13    2.45    2.62 
  -2  -3  13   -1.98    2.10 
   2  -3 -13   -0.61    2.52 
  -1  -3  13    3.14    2.34 
   1  -3 -13    1.79    2.64 
   0  -3 -13    1.23    2.55 
   0  -3  13    1.69    2.25 
   0   3  13    2.16    2.35 
  -1  -3 -13   -0.06    2.58 
   1  -3  13    2.63    2.30 
   1   3  13   -0.66    2.27 
   2  -3  13   -0.22    2.17 
  -2  -3 -13    0.92    2.54 
   2   3  13   -1.69    2.48 
  -6   0  14    2.81    1.97 
   6   0 -14    4.51    2.27 
  -5   0  14    2.54    1.82 
   5   0 -14    1.56    2.08 
  -4   0  14    1.27    1.71 
   4   0 -14   -0.03    1.85 
  -3   0  14    0.25    1.65 
   3   0 -14    2.54    1.86 
   2   0 -14    3.90    1.91 
  -2   0  14    2.97    1.72 
  -1   0  14    5.61    1.78 
   1   0 -14    4.68    1.91 
   0   0  14    2.02    1.64 
   0   0 -14    0.69    1.68 
   1   0  14    8.75    2.00 
  -1   0 -14    6.36    2.06 
   2   0  14    4.87    1.91 
   3   0  14    0.72    1.80 
   4   0  14    2.04    1.90 
   5   0  14    4.76    2.18 
   6  -1 -14   -0.63    2.05 
  -6  -1  14   -0.61    1.86 
   6   1 -14    0.05    2.11 
  -6   1  14   -0.37    2.14 
  -5  -1  14   -0.27    1.73 
   5  -1 -14    0.03    2.05 
   5   1 -14    0.92    2.01 
  -5   1  14   -2.13    1.91 
  -4  -1  14    4.48    1.96 
   4  -1 -14    4.22    2.20 
   4   1 -14    4.43    1.97 
  -4   1  14    0.40    1.68 
   3  -1 -14    1.37    1.97 
  -3  -1  14    3.03    1.83 
   3   1 -14    3.07    1.88 
  -3   1  14    0.56    1.53 
  -2  -1  14    0.03    1.67 
   2  -1 -14    2.73    1.97 
  -2   1  14   -0.36    1.55 
   2   1 -14    2.49    1.79 
  -1  -1  14    4.70    1.84 
   1  -1 -14    0.66    1.87 
  -1   1  14    4.51    1.93 
   0  -1 -14    3.09    2.07 
   0  -1  14    3.63    1.87 
   0   1  14    3.07    1.85 
   1  -1  14    3.49    1.89 
  -1  -1 -14    0.25    1.96 
   1   1  14    2.95    1.84 
   2  -1  14    2.34    1.89 
  -2  -1 -14    2.12    2.07 
   2   1  14   -0.07    1.85 
  -3  -1 -14    0.84    2.07 
   3   1  14    2.01    2.05 
   4  -1  14    4.49    2.13 
   4   1  14    2.43    2.14 
   4  -2 -14   -2.40    2.10 
  -4  -2  14   -0.77    1.95 
   4   2 -14    1.27    2.05 
  -4   2  14   -1.23    1.91 
  -3  -2  14    0.27    1.97 
   3  -2 -14    2.10    2.26 
  -2  -2  14    5.38    2.21 
   2  -2 -14    5.34    2.48 
  -2   2  14    2.31    2.11 
   1  -2 -14   -1.56    2.12 
  -1  -2  14    0.87    1.93 
  -1   2  14    0.16    1.93 
   0  -2  14    0.64    1.99 
   0  -2 -14    2.77    2.32 
   0   2  14   -1.80    2.03 
  -1  -2 -14    0.56    2.23 
   1  -2  14   -0.72    2.00 
   1   2  14    1.24    2.19 
   2  -2  14    2.46    2.16 
  -2  -2 -14    0.29    2.24 
   2   2  14   -1.14    2.05 
  -3  -2 -14    3.06    2.34 
   3  -2  14   -2.24    1.92 
   3   2  14   -0.19    2.14 
  -4   0  15    1.33    1.83 
   4   0 -15    0.09    1.97 
   3   0 -15    0.41    1.91 
  -3   0  15   -0.51    1.72 
   2   0 -15    2.33    1.95 
  -2   0  15    0.12    1.72 
   1   0 -15    0.60    1.88 
  -1   0  15    0.94    1.66 
   0   0 -15    1.47    1.90 
   3   0  15    0.71    1.82 
   3  -1 -15    2.39    2.10 
  -3  -1  15    4.31    2.01 
   3   1 -15    3.29    2.01 
  -3   1  15   -0.95    1.67 
   2  -1 -15    2.05    2.06 
  -2  -1  15    0.60    1.84 
  -1  -1  15    6.56    2.10 
   1  -1 -15    1.79    2.05 
   0  -1 -15    3.08    2.10 
   0  -1  15    3.50    1.91 
   0   1  15    0.60    1.77 
   1  -1  15    3.23    1.99 
  -1  -1 -15   -0.65    1.98 
   1   1  15    0.69    1.90 
  -2  -1 -15    3.12    2.29 
   2   1  15   -1.57    1.94 
   0   0   0    0.00    0.00 
;
_shelx_hkl_checksum              83312
#END Tags that were not found in dictionaries
loop_
_space_group_symop_operation_xyz
'x, y, z'
'-x, y+1/2, -z'
loop_
_atom_site_label
_atom_site_type_symbol
_atom_site_fract_x
_atom_site_fract_y
_atom_site_fract_z
_atom_site_U_iso_or_equiv
_atom_site_adp_type
_atom_site_occupancy
_atom_site_site_symmetry_order
_atom_site_calc_flag
_atom_site_refinement_flags_posn
_atom_site_refinement_flags_adp
Br1 Br 0.64549(7) 1.2237(2) 0.44692(6) 0.0606(3) Uani 1 1 d . .
N1 N 0.8816(6) 0.8883(14) 0.4347(5) 0.0476(14) Uani 1 1 d . .
O1 O 0.9739(5) 0.714(3) 0.3689(4) 0.0618(13) Uani 1 1 d . .
C1 C 0.6370(8) 0.990(2) -0.0667(6) 0.059(2) Uani 1 1 d . .
H1 H 0.5660 1.1081 -0.0342 0.071 Uiso 1 1 calc R U
C2 C 0.6381(10) 0.943(2) -0.1886(7) 0.073(3) Uani 1 1 d . .
H2 H 0.5669 1.0287 -0.2390 0.087 Uiso 1 1 calc R U
C3 C 0.7419(10) 0.773(3) -0.2372(7) 0.081(4) Uani 1 1 d . .
H3 H 0.7419 0.7452 -0.3204 0.098 Uiso 1 1 calc R U
C4 C 0.8456(10) 0.643(2) -0.1641(8) 0.079(3) Uani 1 1 d . .
H4 H 0.9168 0.5269 -0.1974 0.095 Uiso 1 1 calc R U
C5 C 0.8452(7) 0.682(3) -0.0426(7) 0.060(2) Uani 1 1 d . .
H5 H 0.9148 0.5868 0.0071 0.072 Uiso 1 1 calc R U
C6 C 0.7432(7) 0.8600(16) 0.0077(6) 0.0436(15) Uani 1 1 d . .
C7 C 0.7463(7) 0.9110(18) 0.1355(7) 0.0501(17) Uani 1 1 d . .
C8 C 0.7590(7) 0.9467(17) 0.2410(6) 0.0503(17) Uani 1 1 d . .
C9 C 0.7798(7) 0.9907(17) 0.3651(6) 0.0444(16) Uani 1 1 d . .
H1A H 1.013(8) 0.625(19) 0.416(7) 0.07(3) Uiso 1 1 d . .
loop_
_atom_site_aniso_label
_atom_site_aniso_U_11
_atom_site_aniso_U_22
_atom_site_aniso_U_33
_atom_site_aniso_U_23
_atom_site_aniso_U_13
_atom_site_aniso_U_12
Br1 0.0630(4) 0.0624(4) 0.0568(4) 0.0000(7) 0.0073(3) 0.0038(7)
N1 0.048(3) 0.053(3) 0.042(3) 0.001(3) 0.001(3) -0.007(3)
O1 0.059(3) 0.081(3) 0.045(2) 0.015(6) 0.000(2) 0.009(6)
C1 0.057(5) 0.067(5) 0.053(4) -0.001(4) -0.005(4) -0.007(4)
C2 0.081(6) 0.083(6) 0.052(5) 0.009(5) -0.019(5) -0.007(5)
C3 0.116(7) 0.087(10) 0.041(4) -0.016(6) 0.010(4) -0.033(8)
C4 0.084(6) 0.071(9) 0.087(6) -0.026(5) 0.039(5) -0.019(5)
C5 0.050(4) 0.059(6) 0.070(4) -0.007(5) 0.003(3) -0.001(5)
C6 0.046(4) 0.046(3) 0.039(3) -0.001(3) -0.003(3) -0.011(3)
C7 0.049(4) 0.048(4) 0.053(4) 0.001(3) -0.004(3) -0.006(3)
C8 0.054(4) 0.049(4) 0.047(4) 0.006(3) -0.002(3) -0.002(3)
C9 0.048(4) 0.050(4) 0.035(3) 0.005(3) 0.002(3) -0.008(3)
loop_
_atom_type_symbol
_atom_type_description
_atom_type_scat_dispersion_real
_atom_type_scat_dispersion_imag
_atom_type_scat_source
C C 0.0033 0.0016 'International Tables Vol C Tables 4.2.6.8 and 6.1.1.4'
H H 0.0000 0.0000 'International Tables Vol C Tables 4.2.6.8 and 6.1.1.4'
N N 0.0061 0.0033 'International Tables Vol C Tables 4.2.6.8 and 6.1.1.4'
O O 0.0106 0.0060 'International Tables Vol C Tables 4.2.6.8 and 6.1.1.4'
Br Br -0.2901 2.4595 'International Tables Vol C Tables 4.2.6.8 and 6.1.1.4'
loop_
_geom_angle_atom_site_label_1
_geom_angle_atom_site_label_2
_geom_angle_atom_site_label_3
_geom_angle
C9 N1 O1 110.2(5)
N1 O1 H1A 102(7)
C2 C1 C6 119.1(8)
C2 C1 H1 120.5
C6 C1 H1 120.5
C3 C2 C1 121.0(8)
C3 C2 H2 119.5
C1 C2 H2 119.5
C2 C3 C4 120.0(7)
C2 C3 H3 120.0
C4 C3 H3 120.0
C5 C4 C3 120.0(9)
C5 C4 H4 120.0
C3 C4 H4 120.0
C4 C5 C6 120.7(8)
C4 C5 H5 119.6
C6 C5 H5 119.6
C5 C6 C1 119.2(6)
C5 C6 C7 120.5(6)
C1 C6 C7 120.3(7)
C8 C7 C6 175.1(8)
C7 C8 C9 177.7(8)
N1 C9 C8 127.8(6)
N1 C9 Br1 113.6(5)
C8 C9 Br1 118.7(5)
loop_
_geom_bond_atom_site_label_1
_geom_bond_atom_site_label_2
_geom_bond_distance
Br1 C9 1.887(7)
N1 C9 1.283(8)
N1 O1 1.385(10)
O1 H1A 0.73(8)
C1 C2 1.366(10)
C1 C6 1.386(9)
C1 H1 0.9300
C2 C3 1.359(14)
C2 H2 0.9300
C3 C4 1.361(13)
C3 H3 0.9300
C4 C5 1.357(11)
C4 H4 0.9300
C5 C6 1.374(11)
C5 H5 0.9300
C6 C7 1.432(10)
C7 C8 1.178(9)
C8 C9 1.392(9)
loop_
_geom_hbond_atom_site_label_D
_geom_hbond_atom_site_label_H
_geom_hbond_atom_site_label_A
_geom_hbond_distance_DH
_geom_hbond_distance_HA
_geom_hbond_distance_DA
_geom_hbond_angle_DHA
_geom_hbond_site_symmetry_A
O1 H1A N1 0.73(8) 2.14(8) 2.861(9) 175(9) 2_746
loop_
_geom_torsion_atom_site_label_1
_geom_torsion_atom_site_label_2
_geom_torsion_atom_site_label_3
_geom_torsion_atom_site_label_4
_geom_torsion
C6 C1 C2 C3 -0.4(14)
C1 C2 C3 C4 0.9(17)
C2 C3 C4 C5 0.3(17)
C3 C4 C5 C6 -2.0(15)
C4 C5 C6 C1 2.5(13)
C4 C5 C6 C7 -177.5(8)
C2 C1 C6 C5 -1.3(12)
C2 C1 C6 C7 178.7(7)
O1 N1 C9 C8 -0.8(11)
O1 N1 C9 Br1 178.7(7)
