#------------------------------------------------------------------------------
#$Date: 2016-02-18 17:37:37 +0200 (Thu, 18 Feb 2016) $
#$Revision: 176729 $
#$URL: svn://www.crystallography.net/cod/cif/1/51/89/1518947.cif $
#------------------------------------------------------------------------------
#
# This file is available in the Crystallography Open Database (COD),
# http://www.crystallography.net/
#
# All data on this site have been placed in the public domain by the
# contributors.
#
data_1518947
loop_
_publ_author_name
'Chen, Zhang-Pei'
'Chen, Mu-Wang'
'Shi, Lei'
'Yu, Chang-Bin'
'Zhou, Yong-Gui'
_publ_section_title
;
 Pd-catalyzed asymmetric hydrogenation of fluorinated aromatic
 pyrazol-5-ols via capture of active tautomers
;
_journal_issue                   6
_journal_name_full               'Chem. Sci.'
_journal_page_first              3415
_journal_paper_doi               10.1039/C5SC00835B
_journal_volume                  6
_journal_year                    2015
_chemical_absolute_configuration ad
_chemical_formula_sum            'C10 H9 F3 N2 O'
_chemical_formula_weight         230.19
_chemical_name_systematic
; 
 ? 
;
_space_group_crystal_system      monoclinic
_space_group_IT_number           4
_space_group_name_Hall           'P 2yb'
_space_group_name_H-M_alt        'P 1 21 1'
_symmetry_space_group_name_Hall  'P 2yb'
_symmetry_space_group_name_H-M   'P 1 21 1'
_atom_sites_solution_hydrogens   geom
_audit_creation_method           SHELXL-2014
_audit_update_record
;
2014-12-22 deposited with the CCDC.
2015-03-31 downloaded from the CCDC.
;
_cell_angle_alpha                90
_cell_angle_beta                 90.567(12)
_cell_angle_gamma                90
_cell_formula_units_Z            2
_cell_length_a                   9.0634(15)
_cell_length_b                   5.8062(11)
_cell_length_c                   9.8369(15)
_cell_measurement_reflns_used    1592
_cell_measurement_temperature    296(2)
_cell_measurement_theta_max      66.59
_cell_measurement_theta_min      4.50
_cell_volume                     517.63(15)
_computing_cell_refinement       'Bruker SAINT'
_computing_data_collection       'Bruker APEX2'
_computing_data_reduction        'Bruker SAINT'
_computing_molecular_graphics    'Bruker SHELXTL'
_computing_publication_material  'Bruker SHELXTL'
_computing_structure_refinement  'SHELXL-2014 (Sheldrick, 2014)'
_computing_structure_solution    'SHELXS-97 (Sheldrick, 2008)'
_diffrn_ambient_temperature      296(2)
_diffrn_measured_fraction_theta_full 0.981
_diffrn_measured_fraction_theta_max 0.973
_diffrn_measurement_device_type  'Bruker APEX-II CCD'
_diffrn_measurement_method       '\f and \w scans'
_diffrn_radiation_type           CuK\a
_diffrn_radiation_wavelength     1.54178
_diffrn_reflns_av_R_equivalents  0.0352
_diffrn_reflns_av_unetI/netI     0.0387
_diffrn_reflns_Laue_measured_fraction_full 0.981
_diffrn_reflns_Laue_measured_fraction_max 0.973
_diffrn_reflns_limit_h_max       10
_diffrn_reflns_limit_h_min       -10
_diffrn_reflns_limit_k_max       5
_diffrn_reflns_limit_k_min       -6
_diffrn_reflns_limit_l_max       11
_diffrn_reflns_limit_l_min       -11
_diffrn_reflns_number            3266
_diffrn_reflns_point_group_measured_fraction_full 0.803
_diffrn_reflns_point_group_measured_fraction_max 0.793
_diffrn_reflns_theta_full        67.679
_diffrn_reflns_theta_max         69.126
_diffrn_reflns_theta_min         4.495
_exptl_absorpt_coefficient_mu    1.178
_exptl_absorpt_correction_T_max  0.7532
_exptl_absorpt_correction_T_min  0.6335
_exptl_absorpt_correction_type   multi-scan
_exptl_absorpt_process_details   sadabs
_exptl_crystal_colour            colourless
_exptl_crystal_density_diffrn    1.477
_exptl_crystal_description       block
_exptl_crystal_F_000             236
_exptl_crystal_size_max          0.220
_exptl_crystal_size_mid          0.110
_exptl_crystal_size_min          0.050
_refine_diff_density_max         0.304
_refine_diff_density_min         -0.221
_refine_diff_density_rms         0.059
_refine_ls_abs_structure_details
; 
 Flack x determined using 346 quotients [(I+)-(I-)]/[(I+)+(I-)] 
 (Parsons, Flack and Wagner, Acta Cryst. B69 (2013) 249-259). 
;
_refine_ls_abs_structure_Flack   -0.15(14)
_refine_ls_extinction_method     none
_refine_ls_goodness_of_fit_ref   1.151
_refine_ls_hydrogen_treatment    constr
_refine_ls_matrix_type           full
_refine_ls_number_parameters     145
_refine_ls_number_reflns         1520
_refine_ls_number_restraints     1
_refine_ls_restrained_S_all      1.151
_refine_ls_R_factor_all          0.0684
_refine_ls_R_factor_gt           0.0436
_refine_ls_shift/su_max          0.000
_refine_ls_shift/su_mean         0.000
_refine_ls_structure_factor_coef Fsqd
_refine_ls_weighting_details
'w=1/[\s^2^(Fo^2^)+(0.0943P)^2^] where P=(Fo^2^+2Fc^2^)/3'
_refine_ls_weighting_scheme      calc
_refine_ls_wR_factor_gt          0.1306
_refine_ls_wR_factor_ref         0.1464
_reflns_Friedel_coverage         0.474
_reflns_Friedel_fraction_full    0.584
_reflns_Friedel_fraction_max     0.571
_reflns_number_gt                1250
_reflns_number_total             1520
_reflns_threshold_expression     'I > 2\s(I)'
_cod_data_source_file            c5sc00835b2.cif
_cod_data_source_block           cu_dm14397_0m
_cod_depositor_comments
'Adding full bibliography for 1518946--1518948.cif.'
_cod_database_code               1518947
#BEGIN Tags that were not found in dictionaries:
_shelx_space_group_comment
; 
The symmetry employed for this shelxl refinement is uniquely defined 
by the following loop, which should always be used as a source of 
symmetry information in preference to the above space-group names. 
They are only intended as comments. 
;
_shelx_estimated_absorpt_t_min   0.782
_shelx_estimated_absorpt_t_max   0.943
_shelxl_version_number           2014-3
_shelx_res_file
; 
TITL cu_dm14397_0m in P2(1) 
CELL 1.54178 9.0634 5.8062 9.8369 90.000 90.567 90.000 
ZERR 2.00 0.0015 0.0011 0.0015 0.000 0.012 0.000 
LATT -1 
SYMM -x, y+1/2, -z 
SFAC C  H  N  O  F 
UNIT 20  18  4  2  6 
L.S. 4 
ACTA 
BOND $H 
FMAP 2 
PLAN -2 
HTAB C10 O1 
HTAB N2 O1_$1 
EQIV $1 x, y+1, z 
SIZE 0.050 0.110 0.220 
htab 
conf 
wpdb -1 
TEMP 23.000 
WGHT    0.094300 
FVAR       0.45043 
F1    5    0.728736    0.692435    0.434437    11.00000    0.12427    0.12366 = 
         0.08798   -0.03207    0.00810   -0.02977 
F2    5    0.597529    0.413176    0.505634    11.00000    0.11429    0.12897 = 
         0.06196   -0.00266    0.02951    0.00043 
F3    5    0.794885    0.345634    0.396075    11.00000    0.09147    0.15394 = 
         0.07557    0.00823   -0.00165    0.04183 
N1    3    0.698078    0.365507    0.071264    11.00000    0.06358    0.04413 = 
         0.05868    0.00380   -0.00228   -0.00202 
N2    3    0.687054    0.558145    0.160811    11.00000    0.08970    0.04562 = 
         0.05785   -0.00069    0.00379   -0.01293 
AFIX  43 
H2    2    0.728208    0.690547    0.151274    11.00000   -1.20000 
AFIX   0 
O1    4    0.598130    0.004994    0.044386    11.00000    0.09065    0.04626 = 
         0.09561   -0.00304    0.00555   -0.01207 
C1    1    0.611126    0.187009    0.104960    11.00000    0.06731    0.04412 = 
         0.06649    0.00883   -0.00604   -0.00666 
C2    1    0.532221    0.250558    0.234617    11.00000    0.08838    0.06441 = 
         0.07078    0.01401    0.00708   -0.01697 
AFIX  23 
H2A   2    0.426356    0.256628    0.219596    11.00000   -1.20000 
H2B   2    0.553491    0.139690    0.305925    11.00000   -1.20000 
AFIX   0 
C3    1    0.591872    0.485386    0.271906    11.00000    0.06798    0.05777 = 
         0.06337    0.00053    0.00408    0.00336 
AFIX  13 
H3    2    0.509723    0.594057    0.280244    11.00000   -1.20000 
AFIX   0 
C4    1    0.680185    0.483849    0.402082    11.00000    0.08395    0.08175 = 
         0.06043   -0.00760    0.01445    0.00587 
C5    1    0.787734    0.392456   -0.046067    11.00000    0.05446    0.05217 = 
         0.05448    0.00499   -0.00849    0.00088 
C6    1    0.870197    0.593005   -0.060540    11.00000    0.06283    0.05676 = 
         0.06602    0.00150   -0.00334   -0.00661 
AFIX  43 
H6    2    0.868261    0.706016    0.006416    11.00000   -1.20000 
AFIX   0 
C7    1    0.954904    0.622860   -0.175092    11.00000    0.07222    0.07760 = 
         0.07336    0.00482    0.00324   -0.01079 
AFIX  43 
H7    2    1.009697    0.757115   -0.185091    11.00000   -1.20000 
AFIX   0 
C8    1    0.959326    0.456740   -0.274577    11.00000    0.08483    0.09379 = 
         0.06590    0.00787    0.01064   -0.00183 
AFIX  43 
H8    2    1.016138    0.478631   -0.351721    11.00000   -1.20000 
AFIX   0 
C9    1    0.879199    0.258697   -0.258891    11.00000    0.09724    0.08167 = 
         0.06363   -0.00777    0.00481   -0.00468 
AFIX  43 
H9    2    0.882050    0.145831   -0.325896    11.00000   -1.20000 
AFIX   0 
C10   1    0.794495    0.224459   -0.145273    11.00000    0.08235    0.05965 = 
         0.07064   -0.00288   -0.00051   -0.01190 
AFIX  43 
H10   2    0.741795    0.088170   -0.135290    11.00000   -1.20000 
AFIX   0 
HKLF 4 1 1 0 0 0 1 0 0 0 1 
  
REM  cu_dm14397_0m in P2(1) 
REM R1 =  0.0436 for    1250 Fo > 4sig(Fo)  and  0.0684 for all    1520 data 
REM    145 parameters refined using      1 restraints 
  
END 
  
WGHT      0.0937      0.0000 
  
REM Instructions for potential hydrogen bonds 
HTAB N2 O1_$1 
HTAB C10 O1 
  
REM Highest difference peak  0.304,  deepest hole -0.221,  1-sigma level  0.059 
Q1    1   0.6281  0.6559  0.1073  11.00000  0.05    0.30 
Q2    1   0.6557  0.8858  0.0814  11.00000  0.05    0.24 
;
_shelx_res_checksum              8178
_shelx_hkl_file
; 
  -1   0   0  139.81    4.21 
   1   0   0  136.04    4.85 
   1   0   0  131.23    7.05 
   1   0   0  127.73    4.20 
   2   0   0  124.75    3.98 
   2   0   0  124.30    6.66 
   2   0   0  127.64    4.58 
  -2   0   0  128.78    3.99 
   3   0   0   35.85    1.32 
  -3   0   0   34.80    1.13 
   3   0   0   34.23    1.12 
   3   0   0   34.80    1.87 
  -4   0   0    4.83    0.21 
  -4   0   0    5.06    0.21 
   4   0   0    5.34    0.27 
   4   0   0    4.97    0.19 
   5   0   0   34.11    1.30 
   5   0   0   32.94    1.07 
  -5   0   0   31.96    1.13 
  -6   0   0    6.88    0.31 
  -6   0   0    7.22    0.30 
   6   0   0    6.84    0.25 
   6   0   0    7.01    0.37 
  -7   0   0   -0.11    1.14 
   7   0   0    0.89    0.14 
  -7   0   0    0.79    0.11 
  -8   0   0   -0.01    1.20 
  -9   0   0   -0.14    1.10 
   9   0   0   -0.10    0.17 
 -10   0   0    0.17    1.07 
   0  -1   0    0.02    0.02 
   0  -1   0    0.00    0.01 
   0  -1   0   -0.01    0.01 
  -1  -1   0  774.21   40.30 
   1  -1   0  716.14   39.86 
   1  -1   0  689.49   27.74 
  -1  -1   0  734.93   24.41 
   1   1   0  757.28   27.92 
  -2  -1   0    2.05    0.17 
   2  -1   0    2.15    0.11 
  -2  -1   0    2.08    0.08 
   2   1   0    1.91    0.09 
   2   1   0    1.85    0.17 
   3  -1   0    9.86    0.44 
  -3  -1   0   10.84    0.37 
  -3  -1   0   10.25    0.40 
   3   1   0   10.94    0.64 
   3   1   0   12.56    0.46 
   3   1   0   10.41    0.38 
  -4  -1   0  123.07    4.05 
   4  -1   0  124.87    4.56 
   4   1   0  125.43    3.95 
   4   1   0  124.86    6.64 
   4   1   0  125.84    4.58 
  -5  -1   0    1.42    0.09 
  -5  -1   0    1.62    0.12 
   5  -1   0    1.56    0.14 
   5   1   0    1.53    0.10 
   5   1   0    1.50    0.17 
  -6  -1   0    9.42    0.42 
  -6  -1   0    8.67    0.35 
   6   1   0    9.40    0.49 
  -6   1   0   10.66    0.40 
   6   1   0    9.52    0.36 
   7  -1   0    0.80    1.86 
  -7  -1   0    0.73    1.47 
  -7   1   0    0.19    1.33 
  -8  -1   0   -0.01    1.20 
  -8   1   0    0.16    1.24 
  -9  -1   0    0.12    1.14 
  -9  -1   0    1.55    0.10 
   9   1   0    1.33    0.24 
  -9   1   0    0.03    1.14 
   9   1   0    1.90    0.15 
 -10  -1   0   -0.20    0.83 
 -10   1   0    0.03    0.96 
   0  -2   0    8.43    0.36 
   0  -2   0    8.32    0.31 
   0  -2   0    8.82    0.53 
   0  -2   0    8.57    0.32 
   1  -2   0   29.63    0.99 
   1  -2   0   29.98    1.63 
  -1  -2   0   30.69    1.02 
   1  -2   0   28.41    1.12 
  -1  -2   0   30.83    1.66 
  -1  -2   0   28.38    1.00 
   1   2   0   30.36    1.13 
  -2  -2   0   37.41    1.29 
   2  -2   0   37.41    1.42 
  -2  -2   0   37.57    2.11 
  -2  -2   0   37.11    1.27 
   2  -2   0   38.31    1.25 
   2   2   0   38.79    2.11 
   2   2   0   39.28    1.43 
   3  -2   0   74.17    2.73 
  -3  -2   0   72.21    2.47 
  -3  -2   0   72.62    2.43 
   3   2   0   75.54    4.02 
   3   2   0   75.40    2.74 
  -4  -2   0   26.23    0.98 
  -4  -2   0   26.89    0.96 
   4   2   0   27.65    1.08 
   4   2   0   27.72    1.57 
  -5  -2   0   17.53    0.65 
  -5  -2   0   16.05    0.66 
   5   2   0   16.83    0.75 
  -6  -2   0    0.10    0.06 
  -6  -2   0    0.10    0.03 
   6   2   0    0.11    0.10 
   6   2   0    0.10    0.04 
  -7  -2   0    0.44    1.22 
   7  -2   0   -0.17    1.60 
  -8  -2   0   -0.19    1.12 
  -8   2   0    0.06    1.38 
  -9  -2   0    0.00    1.08 
  -9   2   0    0.14    1.15 
   9   2   0    0.28    0.08 
 -10  -2   0    0.03    0.76 
 -10   2   0   -0.08    0.87 
   0  -3   0    0.05    0.03 
   0  -3   0    0.01    0.03 
   0  -3   0    0.00    0.05 
   0   3   0    0.02    0.05 
   0   3   0    0.01    0.03 
   1  -3   0   22.17    0.75 
  -1  -3   0   21.80    0.77 
   1  -3   0   22.12    1.26 
   1  -3   0   21.12    0.86 
  -1  -3   0   22.00    1.29 
  -1  -3   0   21.64    0.79 
   1   3   0   21.12    0.86 
   1   3   0   21.62    1.29 
  -1   3   0   20.95    1.25 
  -2  -3   0   24.74    0.89 
  -2  -3   0   23.71    0.91 
   2  -3   0   25.84    0.86 
   2   3   0   26.20    1.01 
   2   3   0   25.34    1.49 
  -3  -3   0   12.72    0.50 
  -3  -3   0   12.02    0.51 
   3   3   0   12.75    0.56 
   3   3   0   12.30    0.83 
  -4  -3   0    0.97    0.11 
   4   3   0    0.94    0.20 
   4   3   0    1.02    0.15 
  -5  -3   0    3.39    0.22 
   5   3   0    2.87    0.25 
  -6  -3   0    1.75    0.12 
  -6  -3   0    0.28    1.31 
  -6  -3   0    1.55    0.12 
  -6  -3   0    1.85    0.15 
   6  -3   0   -0.10    1.51 
  -7  -3   0    0.04    0.05 
   7  -3   0   -0.30    1.43 
  -7  -3   0   -0.04    0.06 
  -7  -3   0    0.09    1.29 
   7   3   0    0.03    0.10 
  -8  -3   0   -0.15    0.98 
  -8   3   0    0.23    1.34 
   8   3   0    0.30    0.10 
  -9  -3   0   -0.18    0.87 
   0  -4   0    9.25    0.39 
   0   4   0    8.76    0.65 
  -1  -4   0   13.97    0.55 
   1   4   0   13.65    0.93 
  -2  -4   0    7.43    0.36 
   2   4   0    7.78    0.40 
  -3  -4   0    0.41    0.09 
   3   4   0    0.44    0.11 
  -4  -4   0    0.42    1.51 
  -4  -4   0    2.08    0.15 
  -4  -4   0    1.99    0.13 
  -4  -4   0    1.96    0.18 
  -5  -4   0    6.32    0.25 
  -5  -4   0    5.98    0.22 
  -5  -4   0    6.29    0.25 
  -5  -4   0    5.53    0.27 
  -6  -4   0    1.71    0.15 
  -6  -4   0    1.65    0.12 
  -6  -4   0    0.13    1.27 
  -6  -4   0    1.71    0.13 
  -6  -4   0    1.73    0.14 
  -7  -4   0    0.36    0.06 
  -7  -4   0    0.43    0.07 
  -7  -4   0   -0.03    1.12 
   7   4   0    0.32    0.11 
  -8  -4   0    0.13    0.04 
  -8  -4   0   -0.08    0.94 
   8   4   0    0.14    0.07 
   9   4   0    0.27    0.05 
  -1  -5   0    7.39    0.27 
  -1  -5   0    6.31    0.29 
  -1  -5   0    6.99    0.23 
  -2  -5   0    1.56    0.12 
  -2  -5   0    1.30    0.11 
  -2  -5   0    1.80    0.14 
  -3  -5   0    6.20    0.21 
  -3  -5   0    5.99    0.25 
  -3  -5   0    5.88    0.27 
  -4  -5   0    3.71    0.19 
  -4  -5   0    3.46    0.16 
  -4  -5   0    3.85    0.21 
  -4  -5   0    3.61    0.18 
  -5  -5   0    1.70    0.13 
  -5  -5   0    1.62    0.14 
  -5  -5   0    1.53    0.12 
  -5  -5   0    1.48    0.11 
  -6  -5   0    1.14    0.09 
  -6  -5   0    1.40    0.12 
  -6  -5   0    1.28    0.10 
  -6  -5   0    1.06    0.10 
   6   5   0    0.90    0.12 
  -7  -5   0    0.05    0.03 
  -7  -5   0    0.08    0.03 
   7   5   0    0.08    0.06 
  -1  -6   0    3.12    0.17 
  -2  -6   0    3.67    0.17 
  -2  -6   0    3.90    0.18 
  -2  -6   0    3.72    0.14 
  -3  -6   0    2.04    0.11 
  -3  -6   0    1.91    0.13 
  -3  -6   0    1.95    0.12 
  -4  -6   0    0.47    0.07 
  -4  -6   0    0.53    0.06 
  -5  -6   0    0.73    0.06 
  -5  -6   0    0.86    0.07 
  -5  -6   0    0.80    0.07 
 -10   0   1    0.32    1.12 
   9   0  -1    1.84    0.22 
  -9   0   1    1.94    0.12 
  -9   0   1    0.31    1.31 
   9   0  -1    1.86    0.15 
  -8   0   1   -0.13    1.19 
   8   0  -1   -0.10    0.20 
   8   0  -1   -0.09    0.06 
  -7   0   1   -0.26    1.02 
   7   0  -1    0.15    0.08 
  -6   0   1   10.18    0.40 
  -6   0   1   10.09    0.42 
   6   0  -1    9.95    0.35 
   6   0  -1   10.12    0.49 
   5   0  -1    0.11    0.03 
  -5   0   1    0.11    0.04 
   5   0  -1    0.14    0.06 
  -5   0   1    0.14    0.04 
   4   0  -1    3.13    0.19 
  -4   0   1    2.83    0.14 
  -4   0   1    3.00    0.15 
   4   0  -1    3.00    0.13 
  -3   0   1   13.95    0.47 
  -3   0   1   13.21    0.48 
   3   0  -1   13.92    0.78 
   3   0  -1   13.16    0.56 
   3   0  -1   14.60    0.46 
  -2   0   1  725.76   23.58 
   2   0  -1  793.54   23.77 
  -2   0   1  722.02   23.26 
   2   0  -1  678.64   26.29 
   1   0  -1   61.08    3.54 
   1   0  -1   61.66    2.42 
  -1   0   1   71.06    2.16 
   1   0  -1   73.64    2.11 
  -1   0   1   66.93    2.10 
   0   0  -1   81.12    2.41 
   0   0  -1   76.73    4.05 
   0   0   1   72.08    2.41 
   1   0   1  154.79    5.03 
  -1   0  -1  154.37    8.44 
  -1   0  -1  166.92    5.04 
  -2   0  -1  684.82   19.83 
   2   0   1  599.25   19.14 
  -2   0  -1  496.27   31.63 
   3   0   1   14.56    0.55 
   3   0   1   13.89    0.45 
   3   0   1   12.21    0.74 
   4   0   1   54.26    1.73 
   4   0   1   54.59    2.04 
  -5   0  -1    0.75    0.08 
  -5   0  -1    0.72    0.08 
   5   0   1    0.77    0.12 
   5   0   1    0.69    0.06 
   6   0   1    3.40    0.23 
   6   0   1    3.41    0.14 
  -6   0  -1    3.77    0.21 
  -7   0  -1    0.10    1.21 
  -8   0  -1    0.03    1.24 
   8   0   1   -0.12    0.20 
  -9   0  -1   -0.08    1.08 
   9   0   1    1.42    0.22 
 -10   0  -1    0.16    1.00 
 -10   0  -1    0.01    0.03 
 -10  -1   1    0.05    1.00 
  10   1  -1    1.54    0.12 
  10   1  -1    2.42    0.24 
 -10   1   1    1.51    0.09 
 -10   1   1    0.06    0.97 
  -9  -1   1    2.12    0.11 
  -9  -1   1    0.20    1.25 
  -9   1   1    0.08    1.21 
   9   1  -1    1.80    0.25 
   9   1  -1    2.18    0.16 
  -8  -1   1   -0.02    1.06 
  -8   1   1    0.05    1.39 
  -7  -1   1    0.35    1.24 
  -7   1   1   -0.27    1.20 
  -6  -1   1    4.48    0.24 
  -6  -1   1    4.36    0.20 
   6  -1  -1    4.86    0.29 
   6   1  -1    4.78    0.21 
   6   1  -1    4.43    0.30 
   5  -1  -1   22.21    0.87 
  -5  -1   1   20.57    0.76 
  -5  -1   1   21.19    0.71 
   5   1  -1   20.02    0.88 
   5   1  -1   20.30    0.71 
  -4  -1   1   43.08    1.42 
   4  -1  -1   44.00    1.67 
  -4  -1   1   42.94    1.48 
  -4  -1   1   42.98    1.49 
   4   1  -1   47.97    2.43 
   4   1  -1   43.45    1.43 
   4   1  -1   44.14    1.69 
   3  -1  -1   89.85    3.36 
  -3  -1   1   92.80    2.90 
  -3  -1   1   91.93    3.01 
  -3  -1   1   91.53    2.98 
   3   1  -1  100.41    4.92 
   3   1  -1   86.89    2.91 
   3   1  -1   89.49    3.37 
  -2  -1   1   10.75    0.37 
   2  -1  -1   10.15    0.42 
  -2  -1   1   10.21    0.37 
   2  -1  -1    8.54    0.57 
  -2  -1   1   10.37    0.34 
   2   1  -1   10.56    0.42 
   2   1  -1    9.80    0.35 
   2   1  -1   11.68    0.62 
   1  -1  -1  274.11    8.92 
   1  -1  -1  263.51    9.60 
  -1  -1   1  278.08    8.61 
  -1  -1   1  243.99    8.46 
   1   1  -1  265.14    9.57 
   0  -1  -1   25.14    0.94 
   0  -1  -1   25.24    1.36 
   0   1  -1   26.30    1.36 
   0   1  -1   23.20    0.91 
  -1  -1  -1  196.94    7.13 
   1  -1   1  198.92    6.31 
  -1  -1  -1  187.90    6.29 
  -1  -1  -1  192.65   10.43 
  -1   1  -1  207.48   10.39 
   2  -1   1  626.32   24.59 
  -2  -1  -1  669.52   21.82 
  -2  -1  -1  702.93   36.04 
  -2  -1  -1  683.23   22.20 
   2   1   1  722.76   24.66 
   2   1   1  692.87   21.41 
  -3  -1  -1  112.11    6.05 
  -3  -1  -1  114.06    3.67 
  -3  -1  -1  115.08    3.58 
   3  -1   1  110.26    4.12 
   3   1   1  116.13    4.14 
   3   1   1  113.89    3.59 
  -4  -1  -1   37.52    1.26 
  -4  -1  -1   36.03    1.20 
   4  -1   1   36.08    1.40 
   4   1   1   38.28    1.42 
   4   1   1   36.48    2.04 
   4   1   1   38.37    1.21 
  -5  -1  -1    1.48    0.12 
  -5  -1  -1    1.41    0.09 
   5   1   1    1.54    0.10 
   5   1   1    1.53    0.16 
  -6  -1  -1   13.50    0.50 
  -6  -1  -1   14.48    0.57 
   6   1   1   13.96    0.66 
   6   1   1   13.95    0.50 
   7  -1   1    1.20    1.90 
  -7  -1  -1   -0.10    1.10 
  -7  -1  -1    0.83    0.12 
  -7   1  -1    1.00    0.13 
  -8  -1  -1   -0.62    0.94 
  -8   1  -1   -0.17    1.19 
   8   1   1    0.08    0.08 
  -9  -1  -1    0.37    1.30 
  -9  -1  -1   -0.09    0.03 
   9   1   1   -0.40    0.20 
  -9   1  -1   -0.08    1.08 
 -10  -1  -1   -0.11    0.93 
 -10   1  -1   -0.32    0.77 
  10   1   1    0.10    0.14 
 -10  -2   1   -0.42    0.67 
  10   2  -1    0.28    0.14 
  10   2  -1    0.18    0.06 
  -9  -2   1    0.18    1.14 
  -8  -2   1   -0.02    1.02 
  -8   2   1    0.12    1.33 
   8   2  -1    0.35    0.09 
  -7  -2   1   -0.12    1.01 
  -7  -2   1    2.13    0.10 
   7   2  -1    2.42    0.18 
  -6  -2   1    0.69    0.06 
  -6  -2   1    0.81    0.11 
   6   2  -1    0.67    0.09 
   6   2  -1    0.74    0.15 
  -5  -2   1   18.20    0.69 
   5  -2  -1   17.60    0.77 
  -5  -2   1   17.81    0.68 
   5   2  -1   17.35    0.79 
   5   2  -1   17.50    1.10 
   4  -2  -1   42.65    1.71 
  -4  -2   1   45.70    1.52 
  -4  -2   1   44.73    1.54 
   4   2  -1   44.02    1.72 
   4   2  -1   45.91    2.50 
  -3  -2   1    5.20    0.24 
  -3  -2   1    5.40    0.25 
   3  -2  -1    5.02    0.27 
   3   2  -1    5.09    0.39 
   3   2  -1    5.35    0.27 
  -2  -2   1  109.48    3.57 
  -2  -2   1  112.94    3.62 
   2  -2  -1  108.44    5.86 
   2  -2  -1  106.20    4.04 
   2   2  -1  113.10    5.91 
   2   2  -1  111.46    4.03 
  -1  -2   1   23.36    0.85 
  -1  -2   1   24.09    0.84 
   1  -2  -1   24.39    0.95 
   1  -2  -1   25.17    0.83 
   1  -2  -1   25.25    1.38 
   1  -2  -1   24.44    0.81 
   1   2  -1   24.45    0.93 
   1   2  -1   25.13    1.39 
   0  -2   1   55.97    1.86 
   0  -2  -1   59.42    3.09 
   0  -2  -1   54.33    1.85 
   0  -2  -1   57.91    2.12 
   0  -2   1   57.20    1.89 
   0  -2  -1   58.92    1.88 
   0   2  -1   54.59    2.09 
   0   2  -1   57.67    3.08 
  -1  -2  -1   24.37    0.82 
  -1  -2  -1   24.31    0.92 
   1  -2   1   22.50    0.88 
  -1  -2  -1   23.44    0.80 
  -1  -2  -1   23.81    1.34 
   1  -2   1   22.88    0.79 
   1   2   1   23.76    0.91 
  -1   2  -1   23.10    1.30 
  -2  -2  -1   22.02    1.25 
   2  -2   1   21.17    0.73 
  -2  -2  -1   21.90    0.77 
  -2  -2  -1   21.43    0.74 
   2   2   1   20.82    0.84 
  -3  -2  -1    3.18    0.28 
  -3  -2  -1    3.22    0.17 
   3   2   1    2.99    0.19 
  -4  -2  -1   29.19    1.01 
   4   2   1   28.00    1.65 
   4   2   1   28.54    1.13 
  -5  -2  -1   20.66    0.76 
  -5  -2  -1   19.10    0.77 
   5   2   1   20.84    0.87 
  -6  -2  -1    2.97    0.21 
  -6  -2  -1    3.23    0.11 
   6   2   1    2.83    0.26 
   6   2   1    2.75    0.16 
  -7  -2  -1    0.40    0.07 
  -7  -2  -1    0.42    0.08 
  -7  -2  -1    0.02    1.22 
   7  -2   1    0.13    1.58 
   7   2   1    0.49    0.12 
  -8  -2  -1   -0.08    1.08 
   8  -2   1   -0.43    1.42 
  -8   2  -1    0.34    1.44 
   8   2   1    0.19    0.09 
  -9  -2  -1    0.42    1.28 
  -9   2  -1   -0.22    1.00 
 -10  -2  -1   -0.02    0.81 
  10   2   1    0.29    0.06 
  10   2   1    0.43    0.15 
 -10   2  -1    0.03    0.87 
  -9  -3   1    0.17    0.97 
   9   3  -1    0.08    0.06 
  -8  -3   1   -0.14    1.00 
   8   3  -1    0.53    0.10 
  -7  -3   1    0.26    0.06 
  -7  -3   1   -0.20    1.12 
   7   3  -1    0.33    0.11 
  -6  -3   1    0.02    0.05 
  -6  -3   1   -0.10    1.13 
  -6  -3   1    0.11    0.05 
  -6  -3   1    0.06    0.06 
  -5  -3   1    0.18    1.17 
  -5  -3   1    1.87    0.16 
   5   3  -1    1.69    0.20 
  -4  -3   1   16.99    0.67 
   4   3  -1   17.00    1.10 
   4   3  -1   17.25    0.76 
   3  -3  -1   25.85    1.05 
  -3  -3   1   26.40    0.94 
  -3  -3   1   25.85    0.96 
   3   3  -1   26.79    1.05 
   3   3  -1   25.55    1.55 
  -2  -3   1   20.55    0.78 
  -2  -3   1   20.71    0.76 
   2  -3  -1   20.81    0.86 
   2   3  -1   21.41    1.27 
   2   3  -1   21.11    0.84 
   1  -3  -1   10.06    0.46 
  -1  -3   1   10.35    0.41 
   1  -3  -1   10.56    0.68 
  -1  -3   1    9.91    0.41 
   1   3  -1   10.52    0.45 
   1   3  -1   10.60    0.69 
   0  -3  -1    0.22    0.06 
   0  -3   1    0.26    0.06 
   0  -3  -1    0.27    0.06 
   0  -3  -1    0.31    0.06 
   0  -3  -1    0.31    0.11 
   0   3  -1    0.32    0.10 
  -1  -3  -1   62.80    2.07 
  -1  -3  -1   62.03    3.46 
  -1  -3  -1   61.12    2.11 
   1  -3   1   63.52    2.07 
  -1   3  -1   62.98    3.40 
   1   3   1   63.42    2.35 
  -2  -3  -1   11.14    0.47 
   2  -3   1   12.34    0.45 
  -2  -3  -1   11.40    0.79 
  -2  -3  -1   12.05    0.47 
   2   3   1   11.99    0.53 
  -3  -3  -1   25.51    0.87 
  -3  -3  -1   22.18    0.88 
  -3  -3  -1   23.53    1.44 
   3   3   1   23.87    1.44 
   3   3   1   23.91    0.98 
  -4  -3  -1    4.50    0.26 
   4   3   1    4.73    0.29 
   4   3   1    4.70    0.42 
  -5  -3  -1    1.20    0.13 
   5   3   1    1.07    0.16 
  -6  -3  -1    0.26    1.34 
   6  -3   1    0.40    1.64 
  -7  -3  -1    0.09    1.29 
   7  -3   1   -0.40    1.41 
  -8  -3  -1    0.05    1.13 
  -8  -3  -1    0.67    0.07 
   8  -3   1    0.42    1.54 
   8   3   1    0.82    0.12 
  -9  -3  -1    0.06    0.95 
   9   3   1    0.28    0.07 
  -9   3  -1   -0.04    0.99 
   9   4  -1    0.32    0.05 
  -8  -4   1   -0.01    0.88 
  -8  -4   1    0.08    0.03 
   8   4  -1    0.05    0.06 
  -7  -4   1    0.09    1.15 
  -7  -4   1    0.17    0.05 
  -7  -4   1    0.05    0.05 
   7   4  -1    0.16    0.09 
  -6  -4   1   -0.02    1.20 
  -6  -4   1    1.22    0.11 
  -6  -4   1    1.43    0.11 
  -6  -4   1    1.08    0.10 
   6   4  -1    1.14    0.15 
  -5  -4   1    7.99    0.29 
  -5  -4   1    7.68    0.28 
  -5  -4   1    7.63    0.25 
  -5  -4   1    7.04    0.30 
  -4  -4   1    1.33    0.12 
  -4  -4   1   -0.34    1.15 
  -4  -4   1    1.48    0.11 
  -3  -4   1   18.29    0.72 
  -2  -4   1   21.15    0.80 
  -1  -4   1    7.17    0.34 
   1   4  -1    7.16    0.57 
   0  -4   1    5.48    0.28 
   0  -4  -1    5.91    0.49 
   0   4  -1    5.81    0.47 
   0   4   1    5.92    0.48 
   0   4   1    5.77    0.32 
   1  -4   1    3.24    0.19 
   1   4   1    2.96    0.33 
   1   4   1    3.09    0.22 
  -2  -4  -1    0.37    0.08 
   2  -4   1    0.33    0.07 
   2   4   1    0.42    0.11 
  -3  -4  -1    0.34    0.09 
   3   4   1    0.38    0.10 
  -4  -4  -1    2.35    0.16 
  -4  -4  -1    2.16    0.14 
  -4  -4  -1    2.32    0.17 
  -4  -4  -1    2.18    0.19 
  -4  -4  -1    2.12    0.15 
   4  -4   1   -0.18    1.19 
  -5  -4  -1   14.05    0.43 
  -5  -4  -1   13.55    0.39 
  -5  -4  -1   14.21    0.44 
  -5  -4  -1   13.11    0.46 
  -6  -4  -1    1.16    0.10 
   6  -4   1   -0.02    1.71 
  -6  -4  -1    1.17    0.11 
  -6  -4  -1    0.96    0.11 
  -6  -4  -1    1.12    0.11 
  -7  -4  -1    6.13    0.21 
  -7  -4  -1    6.58    0.25 
  -8  -4  -1    0.76    0.06 
   8   4   1    0.60    0.10 
  -7  -5   1    0.13    0.92 
  -7  -5   1   -0.03    0.03 
  -7  -5   1    0.03    0.03 
   7   5  -1    0.02    0.05 
  -6  -5   1    0.27    0.05 
  -6  -5   1    0.23    0.06 
  -6  -5   1   -0.07    0.98 
  -6  -5   1    0.28    0.05 
   6   5  -1    0.11    0.08 
  -5  -5   1    0.75    0.09 
  -5  -5   1    0.71    0.08 
  -5  -5   1    0.26    1.29 
  -5  -5   1    0.68    0.07 
  -4  -5   1    2.13    0.13 
  -4  -5   1    2.18    0.18 
  -4  -5   1    0.13    1.38 
  -4  -5   1    2.42    0.16 
  -3  -5   1    1.09    0.11 
  -3  -5   1    1.43    0.11 
  -3  -5   1    0.21    1.46 
  -3  -5   1    1.21    0.12 
  -2  -5   1    6.76    0.28 
  -2  -5   1    6.58    0.26 
  -2  -5   1    6.66    0.22 
  -1  -5   1   17.08    0.53 
  -1  -5   1   17.01    0.44 
   0  -5   1    4.22    0.17 
  -1  -5  -1   17.94    0.53 
  -1  -5  -1   17.77    0.55 
  -2  -5  -1    1.67    0.13 
  -2  -5  -1    1.58    0.12 
  -2  -5  -1    1.59    0.14 
  -3  -5  -1    2.53    0.16 
  -3  -5  -1    2.54    0.14 
  -3  -5  -1    2.44    0.16 
  -3  -5  -1    2.46    0.19 
  -4  -5  -1    1.86    0.17 
  -4  -5  -1    1.94    0.14 
  -4  -5  -1    1.80    0.12 
  -4  -5  -1    1.92    0.15 
  -5  -5  -1    0.05    0.04 
  -5  -5  -1    0.01    0.05 
  -5  -5  -1    0.05    0.06 
  -5  -5  -1    0.03    0.07 
  -6  -5  -1    0.63    0.07 
  -6  -5  -1    0.77    0.09 
  -6  -5  -1    0.82    0.07 
  -6  -5  -1    0.80    0.09 
  -7  -5  -1    0.19    0.04 
  -7  -5  -1    0.13    0.04 
   7   5   1    0.15    0.07 
  -5  -6   1    0.32    0.04 
  -5  -6   1    0.46    0.06 
  -5  -6   1    0.41    0.04 
  -4  -6   1    0.58    0.05 
  -4  -6   1    0.61    0.06 
  -4  -6   1    0.71    0.07 
  -3  -6   1    0.14    0.05 
  -3  -6   1    0.07    0.04 
  -3  -6   1    0.14    0.06 
  -2  -6   1    1.29    0.09 
  -2  -6   1    1.08    0.10 
  -1  -6   1    6.68    0.21 
  -1  -6   1    7.02    0.25 
  -1  -6  -1    0.07    0.05 
  -1  -6  -1    0.11    0.06 
  -2  -6  -1    2.30    0.15 
  -2  -6  -1    2.45    0.14 
  -3  -6  -1    2.43    0.13 
  -3  -6  -1    2.23    0.14 
  -3  -6  -1    2.28    0.11 
  -4  -6  -1    2.75    0.14 
  -4  -6  -1    2.51    0.13 
  -4  -6  -1    2.66    0.11 
  -5  -6  -1    0.17    0.04 
  -5  -6  -1    0.14    0.05 
  -5  -6  -1    0.20    0.05 
  -5  -6  -1    0.21    0.04 
  10   0  -2    2.59    0.15 
 -10   0   2    2.39    0.11 
   9   0  -2    0.07    0.07 
  -9   0   2    0.00    1.13 
  -9   0   2    0.04    0.05 
   8   0  -2    0.99    0.22 
  -8   0   2    0.16    1.35 
  -8   0   2    1.06    0.10 
   8   0  -2    1.10    0.12 
  -7   0   2    0.49    1.40 
   6   0  -2    0.39    0.10 
  -6   0   2    0.36    0.07 
   5   0  -2   43.34    1.65 
  -5   0   2   43.02    1.41 
   5   0  -2   41.51    1.37 
   4   0  -2   80.58    2.51 
   4   0  -2   78.43    2.93 
  -4   0   2   81.30    2.53 
  -4   0   2   75.71    2.57 
  -3   0   2   58.31    1.96 
  -3   0   2   56.58    1.99 
   3   0  -2   63.83    1.95 
   3   0  -2   67.09    3.30 
   3   0  -2   60.55    2.27 
   2   0  -2    1.18    0.12 
  -2   0   2    0.98    0.06 
   2   0  -2    1.12    0.06 
  -2   0   2    1.13    0.07 
   2   0  -2    1.00    0.08 
   1   0  -2    1.74    0.17 
   1   0  -2    1.66    0.09 
   1   0  -2    1.23    0.11 
  -1   0   2    1.50    0.09 
   0   0  -2   45.29    1.35 
   0   0  -2   38.39    1.54 
   0   0   2   40.08    1.34 
   0   0  -2   45.75    2.27 
  -1   0  -2  425.86   22.07 
  -1   0  -2  404.14   15.10 
  -1   0  -2  429.75   13.15 
   1   0   2  415.48   13.13 
  -2   0  -2 1000.00   31.53 
  -2   0  -2  950.77   51.91 
   2   0   2  944.92   30.95 
  -3   0  -2  130.27    4.06 
   3   0   2  122.30    4.66 
   3   0   2  132.96    4.05 
   4   0   2    4.03    0.23 
  -4   0  -2    4.13    0.18 
   4   0   2    4.04    0.16 
  -5   0  -2    0.01    0.03 
  -5   0  -2    0.03    0.04 
   5   0   2    0.01    0.02 
  -6   0  -2   18.76    0.70 
   6   0   2   17.88    0.60 
  -6   0  -2   18.15    0.65 
  -7   0  -2    0.19    0.08 
  -7   0  -2    0.26    1.36 
  -8   0  -2   -0.01    1.16 
  -9   0  -2    0.23    1.29 
   9   0   2   -0.36    0.17 
 -10   0  -2   -0.32    0.79 
 -10  -1   2    0.20    0.99 
 -10   1   2    0.07    0.04 
  10   1  -2    0.05    0.06 
  -9  -1   2    6.24    0.21 
   9  -1  -2    6.41    0.26 
   9   1  -2    6.41    0.41 
   9   1  -2    6.08    0.26 
  -8  -1   2    0.09    1.27 
  -8   1   2    0.22    1.35 
  -7  -1   2    7.50    0.25 
   7   1  -2    7.65    0.29 
  -6  -1   2    4.51    0.18 
  -6  -1   2    4.86    0.25 
  -6  -1   2    4.83    0.22 
   6  -1  -2    5.32    0.31 
   6   1  -2    4.79    0.22 
   6   1  -2    4.48    0.30 
  -5  -1   2   48.98    1.66 
   5  -1  -2   48.45    1.89 
  -5  -1   2   49.26    1.59 
   5   1  -2   48.99    1.90 
   5   1  -2   48.97    1.60 
   4  -1  -2    5.79    0.29 
  -4  -1   2    5.26    0.23 
  -4  -1   2    5.39    0.24 
  -4  -1   2    5.42    0.21 
   4   1  -2    5.51    0.30 
   4   1  -2    5.20    0.22 
   4   1  -2    4.54    0.39 
   3  -1  -2   42.44    2.16 
  -3  -1   2   38.28    1.33 
  -3  -1   2   39.05    1.32 
  -3  -1   2   39.77    1.28 
   3  -1  -2   39.84    1.51 
   3   1  -2   39.84    2.20 
   3   1  -2   38.71    1.29 
   3   1  -2   40.37    1.52 
  -2  -1   2    8.93    0.31 
   2  -1  -2    9.58    0.54 
  -2  -1   2    8.64    0.33 
  -2  -1   2    9.14    0.34 
   2   1  -2    8.27    0.32 
   2   1  -2    8.83    0.39 
   2   1  -2   10.44    0.58 
  -1  -1   2   31.93    1.03 
  -1  -1   2   30.49    0.98 
   1  -1  -2   32.13    1.00 
  -1  -1   2   29.23    1.01 
   1  -1  -2   32.72    1.68 
   1   1  -2   32.40    1.70 
   1   1  -2   28.60    1.14 
   1   1  -2   28.50    0.99 
   0  -1  -2  112.04    4.06 
   0  -1  -2  116.58    5.92 
   0  -1   2  107.38    3.58 
   0   1  -2  110.10    5.92 
  -1  -1  -2   25.76    1.38 
   1  -1   2   24.77    0.83 
  -1  -1  -2   24.14    0.82 
  -1  -1  -2   26.01    0.95 
  -1   1  -2   23.33    1.36 
   1   1   2   25.44    0.80 
  -2  -1  -2  169.80    5.61 
  -2  -1  -2  176.99    5.50 
  -2  -1  -2  172.87    9.27 
  -2   1  -2  186.54    9.22 
   2   1   2  175.27    5.50 
  -2   1  -2  170.97    5.50 
   2   1   2  172.35    6.34 
  -3  -1  -2  179.97    9.71 
  -3  -1  -2  183.18    5.89 
  -3  -1  -2  181.03    5.76 
   3   1   2  184.57    5.77 
   3   1   2  187.15    6.65 
  -4  -1  -2   20.75    0.73 
  -4  -1  -2   20.03    0.68 
   4   1   2   20.75    0.69 
   4   1   2   20.00    0.82 
  -5  -1  -2   19.46    0.71 
  -5  -1  -2   19.24    0.65 
   5   1   2   18.58    0.65 
   5   1   2   18.38    0.80 
  -6  -1  -2   21.96    0.76 
  -6  -1  -2   23.33    0.84 
   6   1   2   21.23    0.96 
   6   1   2   22.58    0.76 
   7  -1   2   10.69    3.86 
   7  -1   2    4.96    0.35 
  -7  -1  -2    5.00    0.30 
  -7   1  -2    5.34    0.28 
  -8  -1  -2    0.01    1.23 
  -8   1  -2    0.10    1.22 
  -9  -1  -2   -0.29    1.07 
  -9  -1  -2    0.02    0.03 
  -9   1  -2   -0.56    0.87 
   9   1   2   -0.26    0.20 
 -10  -1  -2   -0.07    0.89 
 -10   1  -2   -0.09    0.79 
  10   1   2   -0.09    0.13 
 -10  -2   2   -0.19    0.68 
  10   2  -2    0.11    0.06 
  10   2  -2    0.02    0.13 
  -9  -2   2    0.33    1.18 
  -8  -2   2    0.25    1.31 
  -7  -2   2    1.05    0.08 
  -7  -2   2    0.08    1.13 
   7   2  -2    1.23    0.13 
  -6  -2   2    5.36    0.29 
  -6  -2   2    5.41    0.17 
   6  -2  -2    5.56    0.35 
   6   2  -2    4.72    0.33 
   5  -2  -2    2.78    0.22 
  -5  -2   2    2.70    0.18 
   5   2  -2    2.34    0.15 
   5   2  -2    2.11    0.29 
   5   2  -2    2.56    0.22 
   4  -2  -2   18.78    0.80 
  -4  -2   2   19.06    0.70 
  -4  -2   2   18.76    0.70 
   4   2  -2   18.57    0.81 
   4   2  -2   18.71    1.15 
  -3  -2   2    0.88    0.08 
  -3  -2   2    0.77    0.08 
   3  -2  -2    0.86    0.11 
   3   2  -2    0.75    0.11 
   3   2  -2    0.82    0.15 
  -2  -2   2   19.51    0.71 
   2  -2  -2   20.46    1.16 
  -2  -2   2   19.95    0.73 
   2  -2  -2   19.96    0.82 
   2   2  -2   21.59    1.20 
   2   2  -2   20.61    0.80 
   1  -2  -2   75.87    2.81 
  -1  -2   2   74.68    2.47 
   1  -2  -2   77.39    2.48 
  -1  -2   2   76.06    2.50 
   1  -2  -2   75.18    4.08 
   1   2  -2   79.63    4.09 
   1   2  -2   72.26    2.77 
   0  -2  -2   66.31    2.48 
   0  -2  -2   63.99    3.61 
   0  -2  -2   69.18    2.20 
   0  -2   2   65.27    2.18 
   0   2  -2   68.97    3.60 
   1  -2   2   23.82    0.82 
  -1  -2  -2   23.42    1.38 
  -1  -2  -2   24.05    0.95 
  -1  -2  -2   23.64    0.81 
  -1   2  -2   25.09    1.34 
   2  -2   2   12.93    0.46 
  -2  -2  -2   12.22    0.46 
  -2  -2  -2   12.32    0.78 
   2   2   2   12.25    0.53 
  -3  -2  -2   79.34    4.47 
  -3  -2  -2   85.26    2.71 
   3   2   2   82.73    3.06 
  -4  -2  -2   35.96    1.22 
  -4  -2  -2   33.89    1.99 
   4   2   2   34.47    1.36 
  -5  -2  -2   13.45    0.54 
   5   2   2   12.12    0.59 
  -6  -2  -2    4.55    0.27 
   6  -2   2    2.89    2.35 
   6   2   2    4.29    0.32 
   7  -2   2    1.13    1.97 
  -7  -2  -2    0.37    1.40 
  -7  -2  -2    0.64    0.10 
  -7  -2  -2    0.70    0.08 
  -8  -2  -2    0.06    0.05 
   8  -2   2   -0.31    1.35 
  -8  -2  -2    0.21    1.25 
   8   2   2    0.04    0.09 
  -9  -2  -2    0.06    1.11 
  -9   2  -2   -0.06    1.01 
 -10  -2  -2   -0.04    0.78 
 -10   2  -2   -0.08    0.73 
  -9  -3   2   -0.05    0.81 
   9   3  -2    0.29    0.07 
  -8  -3   2   -0.32    0.87 
   8   3  -2    0.30    0.08 
  -7  -3   2   -0.01    1.15 
  -7  -3   2    0.58    0.08 
   7   3  -2    0.59    0.11 
  -6  -3   2   -0.21    1.09 
  -6  -3   2    1.57    0.12 
   6   3  -2    1.55    0.15 
  -5  -3   2   -0.23    0.95 
  -5  -3   2    1.36    0.14 
   5   3  -2    1.09    0.19 
   4  -3  -2    6.80    0.39 
  -4  -3   2    7.46    0.35 
   4   3  -2    6.58    0.39 
   4   3  -2    7.25    0.57 
  -3  -3   2    5.14    0.26 
  -3  -3   2    4.72    0.25 
   3  -3  -2    4.64    0.29 
   3   3  -2    4.88    0.42 
   3   3  -2    4.56    0.28 
  -2  -3   2    6.72    0.31 
   2  -3  -2    7.31    0.37 
  -2  -3   2    7.06    0.32 
   2   3  -2    6.84    0.52 
  -1  -3   2   98.15    3.19 
   1  -3  -2   96.06    3.62 
   1  -3  -2   97.04    5.26 
   1   3  -2   98.11    5.27 
   0  -3  -2    4.87    0.28 
   0  -3   2    5.07    0.24 
   0  -3  -2    4.91    0.23 
   0  -3  -2    5.66    0.43 
   0   3  -2    5.23    0.39 
  -1  -3  -2   88.46    4.99 
  -1  -3  -2   90.67    3.05 
   1  -3   2   94.22    3.00 
  -1  -3  -2   92.45    3.42 
   1   3   2   92.92    3.41 
   2  -3   2   34.04    1.13 
  -2  -3  -2   33.85    1.14 
  -2  -3  -2   32.18    1.17 
  -2  -3  -2   31.49    1.91 
   2   3   2   33.11    1.30 
  -3  -3  -2    2.31    0.17 
  -3  -3  -2    2.61    0.17 
  -3  -3  -2    2.34    0.28 
   3   3   2    2.30    0.18 
  -4  -3  -2    1.07    0.20 
  -4  -3  -2    0.96    0.13 
   4   3   2    1.18    0.20 
   4   3   2    0.97    0.15 
  -5  -3  -2    5.55    0.31 
  -5  -3  -2    5.09    0.20 
  -6  -3  -2    0.25    0.06 
  -6  -3  -2    0.12    0.07 
   6  -3   2    0.47    1.51 
  -7  -3  -2    2.34    0.14 
  -7  -3  -2    2.40    0.16 
   7  -3   2   -0.08    1.51 
  -8  -3  -2    2.48    0.13 
   8  -3   2    0.37    1.55 
   8   3   2    2.25    0.18 
  -9  -3  -2    1.10    0.08 
   9   3   2    0.79    0.09 
  -9   3  -2   -0.22    0.84 
  -8  -4   2    0.09    0.88 
   8   4  -2    0.07    0.05 
   8   4  -2    0.05    0.04 
  -7  -4   2    0.11    1.04 
  -7  -4   2    0.45    0.06 
   7   4  -2    0.50    0.09 
  -6  -4   2   -0.05    1.16 
  -6  -4   2    1.54    0.11 
  -6  -4   2    1.70    0.13 
   6   4  -2    1.25    0.14 
  -5  -4   2    0.06    0.06 
  -5  -4   2    0.09    0.05 
  -5  -4   2    0.18    1.24 
  -5  -4   2    0.08    0.05 
  -4  -4   2    3.35    0.21 
  -4  -4   2    3.39    0.19 
  -4  -4   2    0.86    1.55 
  -4  -4   2    3.52    0.16 
  -3  -4   2    1.93    0.16 
  -3  -4   2   -0.16    1.16 
  -3  -4   2    1.69    0.12 
  -2  -4   2    4.46    0.25 
  -1  -4   2    0.19    0.07 
   1  -4  -2    0.21    0.08 
   0  -4  -2   20.69    1.30 
   0   4   2   20.44    0.88 
   1  -4   2    8.64    0.38 
   1   4   2    8.78    0.45 
   2   4   2    7.98    0.43 
  -4  -4  -2    4.72    0.22 
  -4  -4  -2    4.64    0.24 
  -4  -4  -2    4.90    0.22 
  -4  -4  -2    4.80    0.20 
  -5  -4  -2    0.69    0.10 
  -5  -4  -2    0.75    0.09 
  -5  -4  -2    0.70    0.09 
   5  -4   2   -0.14    1.06 
  -5  -4  -2    0.88    0.11 
  -6  -4  -2    2.22    0.14 
  -6  -4  -2    2.57    0.17 
   6  -4   2    0.36    1.44 
  -6  -4  -2    1.86    0.17 
  -6  -4  -2    1.91    0.14 
  -7  -4  -2    1.97    0.14 
  -7  -4  -2    1.96    0.12 
   7  -4   2    0.00    1.48 
   8  -4   2    0.15    1.16 
  -8  -4  -2    0.09    0.04 
   8   4   2    0.06    0.08 
  -7  -5   2    0.15    0.03 
  -7  -5   2    0.21    0.90 
  -6  -5   2   -0.16    0.97 
  -6  -5   2   -0.01    0.03 
  -6  -5   2    0.03    0.04 
  -6  -5   2    0.04    0.05 
  -5  -5   2    0.13    0.05 
  -5  -5   2    0.11    0.06 
  -5  -5   2    0.03    0.04 
  -5  -5   2   -0.05    1.16 
  -4  -5   2    5.15    0.24 
  -4  -5   2    5.06    0.22 
  -4  -5   2    5.17    0.19 
  -3  -5   2   18.47    0.48 
  -3  -5   2   19.29    0.58 
  -3  -5   2   18.94    0.55 
  -2  -5   2    1.82    0.12 
  -2  -5   2    1.86    0.17 
  -2  -5   2    1.65    0.12 
  -2  -5   2   -0.12    1.22 
  -1  -5   2    0.68    0.07 
  -1  -5   2    0.25    1.44 
  -1  -5   2    0.69    0.09 
   0  -5   2    4.38    0.23 
   0  -5  -2    4.88    0.22 
   0  -5   2    4.64    0.17 
  -1  -5  -2   20.87    0.64 
  -1  -5  -2   21.23    0.61 
   1  -5   2   21.38    0.51 
  -1  -5  -2   20.71    0.61 
  -2  -5  -2    4.22    0.21 
  -2  -5  -2    4.29    0.23 
  -2  -5  -2    4.20    0.21 
  -3  -5  -2    0.68    0.09 
   3  -5   2   -0.32    1.20 
  -3  -5  -2    0.76    0.10 
  -3  -5  -2    0.71    0.08 
  -3  -5  -2    1.05    0.11 
  -4  -5  -2    0.45    0.08 
  -4  -5  -2    0.39    0.07 
  -4  -5  -2    0.50    0.07 
  -4  -5  -2    0.47    0.09 
   4  -5   2    0.25    1.25 
   5  -5   2    0.02    1.31 
  -5  -5  -2    1.11    0.11 
  -5  -5  -2    1.06    0.09 
  -5  -5  -2    1.10    0.11 
  -5  -5  -2    1.04    0.11 
  -6  -5  -2    0.83    0.09 
  -6  -5  -2    0.86    0.08 
   6  -5   2   -0.26    1.18 
  -6  -5  -2    0.67    0.07 
  -6  -5  -2    0.89    0.09 
  -7  -5  -2    1.15    0.07 
  -7  -5  -2    0.87    0.06 
   7   5   2    0.94    0.10 
  -5  -6   2    0.17    0.03 
  -5  -6   2    0.14    0.04 
  -5  -6   2    0.16    0.03 
  -4  -6   2    0.67    0.05 
  -4  -6   2    0.59    0.06 
  -4  -6   2    0.81    0.07 
  -4  -6   2   -0.19    0.88 
  -3  -6   2    0.10    0.04 
  -3  -6   2   -0.21    0.94 
  -3  -6   2    0.15    0.05 
  -3  -6   2    0.10    0.05 
  -2  -6   2   -0.42    1.03 
  -2  -6   2    1.87    0.13 
  -1  -6   2    2.15    0.11 
  -1  -6   2    2.37    0.14 
   0  -6   2    2.19    0.10 
  -1  -6  -2    0.47    0.07 
  -2  -6  -2    1.40    0.11 
  -2  -6  -2    1.44    0.11 
  -3  -6  -2    1.08    0.09 
  -3  -6  -2    1.27    0.10 
  -3  -6  -2    1.38    0.12 
  -4  -6  -2    1.65    0.09 
  -4  -6  -2    1.75    0.12 
  -4  -6  -2    1.80    0.11 
  -4  -6  -2    1.82    0.11 
  -5  -6  -2    0.15    0.04 
  -5  -6  -2    0.17    0.05 
  -5  -6  -2    0.19    0.05 
 -10   0   3    0.06    0.03 
  10   0  -3    0.13    0.06 
  -9   0   3    0.02    1.16 
   9   0  -3    2.23    0.16 
  -9   0   3    1.98    0.12 
   8   0  -3    1.23    0.13 
  -8   0   3   -0.54    1.13 
  -8   0   3    0.97    0.09 
   8   0  -3    0.94    0.21 
   7   0  -3    0.42    0.09 
   7   0  -3    0.60    0.22 
  -6   0   3    0.04    0.05 
   6   0  -3    0.01    0.06 
   5   0  -3    0.08    0.06 
   5   0  -3    0.06    0.02 
  -5   0   3    0.04    0.04 
   4   0  -3   75.62    4.18 
  -4   0   3   78.81    2.50 
   4   0  -3   77.33    2.47 
   4   0  -3   78.97    2.90 
   3   0  -3    4.63    0.33 
  -3   0   3    4.31    0.19 
   3   0  -3    4.63    0.24 
   3   0  -3    4.62    0.19 
  -2   0   3   24.12    0.79 
   2   0  -3   25.02    1.33 
   2   0  -3   22.97    0.91 
   2   0  -3   22.87    0.78 
   1   0  -3  143.90    7.22 
   1   0  -3  126.44    4.93 
  -1   0   3  135.39    4.29 
   1   0  -3  138.88    4.29 
   0   0  -3   33.24    1.05 
   0   0  -3   30.33    1.21 
   0   0  -3   35.26    1.79 
   0   0   3   32.03    1.05 
  -1   0  -3  423.12   21.39 
  -1   0  -3  410.32   12.75 
   1   0   3  398.89   12.72 
  -1   0  -3  389.62   14.62 
   2   0   3   22.00    0.91 
  -2   0  -3   25.65    0.81 
   2   0   3   25.20    0.79 
  -2   0  -3   25.04    1.35 
  -3   0  -3   75.97    2.40 
   3   0   3   74.06    2.38 
   4   0   3   35.73    1.15 
  -4   0  -3   35.68    1.18 
   5   0   3    0.61    0.05 
  -5   0  -3    0.57    0.08 
  -6   0  -3    0.37    0.07 
  -6   0  -3    0.33    0.08 
  -7   0  -3   -0.13    1.26 
  -8   0  -3   -0.35    1.19 
  -9   0  -3    0.05    1.19 
 -10   0  -3   -0.21    0.75 
  10  -1  -3    0.42    0.07 
 -10  -1   3   -0.07    0.81 
  10   1  -3    0.50    0.08 
  -9  -1   3   -0.07    0.98 
   9  -1  -3    0.11    0.08 
  -9  -1   3    0.06    0.04 
   9   1  -3    0.07    0.07 
   9   1  -3   -0.02    0.18 
   8  -1  -3    7.81    0.32 
  -8  -1   3    8.41    0.27 
   8   1  -3    8.67    0.33 
  -7  -1   3    0.28    1.34 
  -7  -1   3    2.46    0.13 
   7  -1  -3    2.29    0.17 
   7   1  -3    2.22    0.17 
   6  -1  -3    6.51    0.39 
  -6  -1   3    6.70    0.28 
  -6  -1   3    6.80    0.23 
   6   1  -3    6.90    0.29 
   6   1  -3    6.81    0.39 
  -5  -1   3   23.52    0.82 
   5  -1  -3   24.25    1.00 
   5   1  -3   24.14    1.00 
   5   1  -3   23.95    0.83 
   4  -1  -3   21.10    0.86 
  -4  -1   3   20.81    0.70 
  -4  -1   3   20.01    0.73 
   4   1  -3   21.17    0.71 
   4   1  -3   22.41    0.86 
   4   1  -3   18.36    1.23 
   3  -1  -3    8.53    0.52 
  -3  -1   3    8.12    0.31 
   3  -1  -3    8.07    0.38 
  -3  -1   3    8.47    0.30 
  -3  -1   3    8.08    0.31 
   3   1  -3    8.01    0.31 
   3   1  -3    8.42    0.38 
   3   1  -3    6.68    0.55 
   2  -1  -3    6.25    0.29 
   2  -1  -3    5.76    0.40 
  -2  -1   3    5.81    0.24 
  -2  -1   3    6.08    0.22 
   2   1  -3    5.29    0.42 
   2   1  -3    6.40    0.28 
   2   1  -3    5.89    0.23 
   1  -1  -3   49.89    2.63 
  -1  -1   3   48.13    1.58 
  -1  -1   3   49.04    1.54 
   1  -1  -3   50.02    1.81 
   1   1  -3   43.94    2.64 
   1   1  -3   46.92    1.77 
   1   1  -3   50.26    1.55 
   0  -1   3    9.86    0.35 
   0  -1   3    9.88    0.32 
   0  -1  -3    9.74    0.41 
   0   1  -3    9.36    0.34 
   0   1  -3    9.46    0.59 
   0   1   3    9.45    0.32 
  -1  -1  -3   73.14    2.72 
   1  -1   3   69.56    2.32 
  -1  -1  -3   76.54    3.98 
   1  -1   3   72.68    2.39 
  -1  -1  -3   74.31    2.38 
  -1   1  -3   82.55    3.95 
   1   1   3   72.90    2.34 
  -1   1  -3   69.77    2.34 
  -2  -1  -3  179.70    5.82 
  -2  -1  -3  186.10    9.84 
  -2  -1  -3  180.13    5.95 
   2   1   3  180.61    6.72 
   2   1   3  189.43    5.83 
  -2   1  -3  198.27    9.79 
  -2   1  -3  183.74    5.84 
  -3  -1  -3   76.53    2.44 
  -3  -1  -3   74.88    4.16 
  -3  -1  -3   78.02    2.52 
   3   1   3   78.51    2.45 
   3   1   3   77.16    2.84 
  -4  -1  -3  122.83    3.90 
  -4  -1  -3  121.39    4.01 
   4   1   3  122.86    4.52 
   4   1   3  125.79    3.91 
  -5  -1  -3   10.46    0.38 
  -5  -1  -3   10.53    0.44 
   5   1   3   10.08    0.38 
  -6  -1  -3    5.01    0.22 
  -6  -1  -3    5.81    0.30 
   7  -1   3    1.45    2.28 
  -7  -1  -3    0.65    0.08 
  -7  -1  -3    0.37    1.42 
   7  -1   3    0.82    0.19 
  -8  -1  -3   -0.21    1.10 
  -8  -1  -3    0.36    0.07 
  -8   1  -3    0.49    1.44 
  -9  -1  -3   -0.29    1.02 
  -9  -1  -3    0.00    0.03 
  -9   1  -3   -0.32    0.98 
   9   1   3   -0.11    0.18 
 -10  -1  -3   -0.26    0.78 
  10   1   3   -0.03    0.12 
 -10   1  -3   -0.05    0.79 
  10   2  -3    0.10    0.05 
  -9  -2   3    0.03    0.98 
   9   2  -3    0.16    0.07 
  -8  -2   3   -0.10    1.13 
   8  -2  -3    1.89    0.15 
   8   2  -3    1.80    0.16 
   7  -2  -3   15.21    0.49 
  -7  -2   3   15.19    0.44 
   7   2  -3   14.13    0.46 
   7   2  -3   16.12    0.49 
  -5  -2   3    3.40    0.13 
  -5  -2   3    3.54    0.21 
   5  -2  -3    3.99    0.27 
   5   2  -3    3.29    0.19 
   5   2  -3    3.60    0.25 
   5   2  -3    2.53    0.35 
  -4  -2   3    6.39    0.29 
   4  -2  -3    7.10    0.37 
   4   2  -3    5.20    0.49 
   4   2  -3    6.11    0.34 
   3  -2  -3   12.53    0.56 
  -3  -2   3   11.70    0.46 
  -3  -2   3   12.77    0.47 
   3   2  -3   11.61    0.81 
   3   2  -3   12.06    0.54 
  -2  -2   3   77.01    2.51 
   2  -2  -3   79.11    4.14 
   2  -2  -3   77.76    2.86 
   2   2  -3   72.84    2.83 
   2   2  -3   75.50    4.17 
   1  -2  -3   11.49    0.73 
  -1  -2   3   11.72    0.44 
   1  -2  -3   11.68    0.52 
   1   2  -3   11.66    0.75 
   0  -2   3   61.68    1.97 
   0  -2  -3   60.69    2.25 
   0  -2  -3   62.24    1.99 
   0  -2  -3   60.26    3.28 
   0   2  -3   54.82    3.26 
   1  -2   3   59.65    1.89 
  -1  -2  -3   59.75    2.15 
  -1  -2  -3   58.99    3.14 
  -1   2  -3   50.28    3.10 
  -2  -2  -3    1.35    0.18 
  -2  -2  -3    1.19    0.09 
   2   2   3    1.12    0.11 
  -3  -2  -3    2.58    0.16 
  -3  -2  -3    2.76    0.27 
   3   2   3    2.18    0.17 
  -4  -2  -3   20.41    0.75 
  -4  -2  -3   18.43    1.21 
   4   2   3   20.65    0.84 
  -5  -2  -3   10.82    0.47 
   5   2   3   10.40    0.51 
   6  -2   3    0.86    1.72 
  -6  -2  -3    0.92    0.14 
  -6  -2  -3    1.00    0.10 
  -7  -2  -3    3.84    0.20 
   7  -2   3    4.60    2.84 
  -7  -2  -3    4.31    0.19 
  -8  -2  -3    0.86    0.09 
   8  -2   3    0.50    1.73 
  -9  -2  -3   -0.01    0.04 
  -9   2  -3   -0.15    0.93 
 -10   2  -3   -0.02    0.70 
  -9  -3   3    0.34    0.91 
   9   3  -3    0.34    0.06 
  -8  -3   3    0.16    1.09 
   8   3  -3    0.55    0.07 
   8   3  -3    0.91    0.10 
  -7  -3   3    5.99    0.23 
   7   3  -3    6.16    0.26 
  -6  -3   3    6.43    0.24 
   6  -3  -3    6.37    0.28 
   6   3  -3    6.58    0.28 
  -5  -3   3   -0.04    1.00 
   4  -3  -3    6.01    0.37 
  -4  -3   3    6.09    0.31 
  -3  -3   3    4.19    0.23 
   3  -3  -3    3.95    0.27 
   3   3  -3    3.51    0.38 
   2  -3  -3   14.77    0.68 
  -2  -3   3   15.64    0.59 
   2   3  -3   14.83    0.98 
   1  -3  -3    6.27    0.48 
   1  -3  -3    6.02    0.34 
  -1  -3   3    6.61    0.29 
   1   3  -3    5.96    0.48 
   0  -3   3   35.14    1.19 
   0  -3  -3   35.38    1.37 
   0  -3  -3   33.74    1.98 
   0   3  -3   33.20    1.96 
  -1  -3  -3   32.54    1.99 
   1  -3   3   36.05    1.19 
  -1  -3  -3   35.10    1.37 
   1   3   3   34.00    1.36 
  -2  -3  -3    2.74    0.30 
  -2  -3  -3    2.81    0.19 
   2   3   3    2.87    0.21 
  -3  -3  -3    3.64    0.37 
   3   3   3    3.81    0.25 
   4   3   3    5.78    0.34 
  -5  -3  -3    8.30    0.41 
  -5  -3  -3    8.54    0.28 
  -6  -3  -3    1.92    0.16 
  -6  -3  -3    1.81    0.14 
   6  -3   3    0.47    1.44 
  -7  -3  -3    1.20    0.12 
   7  -3   3    0.69    1.71 
  -7  -3  -3    1.31    0.11 
  -8  -3  -3   -0.01    0.04 
   8  -3   3    0.02    1.25 
   8   3   3   -0.03    0.09 
  -9  -3  -3    0.16    0.04 
   9   3   3    0.08    0.05 
  -9   3  -3   -0.19    0.81 
  -8  -4   3   -0.07    0.73 
   8   4  -3    0.36    0.05 
   8   4  -3    0.32    0.06 
  -7  -4   3    0.32    1.12 
  -7  -4   3    1.07    0.09 
   7   4  -3    1.08    0.10 
  -6  -4   3    0.34    1.27 
  -5  -4   3    0.19    1.28 
  -5  -4   3    2.33    0.15 
  -5  -4   3    2.28    0.17 
  -5  -4   3    2.03    0.13 
  -4  -4   3    2.74    0.14 
  -4  -4   3    2.32    0.18 
  -4  -4   3    2.60    0.17 
  -3  -4   3    0.95    0.08 
  -3  -4   3    0.99    0.10 
  -3  -4   3    0.39    1.23 
  -3  -4   3    0.85    0.12 
  -2  -4   3    0.08    1.12 
   2  -4  -3    0.92    0.16 
  -2  -4   3    1.12    0.09 
  -2  -4   3    0.84    0.12 
   1  -4  -3    1.78    0.19 
  -1  -4   3    1.72    0.15 
  -1  -4   3   -0.13    1.06 
   0  -4   3    0.91    0.11 
   0  -4  -3    1.14    0.17 
   0   4   3    1.09    0.14 
   1  -4   3    1.99    0.15 
   1  -4   3   -0.12    1.09 
   1   4   3    2.08    0.19 
  -3  -4  -3   13.49    0.43 
  -3  -4  -3   13.41    0.43 
  -3  -4  -3   12.40    0.37 
  -4  -4  -3    4.31    0.21 
  -4  -4  -3    4.12    0.21 
  -4  -4  -3    4.09    0.19 
   4  -4   3    1.14    1.65 
  -4  -4  -3    4.03    0.23 
  -5  -4  -3    1.99    0.16 
   5  -4   3    0.21    1.20 
  -5  -4  -3    1.71    0.14 
  -5  -4  -3    1.98    0.14 
  -5  -4  -3    1.80    0.14 
  -6  -4  -3    0.48    0.09 
   6  -4   3   -0.13    1.19 
  -6  -4  -3    0.49    0.08 
  -6  -4  -3    0.63    0.10 
  -6  -4  -3    0.46    0.07 
   7  -4   3   -0.20    1.20 
  -7  -4  -3    0.24    0.05 
  -7  -4  -3    0.24    0.07 
   8  -4   3   -0.25    0.93 
  -8  -4  -3    0.04    0.04 
   8   4   3    0.00    0.07 
  -7  -5   3   -0.16    0.69 
   7   5  -3    0.05    0.03 
  -6  -5   3    1.02    0.07 
  -6  -5   3    0.19    0.98 
  -6  -5   3    1.09    0.10 
  -6  -5   3    1.06    0.08 
  -5  -5   3    0.01    1.01 
  -5  -5   3    0.72    0.08 
  -5  -5   3    0.89    0.08 
  -5  -5   3    0.70    0.06 
  -4  -5   3    1.39    0.11 
  -4  -5   3    1.40    0.12 
  -4  -5   3    0.13    1.12 
  -4  -5   3    1.58    0.11 
  -3  -5   3    0.22    0.06 
  -3  -5   3    0.28    0.07 
  -3  -5   3    0.22    0.05 
  -3  -5   3    0.07    1.28 
  -2  -5   3    3.63    0.16 
  -2  -5   3    3.71    0.21 
  -1  -5   3    6.82    0.27 
   1  -5  -3    6.16    0.27 
  -1  -5   3    6.56    0.21 
   0  -5  -3    0.92    0.11 
   0  -5   3    0.03    1.35 
   0  -5   3    1.03    0.08 
   0  -5  -3    0.96    0.11 
  -1  -5  -3    6.41    0.26 
  -1  -5  -3    6.34    0.26 
  -1  -5  -3    6.16    0.28 
   2  -5   3   -0.10    1.36 
  -2  -5  -3    2.52    0.17 
   2  -5   3    2.76    0.12 
  -2  -5  -3    2.61    0.17 
  -2  -5  -3    2.74    0.20 
  -3  -5  -3    3.17    0.20 
  -3  -5  -3    3.13    0.17 
  -3  -5  -3    3.17    0.18 
  -3  -5  -3    2.92    0.15 
  -4  -5  -3    1.44    0.13 
   4  -5   3   -0.01    1.08 
  -4  -5  -3    1.44    0.11 
  -4  -5  -3    1.12    0.11 
  -4  -5  -3    1.49    0.12 
   5  -5   3    0.15    1.14 
  -5  -5  -3    0.96    0.09 
  -5  -5  -3    1.03    0.10 
  -5  -5  -3    1.07    0.09 
  -5  -5  -3    0.91    0.10 
   6  -5   3   -0.08    1.18 
  -6  -5  -3    0.09    0.06 
  -6  -5  -3    0.06    0.04 
  -6  -5  -3    0.03    0.04 
  -6  -5  -3    0.07    0.06 
   7   5   3    0.31    0.07 
  -4  -6   3    0.04    0.03 
  -4  -6   3   -0.29    0.78 
  -4  -6   3    0.02    0.03 
  -4  -6   3    0.09    0.04 
  -3  -6   3    0.24    0.04 
  -3  -6   3    0.02    1.03 
  -3  -6   3    0.21    0.05 
  -2  -6   3    2.21    0.13 
  -2  -6   3    2.30    0.10 
  -2  -6   3    0.36    1.26 
  -1  -6   3    4.54    0.15 
  -1  -6   3    4.93    0.19 
   0  -6   3    1.35    0.08 
   0  -6   3    0.05    1.23 
   0  -6  -3    1.21    0.10 
  -1  -6  -3    1.01    0.09 
  -1  -6  -3    1.00    0.09 
   1  -6   3   -0.37    1.04 
  -2  -6  -3    0.54    0.08 
   2  -6   3    0.46    1.25 
  -2  -6  -3    0.49    0.07 
  -3  -6  -3    0.34    0.06 
  -3  -6  -3    0.31    0.06 
  -3  -6  -3    0.37    0.07 
   3  -6   3    0.36    0.93 
  -4  -6  -3    0.51    0.07 
  -4  -6  -3    0.48    0.06 
  -4  -6  -3    0.62    0.07 
  -5  -6  -3    0.04    0.03 
  10   0  -4    0.10    0.05 
   9   0  -4    0.05    0.07 
  -9   0   4    0.01    0.04 
   8   0  -4   -0.09    0.18 
  -8   0   4    0.11    0.05 
   8   0  -4    0.14    0.08 
   7   0  -4    6.12    0.27 
  -7   0   4    5.94    0.23 
   7   0  -4    6.58    0.43 
   6   0  -4   22.44    0.98 
   5   0  -4    1.58    0.16 
   5   0  -4    1.42    0.08 
  -5   0   4    1.62    0.13 
   4   0  -4    8.52    0.31 
  -4   0   4    8.54    0.34 
   4   0  -4    8.46    0.41 
   4   0  -4    7.55    0.54 
   3   0  -4  110.44    4.10 
   3   0  -4  113.35    3.53 
  -3   0   4  112.76    3.55 
   3   0  -4  109.24    5.96 
   2   0  -4  461.21   23.55 
   2   0  -4  430.60   16.12 
   2   0  -4  438.06   14.05 
  -2   0   4  456.77   14.02 
  -1   0   4    4.66    0.19 
   1   0  -4    4.38    0.19 
   1   0  -4    4.39    0.22 
   1   0  -4    4.98    0.33 
   0   0  -4    4.04    0.20 
   0   0  -4    4.14    0.17 
   0   0   4    4.27    0.17 
   0   0  -4    4.48    0.31 
  -1   0  -4  122.71    6.52 
   1   0   4  124.39    3.87 
  -1   0  -4  120.61    3.87 
  -2   0  -4   22.83    0.75 
   2   0   4   22.77    0.74 
  -2   0  -4   21.55    1.27 
   3   0   4   29.31    0.93 
  -3   0  -4   27.24    0.94 
   4   0   4   14.97    0.52 
  -4   0  -4   15.48    0.55 
   5   0   4    0.57    0.06 
  -6   0  -4    0.35    0.06 
   6   0   4    0.26    1.74 
  -6   0  -4    0.26    0.08 
   7   0   4    0.40    0.22 
  -7   0  -4    0.42    0.07 
  -7   0  -4    0.09    1.37 
  -8   0  -4    6.67    0.23 
   8   0   4    7.02    0.42 
  -9   0  -4    0.27    1.12 
 -10   0  -4   -0.04    0.79 
  10  -1  -4    0.32    0.06 
  10   1  -4    0.25    0.06 
  -9  -1   4    0.08    0.03 
   9  -1  -4    0.16    0.07 
   9   1  -4    0.07    0.15 
   9   1  -4    0.08    0.07 
  -8  -1   4    0.79    0.08 
  -8  -1   4   -0.07    1.16 
   8  -1  -4    0.89    0.12 
   8   1  -4    0.86    0.11 
   7  -1  -4    6.23    0.27 
  -7  -1   4    6.29    0.22 
   7   1  -4    5.83    0.27 
  -6  -1   4    8.05    0.27 
  -5  -1   4    3.56    0.16 
   5  -1  -4    3.46    0.25 
  -5  -1   4    3.56    0.18 
   5   1  -4    3.58    0.19 
   5   1  -4    3.85    0.26 
   4  -1  -4    5.80    0.33 
  -4  -1   4    5.60    0.24 
   4   1  -4    5.53    0.46 
   4   1  -4    5.96    0.32 
   4   1  -4    5.94    0.26 
  -3  -1   4  105.83    3.38 
   3  -1  -4  109.02    5.71 
   3  -1  -4  107.71    3.93 
   3   1  -4  112.92    3.92 
   3   1  -4  103.03    3.39 
   3   1  -4   98.39    5.72 
   2  -1  -4   66.71    2.41 
  -2  -1   4   60.05    2.09 
   2  -1  -4   63.15    3.49 
  -2  -1   4   64.90    2.06 
   2   1  -4   66.17    2.38 
   2   1  -4   65.89    2.07 
   2   1  -4   62.91    3.51 
  -1  -1   4   26.14    0.93 
  -1  -1   4   27.92    0.91 
   1  -1  -4   28.44    1.09 
   1  -1  -4   26.37    1.57 
   1   1  -4   30.06    1.59 
   0  -1   4  106.66    3.58 
   0  -1  -4  110.57    5.94 
   0  -1   4  111.07    3.50 
   0   1   4  110.27    3.50 
   0   1  -4  107.57    3.51 
   0   1  -4  119.22    5.93 
  -1  -1  -4    5.70    0.28 
  -1  -1  -4    5.50    0.41 
   1  -1   4    5.32    0.20 
   1   1   4    5.81    0.22 
  -1   1  -4    6.39    0.39 
  -1   1  -4    5.52    0.23 
  -2  -1  -4   45.35    1.43 
  -2  -1  -4   44.34    2.47 
  -2  -1  -4   41.61    1.47 
  -2   1  -4   46.05    1.45 
   2   1   4   46.68    1.44 
   2   1   4   43.52    1.67 
  -3  -1  -4   13.95    0.47 
  -3  -1  -4   13.49    0.86 
  -3  -1  -4   14.34    0.52 
   3   1   4   13.57    0.48 
   3   1   4   13.67    0.58 
  -4  -1  -4   15.30    0.53 
  -4  -1  -4   15.72    0.59 
   4   1   4   15.56    0.54 
  -5  -1  -4   15.11    0.59 
  -5  -1  -4   14.46    0.52 
   5   1   4   14.98    0.53 
  -6  -1  -4    5.63    0.30 
  -6  -1  -4    5.37    0.20 
  -6   1  -4    5.05    0.19 
   7  -1   4    5.27    0.35 
  -7  -1  -4    5.09    0.21 
   7  -1   4    8.37    3.52 
  -7   1  -4    5.17    0.19 
  -8  -1  -4    0.69    0.08 
  -8   1  -4    1.46    1.82 
  -9  -1  -4    1.57    0.11 
  -9   1  -4    0.84    1.31 
   9   1   4    1.15    0.20 
 -10   1  -4   -0.13    0.70 
   9  -2  -4    0.72    0.09 
  -9  -2   4    0.40    1.04 
   9   2  -4    0.68    0.09 
   8  -2  -4    0.28    0.08 
  -8  -2   4    0.26    1.12 
   8   2  -4    0.31    0.08 
   8   2  -4    0.30    0.06 
  -7  -2   4   -0.36    1.14 
   7  -2  -4    1.20    0.13 
   7   2  -4    1.18    0.12 
   7   2  -4    1.02    0.10 
  -6  -2   4   13.80    0.36 
  -6  -2   4   14.02    0.41 
   6  -2  -4   13.26    0.45 
   6   2  -4   13.44    0.43 
   6   2  -4   13.39    0.44 
  -5  -2   4   23.65    0.60 
   5  -2  -4   23.77    1.03 
   5   2  -4   23.29    1.00 
  -4  -2   4   22.01    0.83 
   4  -2  -4   23.12    0.98 
   4   2  -4   23.23    0.95 
  -3  -2   4   15.77    0.57 
   3  -2  -4   16.41    0.68 
   3   2  -4   12.57    0.97 
  -2  -2   4   31.61    1.07 
   2  -2  -4   33.36    1.80 
   2  -2  -4   32.76    1.25 
   2   2  -4   26.36    1.80 
  -1  -2   4   25.62    0.87 
   1  -2  -4   26.29    1.47 
   1  -2  -4   26.39    1.02 
   1   2  -4   21.03    1.45 
   0  -2  -4   33.09    1.91 
   0  -2  -4   35.11    1.32 
   0  -2   4   34.66    1.14 
   0   2  -4   30.50    1.89 
  -1  -2  -4    2.28    0.25 
  -1  -2  -4    2.28    0.17 
   1  -2   4    2.30    0.13 
  -1   2  -4    2.43    0.23 
  -2  -2  -4    8.14    0.59 
   2   2   4    8.13    0.39 
  -3  -2  -4    4.98    0.43 
   3   2   4    5.28    0.29 
  -4  -2  -4    6.64    0.32 
   4   2   4    6.61    0.36 
   5  -2   4   37.82    4.94 
  -5  -2  -4   33.93    1.25 
  -6  -2  -4   27.00    0.67 
   7  -2   4    6.66    3.33 
  -7  -2  -4    3.20    0.17 
  -8  -2  -4    1.42    0.11 
   8  -2   4    1.51    1.94 
  -9  -2  -4    0.23    0.05 
  -9   2  -4    0.16    1.05 
  -9  -3   4   -0.14    0.68 
   9   3  -4    0.11    0.05 
   8  -3  -4    1.48    0.13 
  -8  -3   4    0.14    1.00 
   8   3  -4    1.59    0.12 
   8   3  -4    1.49    0.10 
   7  -3  -4    1.08    0.12 
  -7  -3   4   -0.20    1.04 
   7   3  -4    0.79    0.09 
   7   3  -4    0.94    0.11 
  -6  -3   4    5.10    0.21 
   6  -3  -4    5.29    0.26 
   5  -3  -4    8.44    0.33 
  -5  -3   4    8.92    0.30 
  -3  -3   4   10.03    0.43 
   3  -3  -4    9.88    0.52 
  -2  -3   4    3.73    0.20 
   2   3  -4    2.71    0.35 
   1  -3  -4    0.14    0.07 
  -1  -3   4    0.11    0.05 
   1  -3  -4    0.08    0.10 
   1   3  -4    0.03    0.10 
   0  -3  -4    1.37    0.15 
   0  -3  -4    1.44    0.22 
   0  -3   4    1.40    0.11 
   0   3  -4    1.11    0.22 
  -1  -3  -4   16.74    0.75 
  -1  -3  -4   16.76    1.10 
   1  -3   4   17.11    0.63 
  -2  -3  -4   16.14    1.10 
   2   3   4   17.38    0.75 
   3   3   4    5.99    0.35 
   4  -3   4    0.03    1.13 
  -5  -3  -4    7.12    0.32 
  -5  -3  -4    7.19    0.28 
  -5  -3  -4    7.80    0.27 
  -6  -3  -4    2.74    0.18 
  -6  -3  -4    3.05    0.21 
   6  -3   4    1.72    1.89 
  -6  -3  -4    2.93    0.16 
  -7  -3  -4    3.55    0.17 
   7  -3   4    1.98    2.16 
  -7  -3  -4    3.60    0.18 
  -8  -3  -4    0.57    0.07 
   8  -3   4    0.22    1.28 
  -9   3  -4   -0.09    0.75 
  -8  -4   4   -0.07    0.67 
   8   4  -4    0.16    0.04 
  -7  -4   4    0.11    0.94 
  -6  -4   4   -0.09    1.08 
   6  -4  -4    1.83    0.15 
  -6  -4   4    1.86    0.12 
   5  -4  -4    1.48    0.14 
  -5  -4   4    1.40    0.12 
  -5  -4   4   -0.14    1.17 
  -5  -4   4    1.35    0.11 
  -5  -4   4    1.39    0.11 
  -4  -4   4    6.41    0.21 
  -4  -4   4    6.57    0.26 
  -4  -4   4    6.44    0.24 
   4  -4  -4    5.91    0.27 
  -3  -4   4    1.45    0.11 
  -3  -4   4    1.61    0.13 
  -3  -4   4    1.54    0.12 
  -3  -4   4    0.19    1.21 
   3  -4  -4    1.53    0.14 
  -2  -4   4    1.66    0.11 
  -2  -4   4   -0.22    1.05 
   2  -4  -4    2.36    0.17 
   2  -4  -4    1.47    0.13 
  -2  -4   4    1.48    0.11 
  -1  -4   4    0.57    0.06 
  -1  -4   4    0.01    1.14 
  -1  -4   4    0.50    0.09 
   0  -4   4    2.48    0.11 
   0  -4   4    2.09    0.16 
   0  -4   4    0.43    1.33 
   1  -4   4    0.33    0.08 
   1  -4   4    0.04    1.20 
   1  -4   4    0.34    0.05 
  -2  -4  -4    6.94    0.29 
   2  -4   4    7.93    0.22 
  -2  -4  -4    7.24    0.29 
  -2  -4  -4    6.53    0.31 
  -3  -4  -4    1.81    0.16 
   3  -4   4    0.27    1.37 
  -3  -4  -4    1.90    0.16 
  -3  -4  -4    1.92    0.16 
  -4  -4  -4   14.69    0.46 
  -4  -4  -4   14.88    0.46 
  -4  -4  -4   14.36    0.49 
  -4  -4  -4   14.38    0.41 
  -5  -4  -4    1.70    0.15 
  -5  -4  -4    1.52    0.13 
  -5  -4  -4    1.62    0.14 
   5  -4   4    0.29    1.16 
  -5  -4  -4    1.63    0.13 
  -6  -4  -4    0.97    0.10 
  -6  -4  -4    1.18    0.11 
   6  -4   4   -0.17    1.05 
  -6  -4  -4    1.08    0.09 
  -7  -4  -4    0.49    0.06 
   7  -4   4    0.12    1.26 
  -7  -4  -4    0.59    0.07 
  -8  -4  -4    0.10    0.03 
   8  -4   4   -0.12    0.89 
   8   4   4    0.13    0.05 
  -6  -5   4   -0.16    0.75 
  -5  -5   4    0.42    0.06 
  -5  -5   4    0.06    1.04 
  -5  -5   4    0.31    0.05 
  -5  -5   4    0.42    0.05 
  -4  -5   4    0.10    0.04 
  -4  -5   4    0.10    0.06 
  -4  -5   4   -0.10    0.95 
  -4  -5   4    0.07    0.05 
  -3  -5   4    1.14    0.09 
   3  -5  -4    1.35    0.13 
  -3  -5   4    1.38    0.11 
  -3  -5   4    0.20    1.18 
  -3  -5   4    1.25    0.11 
  -2  -5   4   -0.35    1.01 
   2  -5  -4    0.47    0.09 
  -2  -5   4    0.42    0.08 
   1  -5  -4    3.20    0.19 
  -1  -5   4    3.40    0.19 
  -1  -5   4    3.55    2.41 
  -1  -5   4    3.41    0.14 
   1  -5  -4    3.22    0.20 
   0  -5   4   -0.16    1.21 
   0  -5  -4    1.09    0.11 
   0  -5   4    0.99    0.09 
   0  -5  -4    1.09    0.12 
   0  -5   4    0.80    0.07 
   1  -5   4   -0.33    1.14 
  -1  -5  -4    0.86    0.10 
   1  -5   4    0.73    0.07 
  -1  -5  -4    1.05    0.11 
  -1  -5  -4    0.97    0.11 
  -2  -5  -4    0.11    0.07 
  -2  -5  -4    0.29    0.08 
   2  -5   4   -0.31    1.05 
  -2  -5  -4    0.23    0.06 
  -3  -5  -4    5.27    0.25 
  -3  -5  -4    5.28    0.23 
  -3  -5  -4    5.27    0.23 
   4  -5   4   -0.16    0.92 
  -4  -5  -4    0.00    0.06 
  -4  -5  -4    0.09    0.05 
  -4  -5  -4    0.06    0.05 
  -4  -5  -4    0.09    0.06 
  -5  -5  -4    0.16    0.06 
  -5  -5  -4    0.13    0.05 
  -5  -5  -4    0.22    0.07 
   5  -5   4    0.21    1.04 
  -5  -5  -4    0.12    0.05 
  -6  -5  -4    0.07    0.05 
  -6  -5  -4    0.02    0.03 
   6  -5   4   -0.08    1.01 
  -6  -5  -4   -0.01    0.03 
  -6  -5  -4    0.03    0.05 
  -4  -6   4    0.03    0.03 
  -3  -6   4    0.22    0.03 
  -3  -6   4    0.34    1.01 
  -3  -6   4    0.27    0.05 
  -2  -6   4    0.25    1.01 
  -2  -6   4    0.15    0.05 
  -2  -6   4    0.19    0.04 
  -1  -6   4   -0.04    0.91 
   1  -6  -4    1.22    0.10 
  -1  -6   4    1.34    0.07 
  -1  -6   4    1.28    0.10 
   0  -6   4    1.11    0.07 
   0  -6  -4    1.24    0.10 
   0  -6  -4    1.13    0.10 
   0  -6   4   -0.02    1.10 
   1  -6   4   -0.05    1.10 
  -1  -6  -4    1.25    0.10 
  -1  -6  -4    1.21    0.11 
  -2  -6  -4    0.51    0.07 
  -2  -6  -4    0.54    0.06 
   2  -6   4   -0.03    1.00 
  -2  -6  -4    0.59    0.07 
  -3  -6  -4    1.32    0.10 
  -3  -6  -4    1.28    0.10 
  -3  -6  -4    1.20    0.09 
   3  -6   4    0.16    0.82 
  -4  -6  -4    0.10    0.04 
  -4  -6  -4    0.12    0.05 
  -4  -6  -4    0.08    0.03 
  10   0  -5    0.06    0.04 
   9   0  -5    1.85    0.14 
  -8   0   5    3.91    0.17 
   8   0  -5    3.87    0.21 
   7   0  -5    1.35    0.23 
   7   0  -5    1.66    0.15 
  -7   0   5    1.53    0.12 
   6   0  -5    4.68    0.39 
   6   0  -5    4.73    0.23 
   6   0  -5    4.48    0.21 
  -5   0   5   23.38    0.85 
   5   0  -5   24.63    1.04 
   4   0  -5   41.20    1.57 
  -4   0   5   39.74    1.32 
   4   0  -5   37.66    2.21 
   4   0  -5   38.91    1.28 
   3   0  -5    0.93    0.08 
   3   0  -5    1.00    0.12 
  -3   0   5    1.01    0.09 
   3   0  -5    0.83    0.15 
  -2   0   5    0.89    0.09 
   2   0  -5    1.10    0.08 
   2   0  -5    0.85    0.14 
   1   0  -5    6.16    0.31 
   1   0  -5    6.55    0.26 
   1   0  -5    6.58    0.45 
  -1   0   5    6.54    0.26 
   0   0  -5    0.30    0.09 
   0   0   5    0.28    0.04 
   1   0   5   33.28    1.09 
  -1   0  -5   32.94    1.87 
  -1   0  -5   33.92    1.10 
  -2   0  -5  134.85    4.28 
  -2   0  -5  130.63    7.20 
   2   0   5  139.01    4.27 
   3   0   5    5.03    0.21 
  -3   0  -5    5.03    0.22 
  -4   0  -5   14.15    0.51 
   4   0   5   13.39    0.48 
  -5   0  -5    3.00    0.19 
   5   0   5    2.88    0.14 
  -6   0  -5    1.66    0.12 
   7   0   5    1.29    0.24 
  -7   0  -5    1.26    0.10 
   8   0   5   -0.04    0.16 
  -8   0  -5   -0.01    0.04 
   9  -1  -5    0.28    0.07 
  -9   1   5    0.27    0.05 
   9   1  -5    0.14    0.12 
   9   1  -5    0.22    0.07 
  -8  -1   5    5.11    0.18 
   8  -1  -5    4.92    0.24 
   8   1  -5    4.94    0.37 
   8   1  -5    4.99    0.23 
   7  -1  -5    4.37    0.23 
  -7  -1   5    4.36    0.18 
   7   1  -5    4.22    0.20 
   7   1  -5    4.29    0.22 
  -6  -1   5    1.70    0.12 
   6  -1  -5    1.88    0.16 
   6   1  -5    1.68    0.13 
   6   1  -5    1.83    0.15 
  -5  -1   5    4.17    0.17 
   5  -1  -5    3.67    0.28 
   5   1  -5    3.76    0.28 
   4  -1  -5   15.24    0.68 
  -4  -1   5   14.76    0.53 
   4   1  -5   12.79    0.93 
   4   1  -5   15.63    0.67 
   4   1  -5   15.10    0.55 
   3  -1  -5   28.93    1.62 
  -3  -1   5   27.21    0.93 
   3  -1  -5   27.81    1.13 
   3   1  -5   25.75    1.61 
   3   1  -5   28.28    0.95 
   2  -1  -5   28.14    1.15 
   2  -1  -5   28.55    1.66 
  -2  -1   5   28.33    0.95 
   2   1  -5   28.81    1.66 
   2   1  -5   29.44    0.97 
  -1  -1   5   37.90    1.23 
   1  -1  -5   36.33    2.12 
   1  -1  -5   37.51    1.46 
   1   1  -5   38.79    2.12 
   0  -1  -5   23.74    0.97 
   0  -1   5   24.15    0.80 
   0  -1  -5   23.32    1.42 
   0   1   5   25.08    0.81 
   0   1  -5   23.79    0.82 
   0   1  -5   25.31    1.39 
  -1  -1  -5    3.38    0.20 
   1  -1   5    2.98    0.13 
  -1  -1  -5    2.93    0.29 
  -1  -1  -5    2.84    0.12 
   1   1   5    3.40    0.15 
  -1   1  -5    3.13    0.26 
  -1   1  -5    3.07    0.15 
  -2  -1  -5   11.86    0.78 
   2  -1   5   11.98    0.40 
   2   1   5   12.29    0.43 
  -2   1  -5   11.91    0.44 
  -3  -1  -5   24.78    0.82 
  -3  -1  -5   23.82    1.47 
   3   1   5   24.96    0.84 
  -3   1  -5   26.27    0.86 
  -4  -1  -5    4.63    0.24 
  -4  -1  -5    4.62    0.19 
   4   1   5    4.43    0.21 
  -5  -1  -5    0.84    0.12 
   6  -1   5    1.76    0.23 
  -6  -1  -5    1.77    0.13 
   6  -1   5    3.30    2.40 
  -6   1  -5    1.64    0.11 
   7  -1   5    0.37    1.66 
  -7  -1  -5    0.26    0.06 
  -7   1  -5    0.25    0.06 
  -8  -1  -5    1.04    0.09 
  -8   1  -5    0.65    1.44 
  -8   1  -5    0.97    0.08 
  -9  -1  -5    0.17    0.04 
   9   1   5    0.20    0.14 
  -9   1  -5   -0.29    0.93 
   9  -2  -5    0.38    0.07 
   9   2  -5    0.27    0.13 
   9   2  -5    0.31    0.06 
  -8  -2   5   -0.06    1.01 
   8  -2  -5    0.92    0.11 
   8   2  -5    0.66    0.09 
   8   2  -5    0.64    0.07 
   7  -2  -5    4.00    0.21 
   7   2  -5    3.70    0.18 
   7   2  -5    3.92    0.20 
   6  -2  -5   10.52    0.38 
   6   2  -5   10.48    0.35 
   5  -2  -5    9.46    0.35 
  -5  -2   5    9.43    0.27 
   5   2  -5    9.79    0.34 
  -4  -2   5    2.93    0.11 
   4  -2  -5    2.77    0.23 
   4   2  -5    2.76    0.19 
   3  -2  -5   18.32    0.78 
   3   2  -5   16.22    1.12 
   2  -2  -5    0.03    0.09 
  -2  -2   5    0.05    0.04 
   2  -2  -5    0.00    0.05 
   2   2  -5   -0.01    0.09 
  -1  -2   5    6.63    0.29 
   1  -2  -5    6.24    0.52 
   1  -2  -5    6.81    0.36 
   1   2  -5    6.80    0.52 
   0  -2  -5    5.22    0.46 
   0  -2   5    5.56    0.25 
   0  -2  -5    5.52    0.31 
   0   2  -5    5.88    0.44 
  -1  -2  -5    4.67    0.28 
  -1  -2  -5    4.51    0.41 
  -2  -2  -5   19.25    1.24 
   2   2   5   20.38    0.83 
  -3  -2  -5   25.26    1.56 
   3   2   5   25.77    1.04 
   5  -2   5    9.45    3.33 
  -6  -2  -5    6.33    0.24 
   6  -2   5   14.16    4.50 
  -6   2  -5    6.35    0.21 
  -7  -2  -5    3.24    0.17 
   7  -2   5    8.01    3.44 
  -7   2  -5    3.10    0.15 
   8  -2   5    0.92    1.57 
  -8  -2  -5    1.21    0.10 
  -8   2  -5    1.13    1.50 
  -9  -2  -5    0.06    0.04 
  -9   2  -5    0.03    0.86 
  -8  -3   5   -0.04    0.84 
   8  -3  -5    0.08    0.06 
   8   3  -5    0.08    0.04 
   7  -3  -5    1.78    0.15 
  -7  -3   5    0.03    1.12 
   7   3  -5    1.53    0.12 
  -6  -3   5    0.23    1.29 
   6  -3  -5    2.64    0.18 
   6   3  -5    2.60    0.16 
  -5  -3   5   12.89    0.40 
   5  -3  -5   13.42    0.44 
   5   3  -5   13.20    0.42 
  -4  -3   5    7.97    0.29 
   4  -3  -5    8.21    0.32 
  -4  -3   5    8.40    0.28 
  -2  -3   5    0.24    0.07 
   2  -3  -5    0.23    0.09 
  -1  -3   5    0.36    0.08 
   1  -3  -5    0.05    0.06 
   0  -3   5    8.71    0.38 
   0  -3  -5    8.94    0.47 
   1  -3   5    3.66    0.21 
  -1  -3  -5    3.90    0.27 
   1   3   5    4.01    0.27 
   2   3   5    7.31    0.40 
   3  -3   5    3.07    2.08 
  -4  -3  -5    7.31    0.26 
  -4  -3  -5    7.15    0.28 
  -4  -3  -5    8.01    0.32 
   4  -3   5    3.73    2.24 
  -5  -3  -5    6.81    0.30 
  -5  -3  -5    6.04    0.24 
   5  -3   5    2.54    1.77 
  -5  -3  -5    6.50    0.25 
  -6  -3  -5    3.96    0.20 
  -6  -3  -5    3.92    0.18 
   6  -3   5    5.11    2.75 
  -6  -3  -5    4.36    0.23 
  -6   3  -5    4.49    0.16 
   7  -3   5    6.71    3.02 
  -7  -3  -5    6.53    0.22 
  -8  -3  -5    0.20    0.05 
   8  -3   5    0.26    1.12 
  -7  -4   5   -0.06    0.78 
   7  -4  -5    0.88    0.08 
   7   4  -5    0.69    0.07 
   6  -4  -5    1.45    0.12 
  -6  -4   5   -0.19    0.83 
   6   4  -5    1.32    0.11 
  -5  -4   5   -0.18    1.01 
  -5  -4   5    1.83    0.14 
  -5  -4   5    1.98    0.13 
   5  -4  -5    2.10    0.16 
   5   4  -5    2.40    0.15 
   4  -4  -5    7.35    0.30 
  -4  -4   5    7.30    0.26 
  -4  -4   5    7.11    0.27 
  -4  -4   5    7.27    0.22 
  -3  -4   5    0.02    0.05 
  -3  -4   5    0.01    0.04 
   3  -4  -5    0.00    0.06 
  -3  -4   5   -0.09    1.19 
  -3  -4   5    0.02    0.05 
   2  -4  -5    0.48    0.09 
  -2  -4   5    0.52    1.37 
  -2  -4   5    0.36    0.06 
  -2  -4   5    0.40    0.07 
   2  -4  -5    0.48    0.10 
   1  -4  -5    6.83    0.28 
   1  -4  -5    7.17    0.30 
  -1  -4   5    7.12    0.22 
  -1  -4   5    7.40    0.27 
   0  -4   5    3.56    0.18 
   0  -4  -5    3.32    0.20 
   0  -4   5    3.52    0.14 
   0  -4  -5    3.19    0.21 
   1  -4   5    6.52    0.20 
  -1  -4  -5    5.85    0.31 
   1  -4   5    6.94    0.25 
  -1  -4  -5    6.82    0.28 
  -1  -4  -5    6.55    0.29 
  -2  -4  -5    2.29    0.17 
  -2  -4  -5    2.16    0.17 
  -2  -4  -5    2.35    0.17 
   2  -4   5    0.06    1.27 
  -3  -4  -5    3.02    0.19 
  -3  -4  -5    3.82    0.20 
   3  -4   5    0.85    1.67 
  -3  -4  -5    3.79    0.24 
  -4  -4  -5    8.08    0.30 
  -4  -4  -5    8.22    0.30 
  -4  -4  -5    8.40    0.34 
  -4  -4  -5    7.52    0.26 
  -5  -4  -5    4.29    0.23 
  -5  -4  -5    4.06    0.19 
  -5  -4  -5    3.76    0.17 
  -6  -4  -5    1.41    0.11 
  -6  -4  -5    1.56    0.14 
  -6  -4  -5    1.44    0.11 
   6  -4   5    0.00    1.14 
   7  -4   5    0.12    1.01 
  -7  -4  -5   -0.05    0.04 
  -7  -4  -5    0.05    0.04 
  -6  -5   5    0.06    0.67 
   6   5  -5    0.05    0.03 
   5  -5  -5    0.48    0.07 
  -5  -5   5    0.34    0.05 
  -5  -5   5   -0.06    0.82 
   5   5  -5    0.33    0.05 
  -4  -5   5    0.36    0.06 
  -4  -5   5    0.38    0.05 
   4  -5  -5    0.54    0.08 
  -4  -5   5    0.14    1.04 
   4   5  -5    0.44    0.07 
  -3  -5   5    0.27    1.11 
  -3  -5   5    0.43    0.05 
  -3  -5   5    0.45    0.07 
   3  -5  -5    0.51    0.09 
  -2  -5   5    1.75    0.10 
   2  -5  -5    1.69    0.14 
  -2  -5   5    0.09    1.11 
  -2  -5   5    2.01    0.15 
   2  -5  -5    1.68    0.14 
  -1  -5   5    1.14    0.10 
  -1  -5   5   -0.14    0.96 
   1  -5  -5    1.43    0.13 
  -1  -5   5    1.37    0.09 
   1  -5  -5    1.30    0.12 
   0  -5   5    1.23    0.10 
   0  -5   5   -0.74    0.99 
   0  -5  -5    1.47    0.13 
   0  -5   5    1.40    0.09 
   0  -5  -5    1.32    0.13 
   1  -5   5   -0.14    1.09 
  -1  -5  -5    0.96    0.11 
  -1  -5  -5    0.99    0.11 
   2  -5   5   -0.08    1.08 
  -2  -5  -5    0.08    0.05 
  -2  -5  -5    0.08    0.07 
  -2  -5  -5    0.05    0.06 
   3  -5   5    0.18    1.16 
  -3  -5  -5    0.43    0.08 
  -3  -5  -5    0.39    0.08 
  -3  -5  -5    0.32    0.07 
  -4  -5  -5    0.14    0.06 
  -4  -5  -5    0.09    0.06 
   4  -5   5   -0.03    0.87 
  -4  -5  -5    0.10    0.05 
   5  -5   5    0.08    0.91 
  -5  -5  -5    0.09    0.04 
  -5  -5  -5    0.09    0.05 
  -5  -5  -5    0.10    0.05 
  -6  -5  -5    0.00    0.04 
  -3  -6   5   -0.03    0.72 
   2  -6  -5    0.08    0.05 
  -2  -6   5    0.07    0.04 
  -2  -6   5    0.02    0.02 
  -2  -6   5    0.08    0.78 
   1  -6  -5    0.62    0.07 
  -1  -6   5    0.56    0.06 
  -1  -6   5    0.16    0.90 
   1  -6  -5    0.52    0.06 
   0  -6   5   -0.13    0.82 
   0  -6  -5    0.12    0.06 
   0  -6   5    0.24    0.04 
   0  -6  -5    0.17    0.05 
   1  -6   5    0.32    1.00 
  -1  -6  -5    2.48    0.12 
  -1  -6  -5    2.62    0.13 
  -2  -6  -5    0.18    0.04 
  -2  -6  -5    0.32    0.06 
   2  -6   5    0.15    0.81 
  -3  -6  -5    0.31    0.05 
  -3  -6  -5    0.28    0.04 
   9   0  -6   -0.05    0.05 
   8   0  -6   -0.01    0.06 
  -8   0   6    0.04    0.04 
   7   0  -6    3.21    0.31 
   7   0  -6    2.97    0.17 
   7   0  -6    2.82    0.19 
  -7   0   6    2.97    0.16 
   6   0  -6    1.09    0.23 
  -6   0   6    1.01    0.10 
   6   0  -6    1.27    0.14 
   6   0  -6    1.19    0.11 
   5   0  -6    3.17    0.18 
  -5   0   6    2.95    0.16 
   4   0  -6    0.55    0.12 
  -4   0   6    0.50    0.08 
  -3   0   6    0.86    0.09 
   3   0  -6    0.79    0.13 
   3   0  -6    0.82    0.18 
   3   0  -6    0.87    0.08 
   2   0  -6   10.18    0.71 
  -2   0   6   11.26    0.42 
   2   0  -6   10.61    0.39 
   1   0  -6    1.10    0.16 
   1   0  -6    1.14    0.09 
  -1   0   6    1.05    0.10 
   0   0   6   35.06    1.13 
   0   0  -6   33.07    1.94 
  -1   0  -6    1.01    0.16 
   1   0   6    1.00    0.08 
   2   0   6    6.74    0.27 
  -2   0  -6    6.79    0.28 
  -3   0  -6    2.62    0.15 
   3   0   6    2.73    0.14 
  -5   0  -6    1.90    0.12 
  -5   0  -6    1.94    0.16 
  -6   0  -6    0.06    0.05 
   7   0   6   -0.08    0.18 
  -7   0  -6    0.13    0.05 
  -8   0  -6    0.15    0.05 
   8   0   6    0.15    0.15 
  -9   0  -6    0.03    0.04 
   9  -1  -6    0.03    0.05 
   9   1  -6    0.03    0.05 
   8  -1  -6    0.04    0.07 
   8   1  -6    0.05    0.15 
  -8   1   6    0.07    0.05 
   8   1  -6    0.02    0.05 
   8   1  -6    0.07    0.07 
  -7  -1   6    1.72    0.11 
   7  -1  -6    2.08    0.17 
   7   1  -6    1.55    0.13 
   7   1  -6    1.67    0.15 
  -6  -1   6    4.38    0.18 
   6  -1  -6    4.11    0.21 
   6  -1  -6    3.99    0.22 
   6   1  -6    4.14    0.20 
   6   1  -6    3.69    0.22 
   5  -1  -6    1.60    0.15 
   5  -1  -6    1.94    0.15 
  -5  -1   6    1.35    0.11 
   5  -1  -6    1.44    0.20 
   5   1  -6    1.55    0.13 
   4  -1  -6    0.19    0.09 
  -4  -1   6    0.16    0.05 
   3  -1  -6   13.55    0.64 
   3  -1  -6   13.76    0.91 
  -3  -1   6   13.93    0.39 
  -3  -1   6   13.16    0.49 
   3   1  -6   14.23    0.52 
   2  -1  -6   10.85    0.53 
   2  -1  -6   11.17    0.76 
  -2  -1   6   10.79    0.40 
   2   1  -6   10.85    0.74 
   2   1  -6   11.55    0.43 
   1  -1  -6    0.36    0.08 
   1  -1  -6    0.48    0.14 
  -1  -1   6    0.45    0.06 
   1   1  -6    0.51    0.13 
   0  -1   6   32.17    1.05 
   0  -1  -6   30.83    1.86 
   0   1  -6   32.24    1.83 
   0   1   6   32.84    1.07 
  -1  -1  -6   13.75    0.93 
   1  -1   6   14.64    0.48 
  -1   1  -6   14.14    0.89 
  -1   1  -6   14.28    0.52 
   1   1   6   14.55    0.52 
  -2  -1  -6    6.44    0.52 
  -2   1  -6    6.86    0.29 
   2   1   6    6.93    0.28 
  -3   1  -6    0.22    0.06 
  -4   1  -6    3.81    0.15 
  -5  -1  -6    1.87    0.13 
  -5   1  -6    2.00    0.12 
   6  -1   6    0.56    0.19 
  -6  -1  -6    0.47    0.07 
  -6   1  -6    0.41    0.06 
  -7  -1  -6    1.15    0.10 
  -7   1  -6    1.35    0.10 
  -8  -1  -6    0.20    0.05 
   8   1   6    0.21    0.16 
  -9  -1  -6    0.18    0.04 
   9   1   6    0.19    0.11 
   9  -2  -6    0.25    0.05 
   8  -2  -6    0.46    0.08 
   8   2  -6    0.30    0.05 
   7  -2  -6    0.60    0.10 
   7   2  -6    0.35    0.07 
   6  -2  -6    2.07    0.17 
   6   2  -6    2.01    0.15 
   5  -2  -6    2.71    0.19 
   5  -2  -6    2.89    0.19 
   5   2  -6    2.71    0.18 
   4  -2  -6   10.83    0.39 
   4  -2  -6   11.41    0.40 
   4   2  -6   11.91    0.38 
   3  -2  -6    4.06    0.29 
   2  -2  -6    6.43    0.38 
   1  -2  -6   19.82    1.31 
   1  -2  -6   20.72    0.90 
   1   2  -6   21.33    1.28 
   0  -2  -6    9.64    0.48 
   0  -2  -6    8.40    0.69 
   0   2  -6    9.77    0.65 
  -1  -2  -6    3.11    0.23 
  -4  -2  -6    2.54    0.15 
  -4  -2  -6    2.79    0.21 
   4  -2   6    5.73    2.56 
   5  -2   6    7.92    3.20 
  -5  -2  -6    1.98    0.14 
  -5  -2  -6    1.90    0.16 
  -5   2  -6    2.07    0.13 
  -6  -2  -6    2.81    0.16 
   6  -2   6    6.98    3.09 
  -6   2  -6    2.79    0.14 
   7  -2   6    0.57    1.54 
  -8  -2  -6    5.34    0.18 
  -8   2  -6    3.44    1.88 
   8  -3  -6    0.25    0.06 
   8   3  -6    0.30    0.05 
   7  -3  -6    0.43    0.08 
  -7  -3   6   -0.17    0.92 
   6  -3  -6    0.10    0.07 
  -6  -3   6   -0.02    1.11 
   6   3  -6    0.06    0.05 
   5  -3  -6    1.91    0.16 
  -5  -3   6    0.21    1.29 
   5   3  -6    1.92    0.14 
  -4  -3   6   11.39    0.37 
   4  -3  -6   11.81    0.41 
   4  -3  -6   11.93    0.42 
   4   3  -6   12.73    0.39 
   3  -3  -6   22.45    0.66 
  -3  -3   6   22.62    0.64 
   3  -3  -6   21.88    0.67 
   3   3  -6   22.58    0.63 
   2  -3  -6    1.64    0.15 
  -2  -3   6   -0.35    1.13 
   2  -3  -6    1.77    0.15 
  -2  -3   6    1.93    0.15 
  -1  -3   6   11.54    0.30 
  -1  -3   6   10.93    0.46 
   0  -3   6   -0.54    0.99 
   1  -3   6    0.08    1.34 
  -2  -3  -6    1.92    0.17 
  -2  -3  -6    2.04    0.16 
   2  -3   6    0.08    1.23 
  -2  -3  -6    1.66    0.15 
  -3  -3  -6    5.92    0.25 
  -3  -3  -6    5.92    0.26 
   3  -3   6    2.85    2.04 
  -3  -3  -6    6.00    0.29 
   4  -3   6    1.30    1.45 
  -4  -3  -6    2.64    0.21 
  -4  -3  -6    2.64    0.16 
   5  -3   6    2.08    1.86 
  -5  -3  -6    1.05    0.12 
  -5  -3  -6    1.06    0.10 
  -6  -3  -6    2.56    0.14 
   6  -3   6    4.90    2.69 
  -6  -3  -6    2.76    0.19 
  -6   3  -6    2.85    0.13 
  -7  -3  -6    4.25    0.16 
   7  -3   6    4.48    2.24 
  -8  -3  -6    0.18    0.04 
   7  -4  -6    0.51    0.06 
   7   4  -6    0.41    0.05 
  -6  -4   6   -0.08    0.78 
   6  -4  -6    0.05    0.05 
   6   4  -6   -0.02    0.04 
  -5  -4   6    0.06    1.04 
   5  -4  -6    0.43    0.08 
   5   4  -6    0.32    0.06 
   4  -4  -6    1.03    0.11 
  -4  -4   6    0.84    0.09 
  -4  -4   6   -0.21    1.02 
   4   4  -6    0.96    0.09 
   3  -4  -6    4.83    0.23 
  -3  -4   6    4.66    0.20 
  -3  -4   6    4.28    0.16 
   3  -4  -6    4.33    0.23 
   2  -4  -6    6.04    0.26 
  -2  -4   6    6.03    0.24 
  -2  -4   6    5.81    0.19 
   2  -4  -6    5.36    0.27 
  -1  -4   6    0.14    1.24 
  -1  -4   6    2.34    0.16 
   1  -4  -6    2.21    0.16 
  -1  -4   6    2.11    0.11 
   1  -4  -6    1.98    0.17 
   0  -4   6    1.42    0.09 
   0  -4  -6    1.76    0.16 
   0  -4   6   -0.17    1.20 
   0  -4  -6    1.12    0.12 
   0  -4   6    1.01    0.09 
  -1  -4  -6    2.88    0.19 
   1  -4   6    3.11    0.17 
  -1  -4  -6    2.67    0.23 
   1  -4   6    0.33    1.48 
  -1  -4  -6    3.25    0.19 
  -2  -4  -6    2.49    0.22 
   2  -4   6    0.39    1.35 
  -2  -4  -6    2.81    0.18 
  -2  -4  -6    2.87    0.19 
  -3  -4  -6    1.40    0.13 
  -3  -4  -6    1.49    0.13 
   3  -4   6   -0.05    1.17 
  -3  -4  -6    1.38    0.14 
  -4  -4  -6    0.20    0.07 
  -4  -4  -6    0.29    0.06 
   4  -4   6   -0.04    0.96 
  -4  -4  -6    0.16    0.08 
  -5  -4  -6    0.15    0.05 
  -5  -4  -6    0.09    0.06 
   5  -4   6   -0.17    0.87 
  -5  -4  -6    0.14    0.07 
  -5   4  -6    0.06    0.04 
  -6  -4  -6    0.72    0.06 
  -6  -4  -6    0.56    0.07 
  -6  -4  -6    0.84    0.09 
   6  -4   6    0.54    1.22 
   5  -5  -6    0.55    0.06 
  -5  -5   6    0.02    0.72 
   5   5  -6    0.38    0.05 
  -4  -5   6    0.22    0.91 
  -4  -5   6    0.02    0.04 
   4  -5  -6    0.06    0.05 
  -3  -5   6    0.45    0.06 
   3  -5  -6    0.54    0.08 
  -3  -5   6   -0.13    0.95 
  -3  -5   6    0.40    0.04 
   2  -5  -6    0.50    0.08 
  -2  -5   6    0.50    0.07 
  -2  -5   6   -0.18    0.89 
  -2  -5   6    0.47    0.05 
   2  -5  -6    0.56    0.08 
  -1  -5   6    0.22    0.04 
  -1  -5   6   -0.12    1.05 
   1  -5  -6    0.22    0.07 
   1  -5  -6    0.41    0.08 
  -1  -5   6    0.24    0.06 
   0  -5   6   -0.11    1.01 
   0  -5  -6    0.15    0.06 
   0  -5   6    0.08    0.05 
   0  -5  -6    0.22    0.07 
  -1  -5  -6    1.52    0.13 
  -1  -5  -6    1.73    0.14 
   1  -5   6    1.62    0.11 
   1  -5   6    0.17    1.12 
  -2  -5  -6    0.46    0.09 
   2  -5   6   -0.02    0.96 
  -2  -5  -6    0.62    0.08 
  -3  -5  -6    0.17    0.06 
  -3  -5  -6    0.11    0.06 
   3  -5   6   -0.13    0.82 
  -3  -5  -6    0.10    0.05 
   4  -5   6   -0.05    0.68 
  -4  -5  -6    0.01    0.03 
  -4  -5  -6    0.03    0.05 
  -4  -5  -6    0.04    0.04 
  -5  -5  -6    0.08    0.04 
  -5  -5  -6   -0.01    0.04 
   5  -5   6    0.05    0.78 
   1  -6  -6    0.05    0.04 
   0  -6  -6    0.41    0.05 
   0  -6  -6    0.24    0.04 
  -1  -6  -6    0.60    0.06 
  -1  -6  -6    0.69    0.06 
  -8   0   7    0.62    0.06 
   8   0  -7    0.76    0.09 
  -7   0   7    0.01    0.04 
   7   0  -7   -0.05    0.05 
   7   0  -7    0.01    0.07 
   6   0  -7    3.35    0.20 
   6   0  -7    3.43    0.32 
   6   0  -7    3.29    0.18 
  -6   0   7    3.00    0.16 
   5   0  -7    0.04    0.19 
   5   0  -7   -0.02    0.06 
  -5   0   7    0.02    0.05 
   4   0  -7    0.05    0.06 
  -4   0   7    0.03    0.05 
  -3   0   7    0.39    0.07 
  -2   0   7    4.67    0.23 
   2   0  -7    4.68    0.20 
  -2   0   7    4.41    0.19 
  -1   0   7   26.66    0.71 
   1   0  -7   26.00    0.89 
  -1   0   7   27.06    0.92 
   0   0   7    0.46    0.07 
   0   0  -7    0.41    0.13 
   0   0  -7    0.55    0.07 
   1   0   7    0.59    0.07 
   1   0   7    0.57    0.07 
  -1   0  -7    0.54    0.15 
   2   0   7    3.58    0.18 
   2   0   7    3.72    0.17 
  -3   0  -7    0.91    0.08 
   3   0   7    0.96    0.09 
  -4   0  -7   12.49    0.34 
  -4   0  -7   12.62    0.42 
  -5   0  -7    0.13    0.05 
  -6   0  -7    4.50    0.18 
   6   0   7    4.32    0.45 
  -7   0  -7    0.53    0.07 
   7   0   7    0.45    0.16 
  -8   0  -7   -0.01    0.04 
   8  -1  -7    0.36    0.07 
  -8   1   7    0.21    0.05 
   8   1  -7    0.21    0.06 
   8   1  -7    0.19    0.05 
   7  -1  -7    1.16    0.12 
  -7  -1   7    0.97    0.08 
   7  -1  -7    0.91    0.10 
  -7   1   7    0.88    0.09 
   7   1  -7    0.84    0.18 
   7   1  -7    1.02    0.11 
   7   1  -7    0.97    0.10 
   6  -1  -7    0.98    0.11 
  -6  -1   7    1.17    0.10 
   6  -1  -7    1.06    0.13 
   6   1  -7    0.91    0.10 
  -5  -1   7    5.84    0.22 
   5  -1  -7    5.51    0.27 
   5  -1  -7    5.43    0.25 
   5   1  -7    5.84    0.25 
  -4  -1   7    7.60    0.26 
   4  -1  -7    6.90    0.37 
   4  -1  -7    6.90    0.29 
   4  -1  -7    7.00    0.29 
   4   1  -7    7.67    0.28 
  -3  -1   7    1.31    0.11 
  -2  -1   7   21.48    0.77 
  -2  -1   7   24.31    0.62 
  -1  -1   7    1.17    0.09 
  -1   1   7    1.02    0.12 
   1   1  -7    1.26    0.12 
   0  -1   7   17.45    0.48 
   0   1   7   17.69    0.64 
   1  -1   7   16.81    0.46 
   1   1   7   16.59    0.61 
  -3   1  -7    0.45    0.06 
   3   1   7    0.51    0.08 
  -4  -1  -7    0.12    0.07 
  -4  -1  -7    0.10    0.05 
  -4   1  -7    0.10    0.04 
  -5  -1  -7    5.73    0.21 
  -5  -1  -7    5.87    0.27 
  -5   1  -7    6.22    0.21 
  -6  -1  -7    0.29    0.06 
  -6   1  -7    0.33    0.06 
  -7  -1  -7    1.10    0.09 
  -7   1  -7    0.96    0.08 
  -8  -1  -7    0.10    0.04 
   8   1   7    0.09    0.12 
  -8   1  -7    0.04    0.04 
   8  -2  -7    0.25    0.06 
   8   2  -7    0.25    0.04 
   7  -2  -7    0.01    0.06 
   7   2  -7    0.00    0.04 
   6  -2  -7    0.23    0.08 
   6  -2  -7    0.25    0.07 
   6   2  -7    0.15    0.06 
   5  -2  -7    2.58    0.19 
   5  -2  -7    2.37    0.17 
   5   2  -7    2.59    0.16 
   4  -2  -7    4.54    0.23 
   4  -2  -7    4.66    0.23 
   4   2  -7    4.73    0.22 
   3  -2  -7   13.19    0.44 
   3  -2  -7   12.64    0.42 
  -3  -2   7   12.47    0.40 
   3   2  -7   12.85    0.41 
   2  -2  -7    9.49    0.35 
  -3  -2  -7    2.38    0.20 
  -3   2  -7    2.06    0.16 
  -4  -2  -7    0.15    0.08 
  -4  -2  -7    0.30    0.06 
  -5  -2  -7    0.21    0.06 
  -5  -2  -7    0.18    0.08 
  -5   2  -7    0.06    0.04 
  -6  -2  -7    0.98    0.09 
  -6  -2  -7    1.03    0.11 
  -6   2  -7    1.04    0.08 
  -7  -2  -7    0.10    0.04 
  -7   2  -7    0.05    0.04 
  -8  -2  -7    1.62    0.08 
   7  -3  -7    0.09    0.05 
   7   3  -7    0.08    0.04 
   6  -3  -7    0.61    0.09 
   6   3  -7    0.57    0.07 
   5  -3  -7    0.23    0.07 
   5  -3  -7    0.15    0.07 
   5   3  -7    0.11    0.05 
   4  -3  -7    3.28    0.20 
   4  -3  -7    3.14    0.19 
   4   3  -7    3.35    0.17 
   3  -3  -7    0.56    0.10 
  -3  -3   7    0.43    0.07 
   3  -3  -7    0.51    0.09 
   3   3  -7    0.56    0.08 
   2  -3  -7   10.57    0.38 
  -2  -3   7    9.95    0.33 
   2  -3  -7    9.62    0.35 
   1  -3  -7   11.99    0.42 
  -1  -3   7   12.76    0.39 
   1  -3  -7   11.12    0.40 
   0  -3  -7    1.45    0.13 
   0  -3  -7    1.47    0.14 
   0  -3   7    1.26    0.10 
  -1  -3  -7    1.83    0.16 
   1  -3   7   -0.25    1.26 
   1  -3   7    1.59    0.14 
  -1  -3  -7    1.64    0.14 
  -1  -3  -7    1.42    0.14 
  -2  -3  -7    0.98    0.12 
  -2  -3  -7    1.11    0.13 
   2  -3   7    0.05    1.35 
  -2  -3  -7    0.96    0.11 
   2  -3   7    0.93    0.09 
  -3  -3  -7    2.02    0.16 
   3  -3   7    1.02    1.44 
  -4  -3  -7    1.50    0.14 
   4  -3   7    0.83    1.24 
  -5  -3  -7   -0.02    0.04 
  -5  -3  -7    0.08    0.07 
   5  -3   7    0.00    1.11 
  -5   3  -7    0.03    0.04 
  -6  -3  -7    0.27    0.07 
   6  -3   7    0.62    1.35 
  -6  -3  -7    0.28    0.05 
  -6   3  -7    0.30    0.05 
  -7  -3  -7    0.95    0.07 
   6  -4  -7    0.91    0.08 
   6   4  -7    0.73    0.06 
   5  -4  -7    0.25    0.06 
  -5  -4   7    0.01    0.92 
   5   4  -7    0.19    0.05 
   4  -4  -7    0.16    0.06 
  -4  -4   7    0.08    0.05 
  -4  -4   7    0.04    0.98 
   4  -4  -7    0.13    0.05 
   4   4  -7    0.17    0.05 
   3  -4  -7    0.13    0.07 
  -3  -4   7    0.49    1.21 
   3  -4  -7    0.16    0.06 
  -3  -4   7    0.08    0.05 
   2  -4  -7    7.01    0.27 
   2  -4  -7    7.14    0.29 
  -2  -4   7    7.10    0.26 
   1  -4  -7    3.63    0.21 
  -1  -4   7    3.87    0.18 
   1  -4  -7    3.50    0.19 
   0  -4  -7    5.00    0.24 
   0  -4  -7    4.80    0.23 
   0  -4   7    4.91    0.21 
   1  -4   7   -0.38    1.13 
  -1  -4  -7    0.51    0.10 
  -1  -4  -7    0.48    0.08 
  -1  -4  -7    0.48    0.09 
   1  -4   7    0.51    0.07 
  -2  -4  -7    0.92    0.10 
  -2  -4  -7    0.80    0.11 
   2  -4   7    0.83    0.08 
   2  -4   7   -0.11    1.06 
  -2  -4  -7    0.87    0.10 
  -3  -4  -7    0.93    0.10 
  -3  -4  -7    1.09    0.10 
   3  -4   7    0.21    1.05 
  -3  -4  -7    1.25    0.13 
   4  -4   7   -0.19    0.72 
  -4  -4  -7    0.35    0.08 
  -5  -4  -7    0.07    0.06 
   5  -4   7   -0.06    0.92 
  -5   4  -7    0.06    0.03 
  -6  -4  -7    0.28    0.05 
   4  -5  -7    0.01    0.04 
   3  -5  -7    0.22    0.06 
   3  -5  -7    0.14    0.04 
  -3  -5   7    0.12    0.85 
  -3  -5   7    0.19    0.04 
   2  -5  -7    0.30    0.05 
   2  -5  -7    0.39    0.07 
  -2  -5   7    0.35    0.05 
  -2  -5   7   -0.03    0.85 
   1  -5  -7    4.29    0.19 
   1  -5  -7    3.99    0.18 
  -1  -5   7    4.15    0.16 
   0  -5   7   -0.19    0.90 
   0  -5   7    0.22    0.05 
   0  -5  -7    0.32    0.06 
   0  -5  -7    0.23    0.06 
  -1  -5  -7    0.08    0.05 
   1  -5   7   -0.17    0.92 
   1  -5   7    0.10    0.04 
  -1  -5  -7    0.10    0.05 
  -2  -5  -7    0.10    0.04 
  -2  -5  -7    0.14    0.05 
  -2  -5  -7    0.12    0.06 
   2  -5   7   -0.26    0.72 
  -3  -5  -7    0.54    0.06 
  -3  -5  -7    0.65    0.07 
  -3  -5  -7    0.62    0.06 
   3  -5   7    0.05    0.67 
  -4  -5  -7    0.08    0.04 
   7   0  -8    0.06    0.06 
  -7   0   8   -0.02    0.04 
   7   0  -8   -0.05    0.04 
  -6   0   8    0.03    0.05 
   6   0  -8   -0.01    0.05 
   5   0  -8    9.60    0.46 
  -5   0   8    8.55    0.30 
   5   0  -8    9.12    0.33 
   4   0  -8    2.02    0.16 
   4   0  -8    2.09    0.25 
  -4   0   8    2.27    0.14 
  -3   0   8    0.51    0.08 
   3   0  -8    0.65    0.10 
   2   0  -8   22.48    0.65 
  -2   0   8   22.28    0.62 
  -1   0   8    8.61    0.30 
   1   0   8    0.10    0.05 
   2   0   8    0.25    0.06 
  -2   0  -8    0.27    0.07 
  -3   0  -8    2.27    0.12 
  -3   0  -8    1.99    0.17 
  -4   0  -8    0.92    0.11 
  -4   0  -8    1.03    0.09 
  -5   0  -8    0.27    0.08 
  -5   0  -8    0.24    0.05 
  -6   0  -8    0.97    0.08 
   6   0   8    0.90    0.18 
   7   0   8    0.45    0.12 
  -7   0  -8    0.26    0.05 
   7  -1  -8    0.18    0.06 
   7  -1  -8    0.16    0.05 
   7   1  -8    0.10    0.11 
  -7   1   8    0.18    0.05 
   7   1  -8    0.19    0.05 
   6  -1  -8    1.41    0.13 
   6  -1  -8    1.20    0.11 
   6   1  -8    1.30    0.11 
   6   1  -8    1.06    0.18 
  -6   1   8    1.06    0.09 
   5  -1  -8    1.12    0.13 
   5  -1  -8    0.83    0.12 
  -5  -1   8    0.82    0.07 
   5   1  -8    0.97    0.11 
   4  -1  -8    5.60    0.26 
  -4  -1   8    5.78    0.21 
   4   1  -8    5.81    0.25 
   3  -1  -8    8.30    0.33 
  -3  -1   8    8.77    0.28 
   3  -1  -8    8.21    0.43 
   3   1  -8    8.72    0.32 
  -2  -1   8   11.12    0.34 
   2  -1  -8   11.08    0.39 
   2  -1  -8   10.86    0.52 
   2   1  -8   11.75    0.38 
   2   1  -8   10.87    0.37 
   1  -1  -8   15.32    0.61 
   1  -1  -8   14.00    0.47 
  -1  -1   8   15.27    0.42 
   1   1  -8   14.52    0.46 
   0  -1  -8    4.62    0.34 
   0  -1   8    4.31    0.17 
   0   1  -8    4.49    0.21 
  -1  -1  -8    2.39    0.18 
   1  -1   8    2.79    0.13 
  -1  -1  -8    3.07    0.29 
  -1   1  -8    2.96    0.17 
  -2  -1  -8    0.13    0.15 
  -2  -1  -8    0.19    0.07 
  -2   1  -8    0.07    0.05 
   2   1   8    0.10    0.07 
  -2   1  -8    0.13    0.06 
  -3  -1  -8    1.58    0.20 
  -3  -1  -8    1.98    0.18 
  -3   1  -8    2.16    0.12 
  -3   1  -8    1.91    0.16 
   3   1   8    2.28    0.15 
  -4  -1  -8    0.57    0.10 
  -4  -1  -8    0.52    0.07 
  -4   1  -8    0.49    0.08 
  -4   1  -8    0.54    0.07 
  -5  -1  -8    0.12    0.05 
  -5  -1  -8    0.10    0.07 
  -5   1  -8    0.06    0.04 
  -6  -1  -8    0.05    0.04 
  -6   1  -8    0.06    0.04 
  -7  -1  -8    0.31    0.05 
  -7   1  -8    0.41    0.05 
   7   1   8    0.44    0.14 
   7  -2  -8    0.58    0.07 
   7   2  -8    0.50    0.06 
   6  -2  -8    1.39    0.12 
   6  -2  -8    1.23    0.11 
   5  -2  -8    0.61    0.09 
   5  -2  -8    0.53    0.09 
   5   2  -8    0.75    0.09 
   4  -2  -8    0.99    0.11 
   4  -2  -8    0.85    0.11 
   4   2  -8    0.68    0.09 
   3  -2  -8    0.99    0.11 
   3  -2  -8    1.02    0.12 
  -3  -2   8    0.83    0.09 
   3   2  -8    1.05    0.10 
  -2  -2   8    4.81    0.21 
   2  -2  -8    4.31    0.23 
   1  -2  -8    5.10    0.24 
  -1  -2   8    4.80    0.22 
   0  -2  -8    3.21    0.24 
   0  -2  -8    3.46    0.20 
   0  -2   8    3.28    0.19 
  -1  -2  -8    2.47    0.21 
  -1  -2  -8    2.53    0.18 
  -1   2  -8    2.86    0.17 
  -2  -2  -8    5.27    0.27 
  -2   2  -8    5.52    0.24 
  -3  -2  -8    4.91    0.26 
  -3   2  -8    5.01    0.22 
  -4  -2  -8    1.60    0.14 
  -4   2  -8    1.74    0.11 
  -5  -2  -8    0.31    0.06 
  -5  -2  -8    0.36    0.08 
  -5   2  -8    0.46    0.06 
  -6  -2  -8    0.16    0.07 
  -6  -2  -8    0.24    0.05 
  -6   2  -8    0.20    0.05 
  -7  -2  -8    0.04    0.03 
  -7   2  -8    0.05    0.03 
   6  -3  -8    0.30    0.06 
   6   3  -8    0.17    0.04 
   5  -3  -8    0.75    0.09 
   5  -3  -8    0.53    0.07 
   5   3  -8    0.67    0.07 
   4  -3  -8    0.40    0.07 
   4  -3  -8    0.39    0.08 
   4   3  -8    0.41    0.06 
   3  -3  -8    0.81    0.10 
   3  -3  -8    0.67    0.10 
  -3  -3   8    0.64    0.08 
   2  -3  -8    1.84    0.15 
  -2  -3   8    1.57    0.13 
   2  -3  -8    1.74    0.15 
  -1  -3   8    3.12    0.17 
   1  -3  -8    2.96    0.18 
   1  -3  -8    2.99    0.19 
   0  -3  -8    0.24    0.08 
   0  -3  -8    0.36    0.08 
   0  -3   8    0.33    0.07 
   1  -3   8    2.69    0.16 
  -1  -3  -8    2.51    0.21 
  -1  -3  -8    2.82    0.18 
  -2  -3  -8    0.23    0.08 
  -2  -3  -8    0.49    0.09 
  -2   3  -8    0.38    0.07 
  -3  -3  -8    3.32    0.21 
  -4  -3  -8    0.35    0.08 
  -4   3  -8    0.28    0.05 
  -5  -3  -8    2.35    0.16 
  -5   3  -8    2.46    0.11 
  -6  -3  -8    0.09    0.05 
  -6   3  -8    0.11    0.03 
   5  -4  -8    0.58    0.06 
   4  -4  -8    0.48    0.07 
  -4  -4   8    0.47    0.05 
   4  -4  -8    0.31    0.05 
  -3  -4   8    0.04    0.04 
   3  -4  -8    0.03    0.04 
   3  -4  -8    0.01    0.05 
   2  -4  -8    0.55    0.08 
  -2  -4   8    0.44    0.06 
   2  -4  -8    0.54    0.08 
   1  -4  -8    0.75    0.09 
  -1  -4   8    0.49    0.07 
   1  -4  -8    0.52    0.08 
   0  -4   8    3.59    0.16 
   0  -4  -8    3.47    0.18 
   0  -4  -8    3.67    0.18 
  -1  -4  -8    3.20    0.16 
  -1  -4  -8    3.23    0.17 
  -2  -4  -8    2.04    0.13 
   2  -4   8    0.23    1.08 
  -2  -4  -8    1.96    0.15 
  -2  -4  -8    2.09    0.13 
  -2   4  -8    2.26    0.13 
  -3  -4  -8    0.10    0.04 
  -3  -4  -8    0.21    0.07 
   3  -4   8   -0.30    0.70 
  -4  -4  -8    0.71    0.08 
   4  -4   8    0.13    0.90 
  -4   4  -8    0.82    0.06 
  -5  -4  -8    0.03    0.04 
  -2  -5   8    0.04    0.03 
   2  -5  -8   -0.02    0.03 
   2  -5  -8    0.00    0.04 
   1  -5  -8    0.15    0.05 
   1  -5  -8    0.08    0.04 
  -1  -5   8    0.13    0.04 
   0  -5  -8    1.39    0.09 
   0  -5  -8    1.19    0.08 
   0   5  -8    1.40    0.08 
  -1  -5  -8    1.04    0.07 
  -1  -5  -8    1.07    0.08 
  -2  -5  -8    0.49    0.05 
   7   0  -9    0.05    0.04 
   6   0  -9    0.09    0.05 
  -6   0   9    0.10    0.04 
   5   0  -9    2.05    0.22 
   5   0  -9    2.20    0.15 
  -5   0   9    1.93    0.12 
   4   0  -9    1.59    0.14 
  -4   0   9    1.43    0.11 
   4   0  -9    1.61    0.20 
  -3   0   9    4.59    0.20 
   3   0  -9    4.97    0.23 
   3   0  -9    5.19    0.37 
   2   0  -9    0.80    0.10 
   2   0  -9    0.21    0.19 
  -2   0   9    0.61    0.08 
   1   0  -9    4.27    0.22 
  -1   0   9    4.26    0.20 
   0   0   9   27.52    0.74 
   0   0  -9   26.91    0.78 
  -1   0  -9    7.76    0.31 
   1   0   9    8.05    0.28 
   2   0   9    0.27    0.06 
  -2   0  -9    0.26    0.08 
  -3   0  -9    1.01    0.11 
  -4   0  -9    0.22    0.05 
  -4   0  -9    0.19    0.07 
  -5   0  -9    0.15    0.07 
  -5   0  -9    0.16    0.05 
   6   0   9    0.13    0.11 
  -6   0  -9    0.15    0.04 
   7   1  -9    0.24    0.04 
   6  -1  -9    0.29    0.06 
  -6   1   9    0.31    0.05 
   6   1  -9    0.28    0.12 
   6   1  -9    0.27    0.06 
   5  -1  -9    0.50    0.08 
   5   1  -9    0.43    0.15 
  -5   1   9    0.36    0.06 
   5   1  -9    0.44    0.07 
   4  -1  -9    1.02    0.11 
  -4   1   9    0.86    0.09 
   4   1  -9    0.93    0.10 
   3  -1  -9    3.90    0.21 
  -3  -1   9    3.81    0.15 
  -3   1   9    3.37    0.18 
   3   1  -9    3.74    0.18 
   2  -1  -9    2.52    0.21 
  -2  -1   9    2.33    0.12 
   2  -1  -9    2.46    0.17 
   2   1  -9    2.57    0.17 
  -1  -1   9   10.97    0.31 
   1  -1  -9   10.44    0.46 
   1  -1  -9   10.84    0.38 
  -1   1   9   10.65    0.36 
   1   1  -9   10.60    0.37 
   0  -1  -9    4.09    0.24 
   0  -1  -9    4.54    0.29 
   0   1   9    4.27    0.20 
   0   1  -9    4.01    0.22 
  -1  -1  -9   10.38    0.38 
  -1  -1  -9   10.65    0.46 
   1   1   9   10.43    0.35 
  -1   1  -9   10.67    0.37 
  -2  -1  -9    1.44    0.18 
  -2  -1  -9    1.54    0.14 
  -2   1  -9    1.63    0.13 
   2   1   9    1.60    0.13 
  -3  -1  -9    1.38    0.17 
  -3  -1  -9    1.54    0.14 
  -3   1  -9    1.73    0.16 
  -3   1  -9    1.70    0.11 
  -4  -1  -9    0.03    0.07 
  -4   1  -9    0.09    0.07 
  -4   1  -9    0.00    0.04 
  -5  -1  -9   -0.01    0.04 
  -5  -1  -9    0.00    0.06 
  -5   1  -9   -0.01    0.03 
  -6  -1  -9    0.09    0.04 
  -6   1  -9    0.06    0.03 
   6  -2  -9    0.21    0.05 
   6  -2  -9    0.32    0.06 
   6   2  -9    0.26    0.05 
   5  -2  -9    1.33    0.11 
   5  -2  -9    1.45    0.11 
   5   2  -9    1.48    0.10 
   4  -2  -9    0.76    0.09 
   4  -2  -9    0.73    0.10 
   4   2  -9    0.59    0.08 
   3  -2  -9    1.39    0.13 
   3   2  -9    1.29    0.11 
   2  -2  -9    1.58    0.14 
   2   2  -9    1.14    0.10 
   1  -2  -9    4.71    0.23 
   1   2  -9    4.75    0.22 
   0  -2  -9   11.40    0.40 
   0  -2  -9   11.44    0.41 
   0   2  -9   12.64    0.39 
  -1  -2  -9    6.52    0.29 
  -1   2  -9    6.71    0.27 
  -2  -2  -9    0.92    0.12 
  -2   2  -9    1.05    0.08 
  -2   2  -9    1.16    0.11 
  -3  -2  -9    1.08    0.12 
  -3   2  -9    0.93    0.08 
  -3   2  -9    1.05    0.10 
  -4  -2  -9    0.43    0.08 
  -4   2  -9    0.56    0.06 
  -5  -2  -9    1.14    0.10 
  -5   2  -9    1.00    0.08 
  -6   2  -9    0.20    0.03 
   5  -3  -9    0.20    0.05 
   5  -3  -9    0.22    0.05 
   5   3  -9    0.18    0.04 
   4  -3  -9    0.45    0.07 
   4  -3  -9    0.41    0.07 
   4   3  -9    0.43    0.06 
   3  -3  -9    1.24    0.11 
   3  -3  -9    1.17    0.11 
   3   3  -9    0.96    0.08 
   2  -3  -9    1.40    0.12 
   2  -3  -9    1.17    0.11 
   2   3  -9    1.04    0.09 
   1  -3  -9    0.30    0.07 
   1   3  -9    0.21    0.06 
   0  -3  -9    0.94    0.10 
   0   3  -9    0.93    0.09 
  -1  -3  -9    0.29    0.06 
  -1  -3  -9    0.36    0.08 
  -1   3  -9    0.27    0.06 
  -2  -3  -9    0.74    0.10 
  -2   3  -9    0.66    0.08 
  -3  -3  -9    0.22    0.07 
  -3   3  -9    0.11    0.04 
  -3   3  -9    0.20    0.06 
  -4  -3  -9    1.73    0.13 
  -4   3  -9    1.92    0.09 
  -5  -3  -9    0.56    0.07 
  -5   3  -9    0.49    0.05 
   3  -4  -9    0.35    0.05 
   3  -4  -9    0.33    0.05 
   3   4  -9    0.24    0.04 
   2  -4  -9    1.08    0.09 
   2  -4  -9    1.14    0.09 
   2   4  -9    0.99    0.08 
   1  -4  -9    0.08    0.05 
   1  -4  -9    0.11    0.04 
   1   4  -9    0.07    0.04 
   0  -4  -9    0.72    0.08 
   0  -4  -9    0.76    0.07 
   0   4  -9    0.84    0.07 
  -1  -4  -9    0.95    0.08 
  -1   4  -9    1.06    0.09 
  -2  -4  -9    0.76    0.08 
  -2  -4  -9    0.78    0.07 
  -2   4  -9    0.83    0.07 
  -3  -4  -9    0.20    0.05 
   6   0 -10    0.11    0.04 
   5   0 -10    0.08    0.04 
   4   0 -10    0.58    0.08 
  -4   0  10    0.47    0.06 
   3   0 -10    0.05    0.11 
   3   0 -10    0.14    0.06 
  -3   0  10    0.07    0.05 
   2   0 -10   -0.07    0.12 
   2   0 -10    0.01    0.05 
  -2   0  10   -0.01    0.05 
   1   0 -10    0.78    0.10 
   1   0 -10    0.65    0.15 
  -1   0  10    0.72    0.08 
   0   0  10    0.39    0.06 
   0   0 -10    0.47    0.14 
   0   0 -10    0.65    0.09 
  -1   0 -10    0.76    0.10 
  -1   0 -10    0.91    0.16 
  -2   0 -10    1.95    0.17 
  -3   0 -10    3.93    0.21 
  -4   0 -10    0.03    0.06 
  -5   0 -10    0.60    0.08 
  -5   0 -10    0.47    0.05 
   5   0  10    0.74    0.13 
   5  -1 -10    0.06    0.04 
   5   1 -10    0.01    0.04 
   5   1 -10    0.04    0.09 
   4  -1 -10    0.09    0.05 
   4   1 -10    0.20    0.05 
  -4   1  10    0.07    0.04 
   4   1 -10    0.09    0.12 
   3  -1 -10    0.32    0.07 
   3   1 -10    0.36    0.07 
  -3   1  10    0.39    0.06 
   2  -1 -10    0.06    0.05 
  -2   1  10    0.02    0.05 
   1  -1 -10    1.39    0.12 
  -1   1  10    1.27    0.11 
   1   1 -10    1.55    0.14 
   0  -1 -10    0.22    0.08 
   0   1  10    0.08    0.06 
   0   1 -10    0.24    0.07 
  -1  -1 -10    2.59    0.17 
  -1   1 -10    2.50    0.17 
   1   1  10    2.16    0.13 
  -2  -1 -10    4.96    0.24 
  -2  -1 -10    5.32    0.29 
  -2   1 -10    5.41    0.23 
  -3  -1 -10    0.66    0.09 
  -3   1 -10    0.78    0.09 
  -4  -1 -10    0.46    0.08 
  -4   1 -10    0.51    0.05 
  -4   1 -10    0.50    0.08 
  -5  -1 -10    0.06    0.05 
  -5   1 -10    0.13    0.03 
   5  -2 -10    0.18    0.04 
   4  -2 -10    0.05    0.04 
   4   2 -10    0.04    0.04 
   3  -2 -10    0.02    0.04 
   2  -2 -10    0.34    0.07 
   2   2 -10    0.25    0.06 
   1  -2 -10    0.75    0.09 
   1   2 -10    0.51    0.07 
   0  -2 -10    0.93    0.10 
   0   2 -10    0.85    0.09 
  -1  -2 -10    0.36    0.08 
  -1   2 -10    0.40    0.07 
   1   2  10    0.36    0.07 
  -2  -2 -10    0.41    0.08 
   2   2  10    0.38    0.06 
  -2   2 -10    0.43    0.07 
  -3  -2 -10    0.13    0.06 
  -3   2 -10    0.11    0.04 
  -3   2 -10    0.07    0.06 
  -4  -2 -10    0.17    0.06 
  -4   2 -10    0.25    0.04 
   3  -3 -10    1.21    0.09 
   2  -3 -10    0.64    0.07 
   2   3 -10    0.65    0.06 
   1  -3 -10    0.91    0.09 
   1   3 -10    0.94    0.08 
   0  -3 -10    0.21    0.05 
   0   3 -10    0.17    0.05 
  -1   3 -10    0.66    0.07 
  -2  -3 -10    0.20    0.06 
  -2   3 -10    0.28    0.04 
  -2   3 -10    0.30    0.06 
  -3  -3 -10    0.00    0.04 
   4   0 -11    0.42    0.05 
   3   0 -11    0.05    0.04 
   1   0 -11    0.79    0.11 
   0   0 -11    0.91    0.09 
   0   0 -11    0.66    0.12 
  -1   0 -11    0.49    0.08 
  -1   0 -11    0.36    0.11 
  -2   0 -11    4.43    0.24 
  -2   0 -11    4.01    0.18 
  -3   0 -11    1.91    0.12 
   4  -1 -11    0.31    0.05 
   3  -1 -11    0.05    0.04 
   3   1 -11    0.03    0.08 
   2  -1 -11    0.36    0.06 
  -2   1  11    0.30    0.05 
   2   1 -11    0.29    0.10 
  -1   1  11    0.13    0.04 
   1   1 -11    0.21    0.06 
   0  -1 -11    0.53    0.08 
   0   1 -11    0.51    0.07 
   0   1  11    0.39    0.05 
  -1  -1 -11    1.24    0.11 
  -1   1 -11    1.45    0.11 
  -2  -1 -11    0.57    0.08 
  -2   1 -11    0.45    0.07 
  -3  -1 -11    1.72    0.11 
  -3   1 -11    1.72    0.11 
   2  -2 -11    0.16    0.04 
   1  -2 -11    0.44    0.06 
   1   2 -11    0.36    0.06 
   0   2 -11    0.52    0.06 
  -1  -2 -11    0.11    0.05 
  -1   2 -11    0.05    0.04 
  -2  -2 -11    0.17    0.05 
  -2   2 -11    0.24    0.05 
   0   0   0    0.00    0.00 
;
_shelx_hkl_checksum              91102
#END Tags that were not found in dictionaries
loop_
_space_group_symop_operation_xyz
'x, y, z'
'-x, y+1/2, -z'
loop_
_atom_site_label
_atom_site_type_symbol
_atom_site_fract_x
_atom_site_fract_y
_atom_site_fract_z
_atom_site_U_iso_or_equiv
_atom_site_adp_type
_atom_site_occupancy
_atom_site_site_symmetry_order
_atom_site_calc_flag
_atom_site_refinement_flags_posn
_atom_site_refinement_flags_adp
F1 F 0.7287(4) 0.6924(8) 0.4344(3) 0.1119(12) Uani 1 1 d . .
F2 F 0.5975(3) 0.4132(7) 0.5056(2) 0.1016(11) Uani 1 1 d . .
F3 F 0.7949(3) 0.3456(8) 0.3961(2) 0.1070(11) Uani 1 1 d . .
N1 N 0.6981(3) 0.3655(5) 0.0713(3) 0.0555(7) Uani 1 1 d . .
N2 N 0.6871(4) 0.5581(5) 0.1608(3) 0.0644(8) Uani 1 1 d . .
H2 H 0.7282 0.6905 0.1513 0.077 Uiso 1 1 calc R U
O1 O 0.5981(3) 0.0050(5) 0.0444(3) 0.0775(8) Uani 1 1 d . .
C1 C 0.6111(4) 0.1870(7) 0.1050(4) 0.0593(9) Uani 1 1 d . .
C2 C 0.5322(5) 0.2506(8) 0.2346(4) 0.0745(11) Uani 1 1 d . .
H2A H 0.4264 0.2566 0.2196 0.089 Uiso 1 1 calc R U
H2B H 0.5535 0.1397 0.3059 0.089 Uiso 1 1 calc R U
C3 C 0.5919(4) 0.4854(7) 0.2719(3) 0.0630(9) Uani 1 1 d . .
H3 H 0.5097 0.5941 0.2802 0.076 Uiso 1 1 calc R U
C4 C 0.6802(5) 0.4838(9) 0.4021(4) 0.0753(12) Uani 1 1 d . .
C5 C 0.7877(4) 0.3925(6) -0.0461(3) 0.0538(7) Uani 1 1 d . .
C6 C 0.8702(4) 0.5930(7) -0.0605(4) 0.0619(9) Uani 1 1 d . .
H6 H 0.8683 0.7060 0.0064 0.074 Uiso 1 1 calc R U
C7 C 0.9549(4) 0.6229(9) -0.1751(4) 0.0744(11) Uani 1 1 d . .
H7 H 1.0097 0.7571 -0.1851 0.089 Uiso 1 1 calc R U
C8 C 0.9593(5) 0.4567(10) -0.2746(4) 0.0814(13) Uani 1 1 d . .
H8 H 1.0161 0.4786 -0.3517 0.098 Uiso 1 1 calc R U
C9 C 0.8792(6) 0.2587(10) -0.2589(4) 0.0808(12) Uani 1 1 d . .
H9 H 0.8821 0.1458 -0.3259 0.097 Uiso 1 1 calc R U
C10 C 0.7945(5) 0.2245(8) -0.1453(4) 0.0709(10) Uani 1 1 d . .
H10 H 0.7418 0.0882 -0.1353 0.085 Uiso 1 1 calc R U
loop_
_atom_site_aniso_label
_atom_site_aniso_U_11
_atom_site_aniso_U_22
_atom_site_aniso_U_33
_atom_site_aniso_U_23
_atom_site_aniso_U_13
_atom_site_aniso_U_12
F1 0.124(3) 0.124(3) 0.0880(16) -0.0321(19) 0.0081(15) -0.030(2)
F2 0.1143(18) 0.129(3) 0.0620(11) -0.0027(16) 0.0295(11) 0.000(2)
F3 0.0915(18) 0.154(3) 0.0756(14) 0.0082(18) -0.0016(11) 0.042(2)
N1 0.0636(18) 0.0441(15) 0.0587(13) 0.0038(12) -0.0023(10) -0.0020(12)
N2 0.090(2) 0.0456(17) 0.0579(14) -0.0007(13) 0.0038(12) -0.0129(15)
O1 0.091(2) 0.0463(15) 0.0956(18) -0.0030(15) 0.0055(14) -0.0121(14)
C1 0.067(2) 0.0441(19) 0.0665(17) 0.0088(15) -0.0060(14) -0.0067(14)
C2 0.088(3) 0.064(3) 0.071(2) 0.014(2) 0.0071(18) -0.017(2)
C3 0.068(2) 0.058(2) 0.0634(17) 0.0005(17) 0.0041(14) 0.0034(18)
C4 0.084(3) 0.082(3) 0.0604(18) -0.008(2) 0.0145(17) 0.006(2)
C5 0.0545(18) 0.0522(19) 0.0545(14) 0.0050(15) -0.0085(11) 0.0009(15)
C6 0.063(2) 0.057(2) 0.0660(17) 0.0015(16) -0.0033(14) -0.0066(18)
C7 0.072(2) 0.078(3) 0.073(2) 0.005(2) 0.0032(17) -0.011(2)
C8 0.085(3) 0.094(3) 0.0659(19) 0.008(2) 0.0106(17) -0.002(3)
C9 0.097(3) 0.082(3) 0.0636(19) -0.008(2) 0.0048(18) -0.005(3)
C10 0.082(3) 0.060(2) 0.0706(19) -0.0029(18) -0.0005(17) -0.012(2)
loop_
_atom_type_symbol
_atom_type_description
_atom_type_scat_dispersion_real
_atom_type_scat_dispersion_imag
_atom_type_scat_source
C C 0.0181 0.0091 'International Tables Vol C Tables 4.2.6.8 and 6.1.1.4'
H H 0.0000 0.0000 'International Tables Vol C Tables 4.2.6.8 and 6.1.1.4'
N N 0.0311 0.0180 'International Tables Vol C Tables 4.2.6.8 and 6.1.1.4'
O O 0.0492 0.0322 'International Tables Vol C Tables 4.2.6.8 and 6.1.1.4'
F F 0.0727 0.0534 'International Tables Vol C Tables 4.2.6.8 and 6.1.1.4'
loop_
_geom_angle_atom_site_label_1
_geom_angle_atom_site_label_2
_geom_angle_atom_site_label_3
_geom_angle
C1 N1 C5 128.6(3)
C1 N1 N2 114.0(3)
C5 N1 N2 117.2(3)
N1 N2 C3 106.3(3)
N1 N2 H2 126.9
C3 N2 H2 126.9
O1 C1 N1 127.0(3)
O1 C1 C2 125.4(4)
N1 C1 C2 107.6(3)
C3 C2 C1 104.7(3)
C3 C2 H2A 110.8
C1 C2 H2A 110.8
C3 C2 H2B 110.8
C1 C2 H2B 110.8
H2A C2 H2B 108.9
N2 C3 C4 109.0(3)
N2 C3 C2 107.0(3)
C4 C3 C2 112.8(3)
N2 C3 H3 109.3
C4 C3 H3 109.3
C2 C3 H3 109.3
F3 C4 F1 107.9(4)
F3 C4 F2 107.2(4)
F1 C4 F2 106.6(4)
F3 C4 C3 112.3(3)
F1 C4 C3 111.8(4)
F2 C4 C3 110.7(4)
C10 C5 C6 119.4(3)
C10 C5 N1 121.6(3)
C6 C5 N1 119.0(3)
C7 C6 C5 119.5(4)
C7 C6 H6 120.3
C5 C6 H6 120.3
C8 C7 C6 120.9(4)
C8 C7 H7 119.6
C6 C7 H7 119.6
C9 C8 C7 119.3(4)
C9 C8 H8 120.3
C7 C8 H8 120.3
C8 C9 C10 120.9(4)
C8 C9 H9 119.6
C10 C9 H9 119.6
C9 C10 C5 120.0(4)
C9 C10 H10 120.0
C5 C10 H10 120.0
loop_
_geom_bond_atom_site_label_1
_geom_bond_atom_site_label_2
_geom_bond_distance
F1 C4 1.326(7)
F2 C4 1.335(4)
F3 C4 1.315(5)
N1 C1 1.345(4)
N1 C5 1.427(4)
N1 N2 1.428(4)
N2 C3 1.461(4)
N2 H2 0.8600
O1 C1 1.218(5)
C1 C2 1.514(5)
C2 C3 1.511(6)
C2 H2A 0.9700
C2 H2B 0.9700
C3 C4 1.503(5)
C3 H3 0.9800
C5 C10 1.382(5)
C5 C6 1.392(5)
C6 C7 1.381(5)
C6 H6 0.9300
C7 C8 1.375(7)
C7 H7 0.9300
C8 C9 1.370(7)
C8 H8 0.9300
C9 C10 1.377(5)
C9 H9 0.9300
C10 H10 0.9300
loop_
_geom_hbond_atom_site_label_D
_geom_hbond_atom_site_label_H
_geom_hbond_atom_site_label_A
_geom_hbond_distance_DH
_geom_hbond_distance_HA
_geom_hbond_distance_DA
_geom_hbond_angle_DHA
_geom_hbond_site_symmetry_A
C10 H10 O1 0.93 2.26 2.887(5) 124.4 .
N2 H2 O1 0.86 2.41 2.945(4) 120.9 1_565
loop_
_geom_torsion_atom_site_label_1
_geom_torsion_atom_site_label_2
_geom_torsion_atom_site_label_3
_geom_torsion_atom_site_label_4
_geom_torsion
C1 N1 N2 C3 5.8(4)
C5 N1 N2 C3 -179.3(3)
C5 N1 C1 O1 4.5(6)
N2 N1 C1 O1 178.7(4)
C5 N1 C1 C2 -176.4(3)
N2 N1 C1 C2 -2.1(4)
O1 C1 C2 C3 176.9(4)
N1 C1 C2 C3 -2.3(4)
N1 N2 C3 C4 115.4(3)
N1 N2 C3 C2 -6.8(4)
C1 C2 C3 N2 5.6(4)
C1 C2 C3 C4 -114.2(4)
N2 C3 C4 F3 -58.8(5)
C2 C3 C4 F3 59.9(5)
N2 C3 C4 F1 62.7(4)
C2 C3 C4 F1 -178.6(4)
N2 C3 C4 F2 -178.6(4)
C2 C3 C4 F2 -60.0(5)
C1 N1 C5 C10 0.2(5)
N2 N1 C5 C10 -173.8(3)
C1 N1 C5 C6 -179.8(3)
N2 N1 C5 C6 6.2(4)
C10 C5 C6 C7 1.4(5)
N1 C5 C6 C7 -178.6(3)
C5 C6 C7 C8 -0.3(6)
C6 C7 C8 C9 -0.4(7)
C7 C8 C9 C10 0.1(7)
C8 C9 C10 C5 1.0(7)
C6 C5 C10 C9 -1.7(6)
N1 C5 C10 C9 178.3(4)
