#------------------------------------------------------------------------------
#$Date: 2016-02-18 17:37:37 +0200 (Thu, 18 Feb 2016) $
#$Revision: 176729 $
#$URL: svn://www.crystallography.net/cod/cif/1/51/83/1518377.cif $
#------------------------------------------------------------------------------
#
# This file is available in the Crystallography Open Database (COD),
# http://www.crystallography.net/
#
# All data on this site have been placed in the public domain by the
# contributors.
#
data_1518377
loop_
_publ_author_name
'Liou, Jing-Ru'
'Wu, Tung-Ying'
'Thang, Tran Dinh'
'Hwang, Tsong-Long'
'Wu, Chin-Chun'
'Cheng, Yuan-Bin'
'Chiang, Michael Y.'
'Lan, Yu-Hsuan'
'El-Shazly, Mohamed'
'Wu, Shwu-Li'
'Beerhues, Ludger'
'Yuan, Shyng-Shiou'
'Hou, Ming-Feng'
'Chen, Shu-Li'
'Chang, Fang-Rong'
'Wu, Yang-Chang'
_publ_section_title
;
 Bioactive 6S-Styryllactone Constituents of Polyalthia parviflora.
;
_journal_issue                   12
_journal_name_full               'Journal of natural products'
_journal_page_first              2626
_journal_page_last               2632
_journal_paper_doi               10.1021/np5004577
_journal_volume                  77
_journal_year                    2014
_chemical_absolute_configuration ad
_chemical_formula_moiety         'C13 H14 O4'
_chemical_formula_sum            'C13 H14 O4'
_chemical_formula_weight         234.24
_chemical_name_systematic
;
 ?
;
_space_group_crystal_system      monoclinic
_space_group_IT_number           4
_space_group_name_Hall           'P 2yb'
_space_group_name_H-M_alt        'P 1 21 1'
_symmetry_space_group_name_Hall  'P 2yb'
_symmetry_space_group_name_H-M   'P 1 21 1'
_atom_sites_solution_hydrogens   geom
_audit_creation_method           SHELXL-2013
_cell_angle_alpha                90
_cell_angle_beta                 95.747(3)
_cell_angle_gamma                90
_cell_formula_units_Z            2
_cell_length_a                   7.8491(4)
_cell_length_b                   6.2050(4)
_cell_length_c                   11.2346(6)
_cell_measurement_reflns_used    3505
_cell_measurement_temperature    100(2)
_cell_measurement_theta_max      66.5869
_cell_measurement_theta_min      3.9546
_cell_volume                     544.42(5)
_computing_cell_refinement       'SAINT V8.34A (Bruker AXS Inc., 2013)'
_computing_data_collection       'APEX2 (Bruker AXS, 2010)'
_computing_data_reduction        'SAINT V8.34A (Bruker AXS Inc., 2013)'
_computing_molecular_graphics    'SHELXTL (Sheldrick, 2008)'
_computing_publication_material  SHELXTL
_computing_structure_refinement  'SHELXL-2013 (Sheldrick, 2013)'
_diffrn_ambient_temperature      100(2)
_diffrn_detector_area_resol_mean 8.3333
_diffrn_measured_fraction_theta_full 0.965
_diffrn_measured_fraction_theta_max 0.991
_diffrn_measurement_device_type  'Bruker APEX-II CCD'
_diffrn_measurement_method       '\f and \w scans'
_diffrn_radiation_type           CuK\a
_diffrn_radiation_wavelength     1.54178
_diffrn_reflns_av_R_equivalents  0.0165
_diffrn_reflns_av_unetI/netI     0.0180
_diffrn_reflns_Laue_measured_fraction_full 0.965
_diffrn_reflns_Laue_measured_fraction_max 0.991
_diffrn_reflns_limit_h_max       9
_diffrn_reflns_limit_h_min       -9
_diffrn_reflns_limit_k_max       7
_diffrn_reflns_limit_k_min       -5
_diffrn_reflns_limit_l_max       13
_diffrn_reflns_limit_l_min       -13
_diffrn_reflns_number            3857
_diffrn_reflns_point_group_measured_fraction_full 0.677
_diffrn_reflns_point_group_measured_fraction_max 0.697
_diffrn_reflns_theta_full        67.679
_diffrn_reflns_theta_max         66.581
_diffrn_reflns_theta_min         3.954
_exptl_absorpt_coefficient_mu    0.879
_exptl_absorpt_correction_T_max  0.9492
_exptl_absorpt_correction_T_min  0.8241
_exptl_absorpt_correction_type   multi-scan
_exptl_absorpt_process_details   'SADABS V2012/1 (Bruker AXS Inc.)'
_exptl_crystal_colour            Colorless
_exptl_crystal_density_diffrn    1.429
_exptl_crystal_density_meas      ?
_exptl_crystal_density_method    'not measured'
_exptl_crystal_description       Columnar
_exptl_crystal_F_000             248
_exptl_crystal_size_max          0.30
_exptl_crystal_size_mid          0.12
_exptl_crystal_size_min          0.11
_refine_diff_density_max         0.175
_refine_diff_density_min         -0.164
_refine_diff_density_rms         0.035
_refine_ls_abs_structure_details
;
 Flack x determined using 288 quotients [(I+)-(I-)]/[(I+)+(I-)]
 (Parsons and Flack (2004), Acta Cryst. A60, s61).
;
_refine_ls_abs_structure_Flack   0.05(8)
_refine_ls_extinction_method     none
_refine_ls_goodness_of_fit_ref   1.101
_refine_ls_hydrogen_treatment    constr
_refine_ls_matrix_type           full
_refine_ls_number_parameters     155
_refine_ls_number_reflns         1337
_refine_ls_number_restraints     1
_refine_ls_restrained_S_all      1.101
_refine_ls_R_factor_all          0.0243
_refine_ls_R_factor_gt           0.0242
_refine_ls_shift/su_max          0.000
_refine_ls_shift/su_mean         0.000
_refine_ls_structure_factor_coef Fsqd
_refine_ls_weighting_details
'w=1/[\s^2^(Fo^2^)+(0.0353P)^2^+0.1223P] where P=(Fo^2^+2Fc^2^)/3'
_refine_ls_weighting_scheme      calc
_refine_ls_wR_factor_gt          0.0638
_refine_ls_wR_factor_ref         0.0639
_reflns_Friedel_coverage         0.275
_reflns_Friedel_fraction_full    0.324
_reflns_Friedel_fraction_max     0.334
_reflns_number_gt                1329
_reflns_number_total             1337
_reflns_threshold_expression     'I > 2\s(I)'
_cod_data_source_file            np5004577_si_004.cif
_cod_data_source_block           cu_140208lt_0m
_cod_depositor_comments
;
The following automatic conversions were performed:

'_exptl_crystal_density_meas' value 'not measured' was changed to '?'
- the value is perceived as not measured.

Automatic conversion script
Id: cif_fix_values 3008 2015-01-20 13:52:24Z robertas 

 Adding full bibliography for 1518375--1518377.cif.
;
_cod_database_code               1518377
#BEGIN Tags that were not found in dictionaries:
_shelx_space_group_comment
;
The symmetry employed for this shelxl refinement is uniquely defined
by the following loop, which should always be used as a source of
symmetry information in preference to the above space-group names.
They are only intended as comments.
;
_shelxl_version_number           2013-4
_shelx_res_file
;
TITL cu_140208lt_0m in P2(1)
CELL 1.54178   7.84910   6.20500  11.23460  90.0000  95.7467  90.0000
ZERR    2.00   0.00040   0.00040   0.00060   0.0000   0.0028   0.0000
LATT -1
SYMM -X, 0.5+Y, -Z
SFAC C  H  O
UNIT 26  28  8
L.S. 4
ACTA
BOND $H
FMAP 2
PLAN 5
TEMP -173.000
WGHT    0.035300    0.122300
FVAR       2.27318
MOLE 1
C1    1    0.189795    0.070264    0.408095    11.00000    0.01350    0.01580 =
         0.01966    0.00407    0.00429    0.00080
AFIX  13
H1    2    0.148498   -0.044019    0.461016    11.00000   -1.20000
AFIX   0
C3    1    0.459008    0.120778    0.319323    11.00000    0.01178    0.02309 =
         0.01305   -0.00040   -0.00323   -0.00052
C4    1    0.450992    0.358936    0.344132    11.00000    0.01601    0.01887 =
         0.02453    0.00223   -0.00210   -0.00431
AFIX  23
H4A   2    0.459241    0.436778    0.268002    11.00000   -1.20000
H4B   2    0.552943    0.398354    0.398894    11.00000   -1.20000
AFIX   0
C5    1    0.291918    0.440237    0.398596    11.00000    0.01745    0.01421 =
         0.02103   -0.00187   -0.00607   -0.00003
AFIX  13
H5    2    0.323939    0.572375    0.446674    11.00000   -1.20000
AFIX   0
C7    1    0.094319    0.317524    0.235443    11.00000    0.01387    0.01176 =
         0.01524   -0.00182    0.00222   -0.00143
AFIX  13
H7    2    0.186863    0.273810    0.185335    11.00000   -1.20000
AFIX   0
C8    1    0.046905    0.122669    0.309455    11.00000    0.01207    0.01520 =
         0.01912    0.00210    0.00156    0.00010
AFIX  13
H8    2    0.024104   -0.005278    0.256111    11.00000   -1.20000
AFIX   0
C9    1    0.236137    0.268109    0.482262    11.00000    0.01711    0.02149 =
         0.01544   -0.00073   -0.00003    0.00574
AFIX  23
H9A   2    0.330313    0.234999    0.544931    11.00000   -1.20000
H9B   2    0.136041    0.318510    0.521615    11.00000   -1.20000
AFIX   0
C10   1   -0.058695    0.392812    0.153859    11.00000    0.01386    0.01528 =
         0.01414    0.00293    0.00296   -0.00236
C11   1   -0.158283    0.565280    0.184486    11.00000    0.01737    0.01521 =
         0.01464   -0.00026    0.00229   -0.00079
AFIX  43
H11   2   -0.128906    0.640526    0.257296    11.00000   -1.20000
AFIX   0
C12   1   -0.301173    0.628440    0.108829    11.00000    0.01716    0.01747 =
         0.02091    0.00180    0.00235    0.00318
AFIX  43
H12   2   -0.368321    0.747369    0.129763    11.00000   -1.20000
AFIX   0
C13   1   -0.345377    0.517584    0.002895    11.00000    0.01664    0.02171 =
         0.01829    0.00326   -0.00208   -0.00119
AFIX  43
H13   2   -0.442942    0.560250   -0.048599    11.00000   -1.20000
AFIX   0
C14   1   -0.246745    0.344302   -0.027629    11.00000    0.01997    0.02216 =
         0.01640   -0.00273   -0.00042   -0.00505
AFIX  43
H14   2   -0.277190    0.268085   -0.099976    11.00000   -1.20000
AFIX   0
C15   1   -0.103914    0.282050    0.047119    11.00000    0.01920    0.01638 =
         0.01777   -0.00154    0.00417   -0.00113
AFIX  43
H15   2   -0.036584    0.163668    0.025662    11.00000   -1.20000
AFIX   0
O2    3    0.337850   -0.012512    0.352309    11.00000    0.01362    0.01432 =
         0.02442   -0.00053    0.00198    0.00136
O6    3    0.154561    0.494162    0.309834    11.00000    0.01787    0.01277 =
         0.01999   -0.00154   -0.00531    0.00022
O16   3    0.576598    0.040534    0.272968    11.00000    0.01497    0.03624 =
         0.02290   -0.00640    0.00275    0.00389
O17   3   -0.099013    0.166651    0.371085    11.00000    0.01173    0.02854 =
         0.02071    0.00661    0.00291   -0.00011
AFIX 147
H17   2   -0.188012    0.157265    0.323194    11.00000   -1.50000
AFIX   0
HKLF 4

REM  cu_140208lt_0m in P2(1)
REM R1 =  0.0242 for    1329 Fo > 4sig(Fo)  and  0.0243 for all    1337 data
REM    155 parameters refined using      1 restraints

END

WGHT      0.0353      0.1223

REM Highest difference peak  0.175,  deepest hole -0.164,  1-sigma level  0.035
Q1    1   0.1157  0.0934  0.3573  11.00000  0.05    0.18
Q2    1   0.0686  0.2277  0.2791  11.00000  0.05    0.16
Q3    1   0.2751  0.3508  0.4340  11.00000  0.05    0.12
Q4    1  -0.2485  0.3465  0.2217  11.00000  0.05    0.10
Q5    1  -0.2295  0.0709  0.1851  11.00000  0.05    0.10
;
_shelx_res_checksum              2790
_shelx_hkl_file
;
   1   0   0 1160.91 28.1328   8
   2   0   0 485.105 12.4635   8
   3   0   0 405.298 10.9264   8
   4   0   0 1444.53 33.6425   7
   5   0   0 1243.51 30.6973   7
  -5   0   0 1280.10 32.0737  12
  -6   0   0 85.4244 4.69780  12
   6   0   0 86.7969 5.11806   7
  -6   0   0 83.9204 4.50524  10
  -7   0   0 14.9024 2.45578  12
  -7   0   0 13.2538 2.13900  10
  -7   0   0 12.5409 1.65484   3
   7   0   0 13.7987 2.74611   7
   8   0   0 605.052 14.0996   3
  -8   0   0 600.735 13.8729   3
   9   0   0 164.383 4.76034   3
  -9   0   0 164.837 4.58349   3
   0   1   0 -3.4063 0.42080   8
  -1   1   0 2872.10 62.2102  13
   1   1   0 3015.78 71.2322   8
   2  -1   0 1040.92 25.8631   8
   2   1   0 1095.32 26.8982   8
   3   1   0 760.691 18.5243   7
   3   1   0 790.750 20.5264   8
  -4  -1   0 1970.69 47.7362  12
  -4   1   0 1955.01 48.2802  10
   4   1   0 2047.52 45.5029   7
  -4   1   0 2009.07 48.1045  12
   4   1   0 2005.47 50.2360   8
  -5   1   0 221.185 8.36522  10
   5   1   0 236.078 8.09479   7
  -5   1   0 227.810 8.21920  12
   6   1   0 975.794 25.7050   7
  -6   1   0 990.256 26.7172  12
  -7  -1   0 1508.49 31.2501   2
  -7  -1   0 1519.51 40.0690  10
  -7   1   0 1533.62 32.2615   3
  -7   1   0 1561.11 39.9632  12
   7   1   0 1554.74 32.5614   3
   7   1   0 1626.53 38.7222   7
   8   1   0 236.155 6.70704   3
  -8   1   0 234.328 6.47903   3
   9   1   0 165.300 4.60676   3
  -9   1   0 161.232 4.40984   3
   0   2   0 4318.18 118.481   9
   0   2   0 4388.24 105.079   8
   1   2   0 2453.83 59.5801   8
   1   2   0 2402.47 67.0045   9
   2   2   0 329.913 9.70540   8
   2   2   0 320.998 10.8526   9
   3   2   0 292.746 10.4508   9
   3   2   0 270.657 7.83259   7
   3   2   0 294.849 9.26075   8
   4   2   0 944.456 22.7945   7
   4   2   0 938.874 25.6877   8
  -4   2   0 904.207 24.0985  12
   4   2   0 975.031 29.3196   9
  -5   2   0 476.694 14.2360  12
   5   2   0 463.541 17.2505   9
   5   2   0 474.538 13.4786   7
  -6   2   0 2312.96 47.3221   3
   6   2   0 2396.11 54.8130   7
  -6   2   0 2369.12 57.9502  12
   6   2   0 2308.34 47.5824   3
  -7  -2   0 283.726 7.18850   2
   7   2   0 283.914 10.1174   7
  -7   2   0 295.628 7.55185   3
  -7   2   0 289.152 10.5068  12
  -7   2   0 280.785 9.45519   7
   7   2   0 292.495 7.83889   3
  -8  -2   0 575.395 12.6954   2
  -8   2   0 595.791 13.0648   3
   8   2   0 590.236 13.3052   3
   0   3   0 -0.2597 0.76310   6
  -1   3   0 525.897 16.4978   6
   1   3   0 523.005 16.7845   6
   1   3   0 524.983 14.7160   8
   2   3   0 267.507 8.95495   8
   2   3   0 269.824 10.2103   6
  -2   3   0 271.000 9.71034   6
   2   3   0 252.772 9.55202   9
  -3   3   0 265.982 9.48431   6
   3   3   0 244.188 9.01943   8
   3   3   0 245.124 10.0260   9
   4   3   0 436.478 16.1541   9
  -5   3   0 660.512 18.7871  12
  -6  -3   0 382.142 9.12731   2
  -6   3   0 376.813 8.97329   3
  -6   3   0 373.344 12.5046  12
   6   3   0 384.117 9.30369   3
  -7  -3   0 505.233 11.2337   2
   7   3   0 495.464 11.4368   3
  -7   3   0 489.273 11.0359   3
  -8  -3   0 1137.56 22.4688   2
   8   3   0 1074.28 22.4952   3
   0   4   0 1139.02 34.0737   6
  -1   4   0 127.055 5.80187  11
  -1   4   0 114.095 6.25830   6
   1   4   0 114.284 6.56689   6
   2   4   0 1163.93 35.3295   6
  -2   4   0 1155.70 34.3570   6
   3   4   0 679.750 22.9746   6
   3   4   0 669.823 16.1167  18
  -3   4   0 674.251 21.5689   6
   4   4   0 886.284 29.0244   6
  -4   4   0 888.698 16.7500   4
   4   4   0 882.555 16.9857   4
  -4   4   0 890.681 11.5063   1
   4   4   0 925.200 20.6196  18
   5   4   0 421.743 11.5775  18
  -5   4   0 423.043 5.98745   1
  -5   4   0 424.675 8.74420   4
   5   4   0 417.199 8.95484   4
   5   4   0 421.743 8.95151   4
  -6  -4   0 417.200 9.54666   2
  -6   4   0 406.893 8.50836   4
   6   4   0 401.877 8.67168   4
  -6   4   0 402.012 5.80675   1
  -7  -4   0 3.91576 0.74873   2
  -7   4   0 2.68798 0.60480   4
   0   5   0 -0.3968 0.50864  17
   0   5   0 8.58158 2.25659   6
   0   5   0 0.38345 0.82702  18
  -1   5   0 577.044 20.2977   6
   1   5   0 574.459 13.0280  17
   1   5   0 607.429 20.9464   6
   1   5   0 595.323 14.4263  18
  -1   5   0 573.075 13.7495  18
  -1   5   0 564.794 12.7319  17
   2   5   0 1909.15 33.9466   4
  -2   5   0 1909.45 33.7560   4
  -2   5   0 1901.43 37.8179  18
   2   5   0 1946.99 39.0695  18
  -2   5   0 1924.11 20.2757  16
  -2   5   0 1913.78 26.1515   5
   2   5   0 1877.25 38.3682  17
   2   5   0 1934.45 56.1371   6
  -2   5   0 1922.95 55.0128   6
  -3   5   0 929.187 29.3434   6
  -3   5   0 968.131 17.3774   4
   3   5   0 948.827 17.5744   4
   3   5   0 1006.40 21.8778  18
   3   5   0 927.322 30.8937   6
   3   5   0 944.540 20.2191  17
  -3   5   0 953.076 13.4838   5
   4   5   0 129.315 3.40457   4
   4   5   0 129.705 5.50071  18
   4   5   0 130.725 4.20828  17
  -4   5   0 130.888 3.20470   4
   5   5   0 357.923 10.1555  18
  -5   5   0 399.489 7.76259   4
   5   5   0 388.256 7.96391   4
  -6  -5   0 108.490 3.27338   2
   6   5   0 116.210 3.01215   4
  -6   5   0 116.022 2.81829   4
   0   6   0 414.417 9.49049  17
   0   6   0 382.926 15.4200   6
   0   6   0 402.069 10.6023  18
   1   6   0 99.5900 3.50814  17
  -1   6   0 94.0068 4.03205  18
   1   6   0 87.7785 6.26214   6
  -1   6   0 95.0347 1.21720  16
   1   6   0 100.277 4.48319  18
  -1   6   0 86.4393 6.00821   6
   1   6   0 92.4669 1.30536  16
   1   6   0 93.4586 1.59837   5
   2   6   0 48.5759 2.45289  17
  -2   6   0 52.1509 1.07184   5
   2   6   0 46.9578 3.23253  18
  -2   6   0 51.7819 0.84020  16
  -2   6   0 53.0983 1.04128   5
   3   6   0 103.904 3.52377  17
  -3   6   0 100.710 1.45253  16
  -3   6   0 101.924 1.83328   5
   3   6   0 104.066 4.61058  18
   4   6   0 234.671 7.09448  18
  -4   6   0 238.604 3.69091   5
   4   6   0 234.699 5.82022  17
  -5   6   0 592.012 8.39771   5
   0   7   0 0.17107 0.62779  18
   1   7   0 38.5312 2.25179  18
   2   7   0 921.726 9.72138  16
   2   7   0 912.677 9.72149  16
   9   0  -1 103.408 3.54876   3
  -9   0   1 106.293 3.41460   3
   8   0  -1 8.28779 1.45838   3
  -8   0   1 7.68036 1.29775   3
  -7   0   1 478.234 11.7724   3
   7   0  -1 496.606 15.6713   7
  -7   0   1 487.316 14.9721  12
  -7   0   1 497.483 15.2683  10
   7   0  -1 476.555 11.9074   3
  -6   0   1 44.5180 3.30950  12
  -6   0   1 40.4264 3.14731  10
   6   0  -1 36.2278 3.71500   7
  -5   0   1 93.5109 4.38116  10
  -5   0   1 93.4403 4.49685  12
   5   0  -1 97.4076 4.82910   7
  -4   0   1 6.94490 1.32960  12
   4   0  -1 7.84541 1.50820   7
   3   0  -1 246.217 7.10716   8
   2   0  -1 6.63749 0.75828   8
   1   0  -1 2518.37 68.7376   9
   0   0   1 2161.28 50.9245  14
   1   0   1 401.059 9.14873  13
   1   0   1 381.746 10.2945   8
   2   0   1 65.2090 2.47817   8
   3   0   1 2341.17 57.3790   8
  -4   0  -1 -0.7435 0.69692  12
   4   0   1 -1.2064 0.75323   7
  -5   0  -1 25.2356 2.82587  12
   5   0   1 24.6869 2.80717   7
  -6   0  -1 10.1249 2.02684  12
  -6   0  -1 2.00704 1.00204  10
   6   0   1 1.02599 1.41187   7
   7   0   1 892.527 24.4194   7
  -7   0  -1 882.571 24.2618  12
  -7   0  -1 854.783 19.3633   3
  -8   0  -1 455.785 10.9472   3
  -9   0  -1 408.876 9.22240   3
   9   0   1 400.551 9.38651   3
  -9   1   1 548.745 11.8992   3
   9   1  -1 533.559 12.0104   3
  -8   1   1 324.230 8.20942   3
   8   1  -1 316.386 8.36189   3
  -7  -1   1 167.692 4.86720   2
  -7  -1   1 180.721 7.61475  10
  -7   1   1 173.622 5.45758   3
  -7   1   1 172.508 7.56208  12
   7   1  -1 172.079 5.56559   3
   7   1  -1 180.627 7.93781   7
   6   1  -1 384.263 12.2477   7
  -6   1   1 366.038 12.0463  10
  -6   1   1 373.765 12.4046  12
   5  -1  -1 364.560 11.6988   7
  -5   1   1 395.566 11.9783  12
   5   1  -1 387.948 11.6083   7
   5   1  -1 368.309 14.0287   9
  -5   1   1 391.363 11.7461  10
   4  -1  -1 462.403 12.7602   7
  -4   1   1 470.710 13.1561  12
  -4   1   1 463.910 13.0662  10
   4   1  -1 466.233 12.5551   7
   4   1  -1 476.955 15.6847   9
   4   1  -1 458.914 13.5156   8
   3   1  -1 2047.70 47.5151   7
   3   1  -1 2190.93 53.0304   8
   3   1  -1 2178.23 60.1169   9
   2   1  -1 6611.51 159.555   8
   2   1  -1 6632.53 180.260   9
   1   1   1 327.802 7.56289  13
   1   1   1 332.177 8.89077   8
   2  -1   1 2706.01 65.8053   8
   2   1   1 2742.37 66.5633   8
   3   1   1 1318.04 30.8690   7
   3   1   1 1385.89 34.3527   8
  -4  -1  -1 456.947 12.9145  12
  -4   1  -1 496.991 13.3463  12
   4   1   1 445.206 13.5435   8
   4   1   1 478.193 12.7406   7
  -5  -1  -1 2115.55 52.0378  12
  -5   1  -1 2183.90 52.6571  12
   5   1   1 2151.02 49.8884   7
  -6   1  -1 1820.73 45.8346  12
   6   1   1 1806.37 43.7278   7
  -7  -1  -1 464.608 10.8292   2
  -7  -1  -1 476.694 14.8608  10
  -7   1  -1 479.973 11.5005   3
  -7   1  -1 484.895 15.1938  12
   7   1   1 467.651 11.7256   3
   7   1   1 480.759 15.1970   7
   8   1   1 24.9172 1.97528   3
  -8   1  -1 22.1772 1.69881   3
   9   1   1 312.558 7.49439   3
  -9   1  -1 317.655 7.30078   3
  -8  -2   1 5.95179 0.86019   2
   8   2  -1 7.40273 1.16474   3
  -8   2   1 7.00747 1.08354   3
  -7  -2   1 1058.30 28.4741  10
  -7  -2   1 1039.65 21.5843   2
   7   2  -1 1045.18 22.3445   3
  -7   2   1 1049.94 22.1087   3
   7   2  -1 977.243 26.3756   7
  -7   2   1 1052.64 28.1345  12
  -7   2   1 1016.38 25.9060   7
  -6   2   1 2047.02 41.7068   3
   6   2  -1 2024.97 41.8187   3
   6   2  -1 2066.38 48.3666   7
  -6   2   1 2069.03 51.2405  12
  -5   2   1 719.694 19.9140  12
   5   2  -1 713.002 24.1270   9
   5   2  -1 720.904 18.8233   7
   4   2  -1 845.000 20.5289   7
   4   2  -1 829.320 23.0605   8
   4   2  -1 832.074 26.3085   9
  -4   2   1 818.024 21.7433  12
   3   2  -1 230.872 6.82900   7
   3   2  -1 244.674 8.12286   8
   3   2  -1 245.237 9.26507   9
  -3   2   1 240.332 8.15527   6
   2   2  -1 543.947 16.8422   9
   2   2  -1 537.096 14.9374   8
   1   2  -1 7640.61 184.460   8
   1   2  -1 7666.23 208.163   9
   0   2   1 1027.11 25.7460   8
   0   2  -1 1038.08 29.2830   9
   1   2   1 1297.37 37.4778   9
   1   2   1 1382.37 33.6241   8
  -1   2  -1 1338.97 37.4830   9
   2   2   1 319.778 9.76235   8
  -2   2  -1 338.627 10.5673   6
   3   2   1 682.726 18.7484   8
   3   2   1 668.857 16.4403   7
  -4   2  -1 132.752 5.30653  12
   4   2   1 132.088 5.81112   8
   4   2   1 132.892 5.16255   7
   5   2   1 1405.16 44.4066   9
   5   2   1 1489.70 35.2544   7
  -5   2  -1 1518.18 37.4437  12
  -6  -2  -1 101.463 3.50335   2
  -6   2  -1 107.857 5.65257  12
   6   2   1 103.752 3.98762   3
   6   2   1 107.715 5.47867   7
  -6   2  -1 107.345 3.71779   3
  -7  -2  -1 382.323 9.08787   2
   7   2   1 383.642 9.69520   3
   7   2   1 370.617 12.9946   7
  -7   2  -1 390.740 9.37929   3
  -7   2  -1 382.769 12.8354  12
  -8  -2  -1 110.374 3.34737   2
  -8   2  -1 108.853 3.46249   3
   8   2   1 105.131 3.71095   3
  -8  -3   1 454.613 9.85459   2
   8   3  -1 441.752 9.78979   3
  -7  -3   1 482.958 10.9463   2
   7   3  -1 478.106 11.0798   3
  -7   3   1 484.175 10.8686   3
  -6   3   1 264.989 6.72753   3
  -6   3   1 261.872 9.74586  12
   6   3  -1 269.302 7.01891   3
  -5   3   1 491.223 14.8358  12
   4   3  -1 161.918 8.12921   9
  -3   3   1 661.501 19.9214   6
   3   3  -1 638.329 20.6580   6
   3   3  -1 644.981 18.9665   8
   3   3  -1 662.535 21.3539   9
   2   3  -1 1553.22 40.0850   8
  -2   3   1 1612.93 43.5424   6
   2   3  -1 1520.02 44.9594   9
   2   3  -1 1541.22 43.8596   6
   1   3  -1 965.865 28.4160   6
  -1   3   1 1006.66 28.4321   6
   1   3  -1 945.545 28.6502   9
   0   3   1 1391.78 38.7818   6
   0   3  -1 1341.75 38.4069   6
   1   3   1 3720.90 93.2724   8
  -1   3  -1 3857.72 101.715   6
   1   3   1 3843.42 102.273   6
  -2   3  -1 743.169 21.6761   6
   2   3   1 687.992 19.8483   8
   3   3   1 915.415 28.5257   9
   3   3   1 934.480 25.6467   8
   4   3   1 397.821 11.0801   7
   4   3   1 401.768 15.0339   9
  -5   3  -1 163.529 6.83647  12
   5   3   1 162.222 6.23185   7
  -6  -3  -1 283.794 7.17846   2
   6   3   1 278.705 7.38493   3
  -6   3  -1 282.102 6.96342   3
  -6   3  -1 269.226 9.98610  12
  -7  -3  -1 201.333 5.34929   2
  -7   3  -1 186.322 4.98205   3
   7   3   1 198.217 5.50454   3
  -8  -3  -1 467.581 10.1003   2
   8   3   1 459.480 10.1069   3
  -7  -4   1 26.5962 1.49843   2
  -7   4   1 23.3831 0.88487   1
  -7   4   1 21.5885 1.29625   4
  -6   4   1 4.98876 0.83175   4
   6   4  -1 2.09288 0.71822   4
   6   4  -1 3.72946 0.85212   4
  -6   4   1 3.47427 0.49939   1
   5   4  -1 1090.31 20.6450   4
  -5   4   1 1099.06 20.4978   4
  -5   4   1 1094.22 14.0984   1
   4   4  -1 33.4454 1.58762   4
   4   4  -1 31.5327 2.07238  17
  -4   4   1 32.4731 1.05558   1
  -4   4   1 35.4877 1.57503   4
   4   4  -1 35.4157 3.08765  18
   3   4  -1 668.847 22.2505   6
  -3   4   1 651.518 21.0087   6
   3   4  -1 652.464 15.6062  18
   2   4  -1 2187.90 62.2314   6
  -2   4   1 2254.44 61.7023   6
  -2   4   1 2166.75 54.2382  11
  -1   4   1 420.684 13.4545  11
   1   4  -1 415.960 15.0232   6
  -1   4   1 424.040 14.9989   6
   0   4   1 664.423 21.3138   6
   0   4  -1 645.154 20.8911   6
   0   4   1 628.024 18.3447  11
  -1   4  -1 774.189 24.6312   6
   1   4   1 808.086 25.4849   6
   2   4   1 989.533 22.0723  18
   2   4   1 1028.10 31.8336   6
  -2   4  -1 1027.79 30.6010   6
   3   4   1 22.7859 3.63731   6
  -3   4  -1 19.4353 0.67309   1
  -4   4  -1 1385.11 25.6391   4
   4   4   1 1385.46 25.9604   4
  -4   4  -1 1419.49 17.6318   1
   4   4   1 1450.39 43.1939   6
  -5  -4  -1 1558.05 31.4095   2
  -5   4  -1 1559.67 19.4447   1
  -5   4  -1 1557.29 28.2985   4
   5   4   1 1514.14 28.5792   4
  -6  -4  -1 57.9765 2.44045   2
  -6   4  -1 57.7978 2.11655   4
   6   4   1 54.3025 3.38640  18
  -7  -4  -1 91.3165 2.93572   2
  -7   4  -1 87.0028 2.57277   4
  -6  -5   1 45.4108 1.91131   2
   6   5  -1 52.6511 1.77876   4
  -6   5   1 48.6188 1.67317   4
  -5   5   1 47.0235 1.72803   4
   5   5  -1 44.7669 2.91957  18
  -5   5   1 48.7214 1.07191   1
   5   5  -1 47.9785 1.83836   4
   4   5  -1 291.144 8.78390  18
  -4   5   1 288.020 6.08774   4
  -4   5   1 290.639 4.01501   1
   4   5  -1 286.216 6.18137   4
   4   5  -1 291.324 7.53759  17
   3   5  -1 274.312 7.30490  17
  -3   5   1 267.397 4.37732   5
   3   5  -1 277.576 8.55602  18
  -3   5   1 252.873 10.9433   6
  -3   5   1 269.610 3.62971   1
   3   5  -1 273.019 5.60623   4
  -3   5   1 266.451 5.57548   4
  -2   5   1 401.128 4.61999  16
  -2   5   1 401.718 7.74686   4
  -2   5   1 402.620 6.02879   5
   2   5  -1 394.519 7.60577   4
   2   5  -1 418.519 9.95263  17
  -2   5   1 412.433 15.3973   6
   2   5  -1 429.589 11.3660  18
   2   5  -1 390.788 15.7003   6
  -1   5   1 494.601 11.3203  17
  -1   5   1 514.935 16.5235  11
   1   5  -1 512.241 12.9115  18
   1   5  -1 518.589 18.5798   6
  -1   5   1 489.614 9.43721   4
  -1   5   1 502.379 12.3831  18
  -1   5   1 517.165 18.4598   6
   1   5  -1 520.382 11.7552  17
   0   5  -1 103.889 3.61826  17
   0   5   1 110.110 4.62048  18
   0   5  -1 103.799 4.49237  18
   0   5   1 112.653 6.96381   6
   0   5   1 104.977 3.58472  17
   0   5   1 98.7544 5.74754  11
   0   5  -1 107.362 6.64957   6
  -1   5  -1 434.082 16.0654   6
   1   5   1 426.585 10.0513  17
   1   5   1 419.975 8.12702   4
  -1   5  -1 421.841 9.86087  17
  -1   5  -1 425.565 10.9034  18
   1   5   1 440.706 11.4527  18
   1   5   1 447.328 16.8797   6
   2   5   1 965.633 17.7661   4
   2   5   1 983.529 31.7813   6
   2   5   1 947.863 20.4025  17
  -2   5  -1 979.718 13.4716   5
  -2   5  -1 977.452 10.4097  16
  -2   5  -1 950.097 30.1425   6
  -2   5  -1 976.580 20.7437  18
   2   5   1 990.783 21.9064  18
   3   5   1 834.260 17.5977  17
   3   5   1 819.638 28.0251   6
   3   5   1 831.089 19.4114  18
   3   5   1 829.010 15.4425   4
  -3   5  -1 815.204 9.03137  16
  -3   5  -1 805.396 11.6687   5
  -3   5  -1 818.351 14.9753   4
   4   5   1 75.9589 2.45481   4
   4   5   1 79.5095 4.34219  18
  -4   5  -1 75.7370 2.16357   4
   4   5   1 74.2831 6.07628   6
  -5   5  -1 118.095 2.94986   4
   5   5   1 117.060 4.94902  18
   5   5   1 115.918 3.24375   4
  -6   5  -1 15.5390 0.91153   4
   6   5   1 14.9029 1.04662   4
   6   5   1 17.4297 1.83784  18
  -5   6   1 26.7305 0.79145   5
   4   6  -1 240.137 6.01935  17
  -4   6   1 242.802 3.79372   5
   4   6  -1 237.811 7.02250  18
  -3   6   1 223.644 3.54094   5
   3   6  -1 225.707 7.16633  18
   3   6  -1 225.166 6.04865  17
  -3   6   1 221.390 2.78511  16
  -2   6   1 170.313 2.76830   5
   2   6  -1 170.526 5.08759  17
   2   6  -1 172.899 6.14988  18
  -2   6   1 168.375 2.14891  16
   2   6  -1 165.983 2.66416   5
   1   6  -1 165.419 4.85071  17
  -1   6   1 161.254 2.51261   5
  -1   6   1 160.992 1.97204  16
   1   6  -1 159.653 5.87414  18
   1   6  -1 156.831 1.88122  16
  -1   6   1 139.918 8.67011   6
   1   6  -1 146.977 8.95666   6
  -1   6   1 157.175 5.38743  18
  -1   6   1 155.874 2.56469   5
   0   6  -1 63.5964 5.16114   6
   0   6  -1 76.6920 3.73227  18
   0   6   1 71.0869 3.65399  18
   0   6   1 69.3243 5.58285   6
   0   6  -1 74.9735 2.91968  17
   0   6   1 74.0160 1.05694  16
   0   6   1 70.7868 1.36860   5
  -1   6  -1 448.533 11.4889  18
   1   6   1 479.438 12.1845  18
   1   6   1 482.863 10.8336  17
   2   6   1 540.023 12.0917  17
   2   6   1 530.557 13.5310  18
  -2   6  -1 544.660 5.91683  16
   3   6   1 598.048 14.4637  18
  -3   6  -1 586.395 6.51395  16
   3   6   1 573.387 12.7345  17
  -3   6  -1 602.767 8.28682   5
  -3   6  -1 583.095 8.32831   5
   3   6   1 583.036 10.6873   4
   4   6   1 358.460 9.60240  18
   4   6   1 361.400 6.83828   4
  -4   6  -1 359.824 5.30195   5
   5   6   1 360.988 6.68812   4
  -5   6  -1 362.082 5.25122   5
  -2   7   1 68.4292 0.86926  16
   1   7  -1 28.6992 1.99737  18
   0   7  -1 28.9299 1.90568  18
   0   7   1 28.4265 1.85909  18
   1   7   1 58.3886 0.80103  16
   1   7   1 58.4954 0.78647  16
   1   7   1 54.6743 2.64461  18
   2   7   1 7.96186 0.25586  16
   2   7   1 7.32654 0.26165  16
   9   0  -2 17.7388 1.59976   3
  -9   0   2 19.1837 1.59314   3
   8   0  -2 156.245 5.06998   3
  -8   0   2 147.080 4.79871   3
  -7   0   2 4656.77 108.405  10
  -7   0   2 4287.15 89.1267   3
   7   0  -2 4539.91 101.967   7
  -6   0   2 15.9964 2.29663  10
  -6   0   2 13.5508 2.15781  12
   6   0  -2 15.6012 2.66034   7
   5   0  -2 2.13721 1.20462   9
   5   0  -2 1.38796 1.18691   7
  -5   0   2 4.40836 1.15087  10
  -5   0   2 1.58782 0.96702  12
  -4   0   2 420.191 12.0504  12
   4   0  -2 436.512 14.1709   9
   4   0  -2 425.104 11.8374   7
  -4   0   2 420.146 12.0826  10
   3   0  -2 1145.87 27.2277   7
   3   0  -2 1156.27 33.0175   9
   2   0  -2 5558.70 151.191   9
   0   0  -2 1640.52 45.6252   9
   0   0   2 1681.54 39.6674  14
   2   0   2 9999.99 211.160  13
   3   0   2 1478.06 35.7994   8
   3   0   2 1365.79 32.5767   7
  -4   0  -2 1383.21 34.2514  12
   5   0   2 237.066 8.57991   7
  -5   0  -2 237.060 8.61471  12
  -6   0  -2 78.1614 4.72785  12
   6   0   2 79.4615 5.03089   7
   7   0   2 819.539 22.8659   7
  -7   0  -2 810.926 22.7480  12
  -7   0  -2 807.327 18.1594   3
  -8   0  -2 852.035 18.5495   3
  -9   0  -2 169.069 4.48453   3
   9   1  -2 6.31195 0.99965   3
  -9   1   2 8.18813 1.05399   3
  -8   1   2 314.268 8.00776   3
   8   1  -2 307.564 8.17631   3
  -7  -1   2 936.822 25.9812  10
   7  -1  -2 934.014 26.4851   7
   7   1  -2 931.490 24.9689   7
  -7   1   2 946.610 20.3727   3
   7   1  -2 909.183 20.3876   3
  -7   1   2 919.048 25.5956  12
  -7   1   2 911.339 25.6611  10
   6  -1  -2 67.3936 4.64470   7
  -6  -1   2 81.0911 4.49518  10
   6   1  -2 65.4445 4.46111   7
  -6   1   2 59.6515 3.98245  10
  -6   1   2 63.7698 4.20640  12
   5  -1  -2 379.514 12.0342   7
  -5   1   2 394.085 12.1652  12
   5   1  -2 375.681 14.3486   9
  -5   1   2 401.580 12.2396  10
   5   1  -2 408.204 11.9643   7
   4  -1  -2 2445.20 56.8701   7
   4   1  -2 2507.35 56.5809   7
   4   1  -2 2564.41 71.2927   9
  -4   1   2 2508.50 60.6622  10
  -4   1   2 2552.34 60.0309  12
   3   1  -2 3457.92 94.1624   9
   3   1  -2 3309.34 74.4842   7
  -3   1   2 3320.13 80.2169  10
   3   1  -2 3493.51 83.1452   8
   2   1  -2 2038.28 56.8088   9
   1   1  -2 5319.98 145.095   9
   1  -1   2 382.291 10.0624  14
   1   1   2 400.082 9.18242  13
   1   1   2 398.934 10.5847   8
  -1   1  -2 389.891 11.9514   9
   2  -1   2 1324.28 32.5188   8
   2   1   2 1302.29 32.9913   8
   2   1   2 1309.41 28.8853  13
   3   1   2 421.188 11.2153   7
   3   1   2 424.352 12.1771   8
  -4  -1  -2 412.599 11.9468  12
   4   1   2 423.197 11.7925   7
  -4   1  -2 411.609 12.0793  12
   4   1   2 401.739 12.4845   8
  -5  -1  -2 12.1232 1.91934  12
   5   1   2 13.3625 2.23068   7
  -5   1  -2 13.5219 2.16833  12
  -6  -1  -2 341.984 8.62183   2
   6   1   2 358.077 9.42132   3
  -6   1  -2 380.044 12.4674  12
  -6   1  -2 366.311 9.15339   3
   6   1   2 374.197 12.2893   7
  -7  -1  -2 147.759 4.39936   2
   7   1   2 148.182 5.08840   3
  -7   1  -2 146.114 4.82384   3
   7   1   2 142.471 7.01655   7
  -7   1  -2 144.999 6.92332  12
  -8  -1  -2 303.936 7.48203   2
  -8   1  -2 333.371 8.02621   3
   8   1   2 318.063 8.26326   3
  -8  -2   2 219.156 5.54247   2
   8   2  -2 221.912 6.05491   3
  -8   2   2 221.177 5.89341   3
  -7  -2   2 1390.64 36.5088  10
  -7   2   2 1415.67 28.9760   3
  -7   2   2 1321.54 33.4109   7
   7   2  -2 1421.45 29.0425   3
   7   2  -2 1362.31 34.0664   7
  -7   2   2 1383.07 36.1547  12
   6   2  -2 159.042 6.78905   7
  -6   2   2 164.592 7.15828  12
   6   2  -2 159.959 5.00898   3
  -6   2   2 161.355 6.53924   7
  -6   2   2 156.413 4.91115   3
  -5   2   2 238.233 8.76510  10
   5   2  -2 240.190 10.7205   9
   5   2  -2 240.362 8.25154   7
  -5   2   2 242.442 8.06351   7
  -5   2   2 241.935 8.71776  12
   4   2  -2 223.692 9.45648   9
  -4   2   2 211.225 7.65226  10
  -4   2   2 225.326 7.03969   7
   4   2  -2 219.509 7.08373   7
  -4   2   2 213.387 7.53365  12
  -3   2   2 2604.03 62.4814  12
   3   2  -2 2581.09 58.4768   7
   3   2  -2 2826.36 74.9349   9
   3   2  -2 2605.39 65.9450   8
  -3   2   2 2625.95 58.5596   7
   2   2  -2 288.729 9.82038   9
  -2   2   2 266.466 7.26731   7
   1   2  -2 5068.95 138.786   9
   0  -2   2 4045.20 97.6499  14
   0   2   2 4126.09 87.4744  13
   0   2   2 4195.45 100.285   8
   0   2  -2 4193.89 113.547   9
   1   2   2 3209.71 78.3964   8
  -1   2  -2 3203.95 88.3209   9
  -2   2  -2 566.097 16.6709   6
   2   2   2 586.109 15.6752   8
   2   2   2 530.226 13.5641   7
   3   2   2 827.992 20.1322   7
   3   2   2 847.099 22.8264   8
   4   2   2 760.562 19.2107   7
  -4   2  -2 747.956 20.0891  12
   5   2   2 1588.69 38.1160   7
  -5   2  -2 1595.92 40.3362  12
  -6  -2  -2 257.175 6.77635   2
  -6   2  -2 271.864 10.0053  12
   6   2   2 265.056 9.59278   7
   6   2   2 271.248 7.44334   3
  -6   2  -2 262.627 7.01229   3
  -7  -2  -2 32.0951 1.83935   2
  -7   2  -2 30.8871 3.55023  12
  -7   2  -2 30.0662 1.89209   3
   7   2   2 31.0515 2.23036   3
  -8  -2  -2 17.9493 1.26187   2
   8   2   2 19.8346 1.73045   3
  -8   2  -2 23.0532 1.38399   3
  -8  -3   2 282.553 6.55873   2
  -8   3   2 271.706 6.30862   3
   8   3  -2 280.902 6.43266   3
   7   3  -2 223.608 5.92891   3
  -7   3   2 222.316 5.79202   3
  -6   3   2 325.852 8.04557   3
   6   3  -2 329.099 8.13103   3
  -6   3   2 328.217 11.3566  12
  -5   3   2 322.838 10.8743  12
   4   3  -2 170.178 8.42235   9
  -4   3   2 161.083 6.43286  12
   3   3  -2 732.561 23.7534   9
   2   3  -2 793.404 24.7444   9
  -2   3   2 830.097 23.9068   6
   2   3  -2 777.603 23.9339   6
  -1   3   2 2023.78 55.7084   6
   1   3  -2 2047.06 57.4459   9
   1   3  -2 1998.23 55.4192   6
   0   3  -2 3060.84 83.2823   6
   0   3   2 3128.76 83.8634   6
   0   3  -2 3110.53 86.1299   9
   1   3   2 2551.75 65.3903   8
  -1   3  -2 2718.39 71.4070   6
   2   3   2 8.65920 1.54185   8
  -2   3  -2 17.5659 2.32839   6
   3   3   2 1093.96 25.6091   7
   4   3   2 610.072 15.8721   7
   4   3   2 608.852 20.9692   9
  -5  -3  -2 686.604 14.4781   2
   5   3   2 690.469 14.8544   3
  -5   3  -2 646.424 12.9344   4
  -5   3  -2 575.829 18.4216  12
   5   3   2 694.318 17.6975   7
  -6  -3  -2 82.4740 3.13377   2
   6   3   2 87.2765 3.37331   3
   6   3   2 76.3740 4.33587   7
  -6   3  -2 87.6087 4.96859  12
  -6   3  -2 82.8449 2.91877   3
  -7  -3  -2 842.664 17.7664   2
   7   3   2 836.033 18.0259   3
  -8  -3  -2 155.833 4.08779   2
   8   3   2 155.117 4.01594   3
  -7  -4   2 107.442 3.26118   2
  -7   4   2 100.637 2.90099   4
  -7   4   2 102.546 1.95736   1
   7   4  -2 99.7167 2.90147   4
   7   4  -2 101.383 2.93629   4
  -6   4   2 62.2715 2.33321   4
   6   4  -2 64.6518 2.37987   4
  -6   4   2 65.0785 1.58500   1
   5   4  -2 629.378 12.5666   4
  -5   4   2 647.581 8.66299   1
  -5   4   2 627.125 12.5349   4
  -4   4   2 527.452 7.14861   1
  -4   4   2 522.056 10.3990   4
   4   4  -2 514.646 10.3483   4
   4   4  -2 517.796 12.0400  17
   3   4  -2 233.131 10.7292   9
  -3   4   2 250.076 9.64587  11
   3   4  -2 244.859 7.44532  18
  -3   4   2 246.180 3.83096   1
  -2   4   2 1842.79 51.3524   6
   2   4  -2 1808.87 37.0424  18
  -2   4   2 1793.80 45.6141  11
   2   4  -2 1785.54 51.4729   6
   1   4  -2 41.1729 3.61095   6
  -1   4   2 39.6434 3.68574   6
  -1   4   2 48.2041 3.61413  11
   0   4   2 129.830 6.12592  11
   0   4  -2 126.606 6.54779   6
   0   4   2 130.633 7.07081   6
   1   4   2 212.465 8.54650  11
   1   4   2 235.047 10.3829   6
  -1   4  -2 238.981 9.63372   6
   2   4   2 672.642 22.7396   6
  -2   4  -2 651.655 14.6109  18
  -2   4  -2 670.081 21.3289   6
   3   4   2 219.426 10.8215   6
   4   4   2 82.1971 6.45978   6
   4   4   2 81.3442 2.75123   4
  -4   4  -2 82.5248 2.50099   4
  -5  -4  -2 1457.41 28.7552   2
   5   4   2 1333.01 42.9115   6
  -5   4  -2 1419.47 25.8150   4
  -6  -4  -2 38.1251 1.96844   2
  -6   4  -2 36.0854 1.65981   4
  -7  -4  -2 1036.47 20.8510   2
  -7   4  -2 1008.81 18.8581   4
  -6  -5   2 214.409 5.34020   2
  -6   5   2 213.487 3.05056   1
  -6   5   2 214.570 4.68574   4
   6   5  -2 216.843 4.72342   4
  -5   5   2 1250.85 15.5203   1
  -5   5   2 1254.45 22.7801   4
   5   5  -2 1266.62 22.8045   4
   5   5  -2 1205.21 25.3593  17
   4   5  -2 44.1726 2.51023  17
  -4   5   2 46.0925 1.72690   4
   4   5  -2 45.6228 1.72292   4
   4   5  -2 47.1054 3.12556  18
  -4   5   2 46.2566 1.10266   1
   4   5  -2 44.2291 1.71044   4
   3   5  -2 1266.84 26.9597  18
   3   5  -2 1256.68 22.6673   4
  -3   5   2 1232.16 22.8380   4
   3   5  -2 1253.94 22.6654   4
   3   5  -2 1244.90 26.2423  17
  -3   5   2 1276.50 15.5940   1
  -2   5   2 1007.55 18.6446   4
   2   5  -2 987.995 31.9087   6
  -2   5   2 1038.56 28.7730  11
  -2   5   2 1008.74 14.4444   5
   2   5  -2 1043.03 21.8358  17
  -2   5   2 1051.95 12.7040   1
  -2   5   2 1006.55 31.6489   6
   2   5  -2 1039.91 22.6467  18
   1   5  -2 531.096 12.1816  17
  -1   5   2 539.960 6.68348   1
   1   5  -2 540.455 13.2307  18
  -1   5   2 511.713 9.92253   4
  -1   5   2 541.863 17.2421  11
   1   5  -2 519.136 18.7128   6
  -1   5   2 516.443 18.8593   6
  -1   5   2 522.080 5.93263  16
   0   5   2 169.633 7.94631  11
   0   5   2 168.351 3.68449   4
   0   5  -2 167.639 8.51917   6
   0   5  -2 175.382 6.02730  18
   0   5  -2 174.093 5.04581  17
   0   5   2 166.133 5.94770  18
   0   5   2 164.726 8.91616   6
   0   5   2 170.977 4.88976  17
   0   5   2 170.776 2.38299   1
   1   5   2 1078.05 22.2731  17
   1   5   2 1054.48 23.3306  18
   1   5   2 1089.03 34.2255   6
  -1   5  -2 1065.86 32.9271   6
   1   5   2 1066.30 19.5212   4
  -1   5  -2 1087.65 22.8992  18
   2   5   2 305.271 7.75804  17
   2   5   2 313.385 9.40726  18
   2   5   2 310.560 6.47115   4
  -2   5  -2 315.929 3.55352  16
   2   5   2 316.622 14.0318   6
  -2   5  -2 310.594 4.63510   5
  -2   5  -2 311.152 12.4598   6
  -3   5  -2 137.531 1.86874  16
  -3   5  -2 137.369 2.46626   5
  -3   5  -2 137.792 3.03257   4
   3   5   2 136.703 3.56315   4
   3   5   2 135.528 8.56444   6
   3   5   2 138.034 5.91710  18
   4   5   2 205.120 7.39983  18
   4   5   2 207.677 4.89692   4
  -4   5  -2 207.162 4.42897   4
  -4   5  -2 198.267 3.52967   5
   5   5   2 79.1778 4.07901  18
   5   5   2 78.9495 2.53789   4
  -5   5  -2 80.3137 2.23783   4
   6   5   2 16.0534 1.05604   4
   6   5   2 16.3065 1.77280  18
  -6   5  -2 16.1013 0.83577   4
  -5   6   2 159.263 2.64611   5
  -4   6   2 256.024 4.00748   5
   4   6  -2 246.829 6.99533  18
   4   6  -2 252.979 6.36232  17
   3   6  -2 122.906 4.03403  17
  -3   6   2 117.968 2.19284   5
   3   6  -2 115.245 4.67520  18
   2   6  -2 394.816 9.47958  17
  -2   6   2 386.755 4.53290  16
   2   6  -2 387.823 10.4200  18
   2   6  -2 387.000 4.39196  16
  -2   6   2 390.183 5.82093   5
   1   6  -2 197.948 5.62138  17
  -1   6   2 201.478 3.21447   5
   1   6  -2 201.521 6.62641  18
  -1   6   2 193.008 2.47432  16
   0   6   2 102.883 4.30838  18
   0   6  -2 93.3265 4.20532  18
   0   6   2 97.1898 1.42816  16
   0   6  -2 99.3549 3.44759  17
  -1   6  -2 292.476 8.09267  18
   1   6   2 291.121 8.57879  18
   2   6   2 422.453 11.2796  18
   2   6   2 418.891 7.88783   4
  -2   6  -2 426.122 4.66264  16
   3   6   2 111.739 2.56496   4
  -3   6  -2 110.239 1.79339   5
  -3   6  -2 110.031 1.82418   5
  -3   6  -2 111.252 1.49620  16
   3   6   2 100.640 4.62743  18
   4   6   2 135.774 5.08572  18
   4   6   2 143.217 3.13530   4
  -4   6  -2 142.478 1.88406  16
  -4   6  -2 146.680 2.31267   5
   5   6   2 39.9538 1.11964   4
  -5   6  -2 41.4133 0.85849   5
   2   7  -2 194.312 4.82580  17
  -2   7   2 192.741 2.24366  16
  -1   7   2 52.7108 0.79519  16
  -1   7   2 54.4161 0.77257  16
   1   7  -2 53.8685 2.49400  18
   0   7   2 5.45280 0.24193  16
   0   7   2 5.26739 0.23232  16
   1   7   2 452.717 4.97096  16
   2   7   2 172.269 2.06029  16
   9   0  -3 465.159 10.5938   3
  -9   0   3 459.604 10.4671   3
   8   0  -3 102.929 3.90876   3
  -8   0   3 89.9743 3.61818   3
  -7   0   3 121.466 6.24302   7
  -7   0   3 117.031 4.36911   3
   7   0  -3 121.911 4.53466   3
  -7   0   3 125.551 6.24052  10
   7   0  -3 129.372 6.88496   7
  -6   0   3 272.494 9.82621  10
   6   0  -3 281.328 10.2304   7
  -6   0   3 254.379 9.36782  12
   5   0  -3 165.406 6.63815   7
  -5   0   3 152.937 6.29469  10
  -5   0   3 143.693 6.06987  12
   4   0  -3 5408.76 148.714   9
  -4   0   3 5393.36 127.289  10
  -4   0   3 5378.89 125.539  12
   4   0  -3 5437.90 118.689   7
  -3   0   3 2174.57 52.4817  10
   3   0  -3 2161.55 61.0878   9
   3   0  -3 2230.48 49.1823   7
   2   0  -3 1117.50 31.6434   9
   1   0  -3 663.162 19.5441   9
  -1   0   3 684.935 17.2672  14
   1   0   3 3592.56 83.7009  14
   1   0   3 3432.11 85.3326   8
   2   0   3 8701.70 207.150   8
   2   0   3 8501.12 182.164  13
   3   0   3 2181.52 49.0075  13
   3   0   3 2196.76 50.1456   7
   3   0   3 2283.29 55.4327   8
  -3   0  -3 2251.42 53.1303  12
  -4   0  -3 411.057 11.9878  12
   4   0   3 383.480 11.3910   7
   4   0   3 381.524 11.8818   8
  -5   0  -3 360.501 11.6795  12
   5   0   3 350.721 11.5535   7
  -6   0  -3 17.1634 1.57346   2
  -6   0  -3 18.5220 2.79438  12
  -6   0  -3 16.6546 1.89952   3
   6   0   3 11.6658 2.48591   7
  -7   0  -3 35.5285 2.30250   3
  -7   0  -3 32.6671 3.59762  12
   7   0   3 30.7424 3.93645   7
  -8   0  -3 301.286 7.62728   3
  -9   1   3 69.2446 2.51262   3
   9   1  -3 68.6884 2.58993   3
   8   1  -3 1216.37 25.9600   3
  -8   1   3 1240.99 25.9635   3
  -7  -1   3 1503.63 39.4696  10
   7  -1  -3 1491.84 38.1657   7
   7   1  -3 1516.28 31.7058   3
  -7   1   3 1513.34 38.9167  12
   7   1  -3 1529.86 37.6674   7
  -7   1   3 1537.66 37.1131   7
  -7   1   3 1502.62 31.6165   3
  -7   1   3 1486.27 39.4321  10
  -6  -1   3 19.6399 2.59287  10
   6  -1  -3 22.7809 3.39200   7
  -6   1   3 24.6171 3.09271  12
  -6   1   3 24.1751 2.89982  10
   6   1  -3 23.8403 3.23428   7
  -6   1   3 24.4213 2.98666   7
  -5  -1   3 277.047 9.31879  10
   5  -1  -3 256.207 9.44193   7
   5   1  -3 275.761 9.23222   7
   5   1  -3 254.660 10.9124   9
  -5   1   3 279.354 9.52955  10
  -5   1   3 283.904 9.51721  12
   4  -1  -3 2583.89 59.9269   7
  -4   1   3 2669.18 63.9771  10
   4   1  -3 2696.92 59.6116   7
  -4   1   3 2638.19 63.0794  12
   4   1  -3 2629.36 74.8396   9
   3  -1  -3 2136.25 48.8324   7
   3   1  -3 2155.87 48.4779   7
  -3   1   3 2180.56 52.1912  10
   3   1  -3 2219.51 61.1116   9
  -3   1   3 2114.44 51.3648  12
  -3   1   3 2166.52 48.4360   7
   2   1  -3 2843.59 79.0219   9
  -2   1   3 2858.12 68.1954  14
   1   1  -3 7778.62 211.530   9
   0  -1   3 15.7613 1.26051  14
   0   1   3 13.7402 1.24549  14
   0   1  -3 14.7537 1.47970   9
   0   1   3 14.2265 1.13024   8
   1  -1   3 2266.64 53.7924  14
   1   1   3 2261.83 55.1340   8
   1   1   3 2197.36 48.3468  13
  -1   1  -3 2239.42 62.3463   9
   2  -1   3 7356.96 174.949   8
   2   1   3 7343.26 175.395   8
   2   1   3 6968.47 156.877   7
   2   1   3 7354.04 153.994  13
  -3  -1  -3 2943.88 71.0981  12
   3   1   3 3049.99 67.3460   7
  -3   1  -3 3025.44 71.2342  12
   3   1   3 3083.83 74.9187   8
  -4  -1  -3 341.856 10.6468  12
  -4   1  -3 361.320 11.0238  12
   4   1   3 366.582 10.6833   7
   4   1   3 337.985 11.3069   8
  -5  -1  -3 153.261 6.38511  12
  -5   1  -3 153.820 6.69582  12
   5   1   3 155.317 6.70853   7
  -6  -1  -3 1006.91 21.5357   2
  -6   1  -3 1031.81 22.1992   3
   6   1   3 1014.80 22.5619   3
  -6   1  -3 1044.62 28.1990  12
   6   1   3 1054.65 27.2799   7
  -7  -1  -3 837.216 17.8981   2
  -7   1  -3 832.915 23.6740  12
  -7   1  -3 841.423 18.4253   3
   7   1   3 837.406 18.8430   3
  -8  -1  -3 318.334 8.09030   3
  -8  -1  -3 331.088 7.58127   2
   8   1   3 318.473 8.22203   3
  -8   1  -3 330.078 7.93092   3
  -8  -2   3 142.644 4.09367   2
  -8   2   3 160.506 4.52475   3
   8   2  -3 155.332 4.56404   3
  -7  -2   3 419.070 13.9580  10
  -7   2   3 435.362 13.7656   7
   7   2  -3 431.949 10.3923   3
  -7   2   3 408.923 13.7004  12
  -7   2   3 432.802 10.3998   3
  -6  -2   3 74.3330 4.58678  10
  -6   2   3 89.4225 5.04801  12
   6   2  -3 75.2012 3.17359   3
   6   2  -3 75.9444 4.58010   7
  -6   2   3 77.6962 3.14103   3
  -6   2   3 78.2999 4.43063   7
   5   2  -3 221.224 7.90811   7
   5   2  -3 199.643 9.94564   9
  -5   2   3 232.799 7.92249   7
  -5   2   3 229.353 8.45825  12
  -4   2   3 1161.09 27.5432   7
   4   2  -3 1150.74 27.4710   7
  -4   2   3 1143.14 29.3282  12
   4   2  -3 1136.28 35.2529   9
  -3   2   3 3288.98 72.7574   7
   3   2  -3 3255.87 72.5229   7
  -3   2   3 3252.54 77.4797  12
   3   2  -3 3391.28 92.5803   9
  -2   2   3 4655.99 101.964   7
   2   2  -3 4540.15 101.532   7
   2   2  -3 4882.80 129.447   9
  -1   2   3 702.748 17.2056   7
  -1   2   3 749.259 18.5157  14
   1   2  -3 738.844 22.2010   9
   0  -2   3 3673.44 90.0851  14
   0   2   3 3941.87 80.8271  13
   0   2   3 3577.72 82.9963   7
   0   2   3 3958.72 92.4094   8
   0   2  -3 3850.14 104.833   9
   1   2   3 6689.91 162.373   8
  -1   2  -3 6829.31 183.403   9
   1   2   3 6693.53 142.067  13
   1   2   3 6432.84 144.937   7
  -1   2  -3 6913.55 175.968   6
   2   2   3 1467.72 33.4702   7
   2   2   3 1494.21 37.6158   8
   2   2   3 1441.84 35.5347  12
   3   2   3 309.424 10.2715   8
   3   2   3 307.587 9.09826   7
   4   2   3 742.066 18.9828   7
  -4   2  -3 707.528 19.7160  12
   5   2   3 98.3088 5.13099   7
  -5   2  -3 95.7653 5.08041  12
  -6  -2  -3 1291.82 27.1854   2
   6   2   3 1289.58 32.9877   7
  -6   2  -3 1389.45 35.0910  12
   6   2   3 1323.57 28.1639   3
  -6   2  -3 1318.17 27.5790   3
  -7  -2  -3 203.531 5.59512   2
   7   2   3 208.448 6.15047   3
  -7   2  -3 208.631 5.67999   3
  -8  -2  -3 28.6197 1.49222   2
  -8   2  -3 31.3420 1.49794   3
   8   2   3 29.6491 1.79004   3
  -8  -3   3 246.282 5.85096   2
  -8   3   3 244.567 5.68755   3
  -7   3   3 81.5853 2.94832   3
   7   3  -3 81.6944 2.94279   3
  -6  -3   3 416.021 13.7150  10
   6   3  -3 415.068 9.91874   3
  -6   3   3 433.158 13.7979  12
  -6   3   3 431.525 10.0313   3
   5   3  -3 674.239 15.2436  17
   5   3  -3 688.224 14.2131   4
  -5   3   3 694.790 15.2014   3
  -5   3   3 727.801 20.0039  12
   4   3  -3 710.954 24.2008   9
  -4   3   3 686.623 19.5573  12
  -4   3   3 736.076 18.5373   7
  -3   3   3 564.420 16.5971  11
   3   3  -3 578.615 19.5895   9
   2   3  -3 1165.03 35.1467   9
  -1   3   3 59.4594 3.92353   6
   1   3  -3 56.9327 3.79344   9
   1   3  -3 57.8411 3.55566   6
   0   3  -3 33.7670 2.77432   9
   0   3  -3 31.6457 2.64650   6
   0   3   3 32.7901 2.97474   6
   1   3   3 806.402 22.1524   8
  -1   3  -3 831.645 24.2053   6
  -1   3  -3 817.591 24.8872   9
   2   3   3 2009.37 51.4446   8
   2   3   3 2002.70 45.0847   7
   2   3   3 2032.54 49.0470  12
   3   3   3 143.452 5.22941   7
   4   3   3 1051.32 25.7523   7
  -5  -3  -3 711.846 14.8695   2
   5   3   3 686.930 18.1089   7
   5   3   3 711.959 15.2468   3
  -5   3  -3 593.387 19.0089  12
  -5   3  -3 662.974 13.2506   4
  -6  -3  -3 854.794 18.1965   2
   6   3   3 866.635 18.6190   3
  -6   3  -3 826.045 23.5118  12
  -7  -3  -3 76.4192 2.80826   2
   7   3   3 79.1755 2.95960   3
  -8  -3  -3 810.626 16.4979   2
   8   3   3 806.147 16.5278   3
  -7  -4   3 22.2415 1.37747   2
   7   4  -3 17.5594 1.23154   4
   7   4  -3 20.5174 1.29465   4
  -6   4   3 449.399 9.32246   4
   6   4  -3 446.386 9.29286   4
  -5   4   3 111.931 3.37196   4
  -5   4   3 113.595 2.32708   1
   5   4  -3 119.806 3.37027   4
   5   4  -3 114.488 4.05904  17
   4   4  -3 559.298 12.9349  17
  -4   4   3 558.160 11.1756   4
  -4   4   3 557.977 7.70270   1
   4   4  -3 560.154 11.0296   4
  -3   4   3 562.181 7.78180   1
  -3   4   3 601.275 18.0388  11
   3   4  -3 580.331 13.2599  17
   3   4  -3 575.007 13.9196  18
   2   4  -3 953.377 20.4608  18
  -2   4   3 976.462 26.3956  11
   2   4  -3 925.231 30.1270   9
   1   4  -3 181.951 8.20534   6
  -1   4   3 196.563 8.85457   6
  -1   4   3 190.149 8.09806  11
   0   4  -3 119.256 6.09221   6
   0   4   3 100.272 5.63765  11
   0   4   3 110.703 6.55910   6
   1   4   3 453.061 11.6620  18
   1   4   3 460.648 16.8236   6
  -1   4  -3 466.752 10.8891  18
   1   4   3 417.111 14.0881  11
  -1   4  -3 456.816 15.5300   6
   2   4   3 120.844 7.46495   6
   4   4   3 2686.24 48.7995   4
  -4   4  -3 2739.60 48.3363   4
  -5  -4  -3 250.490 6.54348   2
  -5   4  -3 254.240 5.74129   4
  -6  -4  -3 790.866 16.8503   2
  -6   4  -3 804.401 15.2202   4
  -7  -4  -3 113.084 3.29217   2
  -7   4  -3 116.064 2.88925   4
  -6  -5   3 46.6981 1.94657   2
   6   5  -3 52.6510 1.69931   4
  -6   5   3 49.5335 1.04348   1
  -6   5   3 51.0159 1.70197   4
   5   5  -3 70.6368 2.22644   4
  -5   5   3 71.9877 2.28520   4
   5   5  -3 71.8924 2.22601   4
   5   5  -3 68.1784 2.88391  17
  -5   5   3 70.5679 1.45444   1
   4   5  -3 530.637 12.3762  17
  -4   5   3 525.875 7.07755   1
  -4   5   3 527.749 10.4441   4
   4   5  -3 528.912 10.2529   4
   3   5  -3 308.696 8.19484  17
  -3   5   3 308.517 6.49645   4
  -3   5   3 310.953 4.36638   1
   3   5  -3 296.506 6.11047   4
  -3   5   3 312.618 11.8458  11
   3   5  -3 299.362 8.80038  18
  -2   5   3 671.089 12.8721   4
   2   5  -3 675.398 9.66476   5
   2   5  -3 668.801 15.9331  18
   2   5  -3 680.679 15.2980  17
  -2   5   3 686.936 20.9533  11
  -2   5   3 687.201 8.75787   1
   1   5  -3 215.786 9.95144   6
  -1   5   3 231.130 3.27047   1
  -1   5   3 226.712 9.84582  11
   1   5  -3 234.112 7.29025  18
  -1   5   3 233.810 10.6557   6
   1   5  -3 228.549 3.38867   5
  -1   5   3 225.388 4.92340   4
   1   5  -3 229.611 6.40721  17
   0   5   3 439.803 17.1398   6
   0   5  -3 446.298 10.4922  17
   0   5  -3 438.709 16.2044   6
   0   5  -3 482.935 11.5642  18
   0   5   3 447.239 8.81770   4
   0   5   3 455.728 15.3028  11
   0   5   3 449.637 5.95201   1
   1   5   3 413.706 16.5562   6
   1   5   3 407.644 11.0086  18
  -1   5  -3 423.776 10.6390  18
   1   5   3 414.046 8.25898   4
  -1   5  -3 405.376 15.1277   6
   2   5   3 371.735 7.66828   4
  -2   5  -3 372.317 5.43960   5
   2   5   3 352.895 15.5094   6
   2   5   3 363.758 10.5553  18
   2   5   3 373.501 8.76536  17
  -2   5  -3 369.806 4.19358  16
   3   5   3 165.036 9.58639   6
  -3   5  -3 165.110 2.20102  16
  -3   5  -3 163.684 3.48216   4
   3   5   3 171.053 4.19943   4
   3   5   3 166.726 6.61484  18
  -3   5  -3 166.508 2.89054   5
   4   5   3 837.867 15.7404   4
  -4   5  -3 812.467 11.8356   5
   4   5   3 819.979 19.4436  18
  -4   5  -3 816.003 15.0767   4
   5   5   3 576.147 13.9679  18
  -5   5  -3 563.951 10.5736   4
   5   5   3 549.971 11.0755   4
  -6   5  -3 39.9201 1.19869   4
   6   5   3 38.3647 1.52409   4
  -4   6   3 36.5435 1.08297   4
   4   6  -3 34.2748 1.87531  17
  -3   6   3 180.401 3.11075   5
   3   6  -3 174.859 5.71482  18
  -3   6   3 178.920 3.72280   4
   3   6  -3 191.768 5.35195  17
   2   6  -3 665.484 14.5685  17
  -2   6   3 650.015 11.9538   4
  -2   6   3 655.097 9.50221   5
   2   6  -3 659.318 7.14710  16
   2   6  -3 652.360 15.0770  18
   1   6  -3 114.148 3.85524  17
   1   6  -3 112.511 4.58179  18
  -1   6   3 114.559 2.52066   4
   0   6  -3 1375.21 28.1124  18
   0   6   3 1391.87 24.2872   4
   0   6   3 1329.63 35.9128  11
   0   6  -3 1367.71 27.6382  17
   1   6   3 925.318 20.5719  18
   1   6   3 959.079 17.0220   4
   2   6   3 291.130 8.63544  18
   2   6   3 299.969 5.92560   4
  -2   6  -3 301.154 3.37686  16
   3   6   3 135.398 3.07302   4
  -3   6  -3 135.298 1.75247  16
   3   6   3 135.033 5.20171  18
   4   6   3 147.119 5.21053  18
  -4   6  -3 154.901 1.98092  16
  -4   6  -3 154.767 2.39612   5
   4   6   3 155.147 3.35547   4
  -4   6  -3 157.584 2.39211   5
  -2   7   3 78.0387 1.05759  16
   2   7  -3 74.9707 2.39762  17
  -1   7   3 8.94561 0.29777  16
   0   7   3 29.0930 0.54789  16
   1   7   3 18.3098 0.41785  16
   9   0  -4 1125.29 22.9117   3
  -9   0   4 1081.49 22.7031   3
   8   0  -4 775.185 17.0275   3
  -8   0   4 745.602 16.8314   3
   7   0  -4 842.772 23.0951   7
  -7   0   4 820.812 22.3587   7
   7   0  -4 789.222 18.3081   3
  -7   0   4 822.761 23.5206  10
  -6   0   4 405.619 13.3411  10
  -6   0   4 404.289 12.8838   7
  -6   0   4 399.301 12.8935  12
   6   0  -4 406.488 13.4310   7
   5   0  -4 968.037 24.9185   7
  -5   0   4 952.926 24.4991   7
  -5   0   4 959.425 25.7680  10
  -5   0   4 947.650 25.2741  12
  -4   0   4 14.1691 2.09801   7
  -4   0   4 12.9438 1.82177  10
   4   0  -4 12.7612 2.02298   7
  -4   0   4 12.8485 1.82777  12
  -3   0   4 41.4198 2.57028   7
   3   0  -4 45.7134 2.87269   9
  -3   0   4 47.5845 2.69490  12
  -3   0   4 47.6848 2.65989  10
  -2   0   4 190.695 6.41135  14
   2   0  -4 201.359 6.87666   9
   2   0  -4 176.355 5.89060   7
   1   0  -4 171.222 6.13146   9
  -1   0   4 173.872 5.71198  14
   0   0  -4 297.038 9.71612   9
   0   0   4 306.006 8.79961  14
   1   0   4 331.793 9.40106   8
   1   0   4 313.735 9.39897  14
   2   0   4 16.7604 1.80885   7
  -2   0  -4 23.2147 2.03305  12
   2   0   4 21.6466 1.81586   8
   2   0   4 23.0847 1.75008  13
   3   0   4 1486.92 38.3120   8
   3   0   4 1495.04 34.9416   7
  -3   0  -4 1495.09 36.7948  12
   4   0   4 235.894 8.23075   7
   4   0   4 220.173 8.26204   8
  -4   0  -4 240.895 8.40252  12
   5   0   4 600.234 17.6165   7
  -5   0  -4 620.310 17.9966  12
  -6   0  -4 285.112 7.94140   3
  -6   0  -4 303.738 10.8081  12
  -6   0  -4 289.151 7.40360   2
   6   0   4 298.344 11.1360   7
  -7   0  -4 919.226 20.0636   3
  -7   0  -4 918.073 25.1478  12
  -8   0  -4 184.425 5.13208   3
  -9   1   4 163.437 4.36353   3
   9   1  -4 163.809 4.43164   3
  -8   1   4 112.153 3.89094   3
   8   1  -4 110.881 3.95988   3
   7  -1  -4 542.145 16.9014   7
  -7  -1   4 529.765 16.7172  10
  -7   1   4 533.307 15.9033   7
  -7   1   4 543.778 12.7454   3
   7   1  -4 539.360 12.7847   3
   7   1  -4 541.026 16.2718   7
  -7   1   4 530.374 16.4440  12
  -7   1   4 537.878 16.8434  10
  -6  -1   4 62.2061 4.12003  10
   6  -1  -4 55.6235 4.59763   7
  -6   1   4 58.5152 4.09028  12
   6   1  -4 55.8418 4.21360   7
  -6   1   4 59.0590 4.02611   7
   6   1  -4 60.1750 2.93023   3
  -6   1   4 59.1203 4.15142  10
  -6   1   4 55.9820 2.80520   3
  -5  -1   4 87.3078 4.47507  10
   5  -1  -4 60.4174 4.33440   7
   5   1  -4 62.2022 4.75247   9
  -5   1   4 67.0687 4.08473  12
  -5   1   4 65.7850 3.99530   7
  -5   1   4 62.2601 4.01917  10
   5   1  -4 64.4553 4.09426   7
   4  -1  -4 1237.18 32.0615  12
  -4  -1   4 1278.49 32.6492  10
   4  -1  -4 1272.09 31.3682   7
  -4   1   4 1336.49 33.1471  10
   4   1  -4 1327.01 31.0142   7
  -4   1   4 1317.44 32.5931  12
  -4   1   4 1248.60 33.3295  14
   4   1  -4 1277.99 38.5157   9
  -4   1   4 1313.00 30.8966   7
   3  -1  -4 3311.93 75.0806   7
  -3  -1   4 3400.89 80.0452  10
   3  -1  -4 3317.74 78.9720  12
   3   1  -4 3393.87 94.1031   9
  -3   1   4 3381.66 80.4764  10
   3   1  -4 3380.79 74.6959   7
  -3   1   4 3465.00 79.3949  12
  -3   1   4 3385.17 74.7827   7
  -3   1   4 3345.88 81.3574  14
   2  -1  -4 70.4195 3.41615   7
  -2   1   4 76.6603 3.25158   7
   2   1  -4 83.4731 4.17713   9
   2   1  -4 80.0936 3.27053   7
  -2   1   4 84.2964 3.52940  14
  -1  -1   4 95.0227 3.81508  14
  -1   1   4 87.1200 3.48724   7
  -1   1   4 88.6597 3.67289  14
   1   1  -4 97.0943 4.35145   9
   0  -1   4 2469.62 58.0054  14
   0   1  -4 2346.57 66.8906   9
   0   1   4 2374.21 58.9455   8
   0   1   4 2414.21 58.0331  14
   1  -1   4 837.916 21.2463  14
   1   1   4 854.254 21.5614  14
   1   1   4 796.423 18.9608  13
   1   1   4 788.855 19.6340   7
   1   1   4 847.384 21.7147   8
  -2  -1  -4 7058.00 167.307  12
   2  -1   4 7336.19 175.663   8
   2   1   4 7520.90 176.138   8
   2   1   4 7291.83 157.676   7
  -2   1  -4 7157.48 167.682  12
   2   1   4 7150.75 167.402  12
   2   1   4 7356.06 154.610  13
  -3  -1  -4 336.753 10.1351  12
   3  -1   4 331.050 10.2972   8
  -3   1  -4 335.670 10.2352  12
   3   1   4 351.584 9.50412  13
   3   1   4 326.098 10.6396   8
   3   1   4 335.132 10.0036   7
  -4  -1  -4 437.117 13.3185  12
   4   1   4 460.951 13.3086   7
  -4   1  -4 459.138 13.6841  12
  -5  -1  -4 80.4519 4.60294  12
   5   1   4 78.1025 4.84388   7
  -5   1  -4 77.9422 4.67724  12
  -6  -1  -4 446.734 10.7376   2
  -6   1  -4 484.022 15.1783  12
   6   1   4 445.368 11.4738   3
  -6   1  -4 464.838 11.1564   3
   6   1   4 468.086 14.9067   7
  -7  -1  -4 238.002 6.19904   2
  -7  -1  -4 226.164 6.65371   3
   7   1   4 232.804 6.84315   3
  -7   1  -4 229.730 9.46486  12
  -7   1  -4 240.456 6.49419   3
  -8  -1  -4 350.454 8.71414   3
   8   1   4 376.075 8.96360   3
  -8   1  -4 384.926 8.63965   3
  -8  -2   4 66.6646 2.50054   2
  -8   2   4 72.5938 2.77351   3
   8   2  -4 72.3019 2.73571   3
  -7   2   4 162.775 5.11364   3
   7   2  -4 166.611 5.10515   3
  -7   2   4 165.237 7.36079  12
  -6  -2   4 48.0882 3.72144  10
  -6   2   4 45.9883 3.75401  12
   6   2  -4 45.3588 3.57564   7
   6   2  -4 45.9136 2.43125   3
  -6   2   4 52.9523 3.68499   7
  -6   2   4 46.3055 2.48017   3
  -5  -2   4 420.390 13.2698  10
  -5   2   4 424.439 13.4797  12
   5   2  -4 425.799 12.6092   7
  -5   2   4 414.639 12.5744   7
  -4  -2   4 180.779 6.84298  10
   4   2  -4 191.753 6.63747   7
   4   2  -4 178.391 8.57291   9
  -4   2   4 184.765 7.11386  12
  -4   2   4 187.179 6.77913   7
   3   2  -4 841.987 20.1256   7
  -3   2   4 822.749 20.3531   7
   3   2  -4 834.896 26.1087   9
  -3   2   4 816.570 21.6691  12
  -2   2   4 6639.06 138.703   7
   2   2  -4 6320.74 138.014   7
   2   2  -4 6585.16 175.524   9
  -2   2   4 5987.05 147.233  12
  -1  -2   4 1541.94 37.5977  14
  -1   2   4 1517.43 34.4180   7
  -1   2   4 1454.21 36.6064  12
   1   2  -4 1555.40 43.7299   9
  -1   2   4 1497.60 37.2438  14
   0   2  -4 650.296 19.5804   9
   0   2   4 613.980 16.5921  14
   0   2   4 604.899 15.2453   7
   0   2   4 616.397 16.7590   8
   0   2   4 627.684 14.5059  13
   1   2   4 2551.67 57.5936   7
   1   2   4 2537.99 61.2079  12
   1   2   4 2634.81 56.0963  13
   1   2   4 2571.81 64.2935   8
  -1   2  -4 2663.88 72.8691   9
   2   2   4 188.575 6.31489   7
   2   2   4 188.729 5.76218  13
   2   2   4 192.377 6.62474  12
   2   2   4 190.587 7.02909   8
   3   2   4 253.189 8.10708   7
  -3   2  -4 235.246 7.99400  12
   4   2   4 196.203 7.28711   7
  -4   2  -4 190.773 7.41880  12
  -5  -2  -4 1088.11 22.7614   2
   5   2   4 1086.26 23.5409   3
  -5   2  -4 1065.26 22.9020   3
  -5   2  -4 1103.81 29.1603  12
   5   2   4 1107.95 27.9458   7
  -6  -2  -4 153.778 4.62163   2
   6   2   4 145.708 6.77706   7
  -6   2  -4 148.570 4.60242   3
   6   2   4 153.466 5.13214   3
  -6   2  -4 136.280 6.78975  12
  -7  -2  -4 61.0567 2.50342   2
  -7   2  -4 56.1158 2.37791   3
   7   2   4 53.5163 2.73179   3
  -8  -2  -4 134.829 3.64704   2
   8   2   4 136.149 3.91605   3
  -8   2  -4 131.363 3.39066   3
  -8  -3   4 112.397 3.13559   2
  -8   3   4 109.704 2.99651   3
  -7   3   4 41.2325 1.96677   3
   7   3  -4 40.0033 1.86892   3
  -6  -3   4 95.5009 5.21171  10
   6   3  -4 97.1794 3.29040   3
  -6   3   4 88.0506 5.23485  12
  -6   3   4 96.5523 3.40207   3
   5   3  -4 459.865 9.85172   4
  -5   3   4 461.673 13.3550   7
  -5   3   4 482.994 14.9472  12
   5   3  -4 487.394 11.2291  17
  -5   3   4 476.982 10.9221   3
   5   3  -4 460.528 10.6532   3
  -4   3   4 661.447 18.9399  12
  -4   3   4 669.120 17.3768   7
  -3   3   4 1967.51 44.0968   7
   3   3  -4 1944.31 57.1247   9
  -3   3   4 1917.42 47.4188  12
  -3   3   4 1908.43 47.8385  11
  -2   3   4 53.3605 2.71876   7
  -2   3   4 51.5985 3.07614  12
  -2   3   4 58.2191 3.80875  11
   2   3  -4 59.8429 4.28278   9
  -1   3   4 629.385 15.6720   7
   1   3  -4 657.211 20.8916   9
   0   3  -4 357.433 12.0182   6
   0   3  -4 372.643 13.0205   9
   0   3   4 362.769 12.9388   6
   0   3   4 352.575 9.56301   7
  -1   3  -4 2894.66 75.2260   6
   1   3   4 2734.66 61.5243   7
   1   3   4 2691.93 69.4602   8
   1   3   4 2743.94 65.9698  12
  -1   3  -4 2837.24 78.5765   9
   2   3   4 457.227 14.3635  11
   2   3   4 475.750 12.5895   7
   2   3   4 492.279 13.7653  12
   3   3   4 11.3840 1.71336   7
   4   3   4 314.026 9.95867   7
  -5  -3  -4 59.9737 2.63682   2
  -5   3  -4 57.3292 2.32810   4
  -5   3  -4 60.6702 4.09495  12
   5   3   4 63.3558 2.90413   3
   5   3   4 59.8129 3.82386   7
  -6  -3  -4 156.512 4.66081   2
   6   3   4 152.095 4.87216   3
  -7  -3  -4 134.867 3.95939   2
   7   3   4 136.404 4.03689   3
   7   4  -4 8.66537 0.90330   4
   6   4  -4 797.682 15.3243   4
   5   4  -4 1920.72 37.6870  17
  -5   4   4 1774.02 46.4855  12
   5   4  -4 1889.27 33.8833   4
  -5   4   4 1864.92 34.0408   4
  -4   4   4 189.472 4.77681   4
  -4   4   4 185.189 3.29027   1
   4   4  -4 191.529 5.86031  17
  -4   4   4 204.557 8.57467  11
   4   4  -4 190.656 4.63230   4
  -3   4   4 509.939 7.03822   1
  -3   4   4 500.427 16.3549  11
   3   4  -4 503.061 11.9344  17
   3   4  -4 504.221 9.90234   4
  -2   4   4 110.608 6.00925  11
  -2   4   4 100.734 2.03974   1
   2   4  -4 100.599 4.13717  18
   1   4  -4 30.6928 3.35713   9
   1   4  -4 33.8335 2.37948  18
  -1   4   4 36.8390 4.11347  11
  -1   4   4 35.2021 3.52055   6
   0   4  -4 2543.29 70.7285   6
   0   4  -4 2547.96 49.5551  18
   0   4   4 2660.82 72.4620   6
   0   4   4 2563.64 63.2178  11
  -1   4  -4 62.0732 4.32478   6
   1   4   4 64.7922 5.22181   6
  -1   4  -4 69.7385 3.13755  18
   1   4   4 68.0892 4.64264  11
   2   4   4 44.3987 4.71535   6
  -3   4  -4 609.561 11.7307   4
   3   4   4 616.040 12.2769   4
   4   4   4 39.1097 2.04010   3
  -4   4  -4 39.1194 1.69137   4
  -5  -4  -4 1337.50 27.6431   2
   5   4   4 1334.30 27.7213   3
  -5   4  -4 1391.56 24.9490   4
  -6  -4  -4 174.020 4.76679   2
  -6   4  -4 174.830 4.15260   4
  -7  -4  -4 23.1229 1.20172   2
  -7   4  -4 23.6629 1.06413   4
  -6   5   4 54.8747 1.78128   4
   6   5  -4 55.8830 1.66677   4
  -6   5   4 54.3975 1.10464   1
  -5   5   4 25.0962 1.31196   4
  -5   5   4 22.7152 0.82198   1
   5   5  -4 22.5773 1.76121  17
   5   5  -4 24.7905 1.21165   4
   4   5  -4 99.0018 3.84676  17
  -4   5   4 101.581 1.94230   1
  -4   5   4 103.304 2.96050   4
   4   5  -4 105.086 2.70270   4
   3   5  -4 281.886 5.74073   4
  -3   5   4 281.188 11.0757  11
  -3   5   4 282.676 6.21350   4
   3   5  -4 285.239 4.60595   5
   3   5  -4 289.582 7.79954  17
  -3   5   4 289.743 4.20825   1
   2   5  -4 526.877 12.2490  17
  -2   5   4 517.948 6.96660   1
  -2   5   4 523.822 10.2615   4
   2   5  -4 514.626 7.54850   5
   2   5  -4 510.080 12.6530  18
  -2   5   4 508.066 17.0996  11
   1   5  -4 354.599 5.20921   5
   1   5  -4 355.888 4.00467  16
   1   5  -4 358.243 8.94911  17
  -1   5   4 354.876 13.2157  11
  -1   5   4 364.567 5.00490   1
  -1   5   4 361.200 7.38399   4
   1   5  -4 352.697 9.54577  18
   0   5   4 315.122 6.57933   4
   0   5  -4 313.574 4.51995   5
   0   5   4 320.159 4.45104   1
   0   5  -4 311.314 3.46263  16
   0   5   4 293.904 13.0511   6
   0   5  -4 292.994 11.9564   6
   0   5   4 312.591 11.9875  11
   0   5  -4 327.656 8.78066  18
   1   5   4 311.845 11.8218  11
   1   5   4 315.215 13.8514   6
  -1   5  -4 315.137 3.59412  16
   1   5   4 320.980 6.71307   4
  -1   5  -4 318.706 4.64156   5
   1   5   4 310.482 9.02090  18
   2   5   4 519.082 19.9114   6
  -2   5  -4 520.130 7.54527   5
   2   5   4 515.515 13.4423  18
   2   5   4 514.622 10.4036   4
  -2   5  -4 528.956 5.85728  16
   3   5   4 759.930 18.0366  18
  -3   5  -4 736.831 10.6759   5
   3   5   4 762.697 14.4351   4
   3   5   4 699.592 25.8365   6
  -3   5  -4 750.402 13.5215   4
   4   5   4 213.292 7.45548  18
  -4   5  -4 218.129 4.47876   4
  -4   5  -4 213.060 3.65917   5
   4   5   4 214.418 5.13889   4
  -5   5  -4 24.1911 0.96804   4
   5   5   4 21.5438 1.30778   4
   5   5   4 22.8336 2.37423  18
  -4   6   4 38.2955 1.16088   4
   4   6  -4 36.5470 1.89909  17
   3   6  -4 200.862 5.57701  17
  -3   6   4 200.950 4.16284   4
   2   6  -4 18.9924 0.42430  16
   2   6  -4 20.3967 1.59604  17
   2   6  -4 18.0539 1.87813  18
  -2   6   4 18.7154 0.89897   4
   1   6  -4 429.813 10.5598  18
   1   6  -4 424.804 9.85609  17
  -1   6   4 428.991 8.09992   4
  -1   6   4 408.715 14.1398  11
   0   6   4 28.6586 3.50373  11
   0   6   4 25.9173 1.07404   4
   1   6   4 596.971 11.1612   4
   2   6   4 333.061 6.55729   4
   2   6   4 324.880 8.96973  18
   3   6   4 391.675 7.51989   4
   3   6   4 381.354 9.97574  18
   4   6   4 95.1970 2.26105   4
  -1   7   4 0.64351 0.14259   5
   0   7   4 14.3405 0.40939   5
   0   7   4 14.9356 0.42327   5
  -8   0   5 63.9100 2.82000   3
   8   0  -5 64.6496 2.96855   3
   7   0  -5 1242.46 31.9639   7
  -7   0   5 1233.21 33.1086  10
  -7   0   5 1217.07 31.3127   7
   7   0  -5 1223.61 26.3217   3
  -6   0   5 424.389 14.0373  10
  -6   0   5 423.285 13.5462   7
   6   0  -5 424.604 13.5191  12
   6   0  -5 421.615 13.9200   7
   6   0  -5 413.028 10.5982   3
  -5   0   5 6.51322 1.60133   7
   5   0  -5 5.21977 1.73625   7
  -5   0   5 5.74306 1.51528  12
  -5   0   5 6.29117 1.61797  10
  -4   0   5 17.8023 2.26664   7
   4   0  -5 22.0905 2.64054   7
  -4   0   5 22.7956 2.48143  10
  -4   0   5 24.8340 3.01573  14
  -4   0   5 22.3114 2.44102  12
  -3   0   5 240.779 8.31683  14
   3   0  -5 229.568 7.65410  12
   3   0  -5 239.871 6.96821  15
  -3   0   5 228.165 7.71401  10
  -3   0   5 227.506 7.56005  12
   3   0  -5 242.106 7.85204   7
  -3   0   5 222.998 7.48446   7
   2   0  -5 972.776 28.6707   9
  -2   0   5 986.567 23.4328   7
  -2   0   5 954.514 24.6813  10
  -2   0   5 1025.78 25.6858  14
   2   0  -5 986.908 23.6110   7
   2   0  -5 979.412 24.6113  12
  -2   0   5 973.665 24.4610  12
   1   0  -5 827.243 20.0105   7
  -1   0   5 791.212 19.7598   7
  -1   0   5 839.873 21.6033  14
   1   0  -5 827.839 24.2461   9
   0   0   5 15.5433 1.73687  14
   0   0  -5 21.3221 1.89438   9
   0   0   5 14.6271 1.64799   7
   0   0  -5 22.5767 2.20043   7
   1   0   5 277.252 8.65092  14
   1   0   5 260.117 7.92627   7
  -1   0  -5 260.950 8.22059  12
   1   0   5 266.086 8.42484   8
  -2   0  -5 6775.43 158.770  12
   2   0   5 6802.19 149.616   7
   2   0   5 7020.56 166.826   8
  -3   0  -5 1042.77 26.4860  12
   3   0   5 997.789 27.4731   8
   3   0   5 1016.00 25.2758   7
  -4   0  -5 1167.64 30.4999  12
   4   0   5 1162.59 29.2770   7
  -5   0  -5 535.264 16.2693  12
   5   0   5 530.743 16.1381   7
  -5   0  -5 518.210 12.8265   3
  -6   0  -5 73.4486 3.33330   3
   6   0   5 77.5651 5.38207   7
  -6   0  -5 78.9409 4.91282  12
  -6   0  -5 75.3574 3.02577   2
  -7   0  -5 21.9899 1.77122   3
  -7   0  -5 23.9638 1.50703   2
  -8   0  -5 12.4908 1.24930   3
  -8   1   5 161.372 4.85169   3
   8   1  -5 159.084 4.87143   3
  -7  -1   5 158.640 7.17152  10
  -7   1   5 148.012 4.90774   3
  -7   1   5 151.958 6.80076  12
   7   1  -5 153.192 5.03856   3
   6  -1  -5 462.796 15.0792   7
  -6  -1   5 468.247 14.8322  10
  -6   1   5 459.842 14.2527   7
  -6   1   5 467.561 15.0854  10
  -6   1   5 441.299 11.1433   3
  -6   1   5 470.789 14.6392  12
   6   1  -5 442.945 11.1063   3
   6   1  -5 457.192 14.4195   7
   5  -1  -5 3144.44 73.6733   7
  -5  -1   5 3190.55 77.9375  10
   5   1  -5 3228.59 73.1348   7
  -5   1   5 3208.26 73.0410   7
  -5   1   5 3236.76 77.1656  12
  -5   1   5 3208.94 78.4595  10
   4  -1  -5 3225.18 78.3867  12
  -4  -1   5 3274.20 79.5274  10
   4  -1  -5 3251.47 75.0625   7
   4   1  -5 3395.03 74.6419   7
   4   1  -5 3243.66 93.5157   9
  -4   1   5 3103.77 80.7863  14
  -4   1   5 3451.48 74.7082   7
  -4   1   5 3364.34 80.1911  10
  -4   1   5 3479.83 79.0452  12
  -3  -1   5 853.329 22.8824  10
   3  -1  -5 890.877 22.4875   7
   3  -1  -5 885.833 22.9060  12
  -3   1   5 872.857 23.7218  14
  -3   1   5 918.823 22.0942   7
  -3   1   5 906.219 23.1949  12
   3   1  -5 875.187 27.3157   9
   3   1  -5 912.059 22.0404   7
   2  -1  -5 126.601 5.18901   7
   2  -1  -5 139.149 5.16351  12
  -2  -1   5 140.400 5.59824  14
   2   1  -5 143.011 6.25252   9
   2   1  -5 131.671 4.95435   7
  -2   1   5 139.882 5.38415  14
   2   1  -5 133.272 4.73729  15
  -2   1   5 137.217 5.06290   7
  -2   1   5 135.182 5.20336  12
  -1  -1   5 1667.64 40.6276  14
   1  -1  -5 1604.35 37.5499   7
  -1   1   5 1636.27 40.7880   8
  -1   1   5 1634.68 37.2685   7
  -1   1   5 1629.46 40.4996  14
  -1   1   5 1569.41 39.2971  12
   1   1  -5 1676.79 46.7368   9
   1   1  -5 1617.31 37.0433   7
   0  -1  -5 224.038 7.46415   7
   0  -1   5 242.042 7.93501  14
   0   1   5 247.897 8.00408  14
   0   1   5 255.602 7.85891   8
   0   1  -5 238.289 7.15576   7
   0   1  -5 270.636 9.29531   9
   0   1   5 232.738 7.33144   7
   0   1   5 252.399 7.71445  12
   1  -1   5 1194.31 29.7888  14
  -1  -1  -5 1134.77 28.7765  12
   1   1   5 1187.38 26.5907  13
   1   1   5 1152.39 28.9027  12
   1   1   5 1196.87 30.0929  14
  -1   1  -5 1101.14 28.6290  12
   1   1   5 1176.76 27.5461   7
   1   1   5 1171.63 30.2447   8
   2  -1   5 610.844 17.4856   8
  -2  -1  -5 624.554 16.9111  12
   2   1   5 635.092 17.8829   8
  -2   1  -5 622.128 16.9031  12
   2   1   5 641.928 15.6924  13
   2   1   5 622.923 16.9190  12
   2   1   5 643.973 16.4194   7
  -3  -1  -5 266.267 8.86274  12
   3  -1   5 247.307 8.85197   8
  -3   1  -5 269.169 8.97101  12
   3   1   5 268.826 9.83798   8
   3   1   5 260.894 8.20562  13
   3   1   5 270.052 8.83395   7
  -4  -1  -5 1261.15 32.4121  12
   4   1   5 1285.85 31.4790   7
  -4   1  -5 1234.12 32.5922  12
  -5  -1  -5 487.083 15.6962  12
  -5  -1  -5 495.064 11.4110   2
   5   1   5 472.799 15.0843   7
  -5   1  -5 499.092 11.6794   3
  -5   1  -5 509.164 15.5957  12
   5   1   5 477.307 12.0072   3
  -6  -1  -5 12.0625 1.37283   2
  -6  -1  -5 12.0114 1.65198   3
   6   1   5 7.93795 2.20956   7
  -6   1  -5 8.92102 2.11703  12
   6   1   5 8.07689 1.52087   3
  -6   1  -5 9.33633 1.40592   3
  -7  -1  -5 323.995 7.87951   2
  -7  -1  -5 320.367 8.33062   3
  -7   1  -5 332.363 8.13896   3
   7   1   5 322.966 8.51300   3
  -8  -1  -5 143.500 3.79575   2
  -8  -1  -5 145.014 4.14281   3
   8   1   5 150.269 4.27741   3
  -8   1  -5 153.966 3.97822   3
   8   2  -5 37.8238 1.83948   3
  -8   2   5 35.8597 1.84768   3
   7   2  -5 69.7188 2.92108   3
  -7   2   5 66.8072 2.92966   3
  -6  -2   5 80.6507 4.88612  10
   6   2  -5 85.2471 4.87719   7
  -6   2   5 88.6034 3.49719   3
  -6   2   5 90.6567 5.21178  12
  -6   2   5 86.3691 4.82257   7
   6   2  -5 85.0791 3.33928   3
  -5  -2   5 77.9354 4.51205  10
  -5   2   5 78.8324 4.77014  12
  -5   2   5 72.2802 4.31934   7
   5   2  -5 77.0417 4.43548   7
   4   2  -5 806.927 27.0491   9
   4   2  -5 817.527 20.8607   7
  -4   2   5 831.456 21.2138   7
  -4   2   5 824.553 22.5329  12
  -3   2   5 1022.72 24.6364   7
   3   2  -5 1003.32 24.1126   7
   3   2  -5 969.913 31.0507   9
  -3   2   5 1002.75 26.0675  12
  -2  -2   5 78.3239 4.11583  14
   2   2  -5 83.4343 4.91563   9
   2   2  -5 82.7539 3.44691   7
  -2   2   5 84.6191 4.00320  12
  -2   2   5 79.6722 3.71837   7
  -1  -2   5 1636.05 41.3989  14
  -1   2   5 1607.81 40.2401  12
   1   2  -5 1736.73 48.2873   9
   1   2  -5 1656.28 35.2750  15
  -1   2   5 1680.63 38.0077   7
  -1   2   5 1630.73 41.2147  14
   0   2  -5 634.564 20.1365   9
   0   2   5 640.004 15.9522   7
   0   2   5 609.571 17.2538   8
   0   2   5 621.928 16.7900  12
   0   2   5 637.320 15.0248  13
   0   2   5 619.515 17.2779  14
   1   2   5 420.345 10.8171  13
   1   2   5 416.944 12.6938   8
   1   2   5 411.021 12.1687  12
   1   2   5 428.511 11.5923   7
   2   2   5 2156.98 56.4622   8
   2   2   5 2243.13 49.1188  13
   2   2   5 2270.12 50.7295   7
   2   2   5 2215.21 53.6760  12
   3   2   5 1020.08 24.6788   7
  -3   2  -5 945.587 25.5915  12
   4   2   5 474.065 14.0701   7
  -4   2  -5 473.660 14.5183  12
   5   2   5 924.311 24.7568   7
  -5   2  -5 930.888 19.9327   3
   5   2   5 936.500 20.6336   3
  -5   2  -5 936.573 25.7670  12
  -6  -2  -5 571.539 13.0561   2
  -6   2  -5 578.923 13.0236   3
  -6   2  -5 591.616 17.7076  12
   6   2   5 571.842 13.6754   3
  -7  -2  -5 263.080 6.57048   2
  -7   2  -5 261.922 6.38380   3
   7   2   5 262.475 6.97532   3
  -8  -3   5 32.8111 1.38058   2
  -8   3   5 34.2474 1.30242   3
  -7   3   5 239.127 6.08616   3
  -6   3   5 195.353 8.12840  12
  -6   3   5 200.808 5.55280   3
   6   3  -5 191.641 5.20064   3
   6   3  -5 197.167 5.71133  17
  -5   3   5 539.439 16.4368  12
  -5   3   5 508.154 14.7387   7
   5   3  -5 527.436 12.3829  17
  -5   3   5 532.069 12.1715   3
  -4   3   5 526.955 16.0665  12
  -4   3   5 527.349 14.6641   7
   4   3  -5 533.124 12.4080  17
   3   3  -5 3206.34 92.8289   9
  -3   3   5 3229.56 77.4724  12
  -3   3   5 3232.06 77.7725  11
  -3   3   5 3284.81 72.4615   7
  -2   3   5 222.657 8.70316  11
  -2   3   5 210.694 5.82757  13
  -2   3   5 229.165 7.20746   7
   2   3  -5 223.540 9.71262   9
  -2   3   5 216.325 7.79404  12
  -1   3   5 1501.73 32.6860  13
  -1   3   5 1508.85 38.2093  11
   1   3  -5 1494.82 44.5462   9
  -1   3   5 1462.91 36.9763  12
  -1   3   5 1493.90 34.4780   7
   0   3   5 486.069 11.6278  13
   0   3   5 492.614 12.9071   7
   0   3   5 507.838 15.2411  11
   0   3   5 483.560 14.0096  12
   0   3  -5 482.880 16.9919   9
   0   3   5 491.819 16.6967   6
   1   3   5 3139.61 74.5618  12
   1   3   5 3126.77 69.7253   7
   1   3   5 3137.55 75.2533  11
   2   3   5 812.154 20.0970   7
   2   3   5 784.456 21.5740  12
   3   3   5 163.893 6.30245   7
  -4  -3  -5 528.164 11.8288   2
  -4   3  -5 505.586 10.5000   4
   4   3   5 520.463 14.8266   7
   4   3   5 514.350 12.1416   3
  -5  -3  -5 405.211 9.51548   2
  -5   3  -5 392.124 8.44603   4
  -5   3  -5 370.388 12.6101  12
   5   3   5 374.579 11.9807   7
   5   3   5 413.933 9.86694   3
  -6  -3  -5 677.292 14.5822   2
   6   3   5 655.034 14.8901   3
  -7  -3  -5 304.221 7.11853   2
   7   3   5 304.405 7.18897   3
   7   4  -5 12.3895 0.96919   4
   6   4  -5 377.049 7.95030   4
   6   4  -5 383.275 9.01016  17
   5   4  -5 11.9336 1.17212   4
   5   4  -5 13.3498 1.64268  17
  -5   4   5 9.98731 2.02824  12
  -4   4   5 284.266 6.63335   4
  -4   4   5 297.752 11.1222  11
   4   4  -5 295.291 6.43399   4
   4   4  -5 293.481 7.93769  17
  -4   4   5 281.859 10.2753  12
   3   4  -5 1432.27 26.3230   4
   3   4  -5 1444.96 29.9435  17
  -3   4   5 1461.90 38.2761  11
  -3   4   5 1449.91 26.7517   4
   2   4  -5 108.522 3.97801  17
  -2   4   5 116.715 6.44795  11
  -2   4   5 109.584 2.19727   1
   1   4  -5 1365.08 27.9505  18
  -1   4   5 1372.51 17.5669   1
  -1   4   5 1426.91 36.9980  11
   0   4   5 7.20081 2.18617   6
   0   4  -5 11.2076 1.51667  18
   0   4   5 7.49897 2.03207  11
   1   4   5 131.966 6.84988  11
  -1   4  -5 127.190 1.74791  16
   1   4   5 125.323 7.55803   6
   2   4   5 427.463 9.17739   4
  -2   4  -5 436.674 6.65791   5
   2   4   5 457.759 17.5523   6
   2   4   5 440.268 13.4949  12
  -2   4  -5 432.207 8.55823   4
  -3   4  -5 789.722 14.6258   4
   3   4   5 756.770 16.5738   3
  -4   4  -5 647.168 12.4884   4
   4   4   5 638.651 14.0898   3
   5   4   5 741.715 16.0361   3
  -5   4  -5 769.284 14.4200   4
  -6  -4  -5 173.267 4.58334   2
  -6   4  -5 177.272 4.07097   4
   6   5  -5 71.3609 1.80960   4
  -6   5   5 68.9488 1.25287   1
  -6   5   5 67.1026 1.98515   4
   6   5  -5 66.0319 2.34401  17
   6   5  -5 71.3593 1.79399   4
   5   5  -5 135.675 3.21303   4
  -5   5   5 134.682 2.31131   1
  -5   5   5 143.400 3.48743   4
   5   5  -5 135.361 4.24998  17
   4   5  -5 84.4101 2.28588   4
   4   5  -5 77.0655 3.32054  17
  -4   5   5 88.1462 2.62933   4
  -4   5   5 81.8440 1.71455   1
  -3   5   5 223.060 3.49228   1
  -3   5   5 220.014 5.15334   4
   3   5  -5 215.028 4.58814   4
  -3   5   5 228.409 9.57299  11
   3   5  -5 216.924 3.72931   5
   3   5  -5 225.462 6.44557  17
   2   5  -5 185.678 3.80508   4
   2   5  -5 187.672 3.17036   5
  -2   5   5 188.973 4.58462   4
  -2   5   5 188.557 3.09801   1
   2   5  -5 198.220 5.78387  17
  -2   5   5 185.157 8.79706  11
  -1   5   5 1413.37 37.9240  11
   1   5  -5 1385.67 28.7267  18
   1   5  -5 1400.97 19.4492   5
  -1   5   5 1434.77 17.7664   1
   1   5  -5 1416.99 28.9666  17
  -1   5   5 1423.75 25.8864   4
   0   5   5 1565.54 19.6308   1
   0   5  -5 1570.59 21.5214   5
   0   5   5 1575.29 41.5424  11
   0   5   5 1573.56 28.6112   4
   1   5   5 422.179 8.67206   4
   1   5   5 421.992 16.7255   6
  -1   5  -5 427.175 6.17675   5
   1   5   5 415.485 14.5819  11
   2   5   5 87.9176 4.35783  18
   2   5   5 94.5463 2.83651   4
  -2   5  -5 89.3327 1.77758   5
   2   5   5 83.1178 6.65533   6
   3   5   5 90.7124 4.56347  18
  -3   5  -5 95.9774 2.24202   4
   3   5   5 101.964 2.99556   4
  -3   5  -5 95.3776 1.96447   5
  -4   5  -5 198.169 3.43074   5
   4   5   5 208.131 4.83516   4
   4   5   5 194.915 6.79451  18
  -4   5  -5 200.653 4.10145   4
   5   5   5 189.435 4.41758   4
  -5   5  -5 194.285 3.80524   4
   5   5   5 199.785 6.16602  18
  -4   6   5 250.517 4.92158   4
   4   6  -5 251.889 6.14354  17
  -3   6   5 241.014 4.88065   4
   3   6  -5 238.053 6.16244  17
   2   6  -5 256.056 3.04993  16
  -2   6   5 261.128 5.30324   4
   2   6  -5 262.007 6.62150  17
  -1   6   5 147.338 7.10213  11
   1   6  -5 151.392 4.36912  17
  -1   6   5 159.443 3.50138   4
   0   6   5 366.957 7.05106   4
   0   6   5 336.277 12.1407  11
   1   6   5 1.13073 0.38125   4
   2   6   5 170.410 3.78670   4
   3   6   5 120.331 2.81577   4
   8   0  -6 58.7145 2.70846   3
   7   0  -6 33.5396 2.36872   3
   6   0  -6 314.200 8.67684   3
  -6   0   6 314.352 11.3557   7
  -6   0   6 329.242 11.6736  10
   6   0  -6 327.228 11.3529  12
   6   0  -6 320.217 11.7761   7
   5   0  -6 172.482 7.68196   7
   5   0  -6 172.628 7.44440  12
  -5   0   6 171.004 7.40630  10
  -5   0   6 164.098 7.32665   7
  -4   0   6 13.1651 2.10554  10
   4   0  -6 12.0364 2.04093  12
   4   0  -6 12.5211 2.20042   7
  -4   0   6 16.6280 2.55088   7
  -4   0   6 10.0481 1.81574  12
   3   0  -6 569.107 15.5240   7
  -3   0   6 569.116 15.8576  10
  -3   0   6 541.352 15.4654  12
  -3   0   6 532.759 15.1127   7
   3   0  -6 571.508 15.8993  12
   3   0  -6 577.627 14.0537  15
  -3   0   6 551.181 16.6008  14
  -2   0   6 3911.54 93.5820  14
   2   0  -6 3952.14 90.8208  12
  -2   0   6 3784.97 85.6506   7
   2   0  -6 3880.88 85.9092   7
  -2   0   6 3775.19 90.3464  12
   2   0  -6 3875.89 78.6267  15
   1   0  -6 64.8585 3.50549   7
  -1   0   6 67.9990 3.26630  12
   1   0  -6 74.3282 3.54638  12
  -1   0   6 69.8148 3.74375  14
   1   0  -6 70.8325 3.09699  15
   1   0  -6 69.6741 3.82039   9
  -1   0   6 63.0413 3.39546   7
   0   0  -6 2286.37 54.6843  12
   0   0   6 2246.21 51.7510   7
   0   0  -6 2318.76 47.3344  15
   0   0   6 2147.98 54.1906  12
   0   0   6 2391.02 56.6490  14
   0   0  -6 2352.60 52.0120   7
   1   0   6 14.0559 1.91212  14
   1   0   6 11.4114 1.59551  12
   1   0   6 14.0730 1.94362   7
   1   0   6 14.2706 1.79665   8
  -1   0  -6 14.1243 1.79626  12
   2   0   6 4719.75 116.444   8
  -2   0  -6 4737.89 110.957  12
   2   0   6 4744.48 104.803   7
   3   0   6 299.431 10.1500   7
  -3   0  -6 313.834 10.4008  12
   4   0   6 58.0192 4.25753   7
  -4   0  -6 58.6873 4.06810  12
   5   0   6 31.2989 3.70677   7
  -5   0  -6 41.4190 2.50720   3
  -5   0  -6 41.8062 3.57357  12
  -5   0  -6 40.4126 2.21867   2
  -6   0  -6 163.450 4.88950   2
  -6   0  -6 163.782 7.29864  12
  -6   0  -6 168.870 5.31614   3
  -7   0  -6 264.220 6.50021   2
  -7   0  -6 264.130 6.89304   3
   8   1  -6 97.6342 3.36632   3
  -8   1   6 95.3237 3.34660   3
   7   1  -6 212.958 9.45296  12
   7   1  -6 219.132 6.29481   3
  -7   1   6 217.964 6.33675   3
   6  -1  -6 71.4186 5.24025   7
  -6  -1   6 65.8555 4.52615  10
  -6   1   6 71.3923 4.66746   7
   6   1  -6 73.0431 4.84916   7
  -6   1   6 66.4880 3.22615   3
  -6   1   6 74.7704 4.64107  12
   6   1  -6 73.6781 4.78630  12
   6   1  -6 73.3806 3.28928   3
  -5  -1   6 1516.72 39.6456  10
   5  -1  -6 1550.47 38.5227   7
  -5   1   6 1533.60 39.3733  12
   5   1  -6 1534.94 37.6821   7
  -5   1   6 1537.77 37.6568   7
  -4  -1   6 1013.23 27.4067  10
   4  -1  -6 1031.29 26.9158   7
   4  -1  -6 1032.42 27.2040  12
  -4   1   6 1087.15 26.5149   7
   4   1  -6 1054.61 26.3146   7
   4   1  -6 1046.10 27.3850  12
  -4   1   6 1050.59 27.5740  12
   4   1  -6 990.898 32.3948   9
   3  -1  -6 268.068 9.04274  12
   3  -1  -6 277.850 9.44141   7
  -3  -1   6 275.805 9.95119  14
   3  -1  -6 268.819 7.99864  15
   3   1  -6 284.044 9.17353  12
  -3   1   6 272.767 8.96065   7
   3   1  -6 265.810 10.8049   9
   3   1  -6 270.354 8.35042  15
   3   1  -6 287.040 9.07424   7
  -3   1   6 266.728 9.46141  14
   2  -1  -6 431.177 12.6002  12
   2  -1  -6 428.397 12.5941   7
   2  -1  -6 439.345 11.0351  15
  -2  -1   6 427.803 13.3872  14
   2   1  -6 429.534 12.5280  12
   2   1  -6 439.385 14.9647   9
   2   1  -6 439.101 12.2076   7
  -2   1   6 438.353 12.3668   7
  -2   1   6 450.646 12.8042  12
  -2   1   6 427.453 13.1534  14
   2   1  -6 440.837 11.4009  15
  -1  -1   6 366.637 11.3638  14
   1  -1  -6 362.203 10.7648   7
   1  -1  -6 357.906 10.6776  12
   1  -1  -6 360.395 9.42057  15
   1   1  -6 364.173 12.7432   9
  -1   1   6 365.668 11.3039  14
  -1   1   6 363.313 10.7803  12
   1   1  -6 362.089 10.2607   7
  -1   1   6 364.294 10.8829   8
   1   1  -6 344.762 10.5548  12
   1   1  -6 365.878 9.61974  15
   0  -1  -6 420.775 12.1511  12
   0  -1  -6 426.687 12.0931   7
   0  -1   6 416.671 12.7068  14
   0   1  -6 426.780 14.3991   9
   0   1   6 430.598 12.1876  12
   0   1  -6 420.708 10.6093  15
   0   1   6 423.322 11.7754   7
   0   1   6 429.868 12.5741   8
   0   1   6 410.426 12.6832  14
   0   1  -6 425.474 11.4990   7
   0   1  -6 403.154 11.9400  12
   1  -1   6 1615.35 40.6173  14
  -1  -1  -6 1632.09 39.3995  12
  -1   1  -6 1512.41 33.7014  15
   1   1   6 1640.68 36.3799  13
  -1   1  -6 1562.10 39.2346  12
   1   1   6 1616.61 37.5094   7
   1   1   6 1582.09 40.8553  14
   1   1   6 1626.40 39.3946  12
   1   1   6 1640.74 41.3716   8
  -2  -1  -6 2988.41 69.7142  12
   2  -1   6 2837.85 72.9712   8
   2   1   6 2859.81 64.3398  13
   2   1   6 2947.32 66.1361   7
  -2   1  -6 2985.57 69.7830  12
   2   1   6 2900.08 69.5901  12
  -3  -1  -6 403.066 12.5924  12
   3   1   6 418.280 12.5526   7
  -3   1  -6 392.806 12.6550  12
  -4  -1  -6 2514.64 63.1607  12
  -4   1  -6 2638.25 63.7326  12
   4   1   6 2638.72 60.6484   7
  -5  -1  -6 264.849 7.74362   3
  -5  -1  -6 282.730 7.40051   2
   5   1   6 281.417 10.4877   7
  -5   1  -6 293.100 7.63098   3
  -5   1  -6 277.791 7.32038   2
   5   1   6 279.172 7.99706   3
  -5   1  -6 293.888 10.6532  12
  -6  -1  -6 145.764 4.97515   3
  -6  -1  -6 149.930 4.61806   2
  -6   1  -6 154.843 7.08988  12
   6   1   6 145.400 5.13186   3
  -6   1  -6 151.303 4.76661   3
  -7  -1  -6 91.0705 3.00658   2
  -7  -1  -6 89.3532 3.30761   3
  -7   1  -6 96.7802 3.15979   3
   7   1   6 82.0269 3.33448   3
  -8   2   6 286.842 6.85315   3
   8   2  -6 280.400 6.61769   3
  -7   2   6 277.616 7.21106   3
   7   2  -6 273.273 7.03187   3
  -6   2   6 301.786 10.4814   7
   6   2  -6 313.551 7.91930   3
  -6   2   6 311.976 11.1579  12
  -6   2   6 314.546 8.22991   3
   6   2  -6 299.686 10.2582   7
  -5   2   6 711.420 20.3224  12
   5   2  -6 695.838 18.8345   7
   5   2  -6 685.340 15.2912   3
  -5   2   6 673.117 15.6260   3
  -5   2   6 678.742 19.0924   7
  -4   2   6 693.187 20.4257  12
  -4   2   6 736.574 19.5960   7
   4   2  -6 723.968 19.0507   7
   3   2  -6 778.529 26.5415   9
  -3   2   6 866.764 21.3451   7
   3   2  -6 791.484 20.5053   7
  -3   2   6 837.573 22.4408  12
  -2  -2   6 371.868 12.1977  14
  -2   2   6 380.724 12.1285  11
   2   2  -6 368.315 13.8651   9
  -2   2   6 393.662 11.2363   7
   2   2  -6 364.530 11.1944  12
   2   2  -6 377.056 10.4356   7
  -2   2   6 384.648 11.7393  12
  -1  -2   6 576.391 16.8706  14
  -1   2   6 556.095 16.5952  14
  -1   2   6 593.709 16.4315  12
   1   2  -6 610.365 14.6875  15
   1   2  -6 591.186 19.6144   9
  -1   2   6 597.232 15.5991   7
   0   2   6 198.960 6.17323  13
   0   2   6 197.901 6.79374   7
   0   2   6 184.346 7.09755   8
   0   2  -6 196.834 6.83018  15
   0   2   6 203.448 7.14185  12
   0   2  -6 192.026 8.45554   9
   0   2   6 187.162 7.27972  14
   1   2   6 553.391 14.1946  13
   1   2   6 576.319 16.0120  12
   1   2   6 559.330 15.1390   7
   1   2   6 540.783 16.5160   8
   2   2   6 1049.07 24.9558  13
   2   2   6 1079.94 26.2647   7
  -2   2  -6 1020.41 27.1164  12
   2   2   6 1059.43 27.5759  12
  -3   2  -6 212.331 8.17641  12
   3   2   6 223.512 8.10880   7
  -4  -2  -6 1620.70 32.9479   2
  -4   2  -6 1582.36 33.0329   3
  -4   2  -6 1648.25 41.3246  12
   4   2   6 1653.25 39.4170   7
   4   2   6 1592.21 33.7627   3
  -5  -2  -6 674.537 14.9494   2
  -5   2  -6 669.506 14.8613   3
   5   2   6 686.998 15.6455   3
  -5   2  -6 661.967 19.7284  12
   5   2   6 667.521 19.1456   7
  -6  -2  -6 413.044 9.83924   2
   6   2   6 420.938 10.3668   3
  -6   2  -6 416.962 9.64040   3
  -7  -2  -6 4.91811 0.75457   2
  -7   2  -6 5.07446 0.68833   3
   7   2   6 3.03249 0.84193   3
  -7   3   6 98.9250 3.13614   3
  -6   3   6 691.908 15.2914   3
   6   3  -6 695.646 15.3172  17
  -5   3   6 171.334 6.95065   7
   5   3  -6 184.410 5.64890  17
  -5   3   6 179.000 5.36933   3
  -5   3   6 182.112 7.87634  12
   5   3  -6 179.947 4.79064   4
  -4   3   6 992.617 21.3350   3
  -4   3   6 1035.18 27.5029  12
  -4   3   6 992.247 21.3932   3
   4   3  -6 970.182 19.0071   4
   4   3  -6 1039.28 21.5721  17
  -4   3   6 974.010 25.1345   7
  -3   3   6 350.950 11.6977  12
  -3   3   6 344.164 10.5967   7
   3   3  -6 344.955 8.79898  17
  -3   3   6 346.852 12.1886  11
  -2   3   6 1954.14 44.4067   7
  -2   3   6 1944.61 48.4831  11
   2   3  -6 1848.90 57.0154   9
  -2   3   6 1940.00 47.6657  12
  -1   3   6 111.759 5.22207  12
   1   3  -6 113.923 6.51541   9
  -1   3   6 109.111 5.96737  11
  -1   3   6 113.338 4.78419   7
   0   3   6 289.479 9.00398   7
   0   3   6 296.507 10.9168  11
   0   3  -6 293.040 11.8964   9
   0   3   6 287.834 9.76661  12
   0   3   6 292.545 8.32174  13
   1   3   6 722.882 20.2074  12
   1   3   6 730.626 18.7784   7
   1   3   6 729.420 21.4217  11
   2   3   6 1338.25 34.5393  12
   2   3   6 1343.89 32.2836   7
   3   3   6 825.343 17.8806   3
  -3   3  -6 792.898 15.5590   4
   3   3   6 814.976 21.2373   7
  -4  -3  -6 28.8892 1.88595   2
   4   3   6 29.2259 2.05090   3
  -4   3  -6 30.2505 1.63588   4
   4   3   6 28.9978 3.13701   7
  -5  -3  -6 57.4660 2.57742   2
  -5   3  -6 54.8009 2.26055   4
   5   3   6 69.0180 2.95236   3
  -5   3  -6 58.0059 4.39700  12
  -6  -3  -6 155.149 4.41165   2
   6   3   6 158.272 4.58115   3
  -6   3  -6 146.397 4.11309   4
   7   4  -6 6.30663 0.65991   4
   6   4  -6 543.592 10.7436   4
   6   4  -6 552.862 12.1188  17
   5   4  -6 20.4692 1.38980   4
   5   4  -6 23.0828 1.98546  17
  -4   4   6 85.5676 5.00350  12
  -4   4   6 84.9859 2.94340   3
   4   4  -6 90.5849 2.79004   4
   4   4  -6 90.3040 3.72025  17
   3   4  -6 633.501 12.1379   4
  -3   4   6 641.042 19.3930  11
  -3   4   6 605.026 13.5036   3
  -3   4   6 598.852 13.5242   3
   3   4  -6 641.544 14.3788  17
  -3   4   6 617.734 18.3004  12
  -2   4   6 2087.21 42.6366   3
  -2   4   6 2261.57 54.2659  11
   2   4  -6 2133.07 38.0006   4
   2   4  -6 2139.78 42.5910  17
  -2   4   6 2077.23 52.4177  12
   2   4  -6 2064.93 42.8420   2
  -2   4   6 2124.56 38.5383   4
   1   4  -6 256.500 4.24486   5
   1   4  -6 255.200 6.91549  17
  -1   4   6 260.418 10.6171  11
  -1   4   6 267.531 9.35110  12
  -1   4   6 256.586 5.97803   4
   1   4  -6 260.512 5.45480   4
  -1   4   6 257.098 6.45992   3
   0   4  -6 15.1571 0.96520   4
   0   4   6 16.3833 1.42705   3
   0   4  -6 15.2346 0.74365   5
   0   4   6 14.9049 1.28092   4
   0   4   6 14.1007 2.81766  11
   0   4   6 15.6848 2.36209  12
   1   4   6 166.890 4.59776   3
  -1   4  -6 149.683 2.88988   5
  -1   4  -6 168.756 3.75477   4
   1   4   6 163.692 6.84724  12
   1   4   6 167.179 8.19628  11
   1   4   6 152.349 8.57166   6
   2   4   6 540.258 16.0829  12
   2   4   6 543.752 17.5933  11
   2   4   6 529.436 11.9699   3
   2   4   6 518.539 19.9078   6
  -2   4  -6 546.454 10.4388   4
  -3   4  -6 80.4204 2.47338   4
   3   4   6 75.8630 2.92625   3
   4   4   6 549.612 12.4187   3
  -4   4  -6 569.188 11.0473   4
   5   4   6 105.127 3.16309   3
  -5   4  -6 102.719 2.87012   4
  -6   4  -6 169.365 3.78423   4
   5   5  -6 315.239 6.01614   4
   5   5  -6 296.964 7.37048  17
  -5   5   6 300.780 6.37126   4
  -5   5   6 305.171 4.31109   1
  -4   5   6 102.456 2.92379   4
   4   5  -6 103.464 3.67659  17
  -4   5   6 97.9492 1.93493   1
   4   5  -6 102.958 2.51153   4
  -3   5   6 14.2329 0.81071   1
   3   5  -6 19.9999 1.85955  17
  -3   5   6 11.9567 2.46698  11
   3   5  -6 14.4670 0.75491   5
   3   5  -6 14.0056 0.82164   4
  -3   5   6 15.5934 1.29296   4
  -2   5   6 267.989 10.6638  11
   2   5  -6 251.244 6.89234  17
  -2   5   6 253.554 5.85172   4
   2   5  -6 254.274 4.14189   5
   2   5  -6 261.812 5.04218   4
  -2   5   6 254.571 3.97437   1
  -1   5   6 57.8319 4.59934  11
   1   5  -6 55.5543 1.29392   5
  -1   5   6 55.7575 1.40707   1
  -1   5   6 56.7152 2.14408   4
   0   5   6 162.374 4.14308   4
   0   5   6 170.550 8.25113  11
   0   5   6 163.809 2.80829   1
   0   5  -6 158.578 2.72822   5
   1   5   6 128.717 7.02156  11
   1   5   6 129.003 3.54783   4
  -1   5  -6 130.502 2.33992   5
   2   5   6 393.966 8.22066   4
  -2   5  -6 392.529 5.93022   5
   3   5   6 52.3202 2.02467   4
   3   5   6 51.5626 3.20950  18
  -3   5  -6 54.9993 1.39871   4
  -3   5  -6 56.3069 1.36635   5
   4   5   6 210.679 4.90161   4
   4   5   6 209.349 6.60182  18
  -4   5  -6 220.859 3.59268   5
  -4   5  -6 219.705 4.16845   4
   3   6  -6 343.683 7.98366  17
  -3   6   6 351.430 6.73454   4
   2   6  -6 289.665 7.03735  17
  -2   6   6 306.498 5.98962   4
  -1   6   6 59.7108 4.18367  11
  -1   6   6 64.1991 1.86210   4
   0   6   6 146.229 3.38399   4
   1   6   6 179.366 3.95282   4
   2   6   6 98.0110 2.44100   4
   3   6   6 100.794 2.37443   4
   8   0  -7 209.817 5.66858   3
   7   0  -7 102.741 3.92654   3
   6   0  -7 6.17309 2.13521   7
   6   0  -7 6.50378 1.41849   3
   6   0  -7 4.05781 1.75178  12
  -6   0   7 9.31914 2.28820   7
  -5   0   7 2239.15 53.3467   7
   5   0  -7 2296.90 53.9370   7
   5   0  -7 2287.77 56.0028  12
   5   0  -7 2177.82 45.9709   3
  -4   0   7 20.6928 2.76011   7
   4   0  -7 21.0872 2.76657  12
   4   0  -7 21.5189 3.01067   7
  -3   0   7 82.1105 4.59155   7
   3   0  -7 89.6885 4.31124  15
   3   0  -7 87.2760 4.88200   7
   3   0  -7 88.4494 4.78511  12
   2   0  -7 377.960 11.6015   7
  -2   0   7 362.073 12.2812  14
  -2   0   7 356.112 11.0982  12
   2   0  -7 386.085 10.4326  15
   2   0  -7 387.585 11.7913  12
   1   0  -7 144.777 5.90398   7
   1   0  -7 145.593 5.15732  15
  -1   0   7 134.695 5.38407  12
  -1   0   7 138.434 6.17210  14
   1   0  -7 143.522 5.85355  12
   0   0   7 31.9236 2.73261  14
   0   0   7 26.4378 2.21389  12
   0   0   7 32.4655 2.65688   7
   0   0  -7 28.6724 2.54945   7
   0   0  -7 30.9465 2.62545  12
   0   0  -7 29.4722 2.14305  15
   0   0   7 28.9855 2.43239   8
   1   0   7 526.675 16.3098  14
  -1   0  -7 548.379 15.6167  12
   1   0   7 539.837 15.0298   7
  -2   0  -7 459.918 13.8848  12
   2   0   7 446.280 13.4840   7
   3   0   7 1.67721 1.39655   7
  -3   0  -7 0.58268 0.96283  12
  -4   0  -7 505.951 11.9100   2
  -4   0  -7 522.737 16.1305  12
  -4   0  -7 522.005 12.3306   3
   4   0   7 507.212 15.8480   7
  -5   0  -7 2.18749 1.38888  12
  -5   0  -7 1.81698 0.72613   2
  -5   0  -7 2.38691 0.97453   3
  -6   0  -7 174.955 5.04674   2
  -6   0  -7 174.481 5.29298   3
  -7   0  -7 0.88742 0.61894   3
  -7   0  -7 0.69968 0.44708   2
   8  -1  -7 137.368 4.17958   3
  -8   1   7 133.094 3.98687   3
   8   1  -7 137.643 3.94407   3
   7   1  -7 18.4554 1.74505   3
  -7   1   7 16.9401 1.75712   3
  -6  -1   7 303.592 11.0372  10
   6  -1  -7 298.901 11.6095   7
  -6   1   7 303.539 10.8657   7
   6   1  -7 301.901 10.9171   7
  -6   1   7 309.720 8.34582   3
   6   1  -7 314.650 11.2691  12
   6   1  -7 317.610 8.28700   3
   5  -1  -7 1310.71 34.1567   7
  -5   1   7 1324.90 33.3377   7
   5   1  -7 1352.54 34.9332  12
   5   1  -7 1303.35 27.8109   3
   5   1  -7 1335.31 33.3937   7
  -5   1   7 1289.84 28.0513   3
  -5   1   7 1344.22 34.5504  12
  -5   1   7 1284.56 27.9756   3
   4  -1  -7 148.470 7.28727   7
   4  -1  -7 140.976 6.47896  12
   4   1  -7 163.512 7.07084  12
   4   1  -7 152.787 6.86230   7
  -4   1   7 158.801 6.87626  12
  -4   1   7 155.995 6.95842   7
   3  -1  -7 806.180 21.8595   7
   3  -1  -7 798.972 21.9558  12
   3  -1  -7 812.785 19.3769  15
  -3   1   7 841.869 21.6076   7
   3   1  -7 790.838 19.7370  15
   3   1  -7 739.942 25.6871   9
   3   1  -7 818.004 22.1875  12
   3   1  -7 842.127 21.3687   7
  -3   1   7 808.019 22.1841  12
   2  -1  -7 562.694 16.2678   7
   2  -1  -7 576.721 16.3524  12
   2  -1  -7 585.997 14.4422  15
  -2   1   7 584.373 16.3972  12
   2   1  -7 546.731 19.1412   9
   2   1  -7 587.639 14.7631  15
   2   1  -7 581.429 15.7600   7
   2   1  -7 570.925 16.3640  12
   1  -1  -7 225.281 8.25531   7
  -1  -1   7 240.839 8.76881  14
   1  -1  -7 248.493 7.30292  15
   1  -1  -7 240.265 8.23458  12
   1   1  -7 244.111 7.47964  15
   1   1  -7 237.041 8.11044  12
   1   1  -7 230.117 9.58005   9
  -1   1   7 232.293 8.12638  12
  -1   1   7 233.375 8.26482   8
   1   1  -7 234.317 7.87145   7
  -1   1   7 232.540 8.10582   7
  -1   1   7 219.720 8.49396  14
   0  -1  -7 144.531 6.02733   7
   0  -1   7 135.472 6.08918  14
   0  -1  -7 145.123 5.79808  12
   0   1   7 131.936 5.83762   8
   0   1   7 142.326 5.84176   7
   0   1   7 141.715 6.13651  14
   0   1  -7 133.701 4.99374  15
   0   1  -7 136.601 5.67945  12
   0   1   7 139.160 5.77291  12
  -1  -1  -7 494.753 14.2684  12
   1  -1   7 484.487 14.9718  14
   1   1   7 473.555 13.1326  13
   1   1   7 487.573 14.1597  12
   1   1   7 484.332 13.9059   7
  -1   1  -7 485.192 14.2859  12
  -1   1  -7 479.303 12.2201  15
  -2  -1  -7 624.417 17.6757  12
   2   1   7 632.466 17.2738   7
   2   1   7 626.260 17.5347  12
   2   1   7 587.213 16.1903  13
  -3  -1  -7 1190.38 31.2280  12
  -3   1  -7 1193.31 31.5487  12
   3   1   7 1195.17 30.2355   7
  -4  -1  -7 1501.34 31.8291   3
  -4  -1  -7 1498.48 31.0481   2
  -4  -1  -7 1499.02 38.7326  12
   4   1   7 1519.04 32.0118   3
  -4   1  -7 1514.11 31.4469   3
  -4   1  -7 1545.29 39.3230  12
   4   1   7 1516.21 37.6688   7
  -4   1  -7 1514.49 31.1406   2
  -5  -1  -7 190.807 5.55457   2
  -5  -1  -7 186.394 5.92105   3
  -5   1  -7 193.856 5.56719   2
  -5   1  -7 191.746 5.65675   3
   5   1   7 203.098 8.40300   7
  -5   1  -7 183.812 8.01997  12
   5   1   7 186.771 6.07405   3
  -6  -1  -7 4.22546 1.09718   3
  -6  -1  -7 3.48864 0.81167   2
   6   1   7 2.28239 1.03841   3
  -6   1  -7 3.81227 0.89919   3
  -7  -1  -7 8.52054 0.95382   2
  -7  -1  -7 8.95104 1.08124   3
   7   1   7 8.55245 1.16206   3
  -7   1  -7 9.08031 0.98043   3
  -8   2   7 83.1908 2.59220   3
   8   2  -7 76.6877 2.34686   3
  -7   2   7 26.9713 1.71489   3
   7   2  -7 23.8730 1.67737  17
   7   2  -7 27.0493 1.61181   3
  -6   2   7 498.929 15.8534  12
   6   2  -7 521.392 16.1670  12
  -6   2   7 537.472 12.3984   3
   6   2  -7 522.871 11.9442   3
  -5   2   7 662.235 15.1004   3
  -5   2   7 668.862 15.1330   3
  -5   2   7 654.732 19.4964  12
  -5   2   7 642.309 18.5746   7
   5   2  -7 656.597 14.6944   3
   5   2  -7 627.243 17.8916   7
   5   2  -7 669.672 19.5534  12
   4   2  -7 980.203 21.0517   3
   4   2  -7 991.239 25.1316   7
  -4   2   7 1003.22 25.8371   7
  -4   2   7 1015.39 27.2858  12
   4   2  -7 983.089 26.9642  12
  -4   2   7 984.644 21.5223   3
  -3   2   7 750.707 19.8846   7
   3   2  -7 701.474 18.8126   7
   3   2  -7 706.502 20.2143  12
  -3   2   7 756.117 20.8585  12
   2  -2  -7 69.6048 3.61304  15
   2   2  -7 62.0852 4.78581   9
  -2   2   7 70.3260 4.00268   7
  -2   2   7 76.2140 4.33914  12
   2   2  -7 61.6325 3.74930  12
  -2   2   7 66.2921 4.34298  11
   2   2  -7 65.4125 3.49673   7
   1   2  -7 111.306 6.38064   9
  -1   2   7 122.174 5.50738  12
   1   2  -7 115.354 4.98757  15
  -1   2   7 120.165 5.25550   7
   1   2  -7 108.278 5.00267  12
   0   2   7 1311.25 32.4926  12
   0   2   7 1240.44 29.3134  13
   0   2  -7 1228.02 38.2905   9
   0   2  -7 1203.68 31.7671  12
   0   2   7 1304.94 30.6990   7
   1   2   7 756.699 19.9473   7
  -1   2  -7 730.357 20.4659  12
   1   2   7 768.210 20.9197  12
   2   2   7 46.5931 3.43490   7
  -2   2  -7 33.0882 2.91797  12
   2   2   7 35.6595 3.11950  12
  -3  -2  -7 1983.96 40.6268   2
  -3   2  -7 1986.63 40.7966   3
  -3   2  -7 1954.35 40.7508   2
   3   2   7 2018.44 41.6500   3
  -3   2  -7 2133.38 50.7807  12
   3   2   7 2091.09 48.0685   7
  -4  -2  -7 669.423 14.7687   2
   4   2   7 666.752 15.4502   3
  -4   2  -7 681.531 19.5432  12
  -4   2  -7 645.067 14.5504   3
   4   2   7 648.007 18.6530   7
  -5  -2  -7 119.065 3.99494   2
  -5   2  -7 120.676 6.05816  12
  -5   2  -7 119.152 3.77292   3
   5   2   7 112.326 4.35907   3
  -6  -2  -7 268.496 6.70886   2
  -6   2  -7 273.196 6.40385   3
   6   2   7 259.285 7.09819   3
  -7  -2  -7 19.0534 1.14009   2
   7   2   7 17.6334 1.25127   3
   7   3  -7 78.1717 2.69165  17
  -7   3   7 85.6300 2.65276   3
  -6   3   7 199.251 5.44648   3
   6   3  -7 197.298 5.62719  17
  -5   3   7 15.5984 2.51663  12
   5   3  -7 18.6339 2.64772  12
  -5   3   7 21.5630 1.90905   3
   5   3  -7 15.8517 1.43990   4
   5   3  -7 16.4177 1.76322  17
  -4   3   7 10.0173 2.15630  12
   4   3  -7 8.65939 1.98011  12
  -4   3   7 14.2043 1.58415   3
   4   3  -7 10.6854 1.59250  17
  -4   3   7 12.0413 1.50818   3
  -4   3   7 13.9126 2.27986   7
   4   3  -7 9.92369 1.14809   4
  -3   3   7 1827.65 44.7729  12
   3   3  -7 1702.08 31.9688   4
   3   3  -7 1746.66 35.8797   2
  -3   3   7 1760.26 41.4328   7
  -3   3   7 1745.88 35.8898   3
   3   3  -7 1744.69 35.5858  17
  -3   3   7 1725.30 44.7659  11
   2   3  -7 625.154 14.4870  17
  -2   3   7 664.955 17.6796   7
  -2   3   7 664.158 19.9526  11
  -2   3   7 667.484 19.0414  12
  -1   3   7 511.189 14.4208   7
  -1   3   7 522.176 16.8383  11
  -1   3   7 516.047 15.5795  12
   0   3   7 856.791 24.8770  11
   0   3   7 860.036 23.6359  12
   0   3   7 858.708 21.9968   7
   1   3   7 960.668 26.1309  12
   1   3   7 982.840 27.6311  11
   1   3   7 959.641 24.3914   7
   2   3   7 636.968 18.4897  12
   2   3   7 625.737 17.2507   7
   2   3   7 629.462 14.3101   3
  -2   3  -7 627.327 12.4349   4
  -3   3  -7 125.475 3.61607   4
   3   3   7 125.285 6.81964  11
   3   3   7 125.430 5.82500   7
   3   3   7 129.966 4.37650   3
  -4  -3  -7 37.2988 2.03687   2
   4   3   7 34.5604 2.17723   3
  -4   3  -7 36.8576 1.83612   4
  -5  -3  -7 332.101 7.96836   2
   5   3   7 333.441 8.25524   3
  -5   3  -7 320.256 7.17449   4
  -6  -3  -7 33.3847 1.60460   2
  -6   3  -7 28.1625 1.41815   4
   6   3   7 30.5196 1.60674   3
   6   4  -7 128.450 3.20097   4
   6   4  -7 125.565 3.77040  17
   5   4  -7 833.720 17.6541  17
   5   4  -7 832.140 15.5848   4
  -5   4   7 790.584 17.2604   3
  -4   4   7 403.750 9.57997   3
  -4   4   7 426.090 13.7546  12
   4   4  -7 435.166 8.76937   4
   4   4  -7 425.207 10.3611  17
  -3   4   7 393.625 13.8796  11
   3   4  -7 408.813 8.32384   4
  -3   4   7 403.027 9.35909   3
  -3   4   7 393.329 13.0669  12
  -3   4   7 408.770 9.33278   3
   3   4  -7 405.315 10.0186  17
  -2   4   7 1183.96 24.6367   3
   2   4  -7 1219.39 21.9684   4
   2   4  -7 1171.54 24.8293  17
  -2   4   7 1211.74 32.8660  11
   2   4  -7 1181.96 25.1158   2
  -2   4   7 1178.13 31.3963  12
  -1   4   7 348.368 8.28379   3
  -1   4   7 364.174 13.2001  11
   1   4  -7 343.413 8.77016   2
   1   4  -7 348.599 7.14556   4
  -1   4   7 335.341 11.5272  12
   0   4  -7 33.4587 1.45313   4
   0   4   7 32.3094 3.04211  12
   0   4   7 32.0497 1.79906   3
   0   4   7 37.1701 4.44507  11
   1   4   7 43.3514 2.13769   3
  -1   4  -7 47.0869 1.68782   4
   1   4   7 42.4894 4.77226  11
   1   4   7 44.1843 3.46398  12
   2   4   7 515.100 16.1733  12
   2   4   7 562.862 12.3378   3
   2   4   7 543.165 17.8585  11
  -2   4  -7 558.722 10.6947   4
  -3   4  -7 294.962 6.30931   4
   3   4   7 294.033 7.27626   3
   4   4   7 31.4946 1.64728   3
  -4   4  -7 30.4734 1.43151   4
  -5   4  -7 427.768 8.18837   4
   5   4   7 404.394 8.94071   3
   5   5  -7 76.8489 1.76971   4
   5   5  -7 76.3669 2.65813  17
  -5   5   7 76.1812 1.43303   1
  -5   5   7 76.0225 2.17600   4
  -4   5   7 39.2722 1.61270   4
   4   5  -7 38.5313 2.01943  17
   4   5  -7 38.8500 1.22697   4
  -4   5   7 38.0474 1.07025   1
  -3   5   7 92.1278 1.87493   1
  -3   5   7 94.5241 2.80512   4
   3   5  -7 93.5689 1.94445   5
   3   5  -7 91.7781 3.38145  17
  -3   5   7 85.3530 5.19000  11
   3   5  -7 94.4244 2.23342   4
   2   5  -7 5.87612 1.03693  17
  -2   5   7 3.70374 0.72182   4
   2   5  -7 4.31572 0.46398   5
  -2   5   7 4.13465 1.70461  11
   2   5  -7 5.09117 0.50579   4
  -2   5   7 4.94885 0.53814   1
   1   5  -7 88.4402 1.79217   5
  -1   5   7 89.3337 2.77853   4
  -1   5   7 87.6483 1.86190   1
  -1   5   7 85.4972 5.53857  11
   0   5   7 426.766 14.7542  11
   0   5   7 419.500 8.76821   4
   0   5  -7 425.764 6.32500   5
   0   5   7 430.769 6.02423   1
   1   5   7 198.591 3.29449   1
   1   5   7 200.089 8.84885  11
   1   5   7 199.784 4.76769   4
  -1   5  -7 197.597 3.30452   5
  -2   5  -7 48.2927 1.22792   5
   2   5   7 48.3692 1.92165   4
   3   5   7 38.6089 1.62347   4
  -3   5  -7 38.3661 1.05471   5
   4   5   7 0.22601 0.39798   4
  -4   5  -7 0.97337 0.29422   5
  -2   6   7 24.8846 1.03169   4
  -1   6   7 187.377 4.00566   4
   0   6   7 204.106 4.32783   4
   1   6   7 461.848 8.78590   4
   8   0  -8 369.315 8.49418   3
   7   0  -8 138.157 4.48886   3
   6   0  -8 263.547 10.0606  12
   6   0  -8 290.624 7.80123   3
   5   0  -8 757.565 21.5511  12
   5   0  -8 743.377 16.9254   3
  -5   0   8 705.173 20.8685   7
   5   0  -8 747.594 21.3190   7
   4   0  -8 12.0277 1.70985   3
  -4   0   8 5.95042 1.93910   7
   4   0  -8 8.30212 2.05560  12
   4   0  -8 8.40782 2.27551   7
   3   0  -8 125.507 6.28728   7
   3   0  -8 137.149 6.34167  12
  -3   0   8 119.937 6.02005   7
   3   0  -8 113.717 5.47010  15
  -2   0   8 6.47700 1.61482   7
   2   0  -8 8.47057 1.90443  12
   2   0  -8 4.91986 1.34204  15
   2   0  -8 8.08604 1.93679   7
   1   0  -8 355.861 10.1847  15
   1   0  -8 361.827 11.5054  12
   1   0  -8 346.034 11.2628   7
  -1   0   8 330.067 11.0061   7
   0   0   8 90.2434 4.83996   7
   0   0  -8 88.1749 4.79852  12
   0   0  -8 93.3005 4.24836  15
   0   0  -8 90.6412 4.75380   7
  -1   0  -8 55.9314 3.21934  15
  -1   0  -8 60.6882 3.96936  12
   1   0   8 56.4237 3.87570   7
  -2   0  -8 472.728 12.5789  15
   2   0   8 469.748 14.4434   7
  -2   0  -8 478.667 14.7702  12
  -3   0  -8 5161.99 102.678   3
  -3   0  -8 5314.15 123.090  12
  -3   0  -8 5158.05 101.339   2
   3   0   8 5154.15 116.739   7
  -4   0  -8 27.5324 3.28068  12
  -4   0  -8 35.3770 2.25225   3
  -4   0  -8 27.4774 1.95683   2
  -5   0  -8 22.7155 3.07877  12
  -5   0  -8 26.7887 1.92495   3
  -5   0  -8 22.3868 1.72084   2
  -6   0  -8 243.820 6.26183   2
  -6   0  -8 251.828 6.49828   3
   7  -1  -8 161.594 4.97551   3
   7   1  -8 160.478 4.70640   3
  -7   1   8 159.651 4.82691   3
   6  -1  -8 436.647 10.9854   3
   6   1  -8 442.643 10.7255   3
  -6   1   8 445.276 10.8868   3
   6   1  -8 432.621 14.5340  12
   5  -1  -8 1626.38 34.3106   3
   5  -1  -8 1601.99 40.1444   7
  -5   1   8 1565.57 33.3421   3
  -5   1   8 1558.34 33.2578   3
  -5   1   8 1579.18 39.4036   7
   5   1  -8 1607.96 39.1898   7
   5   1  -8 1621.73 33.1357   3
  -5   1   8 1489.29 40.4276  12
   5   1  -8 1636.91 41.3512  12
   4  -1  -8 262.783 10.3886   7
  -4   1   8 266.507 9.89116   7
   4   1  -8 258.033 9.69504   7
  -4   1   8 261.368 9.72666  12
  -4   1   8 255.404 7.30938   3
   4   1  -8 255.275 9.98097  12
   4   1  -8 257.139 7.14081   3
   3  -1  -8 609.129 16.1847  15
   3  -1  -8 635.195 18.5399   7
   3  -1  -8 615.580 18.1802  12
  -3   1   8 621.462 18.1660  12
  -3   1   8 645.081 18.1919   7
   3   1  -8 610.898 16.5241  15
   3   1  -8 624.983 17.6858   7
   3   1  -8 648.510 18.6486  12
   2  -1  -8 309.688 10.4396  12
   2  -1  -8 325.404 10.9511   7
   2  -1  -8 315.442 9.47690  15
  -2   1   8 311.380 10.4437  12
   2   1  -8 299.086 9.65665  15
   2   1  -8 319.503 10.2495   7
   2   1  -8 313.037 10.6021  12
   2   1  -8 278.995 12.3646   9
  -2   1   8 299.171 10.3215   7
   1  -1  -8 230.307 8.48826  12
   1  -1  -8 238.449 7.65791  15
   1  -1  -8 229.530 8.73468   7
   1   1  -8 234.259 8.54507  12
  -1   1   8 226.421 8.34247   7
   1   1  -8 229.252 8.10887   7
  -1   1   8 229.114 8.41542  12
   1   1  -8 239.310 7.81569  15
   1   1  -8 212.257 9.68231   9
   0  -1  -8 1.12939 0.83969  15
   0  -1  -8 1.72285 1.14496  12
   0  -1  -8 3.55116 1.51196   7
   0   1  -8 1.47533 0.99241  15
   0   1  -8 1.46836 1.03006  12
   0   1   8 4.92165 1.39510  12
   0   1   8 1.57710 1.10858   7
  -1  -1  -8 89.6581 4.85500  12
  -1   1  -8 94.3957 5.02915  12
  -1   1  -8 90.6292 4.24881  15
   1   1   8 94.4421 4.80590  12
   1   1   8 97.5296 5.10879   7
  -2  -1  -8 68.6067 4.33322  12
   2   1   8 67.1823 4.41909   7
  -2   1  -8 71.9242 4.46859  12
  -3  -1  -8 944.110 20.0997   2
  -3  -1  -8 944.463 25.5742  12
  -3  -1  -8 922.020 20.6223   3
  -3   1  -8 936.602 20.1904   2
  -3   1  -8 960.128 26.0271  12
  -3   1  -8 944.144 20.2660   3
   3   1   8 930.801 25.0257   7
   3   1   8 917.758 20.7575   3
  -4  -1  -8 205.521 6.01395   2
  -4  -1  -8 212.127 6.37826   3
  -4   1  -8 215.119 6.09365   3
   4   1   8 210.805 6.55490   3
  -4   1  -8 215.084 8.70295  12
   4   1   8 215.708 8.80187   7
  -5  -1  -8 104.526 3.97183   3
  -5  -1  -8 106.354 3.76620   2
  -5   1  -8 108.732 3.76285   3
  -5   1  -8 110.182 3.76218   2
   5   1   8 107.571 4.18307   3
  -6  -1  -8 105.713 3.32594   2
  -6  -1  -8 98.1200 3.46961   3
  -6   1  -8 95.7541 3.11658   2
  -6   1  -8 100.748 3.21374   3
   6   1   8 98.0990 3.61108   3
   7   2  -8 231.759 5.90884  17
   7   2  -8 239.161 5.73682   3
  -7   2   8 247.865 6.13055   3
   6   2  -8 4.54893 0.91378   3
  -6   2   8 5.11771 1.08571   3
  -5   2   8 44.7915 3.89081   7
  -5   2   8 45.4614 3.79896  12
  -5   2   8 47.8430 2.61953   3
  -5   2   8 42.1734 2.50481   3
   5   2  -8 45.7086 2.34044   3
   5   2  -8 44.9388 3.79479  12
   4   2  -8 5.44655 1.09208   3
  -4   2   8 4.16590 1.60763   7
  -4   2   8 3.44744 1.53205  12
  -4   2   8 5.03734 1.13767   3
   4   2  -8 4.38904 1.60288  12
  -3   2   8 701.632 15.9816   3
   3   2  -8 696.733 15.9158   2
  -3   2   8 723.775 19.6877   7
   3   2  -8 724.068 20.4348  12
  -3   2   8 721.308 20.5818  12
   3   2  -8 687.951 15.4604   3
   2  -2  -8 796.915 19.4227  15
  -2   2   8 837.673 21.5020   7
  -2   2   8 814.999 22.4868  12
   2   2  -8 779.864 22.0286  12
  -2   2   8 754.465 22.5931  11
   1  -2  -8 414.104 13.7203   7
   1  -2  -8 410.506 11.6125  15
   1   2  -8 406.722 13.0400  12
  -1   2   8 442.551 13.1042   7
  -1   2   8 433.096 13.4637  12
   1   2  -8 412.089 12.0244  15
   0   2   8 230.736 8.64059  12
   0   2   8 220.002 8.21709   7
   0   2  -8 210.520 8.20516  12
   1   2   8 676.546 18.3205   7
  -1   2  -8 625.838 18.5402  12
   1   2   8 641.105 18.6991  12
  -2   2  -8 647.039 14.5813   3
   2   2   8 690.151 19.5751  12
   2   2   8 699.922 19.0124   7
   2   2   8 673.547 15.4303   3
  -2   2  -8 669.230 19.4228  12
  -2   2  -8 661.388 15.0645   2
  -3  -2  -8 1272.50 26.2544   2
  -3   2  -8 1264.32 26.4799   2
  -3   2  -8 1249.50 26.1258   3
  -3   2  -8 1274.29 33.3514  12
   3   2   8 1254.98 31.7118   7
   3   2   8 1274.30 27.0272   3
  -4  -2  -8 295.272 7.49031   2
  -4   2  -8 285.092 7.48875   2
  -4   2  -8 268.245 10.2859  12
   4   2   8 292.321 7.94767   3
  -4   2  -8 295.082 7.20251   3
  -5  -2  -8 94.5185 3.30736   2
   5   2   8 93.0948 3.59552   3
  -5   2  -8 86.1526 2.91903   3
  -6  -2  -8 61.6940 2.33583   2
   6   2   8 64.7612 2.56509   3
  -6   3   8 9.58274 1.09501   3
   6   3  -8 8.45015 1.14163  17
  -5   3   8 399.105 9.48918   3
   5   3  -8 394.821 9.64159  17
   5   3  -8 380.101 8.86884   4
  -4   3   8 268.430 7.09372   3
   4   3  -8 257.854 6.17800   4
  -4   3   8 272.293 10.1323  12
  -4   3   8 258.025 7.00718   3
   4   3  -8 248.073 9.54794  12
   4   3  -8 272.649 7.33096  17
  -3   3   8 1673.03 33.9315   3
   3   3  -8 1608.65 30.1811   4
   3   3  -8 1651.12 33.8859   2
  -3   3   8 1605.22 39.1850   7
  -3   3   8 1656.72 42.1527  12
   3   3  -8 1642.72 33.5278  17
   2   3  -8 15.6017 1.37464   4
  -2   3   8 18.2741 2.48735   7
  -2   3   8 17.7152 1.78352   3
   2   3  -8 13.3426 1.54495  17
  -2   3   8 17.0212 2.64791  12
   2   3  -8 14.6320 1.69268   2
  -2   3   8 19.9890 3.33965  11
   1  -3  -8 351.377 10.3557  15
  -1   3   8 350.281 8.78853   3
  -1   3   8 354.576 11.9622  12
   1   3  -8 343.308 8.90276   2
  -1   3   8 355.862 11.0852   7
  -1   3   8 348.884 13.0478  11
   1   3  -8 346.607 7.58509   4
   0   3   8 877.556 25.1251  11
   0   3   8 840.771 22.0496   7
   0   3  -8 831.919 16.2085   4
   0   3  -8 814.078 18.4117   2
   0   3   8 853.780 18.5773   3
   0   3   8 863.691 23.7208  12
   1   3   8 735.173 16.3397   3
   1   3   8 732.545 20.8710  12
   1   3   8 773.634 22.7690  11
   1   3   8 717.251 19.5330   7
  -1   3  -8 709.729 16.2042   2
   2   3   8 1553.80 31.7605   3
   2   3   8 1469.84 36.5641   7
  -2   3  -8 1493.50 28.0385   4
   2   3   8 1542.51 39.1774  12
   2   3   8 1555.42 40.6917  11
   3   3   8 204.042 5.96528   3
   3   3   8 199.718 8.93415  11
  -3   3  -8 204.647 5.00508   4
  -4   3  -8 222.110 5.31287   4
   4   3   8 226.235 6.25568   3
  -5  -3  -8 29.0470 1.61530   2
  -5   3  -8 26.9201 1.39300   4
   5   3   8 32.4937 1.76476   3
   6   4  -8 116.455 2.80321   4
   6   4  -8 118.441 3.37948  17
   5   4  -8 243.768 5.38144   4
   5   4  -8 248.908 6.40034  17
   4   4  -8 33.2002 2.03491  17
  -4   4   8 29.2248 1.59196   3
   4   4  -8 34.2007 1.55488   4
  -3   4   8 617.626 19.0699  11
  -3   4   8 647.461 13.9223   3
   3   4  -8 647.448 14.3596  17
   3   4  -8 662.278 12.4330   4
  -3   4   8 611.366 19.5946  12
  -3   4   8 635.451 13.8479   3
   2   4  -8 217.542 4.90941   4
  -2   4   8 198.096 8.20515  12
  -2   4   8 208.221 5.60045   3
   2   4  -8 213.757 5.95183  17
  -2   4   8 203.197 9.13365  11
   2   4  -8 218.303 6.17355   2
   1   4  -8 1094.56 23.3408   2
  -1   4   8 1103.97 29.4441  12
  -1   4   8 1125.33 30.8904  11
  -1   4   8 1082.87 22.9408   3
   1   4  -8 1110.03 20.3463   4
   0   4   8 81.7648 5.69966  11
   0   4   8 88.1899 3.07733   3
   0   4  -8 85.4301 2.52821   4
   0   4   8 81.0109 4.73461  12
   1   4   8 31.7077 4.19434  11
   1   4   8 25.8857 1.65537   3
  -1   4  -8 27.0322 1.34447   4
   1   4   8 24.5606 2.89392  12
  -2   4  -8 12.5146 1.03152   4
   2   4   8 12.2529 1.31623   3
   2   4   8 12.2161 2.74129  11
   3   4   8 224.253 5.80397   3
  -3   4  -8 231.327 5.07056   4
  -4   4  -8 365.489 7.28251   4
   4   4   8 362.400 8.15079   3
   4   5  -8 314.433 7.22601  17
  -4   5   8 301.146 4.28120   1
  -4   5   8 302.812 6.32680   4
  -3   5   8 94.3957 2.69116   4
   3   5  -8 92.2358 1.87619   5
  -3   5   8 91.1200 1.80825   1
   3   5  -8 95.6249 2.02577   4
   3   5  -8 90.4864 3.09717  17
   2   5  -8 182.738 3.08519   5
  -2   5   8 179.489 7.78118  11
  -2   5   8 179.438 2.99089   1
  -2   5   8 181.950 4.40345   4
  -1   5   8 74.3120 2.43201   4
   1   5  -8 76.5689 1.59767   5
  -1   5   8 76.5732 4.96037  11
  -1   5   8 74.8700 1.64273   1
   0   5   8 498.858 6.87871   1
   0   5   8 494.501 9.99669   4
   0   5  -8 496.641 7.31777   5
   0   5   8 512.444 16.0987  11
  -1   5  -8 164.437 2.71811   5
   1   5   8 149.918 7.13485  11
   1   5   8 156.909 2.68692   1
   1   5   8 160.027 3.94740   4
   2   5   8 5.75790 0.76419   4
  -2   5  -8 6.53776 0.48545   5
   2   5   8 5.34370 0.52215   1
  -3   5  -8 5.50591 0.44517   5
   7   0  -9 191.132 5.25286   3
   6   0  -9 385.247 9.63594   3
   5   0  -9 154.029 5.09829   3
   5   0  -9 136.894 6.87551  12
   4   0  -9 1.12071 0.98099   3
   4   0  -9 1.14385 1.54824   7
   4   0  -9 0.43523 1.27118  12
  -4   0   9 1.64378 1.53681   7
   3   0  -9 145.903 6.95082   7
  -3   0   9 126.578 6.54200   7
   3   0  -9 131.119 4.66958   3
   3   0  -9 147.356 6.93172  12
   3   0  -9 138.602 6.22518  15
   2   0  -9 663.910 17.2920  15
   2   0  -9 683.585 19.5268  12
   2   0  -9 654.504 15.0614   3
   2   0  -9 662.337 18.8504   7
  -2   0   9 630.904 18.6450   7
  -1   0   9 459.730 14.5777   7
   1   0  -9 509.975 15.3186  12
   1   0  -9 473.193 13.2867  15
   1   0  -9 490.497 14.7536   7
   0   0   9 28.9844 3.36308   7
   0   0  -9 22.6484 2.60443  15
   0   0  -9 28.4748 3.23626  12
  -1   0  -9 235.261 6.59697   2
  -1   0  -9 241.672 6.81196   3
  -1   0  -9 249.797 9.38546  12
  -1   0  -9 249.120 8.14748  15
  -2   0  -9 439.359 14.1417  12
  -2   0  -9 435.671 10.6554   3
  -2   0  -9 430.817 10.5004   2
  -2   0  -9 428.562 12.0571  15
  -3   0  -9 1370.04 36.1237  12
  -3   0  -9 1382.32 29.1238   3
  -3   0  -9 1387.14 28.7275   2
  -4   0  -9 5.49314 1.04164   2
  -4   0  -9 5.74467 1.22253   3
  -4   0  -9 5.81713 1.76505  12
  -5   0  -9 29.9052 1.77628   2
  -5   0  -9 26.8173 1.85592   3
  -6   0  -9 289.950 6.84031   3
  -6   0  -9 285.089 6.72396   2
   7  -1  -9 105.517 3.53929   3
   7   1  -9 114.213 3.34721   3
  -7   1   9 102.230 3.39365   3
   6  -1  -9 317.045 8.36268   3
   6   1  -9 326.180 8.08872   3
  -6   1   9 320.856 8.26979   3
   5  -1  -9 452.580 11.3803   3
  -5   1   9 453.424 11.2627   3
   5   1  -9 451.482 14.8670  12
   5   1  -9 474.628 11.1090   3
  -5   1   9 455.156 11.3029   3
   4  -1  -9 1102.89 24.8276   3
   4  -1  -9 1180.25 30.6354   7
  -4   1   9 1151.98 29.9492   7
   4   1  -9 1132.49 29.3173   7
  -4   1   9 1121.51 24.7753   3
   4   1  -9 1175.26 24.5838   3
   4   1  -9 1184.19 31.2586  12
   3  -1  -9 1076.91 26.5038  15
   3  -1  -9 1108.39 29.5854   7
  -3   1   9 1143.27 29.2109   7
  -3   1   9 1128.75 29.7276  12
   3   1  -9 1155.16 28.7861   7
   3   1  -9 1153.29 30.4771  12
   3   1  -9 1136.84 23.9612   3
   3   1  -9 1088.71 23.7926   2
   2  -1  -9 160.967 6.44645  15
   2  -1  -9 149.761 5.12809   3
   2  -1  -9 159.072 7.42139   7
   2  -1  -9 152.408 6.91283  12
   2   1  -9 159.452 6.81809   7
  -2   1   9 158.531 6.85484  12
  -2   1   9 149.875 5.04903   3
   2   1  -9 152.641 4.82907   3
  -2   1   9 164.709 7.18315   7
   2   1  -9 170.375 7.32916  12
   2   1  -9 154.224 4.99807   2
   2   1  -9 157.220 6.62777  15
   1  -1  -9 209.751 8.22795  12
   1  -1  -9 211.122 8.58099   7
   1  -1  -9 211.974 7.51791  15
   1   1  -9 207.791 7.63711  15
  -1   1   9 204.624 8.06192  12
   1   1  -9 206.488 8.32585  12
  -1   1   9 220.360 8.51361   7
   1   1  -9 209.018 6.06275   2
   1   1  -9 204.322 5.81649   3
   0  -1  -9 362.075 10.6129  15
   0  -1  -9 357.212 11.8373  12
   0   1   9 358.252 11.7882   7
   0   1  -9 333.554 8.72249   2
   0   1  -9 349.958 8.69971   3
   0   1  -9 355.413 12.0144  12
   0   1   9 352.760 11.4673  12
   0   1  -9 341.157 10.5237  15
  -1  -1  -9 595.504 15.3835  15
  -1  -1  -9 581.657 13.7213   3
  -1  -1  -9 577.337 17.2368  12
  -1  -1  -9 577.284 13.2598   2
   1   1   9 571.410 13.7458   3
   1   1   9 598.065 17.2161   7
   1   1   9 580.594 16.9595  12
  -1   1  -9 581.364 13.2787   3
  -1   1  -9 580.136 13.4458   2
  -1   1  -9 611.864 17.7699  12
  -2  -1  -9 2672.76 55.9308  15
  -2  -1  -9 2579.41 64.0356  12
  -2  -1  -9 2618.40 52.3115   2
  -2  -1  -9 2596.99 53.2221   3
   2   1   9 2578.88 53.3472   3
  -2   1  -9 2670.43 52.5202   2
  -2   1  -9 2653.68 64.5073  12
  -2   1  -9 2612.18 52.7629   3
   2   1   9 2651.10 61.4163   7
  -3  -1  -9 388.434 11.4591  15
  -3  -1  -9 409.673 9.94826   2
  -3  -1  -9 410.960 10.3347   3
  -3   1  -9 425.727 10.1475   2
  -3   1  -9 420.226 9.96452   3
  -3   1  -9 409.510 13.5865  12
   3   1   9 402.370 10.4412   3
   3   1   9 393.151 13.1509   7
  -4  -1  -9 26.5925 2.30178   3
  -4  -1  -9 26.0336 1.83216   2
   4   1   9 26.8575 2.37602   3
  -4   1  -9 24.3146 1.75851   3
  -4   1  -9 28.3972 1.89742   2
  -4   1  -9 27.5704 3.26730  12
  -5  -1  -9 40.0606 2.03562   2
  -5  -1  -9 37.6174 2.18400   3
  -5   1  -9 37.5945 1.90123   3
   5   1   9 40.2097 2.30285   3
  -5   1  -9 39.1394 1.95891   2
  -6  -1  -9 414.644 9.20944   3
   6   1   9 403.693 9.31649   3
  -6   1  -9 414.399 8.82152   3
  -6   1  -9 398.315 8.85090   2
  -7   2   9 107.137 3.14282   3
   6   2  -9 34.4159 1.92627  17
   6   2  -9 32.6960 1.61082   3
  -6   2   9 35.0385 1.95834   3
  -5   2   9 1030.09 21.7047   3
   5   2  -9 975.726 21.0045   3
  -4   2   9 242.939 9.44269  12
  -4   2   9 247.609 9.41699   7
   4   2  -9 247.346 9.64258  12
  -4   2   9 262.371 7.12522   3
   4   2  -9 241.807 6.46860   3
  -3   2   9 285.560 10.2552   7
  -3   2   9 300.225 10.6831  12
  -3   2   9 296.889 7.90456   3
   3   2  -9 275.952 10.4263  12
   3   2  -9 288.470 7.34694   3
   3   2  -9 296.479 7.91085   2
   2  -2  -9 274.172 10.8138   7
   2  -2  -9 298.903 9.49249  15
  -2   2   9 289.362 7.87842   3
  -2   2   9 302.968 10.6910  12
   2   2  -9 295.797 7.92068   2
   2   2  -9 302.244 10.6738  12
   2   2  -9 289.964 7.30692   3
  -2   2   9 303.832 10.5020   7
  -2   2   9 291.074 11.1294  11
   1  -2  -9 244.734 9.73310   7
   1  -2  -9 262.494 8.58843  15
  -1   2   9 257.869 9.30871   7
   1   2  -9 235.749 9.19074  12
  -1   2   9 259.794 9.59558  12
   1   2  -9 257.749 7.08724   2
   1   2  -9 233.449 6.32505   3
  -1   2   9 251.668 10.2083  11
   1   2  -9 275.235 8.90816  15
  -1   2   9 250.297 7.08990   3
   0  -2  -9 14.6881 2.24722  15
   0   2   9 19.7942 2.72407   7
   0   2   9 20.4590 2.08694   3
   0   2  -9 20.9352 1.48912   3
   0   2  -9 18.3061 2.74053  12
   0   2  -9 18.8110 1.80891   2
   0   2   9 17.7774 2.53215  12
   1   2   9 372.870 9.52037   3
   1   2   9 381.018 12.4365  12
   1   2   9 386.866 12.2768   7
  -1   2  -9 362.772 12.3630  12
  -1   2  -9 359.879 8.73169   3
  -1   2  -9 373.416 9.33016   2
  -2   2  -9 15.3511 1.69770   2
  -2   2  -9 15.4481 2.43021  12
   2   2   9 13.1397 2.38721   7
  -2   2  -9 15.0139 1.46208   3
   2   2   9 14.6759 1.80098   3
  -3  -2  -9 557.964 12.7403   2
  -3   2  -9 557.596 12.4310   3
  -3   2  -9 576.378 13.0221   2
   3   2   9 574.498 13.3945   3
  -3   2  -9 546.123 16.9788  12
  -4  -2  -9 406.333 9.62855   2
  -4   2  -9 399.319 9.62458   2
  -4   2  -9 401.607 9.17838   3
   4   2   9 423.648 10.1804   3
  -5  -2  -9 50.0569 2.13455   2
   5   2   9 47.3128 2.30856   3
   6   3  -9 71.6219 2.61329  17
  -6   3   9 80.3998 2.53309   3
  -5   3   9 208.069 5.54670   3
   5   3  -9 193.167 5.24582   4
   5   3  -9 208.538 5.66819  17
   4   3  -9 165.807 4.41958   4
  -4   3   9 170.771 5.01667   3
  -4   3   9 169.151 5.04592   3
   4   3  -9 166.650 5.14455  17
  -3   3   9 234.543 9.22236  12
   3   3  -9 234.997 5.75429   4
   3   3  -9 239.566 6.65690  17
   3   3  -9 247.465 6.88086   2
  -3   3   9 247.204 6.69006   3
  -2   3   9 814.063 17.6436   3
  -2   3   9 790.724 21.1054   7
   2   3  -9 815.524 17.7901   2
   2   3  -9 794.088 15.5510   4
  -2   3   9 789.939 22.6244  12
  -2   3   9 790.490 23.4294  11
   1  -3  -9 41.5136 3.24313  15
   1   3  -9 36.2271 1.83156   4
  -1   3   9 36.0128 3.06207   7
  -1   3   9 39.6553 3.45235  12
  -1   3   9 40.6912 2.27738   3
  -1   3   9 33.1349 4.27993  11
   1   3  -9 40.4252 2.34726   2
   0  -3  -9 724.392 18.4107  15
   0   3   9 730.999 20.9708  12
   0   3  -9 735.108 16.3749   2
   0   3   9 700.154 19.4774   7
   0   3   9 747.384 16.4260   3
   0   3  -9 731.604 14.3618   4
   0   3   9 761.660 22.6585  11
   1   3   9 48.4333 3.69995  12
  -1   3  -9 47.1662 2.03026   4
   1   3   9 49.6331 4.42206  11
   1   3   9 41.8635 3.31857   7
  -1   3  -9 45.4001 2.44351   2
   1   3   9 46.4045 2.45551   3
   2   3   9 48.3453 2.43318   3
  -2   3  -9 44.2500 2.33456   2
   2   3   9 45.0579 4.76602  11
  -2   3  -9 39.9344 1.87194   4
   3   3   9 124.841 4.08109   3
   3   3   9 116.321 6.23127  11
  -3   3  -9 120.246 3.38208   4
  -4   3  -9 157.406 3.98240   4
   4   3   9 166.965 4.69355   3
   5   3   9 207.932 4.99082   3
  -5   3  -9 190.021 4.33564   4
   5   4  -9 232.038 5.70002  17
   5   4  -9 230.644 4.87329   4
   4   4  -9 74.2351 2.84544  17
  -4   4   9 77.3380 2.43525   3
   4   4  -9 77.7023 2.30766   4
   3   4  -9 350.672 7.28070   4
  -3   4   9 357.777 8.19926   3
  -3   4   9 360.002 8.17076   3
   3   4  -9 338.451 8.43715  17
   2   4  -9 251.110 5.43488   4
  -2   4   9 250.270 6.22528   3
  -2   4   9 228.945 9.62049  11
  -1   4   9 241.471 6.24160   3
  -1   4   9 252.616 10.1998  11
   1   4  -9 255.438 5.45780   4
   1   4  -9 242.938 6.64763   2
   0   4  -9 82.6452 3.21435   2
   0   4   9 84.1863 5.52602  11
   0   4  -9 88.7117 2.49119   4
   0   4   9 85.8676 2.97652   3
   1   4   9 80.8667 5.36135  11
  -1   4  -9 82.6065 2.42354   4
   1   4   9 82.0923 2.86408   3
   2   4   9 54.7389 4.15925  11
  -2   4  -9 56.5514 1.88118   4
   2   4   9 55.0336 2.19582   3
   3   4   9 56.0812 2.06576   3
  -3   4  -9 63.1160 1.88100   4
  -4   4  -9 489.833 9.18565   4
  -3   5   9 57.6048 1.86814   4
   3   5  -9 62.0962 1.30429   5
   2   5  -9 92.4677 1.74614   5
  -2   5   9 90.4390 1.74455   1
  -2   5   9 90.5406 2.58987   4
   1   5  -9 153.816 2.56610   5
  -1   5   9 152.351 2.51189   1
  -1   5   9 148.946 3.99464   4
   0   5   9 236.461 3.59349   1
   0   5  -9 242.158 3.75352   5
  -1   5  -9 182.007 2.91098   5
   1   5   9 178.669 2.83979   1
  -2   5  -9 30.5339 0.79441   5
   6   0 -10 99.3443 3.53181   3
   5   0 -10 498.106 11.8822   3
   4   0 -10 9.71390 2.12750  12
   4   0 -10 9.59575 1.53363   3
   3   0 -10 693.678 20.2193  12
   3   0 -10 687.305 15.6657   3
   3   0 -10 671.452 18.0608  15
   3   0 -10 685.862 19.6850   7
   2   0 -10 41.9732 3.78895  12
   2   0 -10 38.1720 2.45089   3
   2   0 -10 42.7026 4.02617  15
   2   0 -10 44.6212 4.44635   7
   1   0 -10 378.142 12.7259  12
   1   0 -10 368.613 9.35581   3
   1   0 -10 358.497 9.15401   2
   1   0 -10 373.640 11.3774  15
   0   0 -10 53.5839 2.65651   2
   0   0 -10 56.7069 4.22546  12
   0   0 -10 61.0459 3.83940  15
   0   0 -10 58.7537 2.90873   3
  -1   0 -10 489.265 11.4636   2
  -1   0 -10 469.952 13.3140  15
  -1   0 -10 482.240 15.1760  12
  -1   0 -10 474.204 11.5062   3
  -2   0 -10 1608.02 41.6892  12
  -2   0 -10 1642.26 33.8829   3
  -2   0 -10 1640.36 33.4686   2
  -3   0 -10 1003.19 20.7940   2
  -3   0 -10 897.534 26.9690  12
  -3   0 -10 997.177 20.9687   3
  -4   0 -10 447.163 10.4869   3
  -4   0 -10 446.817 10.4207   2
  -5   0 -10 0.50077 0.46622   2
  -5   0 -10 0.55032 0.56013   3
   6  -1 -10 89.0621 3.33295   3
  -6   1  10 83.8651 3.11363   3
   6   1 -10 91.4082 3.01877   3
   5  -1 -10 7.78586 1.36223   3
  -5   1  10 8.58907 1.30551   3
   5   1 -10 10.7715 1.39942   3
  -5   1  10 10.4624 1.43813   3
   4  -1 -10 903.470 19.7622   3
  -4   1  10 869.513 19.6126   3
   4   1 -10 909.480 19.4189   3
   4   1 -10 878.430 24.8654  12
   3  -1 -10 100.018 4.03959   3
   3  -1 -10 103.451 5.35347  15
   3  -1 -10 105.453 6.20665   7
   3   1 -10 105.461 3.90278   2
   3   1 -10 95.4529 5.26582   7
   3   1 -10 109.458 5.98367  12
  -3   1  10 110.044 5.87288   7
  -3   1  10 102.754 3.98820   3
   3   1 -10 103.725 3.82966   3
   2  -1 -10 42.3020 3.86566  15
   2  -1 -10 49.9666 4.77630   7
   2  -1 -10 45.4476 2.69916   3
  -2   1  10 41.0798 4.11750   7
   2   1 -10 39.9478 2.38309   2
   2   1 -10 38.5747 3.81061  15
   2   1 -10 40.2842 3.90503   7
   2   1 -10 48.5290 3.92742  12
   2   1 -10 43.1375 2.38746   3
  -2   1  10 42.4122 2.55123   3
   1  -1 -10 346.919 9.15848   3
   1  -1 -10 375.812 11.0945  15
   1  -1 -10 365.141 12.2417   7
   1  -1 -10 352.762 12.3766  12
   1   1 -10 370.405 12.4545  12
  -1   1  10 348.584 11.9269   7
   1   1 -10 347.005 11.0626  15
  -1   1  10 332.886 9.19705   3
   1   1 -10 368.835 8.93235   3
   1   1 -10 349.431 9.01345   2
   0  -1 -10 44.1437 3.34824  15
   0  -1 -10 42.5763 3.64479  12
   0  -1 -10 44.2696 2.64657   3
   0   1 -10 46.3356 2.54027   2
   0   1 -10 49.1951 3.54206  15
   0   1  10 47.9065 3.81418   7
   0   1 -10 45.2047 2.31950   3
   0   1 -10 47.3835 3.90592  12
   0   1  10 42.1641 2.62751   3
  -1  -1 -10 269.003 8.90330  15
  -1  -1 -10 267.318 7.49887   3
  -1  -1 -10 268.606 7.20409   2
  -1   1 -10 273.148 7.18307   3
  -1   1 -10 276.122 7.39867   2
   1   1  10 274.811 10.0822   7
   1   1  10 270.916 8.06842   3
  -1   1 -10 277.920 10.2419  12
  -2  -1 -10 617.934 14.1247   3
  -2  -1 -10 571.773 15.5547  15
  -2  -1 -10 606.436 13.6768   2
  -2   1 -10 608.272 13.6314   3
   2   1  10 579.041 14.0858   3
  -2   1 -10 626.306 13.9281   2
  -2   1 -10 606.939 18.0876  12
  -3  -1 -10 30.7076 1.99090   2
  -3  -1 -10 30.2735 2.09072   3
   3   1  10 32.2617 2.27304   3
  -3   1 -10 28.9135 1.85188   3
  -3   1 -10 29.6957 1.98558   2
  -4  -1 -10 33.9698 1.92453   2
  -4  -1 -10 33.1188 1.99819   3
   4   1  10 32.9684 2.15206   3
  -4   1 -10 34.2538 1.92409   2
  -4   1 -10 34.7029 1.79417   3
  -5  -1 -10 68.4517 2.54282   3
  -5  -1 -10 69.2412 2.45037   2
   5   1  10 65.2873 2.61453   3
  -5   1 -10 66.4335 2.36195   2
  -5   1 -10 68.9756 2.23473   3
  -6   2  10 22.7367 1.42500   3
   6   2 -10 21.3776 1.41858  17
  -5   2  10 33.9722 1.99226   3
   5   2 -10 33.9816 1.61844   3
   4   2 -10 903.098 19.2233   3
  -4   2  10 930.389 19.9520   3
   3   2 -10 388.312 13.1359  12
   3   2 -10 386.295 9.25324   3
   3   2 -10 412.951 9.95085   2
  -3   2  10 396.686 12.9893  12
  -3   2  10 405.059 9.94130   3
   2  -2 -10 172.695 8.04717   7
   2  -2 -10 169.748 6.87248  15
   2   2 -10 172.208 4.88616   3
  -2   2  10 171.642 7.36252   7
  -2   2  10 179.846 7.54704  12
  -2   2  10 183.746 5.57111   3
   2   2 -10 184.244 7.71834  12
   2   2 -10 173.351 5.44855   2
   1  -2 -10 490.756 13.7669  15
  -1   2  10 491.692 15.1685  12
  -1   2  10 479.008 16.0405  11
   1   2 -10 496.452 15.3967  12
  -1   2  10 503.228 11.8878   3
  -1   2  10 484.204 14.7816   7
   1   2 -10 492.813 11.7765   2
   1   2 -10 487.868 11.0649   3
   0  -2 -10 1062.47 25.2812  15
   0   2  10 1077.50 28.4618  12
   0   2 -10 1036.17 22.1875   3
   0   2 -10 1079.96 22.8476   2
   0   2 -10 1047.47 28.6906  12
   0   2  10 1100.60 23.1914   3
   0   2  10 1071.38 27.5292   7
  -1  -2 -10 19.1652 2.52811  15
   1   2  10 20.3925 2.61907  12
  -1   2 -10 18.8814 2.72333  12
   1   2  10 19.0802 1.92145   3
  -1   2 -10 23.4348 1.48149   3
  -1   2 -10 17.2421 1.74059   2
  -2  -2 -10 36.7587 2.91329  15
   2   2  10 35.4057 2.26851   3
  -2   2 -10 36.6392 2.18265   2
  -2   2 -10 34.6599 1.72657   3
  -2   2 -10 36.6519 3.93790  12
  -3  -2 -10 329.676 8.03884   2
  -3   2 -10 326.833 8.15706   2
  -3   2 -10 324.585 7.53280   3
   3   2  10 335.068 8.45950   3
  -4  -2 -10 107.331 3.44528   2
   4   2  10 110.909 3.70839   3
  -4   2 -10 114.066 3.48309   2
   5   3 -10 232.389 5.73333  17
   5   3 -10 215.396 5.04940   4
  -5   3  10 230.833 5.64054   3
   4   3 -10 91.3205 3.25360  17
   4   3 -10 88.1004 2.83384   4
  -4   3  10 94.6175 3.23971   3
  -4   3  10 95.0463 3.25682   3
   3   3 -10 175.630 5.04947  17
   3   3 -10 169.245 4.41834   4
  -3   3  10 182.523 5.18382   3
   2   3 -10 22.9168 2.00943   2
  -2   3  10 26.4250 1.78540   3
  -2   3  10 24.4866 3.30878  11
   2   3 -10 23.6221 1.44869   4
   1  -3 -10 594.371 15.7067  15
  -1   3  10 620.116 13.8314   3
   1   3 -10 626.332 13.9055   2
   1   3 -10 599.612 12.0805   4
  -1   3  10 596.611 18.8586  11
   0  -3 -10 94.1143 4.71566  15
   0   3 -10 97.0529 2.98875   4
   0   3  10 93.2128 3.49222   3
   0   3  10 99.0868 6.02469  11
   0   3 -10 95.2518 3.60324   2
  -1   3 -10 377.038 8.04874   4
   1   3  10 375.143 13.4831  11
   1   3  10 389.891 9.32828   3
  -1   3 -10 370.793 9.23251   2
   2   3  10 31.7725 1.91797   3
  -2   3 -10 34.7829 1.93552   2
  -2   3 -10 30.9891 1.58325   4
   2   3  10 37.2962 4.18162  11
  -3   3 -10 128.546 3.40333   4
   3   3  10 134.407 4.01907   3
   4   3  10 347.145 7.81793   3
  -4   3 -10 335.996 6.88396   4
   4   4 -10 112.441 3.33011  17
   4   4 -10 115.917 2.73083   4
  -3   4  10 126.296 3.42662   3
   3   4 -10 133.594 3.15068   4
   2   4 -10 37.4799 1.45421   4
  -2   4  10 34.8410 1.59420   3
  -1   4  10 161.061 7.25919  11
  -1   4  10 159.732 4.27711   3
   1   4 -10 160.840 3.72711   4
   1   4 -10 163.402 4.66622   2
   0   4 -10 12.9587 1.28500   2
   0   4 -10 13.7993 0.91528   4
   0   4  10 12.1839 2.41629  11
   0   4  10 12.1289 1.13296   3
   1   4  10 120.205 3.42103   3
  -1   4 -10 123.734 2.96295   4
   2   4  10 11.0654 0.88979   3
  -2   4 -10 11.9890 0.81750   4
   6   0 -11 484.443 10.6444   3
   5   0 -11 313.129 7.78865   3
   4   0 -11 265.726 7.12746   3
   3   0 -11 0.79797 0.87161   3
   3   0 -11 0.43116 1.28406  15
   2   0 -11 137.834 6.58860  12
   2   0 -11 139.211 4.63383   3
   2   0 -11 130.568 6.10781  15
   1   0 -11 182.715 7.93881  12
   1   0 -11 198.185 5.79513   3
   1   0 -11 189.446 7.35210  15
   1   0 -11 185.609 5.61171   2
   0   0 -11 85.0094 5.09749  12
   0   0 -11 89.5134 3.50855   3
   0   0 -11 91.0774 3.47920   2
   0   0 -11 88.2964 4.70308  15
  -1   0 -11 521.762 14.2847  15
  -1   0 -11 516.870 16.0632  12
  -1   0 -11 537.370 12.4822   3
  -1   0 -11 553.918 12.3362   2
  -2   0 -11 234.637 6.39956   3
  -2   0 -11 230.835 6.34981   2
  -3   0 -11 699.207 15.1629   2
  -3   0 -11 691.926 15.1945   3
  -4   0 -11 145.742 4.15413   2
  -4   0 -11 151.096 4.14349   3
   5  -1 -11 1082.53 22.6502   3
  -5   1  11 1061.29 22.5519   3
   5   1 -11 1081.99 22.2175   3
   4  -1 -11 46.7678 2.55092   3
  -4   1  11 43.6050 2.34806   3
   4   1 -11 49.7403 2.30556   3
   3  -1 -11 97.2562 3.79970   3
  -3   1  11 95.1819 3.69315   3
   3   1 -11 102.660 3.54502   3
   3   1 -11 95.7699 3.52158   2
   2  -1 -11 243.391 6.81624   3
   2  -1 -11 238.864 8.47389  15
   2   1 -11 242.578 9.38438  12
   2   1 -11 231.266 6.51379   2
   2   1 -11 237.637 6.40513   3
  -2   1  11 236.514 6.74826   3
   1  -1 -11 74.1858 4.46926  15
   1  -1 -11 79.6906 3.43335   3
   1   1 -11 80.6185 4.97118  12
   1   1 -11 78.5049 3.29058   2
   1   1 -11 86.9541 3.20810   3
   1   1 -11 81.6750 4.55668  15
  -1   1  11 79.2895 3.39959   3
   0  -1 -11 55.3943 3.64293  15
   0  -1 -11 51.4489 2.72639   3
   0   1 -11 53.6962 2.70753   2
   0   1 -11 56.0887 3.77794  15
   0   1 -11 59.5886 2.58850   3
   0   1  11 59.1390 3.25570   3
   0   1 -11 57.0221 4.20347  12
  -1  -1 -11 338.553 8.55211   3
  -1  -1 -11 317.716 9.96527  15
   1   1  11 317.746 9.15672   3
  -1   1 -11 332.521 8.37599   2
  -1   1 -11 322.184 8.01009   3
  -2  -1 -11 204.291 5.66395   2
  -2  -1 -11 203.912 5.90622   3
   2   1  11 203.309 6.55148   3
  -2   1 -11 213.150 5.83257   2
  -2   1 -11 202.964 5.53521   3
  -3  -1 -11 290.763 7.21627   3
  -3  -1 -11 277.215 6.96391   2
   3   1  11 266.590 7.25352   3
  -3   1 -11 277.425 6.78174   3
  -3   1 -11 287.254 7.06694   2
  -4  -1 -11 286.622 6.71463   2
  -4  -1 -11 277.838 6.80683   3
  -4   1 -11 282.855 6.67941   2
  -4   1 -11 281.675 6.42184   3
   4   1  11 279.567 6.95352   3
   5   2 -11 230.843 5.71309  17
  -5   2  11 233.368 5.86735   3
  -4   2  11 626.886 13.9585   3
   4   2 -11 622.924 13.3392   3
   4   2 -11 619.985 13.5489  17
  -4   2  11 646.675 13.9672   3
   3   2 -11 433.124 10.2499   2
  -3   2  11 442.151 10.4583   3
   3   2 -11 430.579 9.63265   3
  -2   2  11 239.414 6.63501   3
   2   2 -11 246.215 6.66908   2
   2   2 -11 239.896 5.96695   3
   1  -2 -11 107.879 5.64214  15
  -1   2  11 116.011 4.03079   3
   1   2 -11 112.753 3.37099   3
   1   2 -11 115.294 4.00696   2
  -1   2  11 106.247 5.96329  11
   0  -2 -11 316.066 10.6729  15
   0   2  11 343.021 8.45623   3
   0   2 -11 334.397 8.31665   2
   0   2 -11 317.146 7.47065   3
   0   2  11 297.406 11.5406  11
   1   2  11 473.581 11.4632   3
  -1   2 -11 500.234 11.3858   2
  -1   2 -11 492.273 10.7601   3
   1   2  11 475.322 15.6303  11
  -2   2 -11 68.1473 2.78016   2
   2   2  11 68.3843 2.89646   3
  -3   2 -11 67.0619 2.50502   2
   3   2  11 61.9246 2.59374   3
  -4   3  11 61.4069 2.18510   3
   4   3 -11 58.8823 1.92750   4
   4   3 -11 54.8001 2.09903  17
  -3   3  11 110.257 3.39046   3
   3   3 -11 105.007 2.96879   4
   2   3 -11 61.9119 2.19535   4
   2   3 -11 61.4634 2.61561   2
  -2   3  11 67.8114 2.57633   3
  -1   3  11 459.426 14.9504  11
  -1   3  11 492.813 11.0656   3
   1   3 -11 483.629 9.73296   4
   1   3 -11 498.365 11.1849   2
   0   3 -11 548.340 12.0907   2
   0   3 -11 530.634 10.5672   4
   0   3  11 519.622 16.4421  11
   0   3  11 541.724 12.0533   3
   1   3  11 124.940 3.82072   3
  -1   3 -11 125.545 3.86360   2
  -1   3 -11 122.325 3.27806   4
  -2   3 -11 15.4069 1.06956   4
   2   3  11 15.1915 1.21817   3
  -2   3 -11 17.3763 1.22587   2
  -2   4  11 47.4563 1.63672   3
  -2   4  11 48.5621 1.66147   3
   2   4 -11 49.8422 1.47489   4
   1   4 -11 150.499 3.22304   4
  -1   4  11 140.507 3.56436   3
   0   4  11 74.1385 2.19199   3
   0   4 -11 80.7477 1.97992   4
   0   4 -11 76.5385 2.49611   2
   4   0 -12 219.807 5.75216   3
   3   0 -12 22.8116 1.68180   3
   2   0 -12 110.997 3.77984   3
   1   0 -12 1030.69 21.8406   3
   0   0 -12 31.3781 1.93925   3
   0   0 -12 31.7514 1.86909   2
  -1   0 -12 140.715 4.22393   3
  -1   0 -12 137.272 4.20658   2
  -2   0 -12 131.900 3.85583   3
  -2   0 -12 124.409 3.83062   2
  -3   0 -12 33.2854 1.52378   3
  -3   0 -12 31.0914 1.57199   2
   4  -1 -12 52.6441 2.36917   3
  -4   1  12 55.2587 2.37666   3
  -4   1  12 59.3499 2.41770   3
   4   1 -12 53.8994 2.06877   3
   3  -1 -12 97.4070 3.49294   3
  -3   1  12 93.8947 3.40094   3
   3   1 -12 99.7136 3.15318   3
   2  -1 -12 43.7588 2.30944   3
   2   1 -12 43.9945 2.03486   3
   2   1 -12 41.3971 2.09916   2
  -2   1  12 41.7252 2.22776   3
   1  -1 -12 533.992 12.0726   3
  -1   1  12 498.953 12.3323   3
   1   1 -12 508.722 11.7332   2
   1   1 -12 536.634 11.6075   3
   0  -1 -12 863.636 18.7758   3
   0   1 -12 865.971 18.5198   2
   0   1 -12 882.575 18.3458   3
  -1  -1 -12 72.4911 2.84519   3
  -1   1 -12 71.3977 2.78172   2
  -1   1 -12 68.8019 2.51777   3
  -2  -1 -12 289.130 6.95719   2
  -2  -1 -12 292.812 7.20863   3
  -2   1 -12 300.703 7.20505   2
  -2   1 -12 299.112 6.82959   3
  -3  -1 -12 185.321 4.67310   2
  -3  -1 -12 196.122 4.87285   3
  -3   1 -12 195.712 4.85311   2
  -3   1 -12 184.053 4.39436   3
  -4   2  12 84.8652 2.76428   3
  -3   2  12 276.219 6.83834   3
  -2   2  12 134.170 4.06607   3
   2   2 -12 131.847 4.00175   2
  -1   2  12 437.533 10.1678   3
   1   2 -12 436.453 10.0783   2
   0   2  12 157.231 4.62511   3
   0   2 -12 161.466 4.61616   2
   1   2  12 188.098 5.17607   3
  -1   2 -12 192.590 5.13750   2
   2   2  12 48.9081 2.11752   3
  -2   2 -12 52.7579 2.06599   2
   2   3 -12 133.046 3.24226   4
  -2   3  12 139.062 3.70864   3
   1   3 -12 546.805 10.5778   4
   1   3 -12 562.210 11.9717   2
  -1   3  12 554.875 11.9051   3
   0   3 -12 263.938 5.60696   4
   0   3  12 275.705 6.39966   3
   0   3 -12 274.110 6.46442   2
   3   0 -13 45.2514 1.84536   3
   2   0 -13 471.544 10.4336   3
   1   0 -13 1138.72 23.3310   3
   0   0 -13 1.38558 0.59450   3
  -1   0 -13 0.09468 0.46088   2
  -1   0 -13 1.23044 0.53717   3
   2  -1 -13 224.680 5.60617   3
  -2   1  13 218.734 5.68260   3
   2   1 -13 216.797 5.12232   3
   1  -1 -13 163.007 4.42847   3
   1   1 -13 155.370 4.22488   2
   1   1 -13 162.660 4.02452   3
   0  -1 -13 55.9074 2.22219   3
   0   1 -13 56.1361 1.86710   3
   0   1 -13 56.8073 2.12700   2
   0   0   0    0.00    0.00   0
;
_shelx_hkl_checksum              2983
#END Tags that were not found in dictionaries
loop_
_space_group_symop_operation_xyz
'x, y, z'
'-x, y+1/2, -z'
loop_
_atom_site_label
_atom_site_type_symbol
_atom_site_fract_x
_atom_site_fract_y
_atom_site_fract_z
_atom_site_U_iso_or_equiv
_atom_site_adp_type
_atom_site_occupancy
_atom_site_site_symmetry_order
_atom_site_calc_flag
_atom_site_refinement_flags_posn
_atom_site_refinement_flags_adp
C1 C 0.1898(2) 0.0703(3) 0.40810(15) 0.0161(4) Uani 1 1 d . .
H1 H 0.1485 -0.0440 0.4610 0.019 Uiso 1 1 calc R U
C3 C 0.4590(2) 0.1208(4) 0.31932(14) 0.0163(4) Uani 1 1 d . .
C4 C 0.4510(2) 0.3589(3) 0.34413(17) 0.0201(4) Uani 1 1 d . .
H4A H 0.4592 0.4368 0.2680 0.024 Uiso 1 1 calc R U
H4B H 0.5529 0.3984 0.3989 0.024 Uiso 1 1 calc R U
C5 C 0.2919(2) 0.4402(3) 0.39860(15) 0.0181(4) Uani 1 1 d . .
H5 H 0.3239 0.5724 0.4467 0.022 Uiso 1 1 calc R U
C7 C 0.0943(2) 0.3175(3) 0.23544(15) 0.0136(4) Uani 1 1 d . .
H7 H 0.1869 0.2738 0.1853 0.016 Uiso 1 1 calc R U
C8 C 0.0469(2) 0.1227(3) 0.30946(15) 0.0155(4) Uani 1 1 d . .
H8 H 0.0241 -0.0053 0.2561 0.019 Uiso 1 1 calc R U
C9 C 0.2361(2) 0.2681(4) 0.48226(15) 0.0181(4) Uani 1 1 d . .
H9A H 0.3303 0.2350 0.5449 0.022 Uiso 1 1 calc R U
H9B H 0.1360 0.3185 0.5216 0.022 Uiso 1 1 calc R U
C10 C -0.0587(2) 0.3928(3) 0.15386(14) 0.0143(4) Uani 1 1 d . .
C11 C -0.1583(2) 0.5653(3) 0.18449(14) 0.0157(4) Uani 1 1 d . .
H11 H -0.1289 0.6405 0.2573 0.019 Uiso 1 1 calc R U
C12 C -0.3012(2) 0.6284(4) 0.10883(15) 0.0185(4) Uani 1 1 d . .
H12 H -0.3683 0.7474 0.1298 0.022 Uiso 1 1 calc R U
C13 C -0.3454(2) 0.5176(4) 0.00290(15) 0.0191(4) Uani 1 1 d . .
H13 H -0.4429 0.5602 -0.0486 0.023 Uiso 1 1 calc R U
C14 C -0.2467(2) 0.3443(4) -0.02763(15) 0.0197(4) Uani 1 1 d . .
H14 H -0.2772 0.2681 -0.1000 0.024 Uiso 1 1 calc R U
C15 C -0.1039(2) 0.2821(3) 0.04712(16) 0.0176(4) Uani 1 1 d . .
H15 H -0.0366 0.1637 0.0257 0.021 Uiso 1 1 calc R U
O2 O 0.33785(15) -0.0125(2) 0.35231(11) 0.0174(3) Uani 1 1 d . .
O6 O 0.15456(15) 0.4942(2) 0.30983(10) 0.0174(3) Uani 1 1 d . .
O16 O 0.57660(15) 0.0405(3) 0.27297(11) 0.0246(4) Uani 1 1 d . .
O17 O -0.09901(15) 0.1667(3) 0.37108(11) 0.0202(3) Uani 1 1 d . .
H17 H -0.1880 0.1573 0.3232 0.030 Uiso 1 1 calc R U
loop_
_atom_site_aniso_label
_atom_site_aniso_U_11
_atom_site_aniso_U_22
_atom_site_aniso_U_33
_atom_site_aniso_U_23
_atom_site_aniso_U_13
_atom_site_aniso_U_12
C1 0.0135(8) 0.0158(10) 0.0197(8) 0.0041(8) 0.0043(6) 0.0008(7)
C3 0.0118(8) 0.0231(11) 0.0130(7) -0.0004(8) -0.0032(6) -0.0005(8)
C4 0.0160(8) 0.0189(11) 0.0245(9) 0.0022(9) -0.0021(7) -0.0043(8)
C5 0.0174(8) 0.0142(10) 0.0210(8) -0.0019(8) -0.0061(7) 0.0000(7)
C7 0.0139(8) 0.0118(9) 0.0152(8) -0.0018(8) 0.0022(6) -0.0014(7)
C8 0.0121(7) 0.0152(10) 0.0191(8) 0.0021(8) 0.0016(6) 0.0001(7)
C9 0.0171(8) 0.0215(11) 0.0154(8) -0.0007(8) 0.0000(6) 0.0057(8)
C10 0.0139(7) 0.0153(10) 0.0141(8) 0.0029(8) 0.0030(6) -0.0024(7)
C11 0.0174(8) 0.0152(10) 0.0146(7) -0.0003(8) 0.0023(6) -0.0008(7)
C12 0.0172(8) 0.0175(10) 0.0209(8) 0.0018(8) 0.0024(6) 0.0032(8)
C13 0.0166(8) 0.0217(11) 0.0183(8) 0.0033(8) -0.0021(6) -0.0012(9)
C14 0.0200(8) 0.0222(11) 0.0164(8) -0.0027(9) -0.0004(7) -0.0050(8)
C15 0.0192(8) 0.0164(11) 0.0178(8) -0.0015(8) 0.0042(7) -0.0011(8)
O2 0.0136(6) 0.0143(7) 0.0244(6) -0.0005(6) 0.0020(5) 0.0014(5)
O6 0.0179(6) 0.0128(7) 0.0200(6) -0.0015(5) -0.0053(5) 0.0002(5)
O16 0.0150(6) 0.0362(10) 0.0229(6) -0.0064(7) 0.0028(5) 0.0039(7)
O17 0.0117(5) 0.0285(9) 0.0207(6) 0.0066(6) 0.0029(4) -0.0001(6)
loop_
_atom_type_symbol
_atom_type_description
_atom_type_scat_dispersion_real
_atom_type_scat_dispersion_imag
_atom_type_scat_source
C C 0.0181 0.0091 'International Tables Vol C Tables 4.2.6.8 and 6.1.1.4'
H H 0.0000 0.0000 'International Tables Vol C Tables 4.2.6.8 and 6.1.1.4'
O O 0.0492 0.0322 'International Tables Vol C Tables 4.2.6.8 and 6.1.1.4'
loop_
_geom_angle_atom_site_label_1
_geom_angle_atom_site_label_2
_geom_angle_atom_site_label_3
_geom_angle
O2 C1 C9 111.32(14)
O2 C1 C8 108.62(13)
C9 C1 C8 110.24(16)
O2 C1 H1 108.9
C9 C1 H1 108.9
C8 C1 H1 108.9
O16 C3 O2 117.2(2)
O16 C3 C4 122.04(19)
O2 C3 C4 120.68(16)
C3 C4 C5 116.64(16)
C3 C4 H4A 108.1
C5 C4 H4A 108.1
C3 C4 H4B 108.1
C5 C4 H4B 108.1
H4A C4 H4B 107.3
O6 C5 C9 110.62(15)
O6 C5 C4 112.70(14)
C9 C5 C4 108.28(16)
O6 C5 H5 108.4
C9 C5 H5 108.4
C4 C5 H5 108.4
O6 C7 C10 108.30(15)
O6 C7 C8 111.80(13)
C10 C7 C8 110.57(14)
O6 C7 H7 108.7
C10 C7 H7 108.7
C8 C7 H7 108.7
O17 C8 C1 104.81(13)
O17 C8 C7 111.31(15)
C1 C8 C7 111.09(14)
O17 C8 H8 109.8
C1 C8 H8 109.8
C7 C8 H8 109.8
C1 C9 C5 107.44(14)
C1 C9 H9A 110.2
C5 C9 H9A 110.2
C1 C9 H9B 110.2
C5 C9 H9B 110.2
H9A C9 H9B 108.5
C11 C10 C15 119.40(16)
C11 C10 C7 121.41(15)
C15 C10 C7 119.15(17)
C10 C11 C12 120.27(16)
C10 C11 H11 119.9
C12 C11 H11 119.9
C13 C12 C11 120.01(18)
C13 C12 H12 120.0
C11 C12 H12 120.0
C14 C13 C12 119.87(16)
C14 C13 H13 120.1
C12 C13 H13 120.1
C15 C14 C13 120.22(17)
C15 C14 H14 119.9
C13 C14 H14 119.9
C14 C15 C10 120.22(19)
C14 C15 H15 119.9
C10 C15 H15 119.9
C3 O2 C1 121.09(15)
C7 O6 C5 114.17(14)
C8 O17 H17 109.5
loop_
_geom_bond_atom_site_label_1
_geom_bond_atom_site_label_2
_geom_bond_distance
C1 O2 1.467(2)
C1 C9 1.508(3)
C1 C8 1.531(2)
C1 H1 1.0000
C3 O16 1.211(2)
C3 O2 1.340(2)
C3 C4 1.506(3)
C4 C5 1.530(3)
C4 H4A 0.9900
C4 H4B 0.9900
C5 O6 1.433(2)
C5 C9 1.516(3)
C5 H5 1.0000
C7 O6 1.430(2)
C7 C10 1.510(2)
C7 C8 1.534(3)
C7 H7 1.0000
C8 O17 1.423(2)
C8 H8 1.0000
C9 H9A 0.9900
C9 H9B 0.9900
C10 C11 1.389(3)
C10 C15 1.397(3)
C11 C12 1.394(2)
C11 H11 0.9500
C12 C13 1.388(3)
C12 H12 0.9500
C13 C14 1.388(3)
C13 H13 0.9500
C14 C15 1.387(3)
C14 H14 0.9500
C15 H15 0.9500
O17 H17 0.8400
