#------------------------------------------------------------------------------
#$Date: 2016-02-18 17:37:37 +0200 (Thu, 18 Feb 2016) $
#$Revision: 176729 $
#$URL: svn://www.crystallography.net/cod/cif/1/51/89/1518979.cif $
#------------------------------------------------------------------------------
#
# This file is available in the Crystallography Open Database (COD),
# http://www.crystallography.net/
#
# All data on this site have been placed in the public domain by the
# contributors.
#
data_1518979
loop_
_publ_author_name
'William M. Kerlin'
'Frederic Poineau'
'Paul M. Forster'
'Kenneth R. Czerwinski'
'Alfred P. Sattelberger'
_publ_section_title
;
 Hydrothermal synthesis and solid-state structures of polynuclear
 technetium iodide compounds
;
_journal_name_full               'Inorganica Chimica Acta'
_journal_page_first              329
_journal_page_last               335
_journal_volume                  424
_journal_year                    2015
_chemical_formula_moiety         'C8 H12 I O8 Tc2'
_chemical_formula_sum            'C8 H12 I O8 Tc2'
_chemical_formula_weight         560.90
_space_group_crystal_system      monoclinic
_space_group_IT_number           12
_space_group_name_Hall           '-C 2y'
_space_group_name_H-M_alt        'C 1 2/m 1'
_symmetry_space_group_name_Hall  '-C 2y'
_symmetry_space_group_name_H-M   'C 1 2/m 1'
_atom_sites_solution_hydrogens   geom
_cell_angle_alpha                90
_cell_angle_beta                 110.9540(10)
_cell_angle_gamma                90
_cell_formula_units_Z            2
_cell_length_a                   7.1994(6)
_cell_length_b                   14.5851(13)
_cell_length_c                   7.1586(6)
_cell_measurement_reflns_used    1021
_cell_measurement_temperature    100(2)
_cell_measurement_theta_max      29.567
_cell_measurement_theta_min      2.793
_cell_volume                     701.97(10)
_computing_structure_refinement  'SHELXL-2013 (Sheldrick, 2013)'
_diffrn_ambient_temperature      100(2)
_diffrn_measured_fraction_theta_full 1.000
_diffrn_measured_fraction_theta_max 0.997
_diffrn_measurement_device_type  NA
_diffrn_measurement_method       NA
_diffrn_radiation_type           MoK\a
_diffrn_radiation_wavelength     0.71073
_diffrn_reflns_av_R_equivalents  0.0170
_diffrn_reflns_av_unetI/netI     0.0143
_diffrn_reflns_Laue_measured_fraction_full 1.000
_diffrn_reflns_Laue_measured_fraction_max 0.997
_diffrn_reflns_limit_h_max       9
_diffrn_reflns_limit_h_min       -9
_diffrn_reflns_limit_k_max       19
_diffrn_reflns_limit_k_min       -19
_diffrn_reflns_limit_l_max       9
_diffrn_reflns_limit_l_min       -9
_diffrn_reflns_number            4112
_diffrn_reflns_point_group_measured_fraction_full 1.000
_diffrn_reflns_point_group_measured_fraction_max 0.997
_diffrn_reflns_theta_full        25.242
_diffrn_reflns_theta_max         29.567
_diffrn_reflns_theta_min         2.793
_diffrn_source                   NA
_exptl_absorpt_coefficient_mu    4.197
_exptl_absorpt_correction_T_max  0.7466
_exptl_absorpt_correction_T_min  0.6136
_exptl_absorpt_correction_type   multi-scan
_exptl_absorpt_process_details   'SADABS-2012/1 (Bruker,2012)'
_exptl_crystal_colour            brown
_exptl_crystal_density_diffrn    2.645
_exptl_crystal_description       rectangular
_exptl_crystal_F_000             526
_exptl_crystal_size_max          0.2
_exptl_crystal_size_mid          0.2
_exptl_crystal_size_min          0.06
_refine_diff_density_max         1.027
_refine_diff_density_min         -0.618
_refine_diff_density_rms         0.113
_refine_ls_extinction_coef       .
_refine_ls_extinction_method     none
_refine_ls_goodness_of_fit_ref   1.125
_refine_ls_hydrogen_treatment    constr
_refine_ls_matrix_type           full
_refine_ls_number_parameters     48
_refine_ls_number_reflns         1021
_refine_ls_number_restraints     0
_refine_ls_restrained_S_all      1.125
_refine_ls_R_factor_all          0.0178
_refine_ls_R_factor_gt           0.0167
_refine_ls_shift/su_max          0.001
_refine_ls_shift/su_mean         0.000
_refine_ls_structure_factor_coef Fsqd
_refine_ls_weighting_details
'w=1/[\s^2^(Fo^2^)+(0.0234P)^2^+0.7393P] where P=(Fo^2^+2Fc^2^)/3'
_refine_ls_weighting_scheme      calc
_refine_ls_wR_factor_gt          0.0419
_refine_ls_wR_factor_ref         0.0425
_reflns_Friedel_coverage         0.000
_reflns_Friedel_fraction_full    .
_reflns_Friedel_fraction_max     .
_reflns_number_gt                964
_reflns_number_total             1021
_reflns_threshold_expression     'I > 2\s(I)'
_cod_data_source_file            ICA-2015-424-329-335-1.cif
_cod_data_source_block           BK_0611B_3_0m_a
_cod_database_code               1518979
#BEGIN Tags that were not found in dictionaries:
_shelx_space_group_comment
;
The symmetry employed for this shelxl refinement is uniquely defined
by the following loop, which should always be used as a source of
symmetry information in preference to the above space-group names.
They are only intended as comments.
;
_shelxl_version_number           2013-4
_shelx_res_file
;
TITL BK_0611B_3_0m in C2/m
CELL 0.71073 7.1994 14.5851 7.1586 90 110.954 90
ZERR 2 0.0006 0.0013 0.0006 0 0.001 0
LATT 7
SYMM -X,+Y,-Z

SFAC O H  Tc I C
UNIT 16 24  4 2 16

ACTA

L.S. 10
PLAN  20
TEMP -173.18
REM Solution 1 R1 0.074, Alpha = 0.0335 in C2/m
REM O4 Tc0.5 I0.25
BOND
LIST 6
FMAP 2
SHEL 999 0.72

WGHT    0.023400    0.739300
FVAR       0.35066
I1    4    0.000000    0.000000    0.500000    10.25000    0.01024    0.01990 =
         0.01107    0.00000   -0.00271    0.00000
TC1   3    0.369540    0.000000    0.870614    10.50000    0.00588    0.00827 =
         0.00646    0.00000    0.00142    0.00000
O1    1    0.241119   -0.098639    0.990396    11.00000    0.00919    0.01136 =
         0.01054   -0.00020    0.00344   -0.00209
O2    1    0.514659   -0.098516    1.262131    11.00000    0.00924    0.01143 =
         0.00950    0.00109    0.00295   -0.00031
C1    5    0.339202   -0.126605    1.166935    11.00000    0.00934    0.01027 =
         0.01077   -0.00124    0.00485    0.00041
C2    5    0.246466   -0.194386    1.263760    11.00000    0.01405    0.01491 =
         0.01405    0.00293    0.00561   -0.00175
AFIX 137
H1    2    0.101808   -0.193967    1.194937    11.00000   -1.50000
H2    2    0.278644   -0.177835    1.404526    11.00000   -1.50000
H3    2    0.298148   -0.255793    1.255296    11.00000   -1.50000

AFIX   0
HKLF 4

REM  BK_0611B_3_0m in C2/m
REM R1 =  0.0167 for     964 Fo > 4sig(Fo)  and  0.0178 for all    1021 data
REM     48 parameters refined using      0 restraints

END

WGHT      0.0233      0.7464

REM Highest difference peak  1.027,  deepest hole -0.618,  1-sigma level  0.113
Q1    1   0.5000  0.0000  1.0000  10.25000  0.05    1.03
Q2    1   0.3789  0.0578  0.8709  11.00000  0.05    0.70
Q3    1   0.0000  0.0607  0.5000  10.50000  0.05    0.68
Q4    1   0.0799  0.0000  0.6250  10.50000  0.05    0.67
Q5    1   0.2804  0.0000  0.7582  10.50000  0.05    0.48
Q6    1   0.2744 -0.1554  1.2073  11.00000  0.05    0.41
Q7    1   0.5787  0.0000  1.4612  10.50000  0.05    0.37
Q8    1   0.0495 -0.2025  1.3594  11.00000  0.05    0.36
Q9    1   0.0000  0.1161  0.5000  10.50000  0.05    0.36
Q10   1   0.1789 -0.2319  1.1804  11.00000  0.05    0.34
Q11   1   0.2265  0.0000  1.0571  10.50000  0.05    0.32
Q12   1   0.5000 -0.1513  1.0000  10.50000  0.05    0.28
Q13   1   0.4461 -0.1221  1.1832  11.00000  0.05    0.28
Q14   1   0.5461 -0.1050  1.3573  11.00000  0.05    0.28
Q15   1   0.3711 -0.1236  0.8810  11.00000  0.05    0.28
Q16   1   0.5823 -0.0915  1.2139  11.00000  0.05    0.27
Q17   1   0.5030 -0.0409  1.2247  11.00000  0.05    0.27
Q18   1   0.0792  0.0545  0.5973  11.00000  0.05    0.27
Q19   1   0.3671 -0.3473  1.3862  11.00000  0.05    0.26
Q20   1   0.2814 -0.1116  1.0852  11.00000  0.05    0.26
;
_shelx_res_checksum              29112
_shelx_hkl_file
;
   2   0   0   74.89    2.70
  -2   0   0   76.99    2.60
  -2   0   0   76.39    3.40
  -4   0   0  113.89    4.60
  -4   0   0  110.49    5.70
   4   0   0  112.59    4.70
   6   0   0  528.95   16.00
   6   0   0  540.75   13.80
   8   0   0 1822.52   39.90
  10   0   0    0.00    3.00
   1  -1   0  548.95    9.10
  -1  -1   0  549.95    9.40
  -1   1   0  567.74    9.40
   1   1   0  545.25    9.00
  -3  -1   0 2733.63   42.20
  -3  -1   0 2906.41   39.90
   3  -1   0 2785.92   38.70
   3   1   0 2675.53   40.20
  -3   1   0 2768.12   42.00
  -3   1   0 2808.52   41.50
  -5  -1   0 1134.29   19.80
   5  -1   0 1132.19   20.30
   5  -1   0 1129.59   24.20
  -5  -1   0 1106.59   23.80
  -5   1   0 1151.28   21.70
   5   1   0 1128.29   21.60
   7  -1   0  166.38    9.40
   7   1   0  170.58    9.60
   9  -1   0   15.40    4.70
   9   1   0   16.20    4.70
   0  -2   0 6948.90   96.59
   0   2   0 6793.12   98.89
   0   2   0 6907.91   93.99
   2  -2   0 1492.15   23.60
  -2  -2   0 1546.65   24.30
   2   2   0 1508.05   23.60
  -2   2   0 1546.35   20.80
  -2   2   0 1514.95   24.40
   4  -2   0  118.49    5.80
   4  -2   0  121.39    4.30
  -4  -2   0  113.39    3.70
  -4  -2   0  128.29    6.10
  -4   2   0  131.79    5.40
   4   2   0  127.19    5.40
   6  -2   0  678.53   18.40
  -6  -2   0  673.93   18.70
  -6   2   0  662.33   16.40
   6   2   0  685.73   17.00
   8  -2   0 1171.78   29.80
   8   2   0 1136.69   30.50
  10  -2   0   39.80    7.40
  10   2   0   24.50    6.50
  -1  -3   0   47.60    2.40
   1  -3   0   40.20    2.00
  -1   3   0   38.10    2.50
   1   3   0   42.60    1.70
  -1   3   0   39.70    1.40
   1   3   0   41.70    2.40
   3  -3   0 3101.79   41.30
  -3  -3   0 3157.08   47.10
   3  -3   0 3053.59   46.10
  -3   3   0 3158.28   47.70
   3   3   0 3042.90   45.60
   3   3   0 3071.89   42.50
   5  -3   0 1728.53   31.50
   5  -3   0 1642.24   25.90
  -5  -3   0 1672.23   32.00
  -5   3   0 1681.73   30.80
   5   3   0 1656.43   30.40
  -7  -3   0    8.70    2.70
   7  -3   0    3.90    2.60
   7   3   0    7.80    2.90
   9  -3   0    0.00    2.30
   9   3   0    2.80    3.00
   0  -4   0 1913.31   28.30
   0   4   0 1917.61   29.30
   0   4   0 1917.31   27.70
   2  -4   0  747.23   13.80
  -2  -4   0  753.02   14.50
   2   4   0  720.53   14.40
  -2   4   0  728.93   10.40
   2   4   0  725.23   11.30
  -2   4   0  739.53   15.10
   4  -4   0  519.95    9.20
   4  -4   0  526.95   13.20
  -4  -4   0  522.85   13.70
  -4   4   0  520.05   13.80
   4   4   0  519.25   13.30
   4   4   0  513.55    8.30
   6  -4   0  341.47   12.30
  -6  -4   0  323.97   12.90
  -6   4   0  331.07   11.50
   6   4   0  347.27   12.20
  -8  -4   0  839.92   25.00
   8  -4   0  833.12   24.20
   8   4   0  835.42   22.90
  10  -4   0   33.20    6.90
  -1  -5   0  320.37    7.70
   1  -5   0  318.17    7.50
   1   5   0  300.37    8.00
  -1   5   0  313.77    6.40
   1   5   0  307.57    7.00
  -1   5   0  313.07    8.60
   3  -5   0 3744.43   55.69
  -3  -5   0 3844.42   57.49
  -3   5   0 3813.22   58.99
   3   5   0 3771.92   56.09
  -3   5   0 3729.23   48.80
  -5  -5   0 1753.52   33.20
   5  -5   0 1664.73   31.70
  -5   5   0 1707.83   33.00
   5   5   0 1639.74   31.90
   7  -5   0    0.00    1.70
  -7  -5   0    1.60    2.40
  -7   5   0    0.10    1.80
   7   5   0    0.00    1.60
  -9  -5   0    0.50    3.10
   9  -5   0    1.60    2.80
   9   5   0    4.60    3.30
   0  -6   0 2623.14   39.40
   0   6   0 2721.03   40.90
   0   6   0 2624.84   38.70
  -2  -6   0  316.17    9.00
   2  -6   0  328.47    8.70
   2   6   0  325.07    7.00
  -2   6   0  328.07    6.00
   2   6   0  322.77    9.50
  -2   6   0  325.57    9.90
  -4  -6   0  533.85   14.80
   4  -6   0  548.05   14.00
  -4   6   0  533.65   15.30
   4   6   0  550.34   15.00
   6  -6   0  371.26   13.30
  -6  -6   0  388.96   14.50
  -6   6   0  401.86   14.10
   6   6   0  398.06   14.40
   8  -6   0  760.82   23.00
  -8  -6   0  744.43   24.00
   8   6   0  759.32   22.70
  10  -6   0    4.00    4.00
   1  -7   0    4.00    1.30
  -1  -7   0    6.80    1.70
   1   7   0    5.60    1.50
  -1   7   0    4.20    1.30
   1   7   0    6.50    1.70
  -1   7   0    4.30    1.50
  -3  -7   0 3271.17   52.09
   3  -7   0 3365.46   51.19
  -3   7   0 3340.87   54.79
   3   7   0 3358.96   46.90
  -3   7   0 3317.57   43.30
   3   7   0 3343.47   52.29
   5  -7   0 1079.79   23.50
  -5  -7   0 1072.69   24.90
   5   7   0 1063.19   24.60
  -5   7   0 1098.59   25.80
  -7  -7   0   42.60    6.60
   7  -7   0   32.80    5.40
   7   7   0   25.50    5.10
  -7   7   0   39.50    6.10
   9  -7   0   11.30    4.40
  -9  -7   0    9.00    4.40
   0  -8   0 4556.24   66.69
   0   8   0 4648.33   65.49
   0   8   0 4682.23   68.99
   2  -8   0  476.05   11.80
  -2  -8   0  493.55   12.70
   2   8   0  452.85   13.00
  -2   8   0  474.25   13.50
   2   8   0  477.15   10.50
  -2   8   0  478.05    9.20
   4  -8   0  235.08    9.00
  -4  -8   0  228.08    9.70
  -4   8   0  216.88   10.10
   4   8   0  253.27   10.20
  -6  -8   0  628.24   19.60
   6  -8   0  642.54   18.30
  -6   8   0  640.14   20.00
   6   8   0  652.13   19.70
   8  -8   0  796.52   23.60
  -8  -8   0  782.42   25.90
   8   8   0  816.62   24.50
  -8   8   0  768.12   24.90
   1  -9   0  153.18    6.20
  -1  -9   0  160.38    6.60
   1   9   0  152.48    6.20
  -1   9   0  152.98    7.20
  -1   9   0  158.58    5.80
   1   9   0  148.29    6.60
  -3  -9   0 1638.44   31.10
   3  -9   0 1626.14   29.50
   3   9   0 1651.73   32.10
  -3   9   0 1559.14   32.70
  -5  -9   0  727.83   20.30
   5  -9   0  705.13   18.60
  -5   9   0  724.13   21.30
   5   9   0  715.43   20.60
   7  -9   0  135.99    8.80
  -7  -9   0  137.49    9.60
  -7   9   0  105.69   10.50
   7   9   0  139.49    9.60
  -9  -9   0    0.00    3.50
   9  -9   0    2.00    3.50
   9   9   0    0.00    3.40
   0 -10   0 5726.03   83.79
   0  10   0 5903.31   82.49
   0  10   0 5837.32   86.79
   2 -10   0  159.98    7.00
  -2 -10   0  165.08    7.40
  -2  10   0  151.88    8.10
   2  10   0  160.68    6.10
   2  10   0  155.98    7.60
  -2  10   0  158.68    5.50
   4 -10   0   17.00    3.30
  -4 -10   0   14.00    3.40
   4  10   0   12.30    3.20
  -4  10   0   16.20    4.10
   6 -10   0  189.58    9.80
  -6 -10   0  183.38   10.50
   6  10   0  198.58   11.20
  -6  10   0  158.28   10.30
   8 -10   0 1177.68   30.90
  -8 -10   0 1216.88   34.20
   8  10   0 1228.68   32.90
  -8  10   0 1233.38   34.30
   1 -11   0   45.60    4.70
  -1 -11   0   64.59    5.80
  -1  11   0   48.00    5.60
  -1  11   0   61.79    5.30
   1  11   0   51.59    5.10
   1  11   0   66.19    6.20
   3 -11   0  794.82   18.70
  -3 -11   0  796.32   20.10
  -3  11   0  796.22   21.90
   3  11   0  764.62   20.70
   5 -11   0  711.53   19.00
  -5 -11   0  664.33   20.40
  -5  11   0  677.23   21.80
   5  11   0  675.53   21.00
   7 -11   0   85.79    8.80
  -7 -11   0   82.19    9.30
  -7  11   0   62.09    8.80
   7  11   0   64.59    8.70
   9  11   0    0.00    3.40
   0 -12   0 2077.49   36.40
   0  12   0 2095.89   36.50
   0  12   0 2038.10   37.60
  -2 -12   0  270.07   10.60
   2 -12   0  299.97   10.40
   2  12   0  311.37   11.60
  -2  12   0  299.37   12.30
   2  12   0  301.77    9.60
  -4 -12   0   53.09    6.60
   4 -12   0   32.70    4.80
  -4  12   0   28.80    5.30
   4  12   0   36.50    6.00
   6 -12   0  169.38    9.60
  -6 -12   0  167.28   10.60
   6  12   0  168.98   10.80
  -6  12   0  179.78   11.50
  -8 -12   0  717.53   25.20
   8  12   0  700.23   24.80
  -8  12   0  688.53   25.80
   1 -13   0   10.00    2.80
  -1 -13   0    0.40    1.50
   1  13   0    3.00    2.00
  -1  13   0    0.00    1.50
  -1  13   0    2.10    2.20
   1  13   0    3.50    2.10
  -3 -13   0  976.50   24.40
   3 -13   0 1033.20   23.20
  -3  13   0  996.70   26.50
   3  13   0 1031.00   25.40
  -5 -13   0  659.63   21.10
   5 -13   0  639.44   19.00
  -5  13   0  633.84   22.10
   5  13   0  628.24   20.90
  -7 -13   0   22.10    5.50
   7  13   0   19.60    5.50
  -7  13   0   16.70    5.40
   0 -14   0  975.50   22.90
   0  14   0 1017.40   24.30
   0  14   0  984.80   22.40
   2 -14   0  157.38    8.30
  -2 -14   0  147.89    8.40
  -2  14   0  160.78    9.60
   2  14   0  139.49    8.40
   4 -14   0  305.67   12.50
  -4 -14   0  316.87   13.50
  -4  14   0  306.67   14.80
   4  14   0  332.87   14.40
  -6 -14   0  199.28   12.20
  -6  14   0  208.28   13.30
   6  14   0  217.98   12.60
  -1 -15   0    0.10    1.60
   1 -15   0    1.40    2.10
   1  15   0    1.90    2.10
   1  15   0    3.90    2.40
  -1  15   0    0.30    2.10
   3 -15   0 1336.87   29.50
  -3 -15   0 1377.16   31.60
  -3  15   0 1401.26   34.50
   3  15   0 1404.06   32.40
  -5 -15   0  518.15   19.50
  -5  15   0  540.55   21.50
   5  15   0  509.35   19.60
  -7 -15   0   20.90    6.10
   7  15   0   20.70    5.90
  -7  15   0   24.90    6.50
   0 -16   0 1077.09   25.10
   0  16   0 1051.09   26.60
   0  16   0 1076.89   24.80
  -2 -16   0   38.50    5.80
   2 -16   0   31.40    5.10
  -2  16   0   31.00    5.80
   2  16   0   35.80    6.00
  -4 -16   0  296.17   13.70
  -4  16   0  271.87   14.60
   4  16   0  270.27   14.00
  -6 -16   0  168.78   11.80
   6  16   0  176.88   12.50
  -6  16   0  171.38   12.90
  -1 -17   0   18.50    4.30
   1  17   0   10.10    3.60
  -1  17   0   14.60    4.40
  -3 -17   0  799.52   23.60
   3  17   0  869.51   25.80
  -3  17   0  836.22   26.60
  -5 -17   0  350.66   16.50
   5  17   0  351.06   16.90
  -5  17   0  377.66   18.60
   0  18   0  775.12   23.10
  -2 -18   0   95.79    9.40
   2  18   0  100.89    9.80
  -2  18   0  113.79   11.40
  -4 -18   0  131.09   12.30
   4  18   0  106.19   11.90
  -4  18   0  116.29   12.50
  -6 -18   0  141.49   14.00
  -1  19   0   26.10    5.70
  -3 -19   0  313.27   15.10
   3  19   0  293.07   14.60
  -3  19   0  299.07   16.00
  -5 -19   0  226.78   13.90
   5  19   0  190.48   13.40
  -5  19   0  212.58   16.40
   2  20   0   20.50    5.60
  -2  20   0   25.30    6.00
   4  20   0    0.00    3.00
  -4  20   0    0.00    3.50
  -1  21   0   32.10    6.60
  -3  21   0  195.38   13.70
   3  21   0  191.28   12.90
  -2  22   0   22.30    6.30
  10   0  -1    0.30    2.80
   8   0  -1  102.99    9.90
   6   0  -1 1205.58   27.00
   6   0  -1 1213.48   22.70
   4   0  -1 1377.06   22.50
  -4   0   1 1366.06   22.40
   4   0  -1 1359.96   25.40
   2   0  -1  590.14   10.00
  -2   0   1  583.54   10.20
   0   0  -1  772.22   11.70
   0   0  -1  776.42   11.30
   0   0  -1  761.72   12.20
  -2   0  -1 5956.90   81.99
  -2   0  -1 5988.90   79.89
  -2   0  -1 6067.29   83.39
  -4   0  -1 2062.59   35.40
  -4   0  -1 2069.49   33.40
   4   0   1 2024.10   32.70
  -6   0  -1    1.40    1.90
   6   0   1    2.50    1.70
   8   0   1    1.20    2.30
   9  -1  -1  802.52   25.30
   9   1  -1  838.92   25.90
   7  -1  -1  644.34   19.30
   7   1  -1  635.14   19.70
   7   1  -1  634.74   17.40
   5  -1  -1   86.99    5.50
  -5  -1   1   84.49    5.40
   5  -1  -1   81.89    4.10
  -5  -1   1   90.69    3.60
   5   1  -1   86.59    4.70
  -5   1   1   88.19    4.50
   3  -1  -1  801.82   13.10
  -3  -1   1  826.42   13.00
   3  -1  -1  787.92   15.70
  -3  -1   1  786.32   15.60
  -3   1   1  803.82   14.90
   3   1  -1  809.72   14.60
  -1  -1   1 6086.09   83.49
   1  -1  -1 5901.61   80.59
   1   1  -1 5950.00   82.89
   1   1  -1 5886.61   80.19
  -1   1   1 5995.10   81.49
  -1  -1  -1 1535.45   23.10
  -1  -1  -1 1598.34   23.70
  -1  -1  -1 1599.94   23.70
  -1   1  -1 1572.44   22.70
  -1   1  -1 1590.74   24.30
  -1   1  -1 1573.04   22.60
  -3  -1  -1  400.16   10.50
  -3  -1  -1  392.76    9.80
  -3  -1  -1  401.66    9.10
  -3   1  -1  387.46   10.20
  -3   1  -1  402.06    9.30
  -3   1  -1  390.06    9.80
  -5  -1  -1  410.56   10.50
  -5  -1  -1  425.96   13.60
   5  -1   1  418.26   11.10
  -5   1  -1  429.46   11.90
   5   1   1  416.56   11.90
  -5   1  -1  410.36   12.80
  -7  -1  -1 1463.05   33.60
   7  -1   1 1536.25   34.30
   9  -1   1    4.50    3.20
   9   1   1    0.00    2.80
  10  -2  -1    1.10    3.10
  10   2  -1    3.80    3.60
   8  -2  -1   99.09    9.40
   8   2  -1   88.59    9.60
  -6  -2   1 1235.58   27.30
   6  -2  -1 1284.87   27.30
  -6   2   1 1263.77   24.70
   6   2  -1 1267.27   24.90
   4  -2  -1 2384.56   33.70
   4  -2  -1 2330.07   38.90
  -4  -2   1 2364.86   39.00
  -4  -2   1 2477.55   33.80
   4   2  -1 2394.86   37.50
  -4   2   1 2423.06   38.40
   2  -2  -1   24.10    2.40
  -2  -2   1   29.80    2.10
   2  -2  -1   23.90    1.00
   2   2  -1   20.50    2.30
  -2   2   1   30.60    2.70
   0  -2  -1  110.39    3.30
   0  -2  -1  109.49    3.60
   0   2   1  108.79    3.40
   0   2  -1  114.59    3.30
   0   2  -1  112.59    3.50
  -2  -2  -1 4771.62   66.59
  -2  -2  -1 4846.92   68.19
   2   2   1 4806.32   67.39
  -2   2  -1 4893.21   66.79
  -2   2  -1 4935.21   64.69
  -2   2  -1 4857.31   69.69
  -4  -2  -1 1559.94   29.00
  -4  -2  -1 1551.94   25.40
   4  -2   1 1546.85   28.00
   4   2   1 1575.64   27.50
  -4   2  -1 1545.75   28.00
  -4   2  -1 1534.05   28.10
  -4   2  -1 1596.54   25.50
  -6  -2  -1   12.50    3.50
   6  -2   1   16.80    3.50
  -6   2  -1    8.70    2.60
   6   2   1    3.20    2.10
   8  -2   1    0.00    2.50
  -8  -2  -1   10.60    4.20
   8   2   1    8.70    3.80
   9  -3  -1 1111.59   30.30
   9   3  -1 1092.29   31.00
   7  -3  -1  306.37   12.50
  -7  -3   1  293.77   12.60
   7   3  -1  265.17   10.80
  -5  -3   1  150.58    7.40
   5  -3  -1  154.58    7.30
   5  -3  -1  142.49    4.40
  -5   3   1  140.19    6.60
   5   3  -1  149.09    6.90
  -3  -3   1  341.97    8.90
   3  -3  -1  332.17    9.10
   3  -3  -1  332.77    5.30
  -3   3   1  323.87    9.20
   3   3  -1  329.47    8.90
  -1  -3   1 9625.84  128.89
   1  -3  -1 9536.25  126.59
   1  -3  -1 9651.83  128.09
  -1   3   1 9250.97  134.39
   1   3  -1 9741.73  130.49
   1   3  -1 9265.57  123.99
  -1  -3  -1  107.99    4.20
  -1  -3  -1  100.89    3.90
   1  -3   1   96.49    2.90
   1   3   1  106.19    3.40
  -1   3  -1  105.59    3.20
  -1   3  -1   96.79    4.00
   3  -3   1   27.30    3.10
  -3  -3  -1   24.30    3.50
  -3   3  -1   25.40    2.00
   3   3   1   24.90    3.20
  -3   3  -1   30.30    3.50
   3   3   1   21.10    1.90
   5  -3   1  648.04   16.60
   5  -3   1  646.44   13.60
  -5  -3  -1  628.34   17.40
   5   3   1  640.74   16.50
  -5   3  -1  631.74   16.40
   7  -3   1 1386.76   31.40
  -7  -3  -1 1421.16   33.00
   7   3   1 1396.06   30.40
   9  -3   1   16.80    4.80
   9   3   1   11.40    4.50
  10  -4  -1    2.40    3.90
  10   4  -1    4.40    3.70
   8  -4  -1   22.10    4.70
  -8  -4   1   20.50    4.70
   8   4  -1   22.20    4.60
   8   4  -1   35.60    6.30
   6  -4  -1 1150.38   25.60
  -6  -4   1 1165.78   26.10
  -6   4   1 1110.99   24.80
   6   4  -1 1127.89   24.50
  -4  -4   1 3909.81   59.09
   4  -4  -1 3909.91   58.79
  -4   4   1 3882.81   60.49
   4   4  -1 3826.82   58.09
  -2  -4   1  516.95   10.70
   2  -4  -1  521.25   11.30
   2   4  -1  507.95   11.50
   2   4  -1  512.45    8.20
  -2   4   1  539.35   12.20
   0  -4  -1  248.38    6.80
   0  -4   1  250.77    4.90
   0  -4  -1  238.28    5.90
   0   4  -1  251.07    6.40
   0   4   1  246.98    5.90
   0   4  -1  243.58    6.10
   0   4   1  234.58    6.40
  -2  -4  -1 2473.25   38.30
   2  -4   1 2413.66   35.70
  -2   4  -1 2398.46   38.80
   2   4   1 2428.06   37.20
   2   4   1 2401.26   35.60
  -2   4  -1 2410.46   33.70
  -4  -4  -1 1490.65   28.80
   4  -4   1 1441.56   26.70
  -4   4  -1 1522.65   23.60
   4   4   1 1472.65   23.70
   4   4   1 1490.55   27.80
  -4   4  -1 1477.35   28.20
   6  -4   1  125.29    7.50
  -6  -4  -1  142.29    8.50
  -6   4  -1  126.39    7.50
   6   4   1  129.39    7.60
   8  -4   1   27.70    5.50
  -8  -4  -1   22.50    5.40
   9  -5  -1  735.93   24.10
   9   5  -1  733.03   25.20
  -7  -5   1  356.66   14.20
   7  -5  -1  353.76   13.70
   7   5  -1  361.46   13.50
  -7   5   1  355.86   13.10
  -5  -5   1  445.46   13.60
   5  -5  -1  443.26   13.50
  -5   5   1  467.65   14.10
   5   5  -1  459.25   13.70
  -3  -5   1  756.52   15.70
   3  -5  -1  767.22   16.10
   3   5  -1  728.73   16.20
  -3   5   1  756.92   17.10
  -1  -5   1 4247.08   57.49
   1  -5  -1 4136.79   59.49
   1   5  -1 4153.58   58.99
   1   5  -1 4143.89   58.69
  -1   5   1 4150.18   61.29
  -1   5   1 4241.28   55.79
   1  -5   1 1075.09   17.10
  -1  -5  -1 1067.49   19.40
   1   5   1 1087.09   18.50
  -1   5  -1 1115.99   20.30
   1   5   1 1047.90   18.90
  -1   5  -1 1090.29   17.30
  -3  -5  -1  223.48    8.50
   3  -5   1  231.38    7.30
   3   5   1  228.18    8.40
  -3   5  -1  227.48    8.50
  -3   5  -1  231.88    5.70
   3   5   1  219.88    5.80
   5  -5   1 1177.88   24.60
  -5  -5  -1 1201.28   26.60
   5   5   1 1224.98   25.90
  -5   5  -1 1229.78   26.70
   7  -5   1 1010.00   25.50
  -7  -5  -1  967.80   27.40
  -7   5  -1 1015.90   25.90
   7   5   1 1028.00   26.00
   9  -5   1  141.39   12.80
  -9  -5  -1  108.69   12.10
  10  -6  -1    2.60    3.40
  10   6  -1    0.20    3.20
  -8  -6   1    0.00    2.30
   8  -6  -1    1.70    2.80
   8   6  -1    3.30    2.90
   6  -6  -1  777.92   20.40
  -6  -6   1  768.62   20.70
   6   6  -1  734.63   19.80
  -6   6   1  773.02   20.90
   4  -6  -1 3195.58   49.90
  -4  -6   1 3052.39   49.60
   4   6  -1 3177.78   49.90
  -4   6   1 3066.49   52.19
   2  -6  -1  202.98    6.90
  -2  -6   1  203.28    6.40
   2   6  -1  199.18    5.00
  -2   6   1  204.28    7.60
  -2   6   1  197.38    4.30
   2   6  -1  206.78    7.40
   0  -6   1   85.99    3.30
   0  -6  -1   88.99    4.40
   0   6  -1   85.79    4.00
   0   6   1   84.89    4.20
   0   6  -1   89.09    4.30
   0   6   1   87.69    3.80
  -2  -6  -1 1703.03   29.50
   2  -6   1 1671.33   26.60
   2   6   1 1647.54   28.70
  -2   6  -1 1608.24   30.10
  -2   6  -1 1705.13   24.80
   2   6   1 1638.24   26.40
   4  -6   1 1684.73   29.80
  -4  -6  -1 1674.03   32.80
  -4   6  -1 1668.63   32.90
   4   6   1 1680.13   31.60
  -6  -6  -1  158.08    9.40
   6  -6   1  166.38    8.70
  -6   6  -1  179.18    9.60
   6   6   1  158.48    9.10
   8  -6   1    0.90    2.90
  -8  -6  -1    4.30    3.50
   8   6   1    0.50    2.70
  -9  -7   1  795.52   25.80
   9  -7  -1  728.53   24.00
   9   7  -1  727.03   23.70
  -7  -7   1  171.68   10.40
   7  -7  -1  182.38   10.10
   7   7  -1  198.08   10.30
  -7   7   1  178.58   10.40
   5  -7  -1   41.10    5.30
  -5  -7   1   39.30    5.10
   5   7  -1   34.20    4.80
  -5   7   1   40.50    5.70
  -3  -7   1  130.99    6.00
   3  -7  -1  124.79    6.00
   3   7  -1  118.99    6.20
  -3   7   1  121.69    6.70
   3   7  -1  135.19    3.30
   1  -7  -1 4498.55   65.49
  -1  -7   1 4392.16   63.09
   1   7  -1 4581.84   64.79
  -1   7   1 4503.15   61.49
  -1   7   1 4411.16   67.49
   1   7  -1 4597.34   65.19
   1  -7   1  579.34   11.50
  -1  -7  -1  581.04   13.80
   1   7   1  604.44   13.60
   1   7   1  590.04   12.70
  -1   7  -1  585.94   11.90
  -1   7  -1  560.84   14.20
  -3  -7  -1  105.09    6.20
   3  -7   1  118.29    5.30
  -3   7  -1  117.29    3.90
   3   7   1  118.29    6.40
   3   7   1  119.59    4.30
  -3   7  -1  105.49    6.40
   5  -7   1  383.06   12.50
  -5  -7  -1  359.46   13.60
  -5   7  -1  409.16   14.20
   5   7   1  405.36   14.00
   7  -7   1 1521.75   33.10
  -7  -7  -1 1428.66   35.20
   7   7   1 1473.05   34.20
  -7   7  -1 1498.45   35.10
  -9  -7  -1   13.60    5.30
  -8  -8   1   35.70    6.40
   8  -8  -1   28.70    5.60
  -8   8   1   37.90    6.70
   8   8  -1   43.10    6.80
  -6  -8   1  740.53   20.90
   6  -8  -1  735.33   20.30
   6   8  -1  728.53   20.80
  -6   8   1  754.22   22.20
  -4  -8   1 1350.46   27.10
   4  -8  -1 1325.97   26.80
   4   8  -1 1381.46   28.10
  -4   8   1 1349.36   29.20
  -2  -8   1   56.19    3.70
   2  -8  -1   64.89    4.30
   2   8  -1   56.09    3.10
   2   8  -1   64.79    4.60
  -2   8   1   62.89    2.90
  -2   8   1   60.19    4.60
   0  -8   1  108.89    4.30
   0  -8  -1  105.49    5.40
   0   8   1   97.89    5.10
   0   8  -1  107.29    5.40
   0   8  -1  103.59    5.00
   0   8   1  103.69    4.80
  -2  -8  -1 2171.58   38.10
   2  -8   1 2222.98   34.90
   2   8   1 2232.98   37.40
  -2   8  -1 2230.88   32.80
  -2   8  -1 2236.18   39.70
   2   8   1 2215.38   35.20
   4  -8   1 1407.06   26.70
   4   8   1 1404.66   29.10
  -4   8  -1 1399.56   30.70
   6  -8   1   28.00    4.90
  -6  -8  -1   31.30    5.40
   6   8   1   41.00    6.30
  -6   8  -1   40.90    6.40
  -8  -8  -1    2.50    3.00
   8  -8   1    2.50    3.10
   8   8   1    0.00    2.50
   9  -9  -1  636.54   22.60
  -9  -9   1  664.73   23.80
   9   9  -1  634.04   23.00
  -7  -9   1  353.36   14.90
   7  -9  -1  341.97   14.30
  -7   9   1  344.07   15.40
   7   9  -1  365.56   15.10
   5  -9  -1   60.29    6.40
  -5  -9   1   62.79    6.80
   5   9  -1   47.60    6.20
  -5   9   1   63.59    7.60
   3  -9  -1  258.97    9.50
  -3  -9   1  257.37    9.10
  -3   9   1  256.27   10.50
   3   9  -1  246.08    6.30
   3   9  -1  253.97   10.10
   1  -9  -1 2996.10   47.30
  -1  -9   1 2975.20   45.10
  -1   9   1 2997.90   44.20
  -1   9   1 2928.81   49.10
   1   9  -1 2993.30   46.90
   1   9  -1 3056.39   47.10
  -1  -9  -1  375.36   11.40
   1  -9   1  382.06    9.60
   1   9   1  378.06   11.10
  -1   9  -1  376.46    9.90
  -1   9  -1  362.96   11.80
   1   9   1  391.86   10.70
   3  -9   1  178.38    7.10
  -3  -9  -1  178.88    8.60
   3   9   1  177.08    8.50
  -3   9  -1  180.38    9.20
   5  -9   1  242.08    9.80
  -5  -9  -1  217.28   11.10
   5   9   1  239.08   11.40
  -5   9  -1  228.08   11.50
  -7  -9  -1 1055.39   29.50
   7  -9   1 1068.39   26.80
  -7   9  -1 1071.89   30.20
   7   9   1 1036.00   29.50
   9   9   1    6.90    5.10
   8 -10  -1  126.39    9.60
  -8 -10   1  142.09   10.60
   8  10  -1  154.28   10.70
  -8  10   1  162.78   11.50
   6 -10  -1  752.22   21.00
  -6 -10   1  761.72   21.80
  -6  10   1  758.02   23.70
   6  10  -1  780.52   22.60
   4 -10  -1  927.71   21.70
  -4 -10   1  899.91   21.80
   4  10  -1  927.41   22.80
  -4  10   1  951.20   24.10
   2 -10  -1   14.10    2.90
  -2 -10   1    7.10    2.00
  -2  10   1    4.50    2.20
   2  10  -1   10.80    2.90
  -2  10   1   10.00    1.90
   2  10  -1    8.60    2.00
   0 -10   1  121.49    5.30
   0 -10  -1  113.09    6.20
   0  10  -1  110.49    5.90
   0  10  -1  117.39    6.30
   0  10   1  123.89    6.30
   0  10   1  115.69    5.70
   2 -10   1 2746.93   42.80
  -2 -10  -1 2691.73   46.30
  -2  10  -1 2658.13   40.30
   2  10   1 2730.73   45.90
  -2  10  -1 2757.12   48.60
   2  10   1 2732.13   43.50
  -4 -10  -1  784.72   21.30
   4 -10   1  805.12   18.70
  -4  10  -1  741.03   21.80
   4  10   1  790.62   21.40
   6 -10   1    2.30    2.30
  -6 -10  -1    2.60    2.40
  -6  10  -1    0.00    2.10
   6  10   1    1.10    2.30
  -8 -10  -1    1.10    3.00
   8  10   1    1.70    3.40
  -8  10  -1    0.00    2.80
   9 -11  -1  665.43   23.20
  -9 -11   1  620.24   23.90
   9  11  -1  591.84   23.00
  -7 -11   1  400.66   16.60
   7 -11  -1  373.16   15.40
  -7  11   1  423.66   18.20
   7  11  -1  417.76   17.10
   5 -11  -1  242.48   10.90
  -5 -11   1  233.88   10.80
   5  11  -1  224.48   11.20
  -5  11   1  252.97   12.70
  -3 -11   1  423.76   13.00
   3 -11  -1  445.46   13.60
  -3  11   1  424.46   15.10
   3  11  -1  424.96   14.20
   1 -11  -1 2161.08   38.90
  -1 -11   1 2178.68   36.60
  -1  11   1 2235.28   40.70
   1  11  -1 2211.88   38.50
   1  11  -1 2315.07   38.50
  -1  11   1 2231.18   35.80
   1 -11   1  190.48    7.10
  -1 -11  -1  180.18    8.30
   1  11   1  167.58    7.80
  -1  11  -1  170.38    7.00
   1  11   1  202.68    8.00
  -1  11  -1  163.08    8.40
   3 -11   1  179.78    7.70
  -3 -11  -1  184.08    9.50
   3  11   1  195.58    9.70
  -3  11  -1  181.68   10.00
   5 -11   1  311.67   11.90
  -5 -11  -1  341.87   14.70
   5  11   1  329.47   14.20
  -5  11  -1  315.47   14.90
  -7 -11  -1  602.44   22.20
   7  11   1  611.04   22.40
  -7  11  -1  632.54   23.70
  -8 -12   1  117.89   12.20
   8 -12  -1  129.29   12.30
  -8  12   1  126.89   12.90
   8  12  -1  129.39   12.90
   6 -12  -1  689.23   20.80
  -6 -12   1  689.23   21.50
  -6  12   1  693.73   23.60
   6  12  -1  697.23   22.40
  -4 -12   1  992.60   24.40
   4 -12  -1 1078.19   25.00
   4  12  -1 1026.60   26.00
  -4  12   1 1066.79   27.70
   2 -12  -1   26.40    4.30
  -2 -12   1   26.30    3.80
   2  12  -1   25.30    3.40
  -2  12   1   22.50    4.00
   2  12  -1   23.90    4.40
   0 -12   1   15.50    2.90
   0 -12  -1   13.60    3.00
   0  12   1   15.60    3.20
   0  12  -1   13.90    3.10
   0  12  -1   21.30    3.70
   0  12   1   16.60    3.40
  -2 -12  -1 1798.42   35.40
   2 -12   1 1792.82   31.60
   2  12   1 1760.92   34.80
  -2  12  -1 1788.22   37.00
   2  12   1 1808.82   32.60
  -4 -12  -1  538.95   17.80
  -4  12  -1  468.75   17.70
   4  12   1  504.25   17.50
  -6 -12  -1    9.90    4.00
  -6  12  -1   14.40    4.70
   6  12   1    8.10    3.80
  -8 -12  -1    2.50    4.10
  -8  12  -1    5.20    4.80
   8  12   1    5.60    4.60
   7 -13  -1  125.59    9.30
  -7 -13   1  118.09   11.90
   7  13  -1  114.19   11.80
  -7  13   1  135.19   13.10
   5 -13  -1   96.69    7.20
  -5 -13   1   97.99    9.30
   5  13  -1  109.39   10.40
  -5  13   1   76.99    9.00
  -3 -13   1   94.29    6.30
   3 -13  -1   94.89    6.80
   3  13  -1   95.09    9.30
  -3  13   1   97.79    9.40
   1 -13  -1 2298.67   41.60
  -1 -13   1 2324.07   39.50
  -1  13   1 2285.37   38.20
   1  13  -1 2268.87   40.90
   1  13  -1 2253.27   41.10
  -1  13   1 2280.67   43.40
  -1 -13  -1   42.60    5.40
   1 -13   1   56.09    5.30
   1  13   1   48.50    5.50
  -1  13  -1   54.49    5.50
   1  13   1   51.79    6.00
  -1  13  -1   56.79    6.50
  -3 -13  -1   60.29    7.50
   3  13   1   40.30    6.00
  -3  13  -1   32.50    5.50
  -5 -13  -1  222.18   12.40
  -5  13  -1  188.98   12.20
   5  13   1  208.88   11.90
  -7 -13  -1  748.53   25.90
  -7  13  -1  730.63   27.40
   7  13   1  748.53   25.90
  -8 -14   1    3.30    3.70
  -8  14   1   11.70    5.10
   8  14  -1    1.40    3.70
  -6 -14   1  392.76   16.20
   6 -14  -1  402.56   15.80
  -6  14   1  380.46   18.00
   6  14  -1  348.37   16.60
  -4 -14   1 1107.19   27.10
   4 -14  -1 1116.79   26.80
  -4  14   1 1071.09   29.60
   4  14  -1 1134.09   29.20
   2 -14  -1   39.90    5.60
  -2 -14   1   36.10    4.90
   2  14  -1   50.49    6.50
  -2  14   1   49.60    6.60
   0 -14  -1    2.90    2.00
   0 -14   1    1.00    1.50
   0  14  -1    0.10    1.70
   0  14   1    3.50    1.90
   0  14  -1    2.80    2.10
   0  14   1    3.30    2.20
  -2 -14  -1  707.83   20.60
  -2  14  -1  727.03   21.80
   2  14   1  764.02   21.00
  -4 -14  -1  654.43   21.10
   4  14   1  651.73   21.40
  -4  14  -1  659.43   22.60
  -6 -14  -1  141.29   13.40
  -6  14  -1  111.29   12.10
   6  14   1   94.29   10.90
  -7 -15   1   97.09   10.90
   7  15  -1   96.69   11.30
  -7  15   1   96.89   12.00
  -5 -15   1  100.69    9.90
   5 -15  -1  149.49    9.50
  -5  15   1  104.59   11.10
   5  15  -1  118.79   11.60
   3 -15  -1  104.69    9.40
  -3 -15   1   88.29    8.10
   3  15  -1   65.19    7.70
  -3  15   1   75.89    9.00
   1 -15  -1 1057.19   25.70
  -1 -15   1 1053.79   23.40
  -1  15   1 1070.29   26.90
   1  15  -1 1048.50   25.30
   1  15  -1 1044.60   24.50
  -1 -15  -1  332.17   13.00
  -1  15  -1  325.07   13.80
   1  15   1  331.97   12.90
   1  15   1  337.47   12.60
  -3 -15  -1  177.88   10.60
  -3  15  -1  179.38   11.30
   3  15   1  218.88   11.70
  -5 -15  -1  272.07   14.50
  -5  15  -1  293.87   15.80
   5  15   1  288.57   15.10
  -7 -15  -1  579.14   25.90
  -7  15  -1  536.15   24.40
  -6 -16   1  209.98   12.20
  -6  16   1  202.18   13.70
   6  16  -1  187.48   12.80
  -4 -16   1  825.12   23.80
   4 -16  -1  873.41   23.80
   4  16  -1  792.02   24.50
  -4  16   1  849.32   26.70
   2 -16  -1   24.90    4.90
  -2 -16   1   19.90    4.10
   2  16  -1   19.70    4.70
  -2  16   1   24.00    5.20
   0 -16  -1    6.60    3.00
   0  16  -1    6.40    3.00
   0  16   1    5.00    2.50
   0  16   1    3.00    2.50
   0  16  -1    4.80    2.60
  -2 -16  -1  464.85   17.00
   2  16   1  455.75   16.60
  -2  16  -1  464.45   18.00
  -4 -16  -1  642.14   21.90
   4  16   1  651.23   22.30
  -6 -16  -1  100.09   11.40
  -6  16  -1  101.49   11.90
   6  16   1   86.79   10.50
  -7 -17   1   62.89    9.30
  -5 -17   1   49.60    7.40
  -5  17   1   47.20    8.00
   5  17  -1   61.09    8.70
   3 -17  -1   24.90    5.20
   3  17  -1   17.80    4.60
  -3  17   1   26.10    5.50
   1 -17  -1 1003.10   25.70
  -1  17   1 1042.30   27.80
   1  17  -1  981.00   25.40
  -1 -17  -1  111.49    8.40
   1  17   1  108.39    8.00
  -1  17  -1  101.99    9.90
  -3 -17  -1   78.39    8.70
  -3  17  -1   86.59    9.90
   3  17   1  129.29   12.30
  -5 -17  -1  101.99   11.20
  -5  17  -1  117.59   12.60
   5  17   1  141.39   13.70
  -6  18   1  273.67   18.00
   6  18  -1  267.07   15.60
  -4  18   1  434.76   19.80
   4  18  -1  467.15   19.00
   2 -18  -1   19.40    4.90
   2  18  -1   13.80    4.20
  -2  18   1   12.50    4.60
   0 -18  -1   22.20    4.90
   0  18   1   34.30    6.00
   0  18  -1   31.70    5.80
  -2 -18  -1  600.04   20.60
  -2  18  -1  659.33   22.60
   2  18   1  585.74   20.30
  -4 -18  -1  297.77   15.50
  -4  18  -1  310.87   16.80
   4  18   1  306.77   15.70
  -5  19   1   88.39   11.10
   5  19  -1   79.79   10.70
   3  19  -1   48.80    7.80
  -3  19   1   61.59    8.80
   1 -19  -1  903.21   25.30
  -1  19   1  851.31   26.20
  -1 -19  -1   13.60    4.20
  -1  19  -1    9.60    4.10
  -3 -19  -1   74.99    9.70
   3  19   1   66.19    8.70
  -3  19  -1   50.09    8.60
  -5 -19  -1   68.59    9.40
  -4  20   1  292.47   16.90
   4  20  -1  287.87   15.60
  -2  20   1   25.90    6.00
   2  20  -1   19.80    5.30
  -2 -20  -1  661.53   23.10
  -2  20  -1  636.54   24.10
   2  20   1  659.13   22.60
  -4 -20  -1  124.29   12.80
   4  20   1  109.19   11.90
   3  21  -1   81.39   10.30
  -3  21   1   52.19    8.30
  -1  21   1  505.15   20.50
  -1  21  -1   36.60    6.90
  -3 -21  -1   98.79   11.30
   3  21   1  108.09   11.90
  -2  22   1    5.80    4.30
  10   0  -2  666.43   23.70
   8   0  -2  155.28    9.80
   6   0  -2  524.35   12.60
   6   0  -2  528.05   15.70
  -4   0   2  468.65   10.50
   4   0  -2  438.36   11.70
   4   0  -2  456.05   10.00
   2   0  -2 2563.54   36.90
   2   0  -2 2629.44   38.00
  -2   0   2 2645.74   38.60
   0   0  -2   80.89    3.50
   0   0   2   79.79    3.40
   0   0  -2   78.79    3.20
   0   0  -2   83.79    2.80
  -2   0  -2  611.74   13.00
  -2   0  -2  625.44   13.30
  -2   0  -2  632.34   13.00
  -4   0  -2  474.05   13.20
  -4   0  -2  487.35   12.80
  -4   0  -2  504.65   12.90
   6   0   2 1124.49   24.20
  -6   0  -2 1132.09   26.40
   8   0   2   51.09    7.70
   9  -1  -2   17.40    4.60
   9   1  -2   17.10    4.80
   7  -1  -2 1238.18   28.80
   7   1  -2 1272.17   25.10
   7   1  -2 1253.47   28.90
  -5  -1   2 2691.43   40.90
   5  -1  -2 2703.63   45.20
   5  -1  -2 2734.73   39.90
   5   1  -2 2779.92   42.10
   5   1  -2 2759.22   45.60
  -5   1   2 2765.92   43.60
   3  -1  -2   61.89    2.80
   3  -1  -2   74.19    4.00
  -3  -1   2   65.89    2.90
   3   1  -2   65.39    3.60
   3   1  -2   64.09    3.30
  -3   1   2   69.79    3.60
   1  -1  -2  316.97    6.80
  -1  -1   2  309.97    7.10
   1   1  -2  314.57    6.10
  -1   1   2  313.37    7.50
   1   1  -2  314.77    7.20
  -1  -1  -2 5901.11   78.39
  -1  -1  -2 5682.13   79.09
  -1   1  -2 5759.02   77.59
  -1   1  -2 5770.42   81.79
   1   1   2 5572.34   81.19
  -1   1  -2 5966.20   77.89
  -3  -1  -2 2285.57   36.70
  -3  -1  -2 2260.27   37.00
  -3   1  -2 2262.67   35.40
  -3   1  -2 2296.87   36.40
  -3   1  -2 2237.88   37.40
  -5  -1  -2   15.40    2.80
  -5  -1  -2   14.70    3.30
   5   1   2   14.40    3.00
  -5   1  -2   15.30    3.30
  -5   1  -2   16.90    3.10
  -5   1  -2   15.50    3.10
   7  -1   2   14.20    3.90
  -7  -1  -2   10.90    3.90
   9  -1   2  821.92   26.40
   9   1   2  779.22   26.50
  10  -2  -2  532.45   21.70
  10   2  -2  533.35   21.30
   8  -2  -2  386.56   15.50
   8   2  -2  395.16   15.70
   6  -2  -2  384.06   13.00
   6   2  -2  361.86   13.00
   6   2  -2  382.36   11.40
  -6   2   2  393.76   11.80
   4  -2  -2  634.04   11.40
  -4  -2   2  641.54   11.70
   4  -2  -2  648.14   15.30
  -4   2   2  654.13   14.70
   4   2  -2  683.53   15.00
   4   2  -2  652.53   14.20
  -2  -2   2 3055.69   42.60
   2  -2  -2 2973.80   40.50
   2  -2  -2 3012.90   43.80
  -2   2   2 2886.91   44.70
   2   2  -2 3013.40   42.30
   2   2  -2 2965.50   42.80
   0  -2  -2 1562.44   24.50
   0  -2  -2 1555.14   23.80
   0   2   2 1560.94   25.10
   0   2  -2 1547.25   25.00
   0   2  -2 1535.95   23.80
  -2  -2  -2  761.52   15.70
  -2  -2  -2  782.32   15.70
   2   2   2  788.92   15.20
  -2   2  -2  789.82   14.50
  -2   2  -2  756.92   14.50
  -2   2  -2  783.22   16.30
  -4  -2  -2  963.20   19.10
  -4  -2  -2  952.20   20.50
  -4  -2  -2  988.00   21.30
  -4   2  -2  954.00   20.10
  -4   2  -2  963.10   20.90
  -4   2  -2  991.30   19.60
   6  -2   2 1297.57   28.80
  -6  -2  -2 1266.67   29.60
   6   2   2 1231.78   27.30
  -6   2  -2 1264.57   27.20
  -8  -2  -2   66.19    8.70
   8  -2   2   58.99    8.00
   9  -3  -2   52.69    7.80
   9   3  -2   41.50    6.90
   7  -3  -2  588.74   18.50
   7   3  -2  625.04   16.70
   7   3  -2  609.74   18.90
   5  -3  -2 2212.18   30.90
   5  -3  -2 2126.69   38.50
  -5  -3   2 2219.68   38.10
   5   3  -2 2201.68   36.80
  -5   3   2 2150.58   38.10
  -3  -3   2   50.59    2.10
  -3  -3   2   52.39    3.20
   3  -3  -2   51.79    2.00
   3  -3  -2   53.69    3.50
   3   3  -2   47.90    3.40
  -3   3   2   53.89    3.70
   1  -3  -2  136.89    5.00
   1  -3  -2  139.19    4.10
   1   3  -2  135.29    3.00
  -1   3   2  132.29    5.00
   1   3  -2  137.09    4.50
   1   3  -2  131.79    4.80
   1  -3   2 3224.18   43.90
  -1  -3  -2 3159.48   46.40
  -1  -3  -2 3233.58   47.50
   1   3   2 3276.67   47.70
  -1   3  -2 3159.78   48.90
  -1   3  -2 3281.07   45.50
  -3  -3  -2 2054.19   35.50
   3  -3   2 2049.59   32.70
   3   3   2 2054.09   33.10
  -3   3  -2 2041.70   32.00
  -3   3  -2 2046.10   32.60
  -3   3  -2 1967.10   35.20
   5  -3   2  130.39    7.20
  -5  -3  -2  136.99    7.80
  -5   3  -2  122.79    7.10
   5   3   2  142.99    7.50
  -5   3  -2  136.79    6.30
  -7  -3  -2   13.30    4.10
   7  -3   2    8.20    3.30
   7   3   2   14.50    3.70
   9  -3   2  712.43   23.90
   9   3   2  719.93   25.50
  10  -4  -2  780.82   26.80
  10   4  -2  827.22   27.50
   8  -4  -2  355.16   15.00
   8   4  -2  337.77   15.00
   8   4  -2  337.37   13.00
   6  -4  -2    1.90    2.00
  -6  -4   2    0.10    1.40
   6   4  -2    0.00    1.20
  -6   4   2    3.30    1.80
  -4  -4   2  117.09    5.60
   4  -4  -2  109.59    5.80
   4  -4  -2  110.19    2.60
  -4   4   2  106.99    5.70
   4   4  -2  107.49    5.60
   2  -4  -2 9827.72  128.29
  -2  -4   2 9842.02  136.59
   2  -4  -2 9699.93  133.09
   2   4  -2 9825.32  130.39
  -2   4   2 9664.33  136.59
   2   4  -2 9999.00  132.79
   0  -4  -2  736.83   14.80
   0  -4  -2  740.93   13.70
   0   4   2  729.83   14.50
   0   4  -2  706.73   14.60
   0   4  -2  744.63   13.90
   2  -4   2    3.50    1.30
  -2  -4  -2    5.90    2.10
  -2  -4  -2    0.50    1.50
  -2   4  -2    2.40    1.70
  -2   4  -2    0.00    0.80
   2   4   2    0.70    1.10
  -4  -4  -2  677.73   17.90
   4  -4   2  677.73   15.80
  -4   4  -2  705.63   14.70
   4   4   2  685.33   17.40
  -4   4  -2  688.63   17.80
   4   4   2  713.73   14.80
  -6  -4  -2 2242.68   44.90
   6  -4   2 2312.57   42.70
  -6   4  -2 2374.56   44.10
   6   4   2 2407.46   44.20
  -8  -4  -2    0.00    2.70
   8  -4   2    4.80    3.00
   9  -5  -2  142.09   10.50
   9   5  -2  118.99   11.70
  -7  -5   2  538.95   17.50
   7  -5  -2  529.15   17.60
   7   5  -2  521.75   16.40
  -7   5   2  533.25   16.90
  -5  -5   2 1245.48   25.70
   5  -5  -2 1277.07   26.60
  -5   5   2 1266.97   27.20
   5   5  -2 1277.97   26.40
  -3  -5   2   85.19    4.20
  -3  -5   2   80.69    2.70
   3  -5  -2   84.69    4.80
   3  -5  -2   81.29    2.20
  -3   5   2   82.69    5.00
   3   5  -2   77.39    4.70
   1  -5  -2  665.13   14.50
  -1  -5   2  677.03   10.90
   1  -5  -2  686.23   12.70
  -1   5   2  688.33   14.80
   1   5  -2  677.03   13.50
  -1  -5  -2 1890.51   32.30
   1  -5   2 1978.40   27.80
  -1  -5  -2 1971.80   31.60
  -1   5  -2 1953.20   29.90
  -1   5  -2 1954.20   33.30
   1   5   2 1948.21   31.50
  -3  -5  -2 1281.57   26.10
   3  -5   2 1319.57   22.90
  -3   5  -2 1362.86   22.40
   3   5   2 1323.77   25.70
   3   5   2 1329.87   23.10
  -3   5  -2 1299.77   26.80
  -5  -5  -2  208.78   10.10
   5  -5   2  221.78    9.00
   5   5   2  204.88    9.70
  -5   5  -2  233.68   10.50
  -7  -5  -2    4.80    3.10
   7  -5   2    5.50    2.70
   7   5   2    3.70    2.90
  -7   5  -2    6.80    2.80
  -9  -5  -2  483.75   22.30
  10  -6  -2  896.91   28.40
  10   6  -2  892.51   28.90
   8  -6  -2  215.88   11.60
  -8  -6   2  193.78   11.00
   8   6  -2  197.18   10.50
   8   6  -2  188.78   11.00
   6  -6  -2    0.00    1.60
  -6  -6   2    3.30    2.10
   6   6  -2    1.60    1.90
  -6   6   2    0.10    1.60
   4  -6  -2  223.08    8.90
  -4  -6   2  227.88    8.20
   4   6  -2  225.78    9.10
  -4   6   2  249.48    9.80
  -2  -6   2 7173.78   97.19
   2  -6  -2 7059.49  100.59
   2  -6  -2 7376.56   93.99
  -2   6   2 7041.40  103.69
   2   6  -2 7174.48   99.09
   2   6  -2 7237.48   99.49
   0  -6  -2  370.86    9.40
   0  -6   2  372.66    6.60
   0   6   2  370.86   10.10
   0   6  -2  378.66    9.60
   0   6  -2  348.07   10.00
  -2  -6  -2   56.19    5.60
   2  -6   2   40.50    2.60
   2   6   2   35.10    4.20
   2   6   2   37.50    2.90
  -2   6  -2   38.50    2.80
  -2   6  -2   43.90    5.00
  -4  -6  -2  459.35   15.10
   4  -6   2  486.05   12.60
  -4   6  -2  455.15   12.00
  -4   6  -2  446.26   14.70
   4   6   2  441.96   14.10
   6  -6   2 1958.00   37.40
  -6  -6  -2 1918.81   40.90
  -6   6  -2 1992.00   40.70
   6   6   2 1964.40   39.70
  -8  -6  -2   18.90    5.50
   8   6   2   12.90    4.70
   9  -7  -2   52.39    7.90
   9   7  -2   71.19    9.30
   9   7  -2   65.99    8.60
  -7  -7   2  738.53   21.30
   7  -7  -2  691.93   20.90
  -7   7   2  737.63   21.80
   7   7  -2  746.83   21.20
  -5  -7   2 1190.78   25.20
   5  -7  -2 1257.17   26.70
   5   7  -2 1207.28   26.90
  -5   7   2 1204.48   28.00
  -3  -7   2   90.59    4.40
   3  -7  -2   83.29    5.20
  -3   7   2   81.69    2.50
   3   7  -2   78.19    5.30
   3   7  -2   79.59    3.10
  -3   7   2   86.69    5.70
  -1  -7   2    0.90    0.70
   1  -7  -2    0.30    1.20
  -1   7   2    0.00    0.90
  -1   7   2    3.40    1.10
   1   7  -2    1.80    1.10
   1   7  -2    0.70    1.20
   1  -7   2 1847.22   27.10
  -1  -7  -2 1887.61   32.80
   1   7   2 1865.71   31.20
  -1   7  -2 1793.12   29.10
  -1   7  -2 1784.32   32.50
   1   7   2 1792.42   31.10
   3  -7   2 1160.58   20.70
  -3  -7  -2 1111.69   24.80
   3   7   2 1120.39   23.90
  -3   7  -2 1153.58   19.80
  -3   7  -2 1111.69   25.50
   3   7   2 1101.09   20.70
  -5  -7  -2   31.90    5.50
   5  -7   2   30.40    4.40
   5   7   2   37.40    5.80
  -5   7  -2   27.20    4.90
  -7  -7  -2    2.70    2.80
   7   7   2    1.60    2.90
  -7   7  -2    0.70    2.80
  10  -8  -2  540.95   22.00
  10   8  -2  505.65   24.00
   8  -8  -2  245.98   13.10
  -8  -8   2  236.98   12.50
  -8   8   2  228.08   12.70
   8   8  -2  250.97   12.40
  -6  -8   2  317.17   12.70
   6  -8  -2  321.07   12.90
   6   8  -2  312.07   13.20
  -6   8   2  321.87   13.40
  -4  -8   2  575.54   14.80
   4  -8  -2  580.94   16.20
  -4   8   2  590.74   17.60
   4   8  -2  624.04   17.10
  -2  -8   2 1832.22   29.30
   2  -8  -2 1853.41   33.00
   2   8  -2 1820.82   29.90
  -2   8   2 1836.92   34.00
   2   8  -2 1822.12   32.90
  -2   8   2 1858.31   27.90
   0  -8  -2  467.05   13.20
   0  -8   2  494.75    9.50
   0   8  -2  498.05   12.30
   0   8  -2  457.75   12.40
   0   8   2  500.95   13.10
   0   8   2  481.15   11.90
  -2  -8  -2  217.18    9.10
   2  -8   2  211.28    6.40
  -2   8  -2  219.48    6.90
  -2   8  -2  221.28    9.30
   2   8   2  206.78    8.50
   2   8   2  216.18    7.60
  -4  -8  -2  546.85   17.30
   4  -8   2  583.64   14.40
   4   8   2  560.24   17.20
  -4   8  -2  602.14   18.80
  -6  -8  -2  809.42   24.30
   6   8   2  820.32   23.60
  -6   8  -2  794.42   24.20
  -8  -8  -2   69.49   10.00
   8   8   2   80.99   10.00
   9  -9  -2   21.00    5.80
  -9  -9   2   15.30    4.80
   9   9  -2   18.10    4.90
  -7  -9   2  799.42   23.30
   7  -9  -2  787.02   23.30
   7   9  -2  780.22   23.30
  -7   9   2  779.12   24.20
   5  -9  -2 1529.45   31.90
  -5  -9   2 1481.05   30.60
  -5   9   2 1569.04   34.30
   5   9  -2 1588.54   33.00
  -3  -9   2    3.50    1.40
   3  -9  -2    0.00    1.40
   3   9  -2    1.90    1.00
   3   9  -2    0.00    1.20
  -3   9   2    3.40    2.00
   1  -9  -2   42.30    4.90
  -1  -9   2   57.39    3.10
   1   9  -2   59.09    5.80
   1   9  -2   51.69    3.70
  -1   9   2   55.69    5.60
  -1   9   2   58.39    3.70
  -1  -9  -2 2483.35   43.00
   1  -9   2 2439.96   36.80
  -1   9  -2 2516.85   43.70
   1   9   2 2461.55   41.00
  -1   9  -2 2504.05   39.30
   1   9   2 2526.65   41.60
   3  -9   2 1259.47   23.10
  -3  -9  -2 1273.27   28.40
  -3   9  -2 1253.47   28.50
   3   9   2 1245.38   24.10
   3   9   2 1241.88   27.30
  -5  -9  -2    0.00    1.50
   5   9   2    0.00    1.40
  -5   9  -2    0.00    1.60
  -7  -9  -2    0.00    2.70
   7   9   2    6.70    3.70
  -7   9  -2    3.30    3.30
  -8 -10   2  150.38   10.40
   8 -10  -2  139.49   10.10
  -8  10   2  160.18   11.40
   8  10  -2  133.99   12.30
   6 -10  -2  270.67   12.20
  -6 -10   2  280.77   12.10
   6  10  -2  261.57   12.70
  -6  10   2  247.68   12.80
  -4 -10   2   91.39    5.80
   4 -10  -2   90.09    6.40
   4  10  -2   99.09    6.90
  -4  10   2   76.39    7.90
   2 -10  -2 1401.56   28.80
  -2 -10   2 1445.46   25.20
  -2  10   2 1435.06   30.00
  -2  10   2 1470.05   24.20
   2  10  -2 1461.35   26.20
   2  10  -2 1422.66   28.90
   0 -10   2  169.98    5.60
   0 -10  -2  169.78    8.10
   0  10  -2  166.18    7.40
   0  10   2  172.08    7.20
   0  10  -2  179.48    7.90
   0  10   2  178.88    8.00
  -2 -10  -2  450.35   14.70
   2  10   2  454.35   12.50
  -2  10  -2  466.35   15.20
   2  10   2  460.75   14.30
  -2  10  -2  467.55   11.70
  -4 -10  -2  273.07   12.40
  -4  10  -2  279.37   13.10
   4  10   2  291.97   12.50
  -6 -10  -2  828.52   25.90
  -6  10  -2  825.72   26.60
   6  10   2  855.41   25.70
  -8 -10  -2    9.90    4.80
  -8  10  -2    1.20    3.90
   8  10   2   12.80    5.30
   9 -11  -2    6.20    3.80
  -9 -11   2   13.10    4.60
   9  11  -2   12.20    5.00
   7 -11  -2  491.45   18.20
  -7 -11   2  484.85   18.10
  -7  11   2  482.45   19.60
   7  11  -2  469.95   18.00
   5 -11  -2 1423.66   31.60
  -5 -11   2 1466.25   30.60
  -5  11   2 1484.55   34.70
   5  11  -2 1433.26   32.50
   3 -11  -2   25.60    4.40
  -3 -11   2   19.60    3.30
   3  11  -2   28.60    5.10
  -3  11   2   18.50    4.10
   1 -11  -2    6.60    2.20
  -1 -11   2    6.50    1.80
  -1  11   2    7.30    2.50
   1  11  -2   10.50    2.80
   1  11  -2    4.40    1.80
  -1  11   2    7.30    2.20
  -1 -11  -2 2296.17   41.90
   1  11   2 2300.07   40.10
  -1  11  -2 2316.57   42.60
  -1  11  -2 2237.98   38.00
   1  11   2 2266.67   39.90
  -3 -11  -2 1146.09   27.30
  -3  11  -2 1072.89   27.20
   3  11   2 1103.09   25.90
  -5 -11  -2   13.40    4.20
  -5  11  -2   13.10    4.20
   5  11   2    6.20    3.30
  -7 -11  -2    7.00    4.30
  -7  11  -2    0.00    2.80
   7  11   2    6.50    4.10
  -8 -12   2  209.88   12.60
   8 -12  -2  249.48   13.50
  -8  12   2  231.18   14.30
   8  12  -2  235.08   13.90
  -6 -12   2  194.08   10.40
   6 -12  -2  178.98   10.30
  -6  12   2  181.28   11.80
   6  12  -2  191.78   11.20
  -4 -12   2   83.49    5.90
   4 -12  -2   79.99    7.80
  -4  12   2   95.79    9.30
   4  12  -2   73.69    7.80
   2 -12  -2 1539.85   31.20
  -2 -12   2 1479.75   27.30
   2  12  -2 1501.85   31.20
  -2  12   2 1519.05   32.90
   2  12  -2 1449.55   28.00
   0 -12  -2  342.37   12.60
   0  12   2  342.07   11.50
   0  12  -2  343.67   12.30
   0  12  -2  333.67   11.70
   0  12   2  356.56   12.50
  -2 -12  -2  459.35   15.70
  -2  12  -2  448.16   16.00
   2  12   2  468.95   15.30
   2  12   2  433.66   13.20
  -4 -12  -2  426.06   16.60
   4  12   2  381.36   15.60
  -4  12  -2  390.26   16.60
  -6 -12  -2  765.62   25.30
   6  12   2  737.93   24.70
  -6  12  -2  729.13   25.90
   9 -13  -2   41.40    8.60
  -9  13   2   17.90    6.30
   7 -13  -2  273.87   13.80
  -7 -13   2  252.57   12.90
   7  13  -2  239.38   13.60
  -7  13   2  254.97   14.70
  -5 -13   2  914.31   23.10
   5 -13  -2  893.61   24.30
  -5  13   2  877.61   26.50
   5  13  -2  948.41   26.00
   3 -13  -2   30.90    5.00
  -3 -13   2   21.70    3.70
  -3  13   2   25.90    5.10
   3  13  -2   20.40    4.40
   1 -13  -2   49.20    6.20
  -1  13   2   52.39    6.30
   1  13  -2   48.90    5.40
  -1  13   2   48.20    5.30
   1  13  -2   53.79    6.40
  -1 -13  -2 1086.29   26.10
   1  13   2 1108.49   24.90
  -1  13  -2 1147.59   27.30
  -1  13  -2 1057.89   23.30
   1  13   2 1126.59   25.30
  -3 -13  -2  747.13   22.40
   3  13   2  735.73   21.70
  -3  13  -2  773.42   23.10
  -5 -13  -2   72.39    9.40
   5  13   2   79.39    9.50
  -5  13  -2   72.79    9.80
  -7 -13  -2    0.00    3.30
   7  13   2    2.30    3.40
  -7  13  -2    0.60    3.60
  -8 -14   2  103.29   11.80
   8 -14  -2   94.49   10.70
   8  14  -2   92.79   11.20
  -8  14   2  106.39   12.40
  -6 -14   2   30.30    5.70
   6 -14  -2   26.10    5.40
   6  14  -2   29.60    6.40
  -6  14   2   33.40    6.60
   4 -14  -2  114.79   10.20
  -4 -14   2  109.69    7.20
  -4  14   2   83.19    9.10
   4  14  -2  108.79   10.20
   2 -14  -2 1914.31   39.20
   2  14  -2 1981.80   38.90
  -2  14   2 1952.90   40.70
   0 -14  -2  149.39    8.90
   0  14   2  139.89    8.50
   0  14  -2  141.99    8.10
   0  14   2  147.29    8.20
   0  14  -2  164.68    8.90
  -2 -14  -2   19.60    4.60
  -2  14  -2   18.80    4.50
   2  14   2   23.60    4.60
  -4 -14  -2  224.18   12.50
   4  14   2  213.58   12.00
  -4  14  -2  209.18   12.70
  -6 -14  -2  844.62   28.10
  -6  14  -2  850.41   29.50
  -7 -15   2  344.77   15.90
   7 -15  -2  363.56   16.30
  -7  15   2  334.67   18.00
   7  15  -2  331.07   17.00
   5 -15  -2  366.66   15.40
  -5 -15   2  369.66   14.40
  -5  15   2  322.97   16.40
   5  15  -2  381.56   16.60
   3 -15  -2   92.59    9.20
   3  15  -2   80.39    9.00
  -3  15   2   73.19    8.80
   1 -15  -2   43.40    6.30
   1  15  -2   38.30    5.10
  -1  15   2   46.20    6.50
   1  15  -2   38.80    6.00
  -1 -15  -2  561.34   18.30
   1  15   2  555.24   17.30
   1  15   2  526.35   17.60
  -1  15  -2  528.55   18.30
  -3 -15  -2  339.37   15.30
   3  15   2  363.36   15.60
  -3  15  -2  359.86   16.30
  -5 -15  -2   63.79    9.30
  -5  15  -2   49.00    8.30
   5  15   2   60.89    9.10
   6 -16  -2    7.50    3.90
  -6  16   2    8.30    4.30
   6  16  -2    3.40    3.60
   4 -16  -2   90.99    9.50
   4  16  -2   75.79    8.90
  -4  16   2  100.59   10.60
   2 -16  -2 1641.14   36.30
   2  16  -2 1638.54   35.60
  -2  16   2 1617.04   37.60
   0 -16  -2   40.00    6.10
   0  16   2   35.30    5.40
   0  16  -2   36.30    5.60
   0  16  -2   36.90    5.70
   0  16   2   35.20    5.90
  -2 -16  -2    0.80    2.40
  -2  16  -2    2.10    2.60
   2  16   2    0.00    1.80
  -4 -16  -2   97.89   10.90
  -4  16  -2   83.39   10.50
   4  16   2   96.39   10.50
   5 -17  -2  356.86   16.00
  -5  17   2  378.76   18.40
   5  17  -2  376.36   17.40
   3 -17  -2   30.80    5.90
  -3  17   2   41.40    7.20
   3  17  -2   36.10    6.50
   1 -17  -2   18.20    4.50
  -1  17   2   23.30    5.20
   1  17  -2   23.10    4.80
   1  17  -2   19.20    4.30
  -1 -17  -2  519.25   18.90
   1  17   2  503.45   17.60
  -1  17  -2  515.35   18.60
  -3 -17  -2  331.67   16.10
  -3  17  -2  368.26   17.20
   3  17   2  330.87   16.00
  -5 -17  -2   45.40    8.40
  -5  17  -2   44.60    8.00
   5  17   2   40.00    7.70
   6  18  -2  138.89   13.90
  -6  18   2  123.49   13.30
   4 -18  -2   70.19    9.30
   4  18  -2   78.39    9.70
  -4  18   2   72.89    9.90
   2 -18  -2  641.94   21.60
  -2  18   2  597.04   21.70
   2  18  -2  621.54   20.80
   0 -18  -2  119.79   11.00
   0  18   2  119.79    9.10
   0  18  -2  128.59    9.20
  -2 -18  -2  190.78   12.10
  -2  18  -2  208.98   12.70
   2  18   2  200.78   11.80
  -4 -18  -2  159.28   14.60
  -4  18  -2  181.68   13.50
   4  18   2  188.88   12.60
   5  19  -2  510.75   21.30
  -5  19   2  562.04   23.60
   3 -19  -2    1.70    3.10
   3  19  -2    3.00    3.40
  -3  19   2    0.00    2.80
   1 -19  -2   14.60    4.80
  -1  19   2   32.40    6.40
  -1 -19  -2  665.83   22.50
  -1  19  -2  656.73   22.80
  -3 -19  -2  417.86   18.80
   3  19   2  411.16   18.10
  -3  19  -2  382.66   19.00
   4  20  -2    0.00    3.10
  -4  20   2    1.60    3.30
   2 -20  -2  492.95   19.30
   2  20  -2  505.25   19.50
  -2  20   2  447.86   19.90
   0 -20  -2   25.60    5.80
   2  20   2  231.38   13.60
  -2  20  -2  251.27   15.10
  -3  21   2    3.50    3.50
   3  21  -2    1.50    4.00
   1 -21  -2   18.80    5.40
  -1  21   2   14.90    5.00
  -1 -21  -2  552.14   21.70
  -1  21  -2  538.25   22.00
  -2  22   2  313.87   18.30
  10   0  -3   15.40    5.30
   8   0  -3  398.46   15.60
   6   0  -3 3042.30   45.40
  -6   0   3 3047.20   47.60
   6   0  -3 2896.71   50.39
  -4   0   3  367.96    9.70
   4   0  -3  354.76   10.30
   4   0  -3  344.47    9.00
   2   0  -3  109.89    4.30
  -2   0   3  105.79    4.50
   2   0  -3  109.49    4.40
   0   0   3 2320.97   37.00
   0   0  -3 2287.97   35.20
   0   0  -3 2373.46   34.20
  -2   0  -3 2463.35   38.40
  -2   0  -3 2452.75   39.00
  -2   0  -3 2428.26   40.20
  -4   0  -3  374.46   12.20
  -4   0  -3  385.86   12.20
  -4   0  -3  385.96   12.20
  -6   0  -3   74.59    7.80
   6   0   3   50.99    6.10
   8   0   3  528.35   20.30
   9  -1  -3  207.28   12.40
   9   1  -3  226.58   12.60
   7  -1  -3  239.48   11.30
   7   1  -3  244.68   11.10
   7   1  -3  256.37    9.30
   5  -1  -3  205.08    6.50
   5  -1  -3  199.08    8.50
  -5  -1   3  200.18    6.90
  -5   1   3  211.08    7.80
   5   1  -3  200.98    7.30
   5   1  -3  220.38    8.60
   3  -1  -3 4868.51   66.39
   3  -1  -3 4806.72   69.49
  -3  -1   3 4813.32   69.69
   3   1  -3 4891.41   67.79
  -3   1   3 4826.92   70.89
   3   1  -3 4904.11   68.79
   1  -1  -3  808.02   14.70
  -1  -1   3  784.52   15.60
   1  -1  -3  785.92   14.80
   1   1  -3  798.92   13.30
   1   1  -3  762.22   14.90
  -1   1   3  790.92   15.80
  -1  -1  -3  326.67    9.20
  -1  -1  -3  335.47    8.70
  -1   1  -3  326.37    9.10
  -1   1  -3  339.07    9.90
  -1   1  -3  326.87    7.70
   1   1   3  332.07    9.50
  -3  -1  -3 1478.25   27.70
  -3  -1  -3 1487.15   27.90
  -3  -1  -3 1461.35   27.30
  -3   1  -3 1486.65   28.50
  -3   1  -3 1489.15   26.60
  -3   1  -3 1522.65   27.30
  -5  -1  -3 1778.42   33.30
  -5  -1  -3 1749.53   34.50
  -5  -1  -3 1683.03   33.30
  -5   1  -3 1711.43   32.50
  -5   1  -3 1701.43   33.50
  -5   1  -3 1746.23   33.90
   7  -1   3  102.69   10.00
  -7  -1  -3   92.39    9.40
  10  -2  -3   26.70    6.00
  10   2  -3   46.60    7.70
   8  -2  -3  660.43   21.20
   8   2  -3  662.63   20.80
   6  -2  -3 1772.82   34.80
   6   2  -3 1798.52   31.80
   6   2  -3 1801.12   34.60
  -6   2   3 1773.32   33.40
   4  -2  -3   17.70    2.20
   4  -2  -3   16.70    2.90
  -4  -2   3   20.30    2.40
  -4   2   3   17.90    2.90
   4   2  -3   21.20    2.80
   4   2  -3   21.60    3.00
   2  -2  -3    3.40    1.40
  -2  -2   3    3.90    1.20
   2  -2  -3    3.70    1.20
   2   2  -3    4.10    1.20
  -2   2   3    2.70    1.30
   2   2  -3    4.30    1.40
   0  -2  -3 2796.42   42.40
   0  -2  -3 2835.62   42.00
   0   2   3 2804.32   44.10
   0   2  -3 2836.22   42.20
   0   2  -3 2824.92   44.20
   0   2  -3 2929.01   38.80
  -2  -2  -3 2076.19   34.30
  -2  -2  -3 2075.09   34.50
   2   2   3 2033.50   34.60
  -2   2  -3 2045.40   33.20
  -2   2  -3 2078.79   36.10
  -2   2  -3 2032.00   31.80
  -4  -2  -3   57.69    5.90
  -4  -2  -3   74.19    7.00
  -4   2  -3   64.79    4.60
  -4   2  -3   78.19    5.10
  -4   2  -3   75.99    5.60
   4   2   3   64.59    4.50
  -6  -2  -3   15.20    4.10
   6  -2   3   19.00    4.30
   6   2   3   13.30    3.70
  -6   2  -3   17.30    4.10
  -8  -2  -3  702.53   24.00
   8  -2   3  747.93   25.70
   9  -3  -3  123.29   11.40
   9   3  -3  115.09   11.10
   7  -3  -3   43.30    6.30
  -7   3   3   44.40    5.50
   7   3  -3   47.10    6.30
   7   3  -3   40.50    5.20
   5  -3  -3  212.18    5.80
   5  -3  -3  205.18    8.90
  -5   3   3  207.28    8.50
   5   3  -3  214.28    8.20
   5   3  -3  226.58    8.60
   3  -3  -3 3951.50   53.89
  -3  -3   3 3889.01   56.69
   3  -3  -3 3963.00   58.89
   3   3  -3 3909.51   57.49
  -3   3   3 3936.31   60.49
   3   3  -3 3954.20   56.39
   1  -3  -3  362.26    9.60
   1  -3  -3  360.76    8.80
  -1   3   3  369.16   10.00
   1   3  -3  364.66    6.20
   1   3  -3  352.66    9.40
   1   3  -3  365.26    9.40
  -1  -3  -3   26.20    3.40
  -1  -3  -3   37.80    4.10
  -1   3  -3   32.80    4.00
   1   3   3   33.30    3.80
  -1   3  -3   39.10    3.90
  -1   3  -3   31.30    1.90
  -3  -3  -3  304.97   10.80
  -3  -3  -3  332.57   11.10
  -3   3  -3  299.77    9.70
  -3   3  -3  332.57   11.40
  -3   3  -3  327.87    9.10
   3   3   3  319.67    9.90
  -5  -3  -3 2092.39   40.30
   5  -3   3 2065.99   38.20
   5   3   3 2045.00   39.10
  -5   3  -3 2062.19   36.70
  -5   3  -3 2099.99   40.20
   7  -3   3   16.80    4.60
  -7  -3  -3   17.40    4.70
   7   3   3   25.80    5.20
  10  -4  -3   73.59    9.70
  10   4  -3   85.39   10.70
   8  -4  -3  708.13   22.30
   8   4  -3  705.43   19.60
   8   4  -3  749.73   22.20
   6  -4  -3  763.72   20.10
   6   4  -3  746.83   19.80
   6   4  -3  773.82   19.00
  -6   4   3  752.72   19.80
  -4  -4   3   57.49    3.00
   4  -4  -3   62.19    4.60
   4  -4  -3   63.59    2.70
   4   4  -3   64.09    4.50
  -4   4   3   65.69    4.80
   4   4  -3   61.99    4.10
   2  -4  -3  105.29    5.20
   2  -4  -3  104.09    4.00
  -2   4   3   99.89    5.40
   2   4  -3  100.99    4.40
   2   4  -3   99.19    5.00
   2   4  -3  104.39    3.40
   0  -4  -3 3407.46   49.60
   0  -4  -3 3304.27   51.59
   0   4   3 3423.06   52.29
   0   4  -3 3412.46   49.80
   0   4  -3 3347.96   52.29
  -2  -4  -3 1593.84   30.30
  -2  -4  -3 1693.13   30.50
   2  -4   3 1701.53   26.20
  -2   4  -3 1619.04   31.10
   2   4   3 1657.93   29.20
  -2   4  -3 1675.23   28.10
  -4  -4  -3   17.10    3.50
  -4  -4  -3   17.60    3.60
   4  -4   3   21.70    3.40
   4   4   3   20.00    3.80
   4   4   3   15.40    2.90
  -4   4  -3   13.30    3.20
  -4   4  -3   18.90    3.20
   6  -4   3    1.80    2.10
  -6  -4  -3    1.60    2.20
  -6   4  -3    3.40    2.40
   6   4   3    0.00    1.90
  -8  -4  -3 1160.28   32.80
   9  -5  -3  308.67   15.50
   9   5  -3  328.37   15.60
   7  -5  -3  135.49    8.60
   7   5  -3  132.19    8.40
   7   5  -3  150.58    8.50
  -7   5   3  128.69    8.30
   5  -5  -3  479.45   14.80
  -5  -5   3  512.05   13.80
   5   5  -3  508.55   14.50
  -5   5   3  495.15   15.20
   5   5  -3  507.05   14.00
  -3  -5   3 2409.66   35.70
   3  -5  -3 2371.66   39.10
   3  -5  -3 2336.97   33.30
  -3  -5   3 2303.17   35.40
  -3   5   3 2299.27   39.90
   3   5  -3 2257.27   38.40
   1  -5  -3  806.42   15.60
   1  -5  -3  808.62   17.50
  -1   5   3  837.72   17.70
   1   5  -3  793.02   16.90
   1   5  -3  821.82   16.70
  -1  -5  -3  286.17    9.40
  -1  -5  -3  266.77    9.30
   1  -5   3  276.57    5.30
   1   5   3  271.77    8.90
  -1   5  -3  266.27    9.30
  -1   5  -3  255.87    8.10
   3  -5   3  404.36   10.00
  -3  -5  -3  381.76   12.70
  -3  -5  -3  373.26   12.50
  -3   5  -3  390.56   13.10
  -3   5  -3  414.36   11.00
   3   5   3  391.46   11.20
   5  -5   3 1340.67   27.40
  -5  -5  -3 1361.26   31.20
  -5   5  -3 1353.46   31.20
   5   5   3 1384.06   30.60
  -7  -5  -3   24.20    5.80
   7   5   3   28.70    6.00
  10  -6  -3  101.59   11.70
  10   6  -3   86.79   10.50
   8  -6  -3  578.84   20.00
   8   6  -3  596.94   20.40
   8   6  -3  562.44   18.50
   6  -6  -3  943.01   23.90
  -6  -6   3  960.90   22.60
  -6   6   3  943.11   24.10
   6   6  -3  952.90   23.30
  -4  -6   3    2.80    1.50
  -4  -6   3    4.30    1.10
   4  -6  -3    4.90    2.10
  -4   6   3    2.20    1.70
   4   6  -3    3.60    1.90
   2  -6  -3  107.29    4.20
  -2  -6   3  109.49    3.60
   2  -6  -3  102.19    5.60
   2   6  -3  109.09    4.80
  -2   6   3  109.19    6.00
   2   6  -3   97.69    5.60
   0  -6  -3 3639.44   53.59
   0  -6  -3 3536.75   55.99
   0   6   3 3596.24   55.69
   0   6  -3 3567.04   52.99
   0   6  -3 3529.35   55.99
  -2  -6  -3 1215.38   25.90
  -2  -6  -3 1288.87   25.50
   2  -6   3 1270.47   20.30
  -2   6  -3 1261.37   22.90
  -2   6  -3 1210.08   26.20
   2   6   3 1236.68   24.00
  -4  -6  -3    2.90    2.10
  -4   6  -3    1.90    1.90
   4   6   3    3.20    2.10
  -4   6  -3    1.90    1.40
  -6  -6  -3    6.90    3.10
   6   6   3   10.60    3.80
  -6   6  -3    8.60    3.50
  -8  -6  -3 1002.10   31.40
   8   6   3 1007.50   29.50
   9  -7  -3  236.48   13.80
   9   7  -3  238.58   13.60
   9   7  -3  249.68   12.80
  -7  -7   3  118.79    7.90
   7  -7  -3  106.59    9.90
  -7   7   3  121.69    8.60
   7   7  -3  123.59    8.20
   7   7  -3  114.49    8.10
   5  -7  -3   99.09    6.70
  -5  -7   3  116.49    6.30
   5   7  -3  109.69    7.20
  -5   7   3  106.79    7.10
   3  -7  -3 3739.73   51.59
  -3  -7   3 3776.82   54.49
   3  -7  -3 3692.43   58.89
   3   7  -3 3706.63   58.39
  -3   7   3 3787.62   61.29
   3   7  -3 3695.53   54.89
   1  -7  -3  150.48    7.30
   1  -7  -3  154.58    6.00
  -1  -7   3  150.08    3.20
  -1   7   3  144.99    7.10
   1   7  -3  145.89    6.80
   1   7  -3  170.78    6.70
  -1  -7  -3  149.29    7.50
  -1  -7  -3  142.99    6.80
   1   7   3  155.78    6.90
  -1   7  -3  146.09    7.50
  -1   7  -3  155.48    6.40
  -3  -7  -3  479.45   15.60
  -3   7  -3  482.85   12.40
  -3   7  -3  467.45   15.70
   3   7   3  471.65   12.80
   3   7   3  502.95   15.10
  -5  -7  -3 1498.25   34.30
  -5   7  -3 1410.66   33.50
   5   7   3 1490.55   33.50
  -7  -7  -3    0.00    2.70
  -7   7  -3    6.50    3.20
   7   7   3    0.50    2.80
  10  -8  -3   64.99    9.60
  10   8  -3   62.79    9.50
   8  -8  -3  481.55   18.60
  -8   8   3  494.85   18.90
   8   8  -3  486.15   17.90
   8   8  -3  439.06   17.10
  -6  -8   3 1379.56   29.40
   6  -8  -3 1376.16   31.00
  -6   8   3 1378.66   32.60
   6   8  -3 1395.06   31.10
   4  -8  -3   31.40    4.50
  -4  -8   3   28.10    3.70
  -4   8   3   31.70    5.10
   4   8  -3   38.70    5.20
   2  -8  -3   50.79    5.60
   2  -8  -3   42.10    2.90
  -2  -8   3   39.50    2.50
  -2   8   3   46.60    5.40
   2   8  -3   37.10    3.80
   2   8  -3   43.20    4.90
   0  -8  -3 2387.06   39.30
   0  -8  -3 2363.66   42.10
   0   8  -3 2429.16   42.20
   0   8   3 2530.05   42.20
   0   8  -3 2392.76   39.70
  -2  -8  -3 1195.98   26.50
  -2   8  -3 1180.98   27.20
   2   8   3 1190.18   25.10
  -2   8  -3 1177.08   22.50
   2   8   3 1198.88   24.00
  -4  -8  -3  111.69   10.10
  -4   8  -3   78.39    8.30
   4   8   3   88.09    8.40
  -6  -8  -3   12.00    4.20
  -6   8  -3   25.90    5.20
   6   8   3   30.90    6.10
   8   8   3  575.54   22.70
   9  -9  -3  125.09   12.30
   9   9  -3  153.68   10.90
   9   9  -3  144.69   10.90
   7  -9  -3  172.98   10.40
  -7  -9   3  167.58    9.60
   7   9  -3  191.98   10.90
  -7   9   3  174.08   11.00
   5  -9  -3   94.29    6.90
  -5  -9   3   96.49    6.10
  -5   9   3  101.49    9.60
   5   9  -3  101.09    7.40
  -3  -9   3 2484.55   38.60
   3  -9  -3 2463.05   43.90
  -3   9   3 2431.56   45.30
   3   9  -3 2431.36   43.60
   3   9  -3 2467.65   38.90
   1  -9  -3  272.77   10.80
  -1   9   3  288.97    8.90
   1   9  -3  280.27   10.40
   1   9  -3  289.97    9.90
  -1   9   3  274.47   10.60
  -1  -9  -3  177.38    8.70
  -1   9  -3  168.78    8.70
   1   9   3  175.78    8.10
   1   9   3  163.08    7.60
  -1   9  -3  169.48    7.30
  -3  -9  -3  699.53   20.70
   3   9   3  740.53   18.30
  -3   9  -3  708.93   21.30
   3   9   3  699.83   19.40
  -5  -9  -3 1222.58   32.00
  -5   9  -3 1237.18   31.90
   5   9   3 1204.78   30.80
  -7  -9  -3   27.40    6.20
   7   9   3   34.90    6.80
  -7   9  -3   60.69    9.00
  -8 -10   3  297.77   14.30
   8 -10  -3  291.07   14.70
   8  10  -3  284.47   14.40
  -8  10   3  301.67   15.50
  -6 -10   3 1385.36   30.20
   6 -10  -3 1371.36   31.90
  -6  10   3 1353.06   33.70
   6  10  -3 1376.46   32.30
   4 -10  -3   92.59    6.90
  -4 -10   3  107.39    5.80
  -4  10   3  101.69    7.30
   4  10  -3   99.29    7.20
   2 -10  -3   29.80    4.90
  -2  10   3   33.20    3.60
   2  10  -3   24.20    3.30
   2  10  -3   30.20    4.90
  -2  10   3   30.20    4.80
   0 -10  -3  893.01   22.10
   0  10  -3  858.41   21.30
   0  10  -3  879.21   20.40
   0  10   3  894.61   21.10
   0  10   3  895.21   19.70
  -2 -10  -3 1252.27   29.00
   2  10   3 1286.17   27.60
  -2  10  -3 1321.57   30.10
  -2  10  -3 1239.28   24.30
   2  10   3 1288.47   26.10
  -4 -10  -3  168.78   10.30
   4  10   3  177.18   10.20
  -4  10  -3  153.08   10.10
  -6 -10  -3    4.80    3.20
   6  10   3    6.50    4.30
  -6  10  -3    8.10    4.00
   9 -11  -3   50.09    8.20
   9  11  -3   77.29   10.10
   9  11  -3   64.39    9.30
   7 -11  -3  101.69   10.10
  -7 -11   3  105.19    9.80
   7  11  -3  110.59   11.00
  -7  11   3  104.19   10.80
  -5 -11   3  154.98    7.90
   5 -11  -3  146.69    9.10
   5  11  -3  141.59    9.30
  -5  11   3  146.29    9.70
   3 -11  -3 1357.76   29.30
  -3  11   3 1292.47   30.40
   3  11  -3 1312.57   29.40
   1 -11  -3  404.96   14.40
  -1  11   3  411.16   14.10
  -1  11   3  414.26   11.90
   1  11  -3  386.86   13.20
   1  11  -3  422.96   13.20
  -1 -11  -3  146.59    8.40
  -1  11  -3  131.69    8.20
  -1  11  -3  114.09    6.60
   1  11   3  133.69    7.30
   1  11   3  138.19    7.60
  -3 -11  -3  461.05   16.90
  -3  11  -3  456.75   17.40
   3  11   3  437.36   16.00
  -5 -11  -3  944.01   28.40
   5  11   3  967.80   27.20
  -5  11  -3  976.80   29.20
  -7 -11  -3  111.59   12.50
  -7  11  -3  115.09   12.60
   7  11   3  118.49   12.90
  -8 -12   3  346.97   15.60
   8 -12  -3  336.67   16.30
  -8  12   3  366.96   17.90
   8  12  -3  334.97   16.60
   6 -12  -3  650.83   21.30
  -6 -12   3  672.13   19.80
  -6  12   3  645.34   22.60
   6  12  -3  665.33   21.90
   4 -12  -3    7.50    3.10
  -4  12   3    9.20    3.50
   4  12  -3    2.80    2.40
   2 -12  -3    1.00    1.90
   2  12  -3    1.60    1.50
  -2  12   3    0.00    1.80
   2  12  -3    0.80    1.80
   0 -12  -3  827.12   22.10
   0  12  -3  807.02   20.50
   0  12  -3  814.32   21.40
   0  12   3  812.72   21.20
   0  12   3  813.02   20.00
  -2 -12  -3  986.90   25.90
  -2  12  -3  951.20   26.10
   2  12   3  950.30   24.20
   2  12   3  960.20   22.30
  -4 -12  -3   39.60    6.90
  -4  12  -3   49.40    7.80
   4  12   3   40.60    6.50
  -6 -12  -3    0.20    3.10
   6  12   3    3.50    3.60
  -6  12  -3    5.70    4.00
  -9 -13   3   58.69    9.00
  -9  13   3   65.29   10.40
   9  13  -3   38.90    8.00
   7 -13  -3   36.90    6.60
  -7 -13   3   36.00    5.90
  -7  13   3   32.30    6.70
   7  13  -3   36.20    7.00
   5 -13  -3   51.69    7.20
  -5  13   3   41.10    6.80
   5  13  -3   49.30    7.00
   3 -13  -3 1431.86   32.50
   3  13  -3 1518.25   33.00
  -3  13   3 1429.36   33.80
   1 -13  -3  101.29    7.40
  -1  13   3   95.49    6.10
   1  13  -3   92.29    6.80
   1  13  -3  100.39    6.80
  -1  13   3  124.19    8.00
  -1 -13  -3   49.60    6.50
   1  13   3   42.20    5.50
   1  13   3   48.80    6.10
  -1  13  -3   46.80    5.50
  -1  13  -3   41.00    5.90
  -3 -13  -3  104.09   10.30
   3  13   3  110.59   10.10
  -3  13  -3   87.39    9.30
  -5 -13  -3 1011.20   31.10
   5  13   3 1048.60   30.30
  -5  13  -3 1019.80   31.90
   8 -14  -3  294.87   15.80
  -8  14   3  282.37   16.80
   8  14  -3  292.27   16.00
   6 -14  -3  423.06   17.20
  -6  14   3  440.76   19.20
   6  14  -3  406.96   17.60
   4 -14  -3    4.50    3.10
  -4  14   3    0.10    2.20
   4  14  -3    0.00    2.40
   2 -14  -3   57.79    7.50
  -2  14   3   66.89    7.90
   2  14  -3   75.19    5.80
   2  14  -3   77.89    8.30
   0 -14  -3 1279.57   30.80
   0  14  -3 1249.68   30.00
   0  14   3 1265.77   29.70
   0  14  -3 1313.87   28.90
   0  14   3 1300.07   27.90
  -2 -14  -3  520.45   18.80
   2  14   3  510.55   17.60
  -2  14  -3  524.65   19.50
  -4 -14  -3    8.90    4.10
  -4  14  -3    2.60    3.00
   4  14   3    4.80    3.30
  -6 -14  -3    0.40    3.10
   6  14   3    2.20    3.70
  -6  14  -3    0.00    2.90
   7 -15  -3  158.78   11.30
  -7  15   3  142.99   14.20
   7  15  -3  163.78   11.80
   5 -15  -3  102.09   10.10
  -5  15   3   91.49   10.30
   5  15  -3   88.99    9.90
   3 -15  -3 1093.39   29.40
  -3  15   3 1078.89   29.70
   3  15  -3 1102.69   28.70
   1 -15  -3  111.49    8.30
   1  15  -3  110.09    7.90
  -1  15   3  105.39    8.00
   1  15  -3  110.29    7.60
  -1 -15  -3  232.88   12.20
  -1  15  -3  225.58   12.20
   1  15   3  230.18   11.20
   1  15   3  222.28   11.10
  -3 -15  -3  237.28   13.40
  -3  15  -3  273.07   14.90
   3  15   3  253.47   13.20
  -5 -15  -3  535.05   22.60
   5  15   3  540.05   21.70
  -5  15  -3  494.15   22.40
   6 -16  -3  491.85   19.50
  -6  16   3  446.46   20.50
   6  16  -3  496.35   20.20
   4 -16  -3   13.10    4.30
   4  16  -3   23.90    5.60
  -4  16   3   15.30    4.50
   2 -16  -3   68.99    8.80
  -2  16   3   74.69    8.90
   2  16  -3   68.69    8.50
   0 -16  -3 1105.39   29.10
   0  16  -3 1130.39   27.50
   0  16   3 1109.19   26.60
   0  16   3 1079.29   27.90
   0  16  -3 1122.79   28.90
  -2 -16  -3  372.56   16.70
  -2  16  -3  384.06   17.30
   2  16   3  357.46   15.40
  -4 -16  -3    9.10    4.60
   4  16   3    8.30    4.30
  -4  16  -3    5.10    3.90
   7 -17  -3   79.29    9.90
   5 -17  -3   28.40    6.50
   5  17  -3   27.40    6.40
  -5  17   3   21.20    5.90
   3 -17  -3  975.20   28.40
   3  17  -3 1028.00   28.60
  -3  17   3  968.50   29.60
   1 -17  -3   30.20    6.20
   1  17  -3   48.50    7.10
   1  17  -3   31.80    5.50
  -1  17   3   31.80    5.90
  -1 -17  -3  110.69   11.30
  -1  17  -3  126.59   11.80
   1  17   3  110.49   10.50
  -3 -17  -3  102.79   11.00
  -3  17  -3   92.39   10.80
   3  17   3  110.69   11.10
   6 -18  -3  338.87   16.80
   6  18  -3  344.27   17.80
  -6  18   3  337.47   18.70
   4 -18  -3   13.80    4.70
   4  18  -3   15.00    4.90
  -4  18   3    9.30    4.50
   2 -18  -3   24.20    6.00
   2  18  -3   26.70    6.10
  -2  18   3   23.50    5.90
   0 -18  -3  541.45   19.90
   0  18   3  505.75   18.80
   0  18  -3  474.25   18.70
  -2 -18  -3  351.56   17.20
   2  18   3  361.66   16.30
  -2  18  -3  373.96   17.90
  -4 -18  -3   47.10    9.30
   4  18   3   28.40    6.80
   5 -19  -3   18.60    5.20
  -5  19   3   10.20    4.90
   5  19  -3   16.70    5.50
   3 -19  -3  496.45   20.10
   3  19  -3  476.95   19.20
  -3  19   3  515.75   21.30
   1 -19  -3   61.09    8.60
  -1  19   3   67.09    8.90
  -1 -19  -3   55.49    8.40
  -1  19  -3   49.99    7.70
  -3 -19  -3   78.09   10.40
   3  19   3   92.19   11.50
  -3  19  -3   59.69    9.30
   4 -20  -3   23.90    6.40
  -4  20   3   31.40    7.40
   4  20  -3   22.00    6.10
   2 -20  -3    1.20    3.40
   2  20  -3    0.00    3.00
  -2  20   3    0.00    3.30
   0 -20  -3  167.08   11.90
  -2 -20  -3  356.76   18.00
  -2  20  -3  378.66   19.20
   2  20   3  382.66   17.40
   3  21  -3  364.16   17.60
  -3  21   3  321.57   20.00
   1 -21  -3   67.49    9.40
  -1 -21  -3  117.69   14.00
  -1  21  -3   97.29   11.60
  10   0  -4   96.79   11.30
   8   0  -4   16.50    4.40
  -6   0   4   55.09    5.20
   6   0  -4   48.60    5.80
   6   0  -4   39.90    4.30
  -4   0   4 5947.71   87.39
   4   0  -4 6182.68   83.49
   4   0  -4 5851.71   85.89
   2   0  -4  469.65   11.50
   2   0  -4  474.15   10.80
  -2   0   4  464.15   12.20
   0   0  -4  119.69    4.60
   0   0  -4  124.79    5.80
   0   0   4  117.09    6.00
  -2   0  -4  379.36   10.60
  -2   0  -4  364.06   11.70
  -2   0  -4  377.26   12.10
  -4   0  -4 3714.33   61.29
  -4   0  -4 3685.23   59.99
  -4   0  -4 3573.94   58.69
   6   0   4    4.80    2.90
  -6   0  -4   11.30    3.80
   9  -1  -4  335.87   15.70
   9   1  -4  334.47   15.50
   7  -1  -4  802.52   22.00
   7   1  -4  812.22   21.70
   7   1  -4  776.82   18.40
  -5  -1   4   31.50    3.80
   5  -1  -4   28.80    4.10
   5  -1  -4   32.20    3.50
   5   1  -4   29.10    4.10
   5   1  -4   24.90    3.40
  -5   1   4   33.20    4.20
   3  -1  -4  258.07    7.80
   3  -1  -4  266.97    8.50
  -3  -1   4  251.37    8.20
  -3   1   4  249.08    8.80
   3   1  -4  263.87    8.40
   3   1  -4  252.97    7.80
  -1  -1   4 1547.35   27.80
   1  -1  -4 1533.95   26.50
   1  -1  -4 1515.15   26.20
   1   1  -4 1547.15   27.00
   1   1  -4 1575.34   24.40
  -1   1   4 1508.65   27.90
  -1  -1  -4 1765.62   28.90
  -1  -1  -4 1682.83   30.20
  -1   1  -4 1679.73   30.00
  -1   1  -4 1686.33   31.80
  -1   1  -4 1714.83   27.20
   1   1   4 1710.73   31.20
  -3  -1  -4  146.79    7.60
  -3  -1  -4  163.68    7.60
   3   1   4  175.38    8.00
  -3   1  -4  180.98    8.60
  -3   1  -4  176.48    7.30
  -3   1  -4  172.28    8.00
  -5  -1  -4    0.70    1.80
  -5  -1  -4    6.40    2.90
  -5   1  -4    4.10    2.50
   5   1   4    2.70    2.30
  -5   1  -4    1.60    2.20
  -5   1  -4    4.30    2.40
  -7  -1  -4  821.52   24.50
  10  -2  -4  183.58   12.70
  10   2  -4  198.08   12.80
   8  -2  -4  121.59    8.90
   8   2  -4  118.59    8.30
   6  -2  -4  235.68   10.20
   6   2  -4  241.68    9.80
   6   2  -4  249.88    9.20
  -6   2   4  220.08    9.30
  -4  -2   4 3218.98   49.60
   4  -2  -4 3192.68   47.00
   4  -2  -4 3207.08   51.19
   4   2  -4 3326.97   49.90
  -4   2   4 3180.88   52.09
   4   2  -4 3196.18   49.40
  -2  -2   4  720.93   15.80
   2  -2  -4  712.83   15.40
   2  -2  -4  697.53   14.70
   2   2  -4  706.03   13.20
   2   2  -4  703.33   15.50
  -2   2   4  697.93   16.30
   0  -2  -4  128.59    5.80
   0  -2  -4  118.99    5.50
   0   2  -4  125.59    6.00
   0   2  -4  131.39    4.00
   0   2  -4  118.49    6.20
   0   2   4  122.99    6.10
  -2  -2  -4  885.71   20.30
  -2  -2  -4  899.01   19.50
  -2   2  -4  909.41   17.20
   2   2   4  911.41   20.60
  -2   2  -4  899.21   21.00
  -2   2  -4  882.01   19.40
  -4  -2  -4 1840.62   36.30
  -4  -2  -4 1909.01   36.20
   4   2   4 1804.12   35.40
  -4   2  -4 1920.51   35.20
  -4   2  -4 1896.31   37.50
  -4   2  -4 1868.91   33.90
  -6  -2  -4  102.09   10.00
   6   2   4   76.39    8.60
  -6   2  -4   80.39    8.50
  -8  -2  -4   26.80    6.20
   9  -3  -4  463.85   18.60
   9   3  -4  468.05   18.20
   7  -3  -4 1312.67   31.00
  -7   3   4 1341.97   29.80
   7   3  -4 1371.86   30.30
   7   3  -4 1423.96   28.40
   5  -3  -4   32.00    4.40
   5  -3  -4   38.60    2.80
  -5  -3   4   41.60    3.90
  -5   3   4   46.40    5.30
   5   3  -4   50.29    5.00
   5   3  -4   46.80    5.00
   3  -3  -4   14.90    2.70
   3  -3  -4   17.90    2.50
  -3  -3   4   21.30    2.80
   3   3  -4   15.50    2.70
  -3   3   4   10.60    2.40
   3   3  -4   15.80    2.30
   1  -3  -4 2988.50   45.40
   1  -3  -4 3008.80   47.30
   1   3  -4 2994.10   40.70
   1   3  -4 2977.60   48.10
  -1   3   4 2986.90   48.30
   1   3  -4 3002.80   46.00
  -1  -3  -4 1535.95   28.20
  -1  -3  -4 1535.25   28.80
  -1   3  -4 1582.14   23.70
   1   3   4 1568.44   29.40
  -1   3  -4 1548.74   27.90
  -1   3  -4 1529.15   29.80
  -3  -3  -4    8.00    2.70
  -3  -3  -4    9.00    2.80
   3   3   4    6.00    2.20
  -3   3  -4   12.00    3.00
  -3   3  -4   14.80    2.70
  -3   3  -4   10.10    2.70
  -5  -3  -4   50.89    6.70
  -5  -3  -4   37.20    5.60
   5   3   4   44.80    6.50
  -5   3  -4   37.70    5.40
  -5   3  -4   39.50    5.90
  -7  -3  -4  825.82   25.60
   7   3   4  759.22   23.90
  10  -4  -4  157.78   11.50
  10   4  -4  128.79   12.70
   8  -4  -4  403.46   16.30
   8   4  -4  397.36   14.30
   8   4  -4  404.46   15.70
   6  -4  -4  196.78   10.00
  -6   4   4  205.48    9.80
   6   4  -4  220.68    9.30
   6   4  -4  211.28    9.20
  -4  -4   4 1727.93   28.90
   4  -4  -4 1717.03   27.20
   4  -4  -4 1724.63   32.30
  -4   4   4 1737.33   33.20
   4   4  -4 1693.23   29.10
   4   4  -4 1751.52   31.60
   2  -4  -4  136.29    5.50
  -2  -4   4  149.49    6.20
  -2   4   4  135.49    6.80
   2   4  -4  131.59    6.30
   2   4  -4  137.39    4.10
   2   4  -4  136.49    6.00
   0  -4  -4  547.95   14.00
   0  -4  -4  541.45   13.70
   0   4   4  530.95   14.30
   0   4  -4  551.24   14.50
   0   4  -4  556.74   13.80
  -2  -4  -4  779.42   18.80
  -2  -4  -4  741.93   18.50
   2   4   4  778.32   18.40
  -2   4  -4  764.62   17.80
  -2   4  -4  774.62   19.90
  -4  -4  -4 1039.60   25.40
  -4  -4  -4 1058.19   25.50
  -4   4  -4 1007.10   25.50
  -4   4  -4 1038.80   23.00
   4   4   4 1044.00   23.50
  -6  -4  -4   58.49    7.80
   6   4   4   65.09    7.90
  -6   4  -4   72.49    8.50
  -8  -4  -4   28.50    6.40
   9  -5  -4  613.64   22.30
   9   5  -4  640.14   21.80
   7  -5  -4 1333.67   31.70
   7   5  -4 1311.07   29.60
  -7   5   4 1302.37   30.70
   7   5  -4 1335.27   29.60
   5  -5  -4    5.50    2.30
  -5   5   4    5.20    2.30
   5   5  -4    5.40    2.00
   5   5  -4    6.60    2.60
   3  -5  -4   20.50    2.60
  -3  -5   4   19.00    2.70
   3  -5  -4   18.60    3.40
   3   5  -4   15.10    2.90
  -3   5   4   23.70    3.90
   3   5  -4   19.00    2.40
   1  -5  -4 3747.53   57.59
   1  -5  -4 3489.65   53.79
  -1   5   4 3731.53   57.89
   1   5  -4 3592.74   55.29
   1   5  -4 3586.34   56.79
  -1  -5  -4 1587.34   30.40
  -1  -5  -4 1623.04   29.90
  -1   5  -4 1601.44   31.60
  -1   5  -4 1645.44   29.30
   1   5   4 1561.94   30.10
  -3  -5  -4   15.10    3.50
  -3  -5  -4   17.00    3.60
  -3   5  -4   18.10    3.70
   3   5   4   12.30    3.00
  -3   5  -4   19.60    3.50
  -5  -5  -4   24.20    4.80
   5   5   4   21.30    4.60
  -5   5  -4   29.30    5.40
  -7  -5  -4  950.20   29.10
   7   5   4  989.30   28.50
  10  -6  -4  100.29   11.40
  10   6  -4  120.29   12.10
   8  -6  -4  266.57   13.60
  -8   6   4  259.37   14.20
   8   6  -4  251.77   12.30
   8   6  -4  231.38   12.10
   6  -6  -4   93.69    8.90
   6   6  -4   92.89    6.20
  -6   6   4  102.89    7.40
   6   6  -4   94.59    6.80
   4  -6  -4 1329.67   21.70
  -4  -6   4 1316.77   23.50
   4  -6  -4 1316.17   27.70
   4   6  -4 1331.67   24.10
  -4   6   4 1306.47   28.60
   4   6  -4 1389.76   27.90
   2  -6  -4  301.57    8.80
   2  -6  -4  291.37   10.60
  -2   6   4  283.47   10.60
   2   6  -4  282.47   10.20
   2   6  -4  293.47    9.50
   0  -6  -4  545.85   15.40
   0  -6  -4  554.04   14.20
   0   6  -4  545.65   14.20
   0   6   4  554.04   15.10
   0   6  -4  561.44   15.30
  -2  -6  -4  480.35   14.70
  -2  -6  -4  437.36   14.50
  -2   6  -4  474.75   13.10
  -2   6  -4  485.85   15.40
   2   6   4  474.35   13.90
  -4  -6  -4 1199.68   29.50
   4   6   4 1223.28   29.10
  -4   6  -4 1225.68   25.70
  -4   6  -4 1227.18   29.80
  -6  -6  -4   29.70    6.30
  -6   6  -4   24.60    5.50
   6   6   4   27.70    5.90
   9  -7  -4  305.87   15.70
   9   7  -4  301.87   14.80
   9   7  -4  280.57   14.10
   7  -7  -4 1050.69   27.70
   7   7  -4 1026.60   25.40
  -7   7   4  980.90   26.90
   7   7  -4 1020.10   26.00
   5  -7  -4    0.00    1.40
   5   7  -4    2.00    1.90
   5   7  -4    0.00    1.40
  -5   7   4    2.30    1.90
   3  -7  -4    6.00    1.60
   3  -7  -4    4.80    2.10
  -3   7   4    2.30    2.00
   3   7  -4    6.20    1.60
   3   7  -4    1.60    1.60
   3   7  -4   12.00    2.40
   1  -7  -4 1912.81   32.30
   1  -7  -4 1890.61   36.10
  -1   7   4 1913.51   36.00
   1   7  -4 1943.81   34.70
   1   7  -4 1903.21   34.70
  -1  -7  -4 1812.82   33.40
  -1  -7  -4 1774.62   34.60
   1   7   4 1715.53   33.00
  -1   7  -4 1755.12   31.80
  -3  -7  -4   22.40    4.50
  -3  -7  -4   22.00    4.30
  -3   7  -4   21.20    4.30
   3   7   4   30.20    4.80
  -3   7  -4   20.90    3.80
   3   7   4   29.10    4.30
  -5  -7  -4    0.20    2.30
  -5   7  -4    6.00    3.00
   5   7   4    4.90    2.90
  -7  -7  -4  986.30   29.70
  -7   7  -4  910.81   28.90
   7   7   4  880.11   27.90
  10  -8  -4  129.89   13.40
  10   8  -4  132.09   12.90
   8  -8  -4   60.19    7.90
   8   8  -4   51.29    7.00
   8   8  -4   55.49    7.60
  -8   8   4   67.39    8.40
   6  -8  -4  113.09    8.20
  -6   8   4  109.69    8.10
   6   8  -4  101.19    6.80
   6   8  -4  111.99   10.00
   4  -8  -4 1767.12   35.00
  -4   8   4 1742.03   35.80
   4   8  -4 1768.62   30.10
   4   8  -4 1709.13   34.40
   2  -8  -4  615.74   14.40
   2  -8  -4  622.64   17.40
   2   8  -4  625.04   17.30
  -2   8   4  624.94   17.60
   2   8  -4  629.94   15.50
   0  -8  -4  192.58    9.30
   0  -8  -4  197.58    8.30
   0   8  -4  201.38    8.60
   0   8  -4  204.88    9.20
   0   8   4  192.78    8.80
  -2  -8  -4  524.05   16.10
  -2  -8  -4  494.05   16.40
  -2   8  -4  496.65   14.00
   2   8   4  492.75   14.70
  -2   8  -4  476.45   16.20
  -4  -8  -4 1543.05   35.70
  -4   8  -4 1573.34   36.70
   4   8   4 1550.54   35.00
  -6  -8  -4   43.30    7.70
  -6   8  -4   36.90    6.60
   6   8   4   32.30    6.10
   9  -9  -4  228.18   13.80
   9   9  -4  212.78   12.60
   9   9  -4  216.78   12.80
   7  -9  -4  553.64   19.80
  -7   9   4  590.54   20.90
   7   9  -4  554.44   19.20
   7   9  -4  557.04   18.30
   5  -9  -4   26.10    4.70
  -5  -9   4   19.10    3.40
  -5   9   4   23.70    5.10
   5   9  -4   19.20    4.60
   3  -9  -4  108.99    7.20
   3  -9  -4  103.09    4.90
   3   9  -4  115.09    5.70
   3   9  -4  109.49    7.20
  -3   9   4  117.69    7.60
   1  -9  -4  960.70   20.30
   1  -9  -4  957.50   23.70
   1   9  -4  974.40   22.50
   1   9  -4  939.11   22.00
  -1   9   4  957.50   23.20
  -1  -9  -4 1034.70   25.40
  -1  -9  -4 1024.10   23.50
  -1   9  -4 1024.40   22.40
   1   9   4 1024.80   24.00
  -1   9  -4 1069.89   25.40
  -3  -9  -4  124.19    8.70
  -3   9  -4  110.39    8.30
   3   9   4  130.69    8.50
  -5  -9  -4    2.90    2.50
  -5   9  -4    0.10    2.40
   5   9   4    1.30    2.70
  -7  -9  -4  627.84   24.60
  -7   9  -4  628.44   24.30
   7   9   4  594.94   22.90
  10  10  -4   63.79    9.90
   8 -10  -4    0.00    2.70
  -8  10   4    0.60    3.10
   8  10  -4    1.50    2.60
   8  10  -4    2.60    3.20
  -6 -10   4   50.39    5.90
   6 -10  -4   34.60    5.70
  -6  10   4   34.30    6.20
   6  10  -4   53.89    7.40
   4 -10  -4 2696.73   49.90
   4  10  -4 2686.83   48.60
  -4  10   4 2719.53   51.39
   2 -10  -4  108.99    5.60
   2 -10  -4  111.79    7.50
  -2  10   4  118.49    7.70
   2  10  -4  110.99    7.40
  -2  10   4   97.69    5.30
   2  10  -4  108.99    6.20
   0 -10  -4   19.30    4.10
   0  10  -4   12.70    3.20
   0  10   4   13.40    3.30
   0  10   4   10.50    2.80
   0  10  -4   18.60    3.90
  -2 -10  -4  291.37   13.10
  -2  10  -4  267.37   12.60
  -2  10  -4  248.58   10.00
   2  10   4  285.07   10.90
   2  10   4  243.38   11.20
  -4 -10  -4 1741.73   39.90
   4  10   4 1732.63   38.80
  -4  10  -4 1780.62   40.90
  -6 -10  -4    0.40    2.80
   6  10   4    2.10    3.70
  -6  10  -4    0.00    3.00
   9 -11  -4  325.67   16.80
   9  11  -4  302.47   15.50
   9  11  -4  297.07   15.70
  -9  11   4  292.07   16.50
   7 -11  -4  448.26   18.00
  -7  11   4  435.66   18.50
   7  11  -4  400.46   17.00
   5 -11  -4   67.69    7.70
  -5  11   4   84.79    9.10
   5  11  -4   79.99    8.90
   3 -11  -4   72.79    7.90
  -3  11   4   65.29    7.50
   3  11  -4   95.89    9.20
   3  11  -4   70.79    5.30
   1 -11  -4  977.40   25.10
   1  11  -4 1017.00   23.70
  -1  11   4  988.60   25.00
   1  11  -4 1014.40   24.60
  -1  11   4 1021.70   21.90
  -1 -11  -4  485.95   17.30
  -1  11  -4  508.05   15.20
   1  11   4  538.35   16.20
  -1  11  -4  529.25   17.50
   1  11   4  514.25   16.20
  -3 -11  -4   77.09    9.00
  -3  11  -4   72.99    8.40
   3  11   4   69.19    7.90
  -5 -11  -4    0.60    2.60
  -5  11  -4   18.50    5.50
   5  11   4    0.00    2.80
   8 -12  -4  129.89   12.80
  -8  12   4  136.19   13.40
   8  12  -4  138.99   13.40
   6 -12  -4  110.69   10.50
   6  12  -4  117.89   11.20
  -6  12   4  127.59   12.10
   4 -12  -4 1448.06   33.40
   4  12  -4 1504.55   33.40
  -4  12   4 1478.65   35.60
   2 -12  -4   90.19    8.80
   2  12  -4  112.59   10.00
  -2  12   4  114.19    6.20
  -2  12   4  100.59    7.80
   2  12  -4  105.69    6.60
   0 -12  -4   42.00    6.20
   0  12  -4   44.20    5.90
   0  12   4   39.30    5.80
   0  12  -4   48.30    6.20
   0  12   4   52.19    5.90
  -2 -12  -4  421.86   16.90
   2  12   4  412.66   14.20
  -2  12  -4  404.96   16.60
   2  12   4  410.36   15.60
  -4 -12  -4  901.81   27.70
   4  12   4  879.81   26.50
  -4  12  -4  889.21   28.40
  -6 -12  -4   13.50    5.10
   6  12   4   22.30    6.60
  -6  12  -4   35.30    7.40
  -9  13   4  228.08   15.50
   7 -13  -4  636.04   23.00
  -7  13   4  644.94   24.20
   7  13  -4  648.44   23.10
   5 -13  -4   45.00    7.10
   5  13  -4   36.90    6.40
  -5  13   4   30.10    6.30
   3 -13  -4    0.50    2.30
   3  13  -4    0.00    2.30
  -3  13   4    0.70    2.10
   1 -13  -4 1052.19   27.20
   1  13  -4 1007.00   25.60
   1  13  -4  988.20   24.90
  -1  13   4 1007.80   22.90
  -1  13   4  985.50   26.20
  -1 -13  -4  615.24   20.50
   1  13   4  632.34   18.90
  -1  13  -4  614.14   18.00
  -1  13  -4  673.33   21.20
   1  13   4  612.14   18.70
  -3 -13  -4   22.10    5.80
   3  13   4   28.20    6.00
  -3  13  -4   39.40    7.00
  -5 -13  -4    3.90    3.50
   5  13   4    4.20    3.80
  -5  13  -4    6.80    4.00
   8 -14  -4  171.28   12.60
  -8  14   4  202.78   14.50
   8  14  -4  194.18   13.40
   6 -14  -4   38.00    7.00
  -6  14   4   44.20    7.80
   6  14  -4   44.40    7.50
   4 -14  -4  591.94   20.40
  -4  14   4  640.84   22.10
   4  14  -4  587.94   20.10
   2 -14  -4  109.29   10.60
   2  14  -4  132.89    7.80
  -2  14   4  120.89    8.90
   2  14  -4  123.19    8.80
   0 -14  -4  297.07   13.90
   0  14   4  301.57   12.20
   0  14   4  303.27   13.50
   0  14  -4  296.37   13.40
   0  14  -4  275.97   12.40
  -2 -14  -4  221.18   12.80
  -2  14  -4  214.98   12.70
   2  14   4  225.38   11.80
  -4 -14  -4  526.45   21.60
  -4  14  -4  547.45   22.50
   4  14   4  579.54   21.20
   7 -15  -4  483.15   20.40
   7  15  -4  478.75   20.70
  -7  15   4  476.35   21.60
   5 -15  -4    9.00    4.10
   5  15  -4    0.00    2.30
  -5  15   4    8.90    3.80
   3 -15  -4   15.40    4.60
  -3  15   4   15.10    4.50
   3  15  -4   15.60    4.50
   1 -15  -4  940.61   26.80
   1  15  -4  923.71   24.90
  -1  15   4  945.11   26.50
   1  15  -4  990.80   26.20
  -1 -15  -4  730.13   23.80
  -1  15  -4  716.33   23.50
   1  15   4  696.33   20.90
   1  15   4  689.93   21.20
  -3 -15  -4    1.80    3.00
   3  15   4    1.60    3.50
  -3  15  -4    6.40    4.00
   6 -16  -4    9.90    4.40
   6  16  -4    0.00    3.40
  -6  16   4    9.50    4.70
   4 -16  -4  467.85   19.40
  -4  16   4  508.05   20.70
   4  16  -4  492.65   19.60
   2 -16  -4   84.59    9.80
   2  16  -4   89.29    9.50
  -2  16   4   95.79    9.90
   0 -16  -4  249.28   13.70
   0  16  -4  260.47   14.00
   0  16   4  279.37   12.50
   0  16  -4  268.27   13.40
   0  16   4  250.77   12.80
  -2 -16  -4   94.79   11.20
   2  16   4   91.09    9.80
  -2  16  -4   75.59    9.60
  -4 -16  -4  590.34   23.80
   4  16   4  554.74   22.30
  -4  16  -4  592.94   24.50
   5 -17  -4    2.60    3.20
   5  17  -4    2.50    3.60
  -5  17   4    7.10    4.10
   3 -17  -4   19.70    5.60
   3  17  -4   14.80    4.80
  -3  17   4   19.10    5.30
   1 -17  -4  560.94   21.40
  -1  17   4  578.94   20.80
   1  17  -4  560.84   20.10
   1  17  -4  604.24   20.10
  -1 -17  -4  520.95   20.80
  -1  17  -4  537.15   20.70
   1  17   4  482.55   18.40
  -3 -17  -4   26.60    6.40
   3  17   4   34.40    7.10
  -3  17  -4   34.20    7.10
   6 -18  -4   40.50    7.90
   4 -18  -4  588.34   23.00
  -4  18   4  568.14   23.50
   4  18  -4  575.14   22.20
   2 -18  -4   76.59    9.80
  -2  18   4   65.99    9.00
   2  18  -4   67.39    8.70
   0 -18  -4  114.69   11.90
   0  18   4  100.09   10.30
   0  18  -4  112.89   11.20
  -2 -18  -4  125.59   12.60
   2  18   4  172.78   11.70
  -2  18  -4  177.28   12.80
   5 -19  -4   54.89    8.80
   5  19  -4   74.89   11.60
   3 -19  -4   16.70    5.30
   3  19  -4   21.30    5.80
  -3  19   4   24.60    6.10
   1 -19  -4  326.77   16.60
  -1  19   4  329.77   16.20
  -1 -19  -4  196.78   13.40
  -1  19  -4  185.38   12.90
   4  20  -4  809.52   30.70
   2 -20  -4    2.50    3.80
  -2  20   4    1.90    3.50
   0 -20  -4    2.10    3.60
  10   0  -5  393.56   18.30
   8   0  -5  507.05   18.10
  -6   0   5    5.30    2.30
   6   0  -5    5.10    2.00
   6   0  -5    5.70    2.20
   4   0  -5   38.40    4.40
   4   0  -5   25.70    3.60
  -4   0   5   26.30    3.70
   2   0  -5 2578.14   40.50
  -2   0   5 2500.55   43.50
   2   0  -5 2613.94   41.70
   0   0  -5 1102.19   20.40
   0   0  -5 1135.39   23.70
   0   0   5 1118.39   24.70
  -2   0  -5   42.00    5.40
   2   0   5   46.50    5.70
  -2   0  -5   48.00    4.90
   4   0   5    8.90    3.00
  -4   0  -5   11.20    3.20
  -4   0  -5    7.90    3.10
  -6   0  -5 1143.99   29.30
   9  -1  -5  133.59    9.80
   9   1  -5  145.19   10.20
   7  -1  -5  237.08   11.00
   7   1  -5  226.78    9.40
   7   1  -5  212.98   10.60
  -5  -1   5 1905.41   34.20
   5  -1  -5 1844.62   34.90
   5  -1  -5 1915.71   32.40
   5   1  -5 1874.31   34.20
  -5   1   5 1872.91   35.30
   5   1  -5 1869.01   33.10
   3  -1  -5  262.57    9.00
  -3  -1   5  258.37    9.30
   3  -1  -5  256.97    9.10
   3   1  -5  275.67    9.40
   3   1  -5  273.77    8.50
  -3   1   5  262.67    9.70
  -1  -1   5  104.49    6.10
   1  -1  -5   96.39    5.60
   1  -1  -5  118.59    5.50
   1   1  -5  103.49    5.80
  -1   1   5  104.39    6.20
   1   1  -5  108.79    4.50
  -1  -1  -5  418.06   13.30
   1  -1   5  424.06   13.70
  -1  -1  -5  414.76   11.60
   1   1   5  418.56   13.60
  -1   1  -5  404.36   13.10
  -1   1  -5  421.06   10.40
  -3  -1  -5 1539.35   30.40
  -3  -1  -5 1551.94   32.20
   3  -1   5 1599.34   33.80
  -3   1  -5 1573.64   32.00
   3   1   5 1560.94   32.60
  -3   1  -5 1521.05   33.40
  -5  -1  -5   42.20    6.10
  -5  -1  -5   31.60    5.70
   5  -1   5   40.40    6.40
   5   1   5   43.00    6.30
  -5   1  -5   50.69    6.80
  10  -2  -5  359.66   17.50
  10   2  -5  386.66   17.90
   8  -2  -5  638.04   20.80
   8   2  -5  663.63   20.50
   6  -2  -5    0.00    1.70
  -6   2   5    0.00    1.60
   6   2  -5    0.00    1.30
   6   2  -5    0.00    1.60
  -4  -2   5   70.59    4.70
   4  -2  -5   64.49    4.30
   4  -2  -5   65.29    4.90
   4   2  -5   76.39    4.70
   4   2  -5   70.99    4.90
  -4   2   5   67.49    5.00
   2  -2  -5 2255.17   38.40
   2  -2  -5 2337.97   38.10
  -2  -2   5 2378.36   40.50
  -2   2   5 2362.46   41.00
   2   2  -5 2323.67   35.50
   2   2  -5 2303.37   38.90
   0  -2  -5 1352.16   25.50
   0  -2  -5 1346.57   26.80
   0  -2   5 1386.86   28.60
   0   2   5 1368.86   28.10
   0   2  -5 1388.06   21.90
   0   2  -5 1326.17   26.70
  -2  -2  -5    2.50    1.80
  -2  -2  -5    2.40    1.70
   2   2   5    7.00    2.50
  -2   2  -5    1.40    1.70
  -2   2  -5    2.70    2.10
  -4  -2  -5   10.90    3.20
  -4  -2  -5    8.20    3.10
  -4   2  -5    9.60    3.30
  -4   2  -5    7.00    2.80
   4   2   5   11.00    3.20
   6   2   5 1105.29   29.40
   9  -3  -5   91.59   10.50
   9   3  -5   85.29    9.80
   7  -3  -5   20.90    4.60
   7   3  -5   21.20    4.50
  -7   3   5   16.40    3.90
   7   3  -5   16.80    3.60
   5  -3  -5 2415.86   43.30
  -5  -3   5 2414.86   40.40
   5  -3  -5 2380.26   37.90
   5   3  -5 2418.06   40.90
   5   3  -5 2433.26   41.90
  -5   3   5 2382.46   43.70
   3  -3  -5  247.18    8.30
   3  -3  -5  260.87    9.50
  -3  -3   5  261.47    9.40
   3   3  -5  250.47    9.50
   3   3  -5  263.57    7.80
  -3   3   5  254.67   10.00
   1  -3  -5  145.79    6.90
  -1  -3   5  137.69    7.20
   1  -3  -5  144.59    6.80
   1   3  -5  151.98    7.20
  -1   3   5  137.69    7.30
  -1  -3  -5  578.54   16.30
  -1  -3  -5  576.94   15.20
  -1   3  -5  555.64   15.50
   1   3   5  574.04   16.30
  -1   3  -5  562.74   17.00
  -3  -3  -5 2158.58   42.20
  -3  -3  -5 2164.38   40.90
  -3   3  -5 2204.48   40.40
   3   3   5 2166.48   41.30
  -3   3  -5 2161.98   42.90
  -5  -3  -5   20.20    4.60
  -5  -3  -5   26.80    5.20
  -5   3  -5   18.10    4.70
  -5   3  -5   23.30    4.70
  10   4  -5  186.08   12.50
   8  -4  -5 1233.98   31.50
   8   4  -5 1247.48   28.60
   8   4  -5 1226.08   30.20
   6  -4  -5   45.00    6.10
  -6   4   5   47.00    6.20
   6   4  -5   37.10    5.00
   6   4  -5   36.90    4.80
  -4  -4   5   10.10    2.40
   4  -4  -5   14.30    2.50
   4  -4  -5    8.50    2.70
   4   4  -5   13.20    2.50
   4   4  -5   15.80    3.30
  -4   4   5   10.70    2.70
  -2  -4   5 1439.26   28.30
   2  -4  -5 1410.66   26.50
   2  -4  -5 1450.15   28.40
  -2   4   5 1455.15   29.60
   2   4  -5 1485.65   28.60
   0  -4  -5 1854.61   34.10
   0  -4  -5 1863.01   34.00
   0   4  -5 1838.32   35.60
   0   4  -5 1880.71   34.10
   0   4   5 1838.72   35.30
  -2  -4  -5  285.47   11.40
  -2  -4  -5  272.47   11.00
   2   4   5  280.27   11.20
  -2   4  -5  270.87   11.70
  -2   4  -5  264.07   10.70
  -4  -4  -5   34.00    5.60
  -4  -4  -5   29.00    5.50
  -4   4  -5   21.40    4.90
   4   4   5   32.80    5.10
  -4   4  -5   29.00    4.90
  -6  -4  -5  723.93   23.40
   6   4   5  744.93   24.10
  -6   4  -5  761.12   25.00
   9  -5  -5  165.98   11.60
   9   5  -5  173.48   11.10
   7  -5  -5   46.90    6.60
   7   5  -5   58.79    7.00
   7   5  -5   62.19    6.80
  -7   5   5   70.99    8.00
   5  -5  -5 1635.34   33.60
   5   5  -5 1667.73   30.40
  -5   5   5 1652.13   34.30
   5   5  -5 1624.64   33.00
   3  -5  -5  523.95   15.50
   3  -5  -5  536.75   13.10
  -3  -5   5  543.95   14.50
   3   5  -5  561.64   15.80
  -3   5   5  556.74   16.50
   1  -5  -5  368.56   11.60
   1  -5  -5  382.26   12.40
   1   5  -5  343.17   12.10
   1   5  -5  375.96   12.20
  -1   5   5  379.06   12.80
  -1  -5  -5 1105.69   24.70
  -1  -5  -5 1059.39   24.20
  -1   5  -5 1098.99   25.70
   1   5   5 1096.69   24.90
  -1   5  -5 1056.19   23.60
  -3  -5  -5 1521.15   32.20
  -3  -5  -5 1413.36   32.30
   3   5   5 1469.85   31.10
  -3   5  -5 1528.55   30.70
  -3   5  -5 1494.95   33.70
  -5  -5  -5  146.49    9.90
  -5   5  -5  148.59   10.20
   5   5   5  152.38   10.40
  -7  -5  -5   35.30    7.40
   7   5   5   30.70    6.70
  10  -6  -5  212.08   14.20
  10   6  -5  212.08   13.20
   8  -6  -5  919.81   27.40
   8   6  -5  988.10   25.60
  -8   6   5  949.71   27.00
   8   6  -5  965.00   25.50
   6  -6  -5   76.29    8.40
   6   6  -5   59.99    6.90
   6   6  -5   76.89    5.60
  -6   6   5   78.39    8.30
   4  -6  -5    7.50    2.00
   4  -6  -5    3.90    2.10
  -4  -6   5   10.00    2.30
   4   6  -5    5.90    2.60
  -4   6   5    4.40    2.30
   2  -6  -5  990.20   20.70
   2  -6  -5  997.90   23.30
   2   6  -5  973.30   22.20
   2   6  -5 1008.30   23.00
   0  -6  -5 1472.75   30.70
   0  -6  -5 1486.25   29.20
   0   6  -5 1507.65   31.20
   0   6   5 1515.45   30.90
   0   6  -5 1432.06   29.10
  -2  -6  -5  159.78    9.00
  -2  -6  -5  149.29    8.70
  -2   6  -5  158.58    9.40
   2   6   5  157.88    8.40
  -2   6  -5  158.48    8.10
  -4  -6  -5   17.80    4.50
  -4  -6  -5   14.50    4.10
  -4   6  -5   11.40    3.80
  -6  -6  -5  514.95   20.40
  -6   6  -5  538.05   21.10
   6   6   5  570.64   21.00
   9  -7  -5  102.59   11.70
   9   7  -5   99.99   10.10
   9   7  -5   87.29    9.60
   7  -7  -5   68.69    8.40
   7   7  -5   61.39    7.80
   7   7  -5   72.79    7.60
  -7   7   5   70.39    8.30
   5  -7  -5 1585.54   34.60
  -5   7   5 1623.34   35.70
   5   7  -5 1645.54   34.20
   3  -7  -5  123.79    7.50
  -3  -7   5  143.69    7.00
   3  -7  -5  131.19    6.10
   3   7  -5  135.39    7.80
  -3   7   5  132.49    8.10
   1  -7  -5   33.00    5.00
   1  -7  -5   28.70    4.20
   1   7  -5   33.50    4.60
  -1   7   5   35.50    5.10
   1   7  -5   38.80    5.40
  -1  -7  -5  385.76   13.80
  -1  -7  -5  351.76   13.60
  -1   7  -5  396.06   14.50
  -1   7  -5  375.86   12.90
   1   7   5  396.76   13.90
  -3  -7  -5 1387.86   32.60
  -3  -7  -5 1442.96   33.40
  -3   7  -5 1488.25   34.70
  -3   7  -5 1486.85   30.10
   3   7   5 1440.66   31.10
  -5  -7  -5   61.39    8.40
  -5   7  -5   80.89    9.50
   5   7   5   68.49    9.10
  10   8  -5  355.06   17.00
   8  -8  -5  345.37   16.40
  -8   8   5  353.06   16.40
   8   8  -5  380.46   15.40
   8   8  -5  383.96   16.20
   6  -8  -5    3.50    2.50
  -6   8   5    2.40    2.50
   6   8  -5    3.70    2.90
   4  -8  -5   10.20    3.20
   4   8  -5   16.20    4.00
  -4   8   5   24.20    4.90
   2  -8  -5 1419.96   31.30
   2  -8  -5 1399.76   26.40
  -2   8   5 1372.86   30.90
   2   8  -5 1431.16   29.20
   2   8  -5 1387.66   29.90
   0  -8  -5  791.22   20.00
   0  -8  -5  764.52   21.30
   0   8  -5  787.02   20.00
   0   8   5  783.12   20.70
   0   8  -5  720.73   20.40
  -2  -8  -5    4.30    2.50
  -2  -8  -5    1.20    2.10
  -2   8  -5    0.00    1.60
   2   8   5    0.00    1.50
  -2   8  -5    1.80    2.20
  -4  -8  -5    0.00    1.60
  -4   8  -5    1.40    2.40
   4   8   5    1.80    2.40
  -6  -8  -5  688.53   24.90
   6   8   5  716.63   25.00
  -6   8  -5  720.63   25.40
   9  -9  -5   80.79   10.20
   9   9  -5   96.99   10.70
   7  -9  -5  128.59    9.60
  -7   9   5  104.89   10.80
   7   9  -5  124.99   11.40
   5  -9  -5 1190.58   29.40
  -5   9   5 1189.28   30.60
   5   9  -5 1242.38   29.40
   3  -9  -5  137.29    6.50
   3  -9  -5  128.49    8.10
  -3   9   5  146.89    9.00
   3   9  -5  141.19    7.30
   3   9  -5  136.29    8.50
   1  -9  -5   69.39    6.60
   1  -9  -5   78.99    8.00
   1   9  -5   79.79    6.20
  -1   9   5   85.69    8.20
   1   9  -5   94.89    8.50
  -1  -9  -5  262.27   12.10
  -1  -9  -5  233.78   10.70
  -1   9  -5  235.58   10.20
  -1   9  -5  213.08   11.00
   1   9   5  227.68   10.70
  -3  -9  -5 1125.39   29.90
   3   9   5 1121.99   28.90
  -3   9  -5 1100.69   30.00
  -5  -9  -5    7.30    3.50
  -5   9  -5   20.20    5.50
   5   9   5   14.60    4.90
   8 -10  -5  389.16   17.80
   8  10  -5  395.96   17.50
  -8  10   5  419.16   18.80
   6 -10  -5    1.10    2.30
  -6  10   5    0.80    2.40
   6  10  -5    3.20    2.80
   4 -10  -5   43.00    6.10
   4  10  -5   51.79    6.80
  -4  10   5   67.09    8.00
   2 -10  -5 1412.96   32.90
   2 -10  -5 1442.76   28.00
  -2  10   5 1439.16   32.80
   2  10  -5 1446.66   31.70
   2  10  -5 1419.26   29.80
   0 -10  -5  720.03   22.00
   0 -10  -5  740.53   19.90
   0  10   5  772.02   21.60
   0  10  -5  797.12   20.80
   0  10  -5  798.02   21.90
  -2 -10  -5    9.20    3.60
  -2  10  -5    0.00    1.80
  -2  10  -5    1.20    2.00
   2  10   5    0.00    2.10
   2  10   5    0.00    1.80
  -4 -10  -5    3.40    3.40
   4  10   5    2.40    2.50
  -4  10  -5   11.00    4.20
  -6 -10  -5  805.02   30.90
  -6  10  -5  856.51   29.50
   9 -11  -5  111.09   12.70
  -9  11   5   88.69   11.00
   9  11  -5   82.69   10.40
   7 -11  -5   45.80    7.50
   7  11  -5   36.90    6.80
  -7  11   5   44.30    7.70
   5 -11  -5 1054.29   28.50
  -5  11   5 1034.00   29.00
   5  11  -5 1025.90   27.60
   3 -11  -5  159.08    9.90
   3  11  -5  199.48   10.90
  -3  11   5  181.48   10.50
   3  11  -5  174.28    8.60
   1 -11  -5  270.07   12.70
   1 -11  -5  252.47   10.30
  -1  11   5  248.08   12.00
  -1  11   5  251.17   10.20
   1  11  -5  250.57   11.40
   1  11  -5  238.58   11.30
  -1 -11  -5  251.97   12.90
  -1  11  -5  284.07   13.40
  -1  11  -5  282.57   11.90
   1  11   5  278.87   12.40
   1  11   5  282.27   12.30
  -3 -11  -5  972.90   28.70
  -3  11  -5  908.71   28.00
   3  11   5  959.60   27.20
  -5 -11  -5    2.90    3.20
  -5  11  -5    4.10    3.40
   5  11   5    2.10    3.30
   8 -12  -5  464.35   20.10
  -8  12   5  406.26   19.50
   8  12  -5  420.46   18.90
   6 -12  -5    4.50    3.40
   6  12  -5    4.00    3.10
  -6  12   5    3.50    3.00
   4 -12  -5  117.19   11.00
   4  12  -5  141.09   12.40
  -4  12   5  120.49   11.80
   2 -12  -5 1161.68   30.30
   2  12  -5 1162.78   29.20
  -2  12   5 1186.68   25.20
   2  12  -5 1204.78   27.40
  -2  12   5 1195.38   30.10
   0 -12  -5  681.43   21.90
   0  12   5  699.63   20.90
   0  12  -5  651.93   20.00
   0  12  -5  692.83   21.20
   0  12   5  684.43   19.50
  -2 -12  -5   43.80    7.50
   2  12   5   43.60    6.60
  -2  12  -5   31.10    6.00
  -4 -12  -5    7.80    4.30
   4  12   5    0.70    2.40
  -4  12  -5    3.90    3.40
   7 -13  -5    1.20    3.40
   7  13  -5    2.60    3.80
  -7  13   5    4.50    3.70
   5 -13  -5 1041.80   29.60
   5  13  -5  988.10   28.40
  -5  13   5 1029.10   30.00
   3 -13  -5   80.89    9.60
  -3  13   5   66.89    8.40
   3  13  -5   81.39    9.50
   1 -13  -5  119.09   11.30
   1  13  -5   97.39    9.10
  -1  13   5   96.39    6.80
   1  13  -5  117.09    8.40
  -1  13   5  111.29   10.50
  -1 -13  -5  184.68   11.80
  -1  13  -5  168.08    9.80
  -1  13  -5  186.48   11.60
   1  13   5  198.18   10.70
   1  13   5  201.88   10.60
  -3 -13  -5 1019.40   31.10
  -3  13  -5 1051.69   31.90
   3  13   5 1061.79   29.60
   8 -14  -5  443.36   20.50
   8  14  -5  443.46   20.70
  -8  14   5  474.35   22.00
   6 -14  -5   29.10    6.30
  -6  14   5   36.20    7.30
   6  14  -5   32.70    6.70
   4 -14  -5    7.90    3.90
   4  14  -5    5.50    3.70
  -4  14   5    3.30    3.20
   2 -14  -5  518.65   19.40
  -2  14   5  550.44   20.10
   2  14  -5  512.55   17.20
   2  14  -5  523.45   19.00
   0 -14  -5  575.24   21.00
   0  14  -5  590.54   20.60
   0  14   5  622.84   19.10
   0  14  -5  566.04   19.20
   0  14   5  588.84   20.10
  -2 -14  -5   86.69   11.10
  -2  14  -5   81.39   10.00
   2  14   5   80.59    9.10
  -4 -14  -5    1.00    3.60
  -4  14  -5    0.00    3.40
   4  14   5    2.90    3.30
   7 -15  -5   49.30    8.50
  -7  15   5   41.60    8.00
   7  15  -5   58.99    9.30
   5 -15  -5  487.75   20.20
  -5  15   5  480.15   21.20
   5  15  -5  497.55   19.90
   3 -15  -5  124.59   12.20
   3  15  -5   92.69   10.30
  -3  15   5  107.29   11.30
   1 -15  -5   83.49    9.50
   1  15  -5   90.09    9.70
   1  15  -5   98.39    9.50
  -1  15   5  105.69   10.40
  -1 -15  -5  266.57   14.90
   1  15   5  278.97   13.50
  -1  15  -5  286.07   15.10
  -3 -15  -5  568.64   23.30
   3  15   5  547.65   21.10
  -3  15  -5  548.85   23.30
   6 -16  -5   72.29   10.10
  -6  16   5   65.69    9.90
   6  16  -5   58.99    9.10
   4 -16  -5    3.70    3.30
   4  16  -5    8.70    4.40
  -4  16   5    0.00    3.10
   2 -16  -5  259.77   14.20
   2  16  -5  265.37   14.00
  -2  16   5  269.67   14.60
   0 -16  -5  472.35   19.50
   0  16  -5  434.06   18.30
   0  16   5  447.06   18.00
   0  16   5  449.16   16.90
  -2 -16  -5   73.49   10.20
   2  16   5   53.19    7.70
  -2  16  -5   41.50    7.90
   5 -17  -5  511.35   22.30
  -5  17   5  548.65   23.30
   5  17  -5  562.54   22.40
   3 -17  -5   26.40    6.30
  -3  17   5   28.00    6.50
   3  17  -5   36.30    7.10
   1 -17  -5   54.19    8.20
  -1  17   5   57.49    8.20
   1  17  -5   65.99    8.80
   1  17  -5   55.09    7.90
  -1 -17  -5  123.69   12.60
  -1  17  -5   94.79   10.70
   1  17   5  117.39   11.40
   4 -18  -5   46.10    8.40
  -4  18   5   64.99    9.90
   4  18  -5   48.90    8.40
   2 -18  -5  486.25   20.50
   2  18  -5  475.45   19.70
  -2  18   5  454.45   19.80
   0 -18  -5  240.38   14.60
   0  18  -5  302.97   15.70
   2  18   5   20.00    5.70
   3 -19  -5   15.70    5.60
   3  19  -5   23.50    6.10
  -3  19   5   22.60    6.30
   1 -19  -5  116.49   12.60
  -1  19   5  111.39   12.10
  -1  19  -5   55.49    9.70
  -2  20   5  421.76   22.00
  10   0  -6  261.77   14.80
   8   0  -6   21.00    5.00
   6   0  -6 1244.88   28.00
  -6   0   6 1249.77   27.70
   6   0  -6 1256.37   26.10
  -4   0   6   62.79    6.50
   4   0  -6   69.59    5.10
   4   0  -6   72.09    5.10
   2   0  -6  530.25   13.50
   2   0  -6  542.35   15.30
  -2   0   6  539.05   16.10
   0   0  -6  509.45   15.50
   0   0   6  504.95   16.10
   2   0   6 1181.88   29.10
  -2   0  -6 1196.48   28.00
  -4   0  -6    7.60    2.80
   4   0   6   20.40    4.90
   9  -1  -6  814.52   25.50
   9   1  -6  836.72   25.10
   7  -1  -6    3.10    2.50
   7   1  -6    2.60    2.00
   7   1  -6    3.50    2.70
   5  -1  -6    2.20    1.80
   5  -1  -6    8.20    2.90
  -5  -1   6    6.20    2.30
  -5   1   6    5.70    2.40
   5   1  -6    6.20    2.30
   5   1  -6    5.90    2.40
  -3  -1   6 2344.97   42.40
   3  -1  -6 2338.17   40.10
   3  -1  -6 2296.37   40.00
   3   1  -6 2391.86   41.00
  -3   1   6 2297.17   42.60
   3   1  -6 2300.77   38.50
   1  -1  -6 1309.87   27.40
   1  -1  -6 1267.47   24.80
  -1  -1   6 1315.07   28.60
  -1   1   6 1280.07   28.30
   1   1  -6 1319.67   27.30
  -1  -1  -6    2.80    1.60
   1  -1   6    1.10    1.60
  -1  -1  -6    2.10    2.00
   1   1   6    2.80    2.10
  -1   1  -6    0.00    1.60
  -3  -1  -6   37.60    5.90
   3  -1   6   40.50    6.20
   3   1   6   36.90    5.90
  -3   1  -6   38.80    6.20
   5  -1   6 1187.58   31.50
  -5  -1  -6 1165.08   30.70
  -5   1  -6 1119.09   29.80
  10  -2  -6  184.38   12.80
  10   2  -6  164.48   11.80
   8  -2  -6   80.89    9.20
   8   2  -6   79.19    8.70
   6  -2  -6 1046.60   21.90
   6  -2  -6 1041.10   25.50
  -6   2   6 1018.10   25.00
   6   2  -6 1061.19   24.20
   6   2  -6 1045.70   24.20
   4  -2  -6  302.87   11.20
   4  -2  -6  304.07   10.40
  -4  -2   6  290.77   10.90
   4   2  -6  288.77   11.10
   4   2  -6  289.97    9.90
  -4   2   6  309.97   12.00
   2  -2  -6  372.36   12.10
   2  -2  -6  363.26   12.10
  -2  -2   6  386.16   13.20
  -2   2   6  380.06   13.40
   2   2  -6  389.96   12.80
   0  -2  -6  612.84   17.40
   0  -2   6  617.74   18.30
   0  -2  -6  628.24   15.80
   0   2  -6  560.34   16.70
   0   2   6  615.24   18.00
   2  -2   6 1207.08   29.60
  -2  -2  -6 1248.18   29.00
  -2  -2  -6 1223.88   26.10
  -2   2  -6 1219.78   28.10
   2   2   6 1259.97   29.50
  -4  -2  -6   88.29    9.60
   4  -2   6   89.09    9.50
  -4   2  -6   81.19    8.70
   4   2   6   95.89    9.50
   6   2   6   54.59    8.70
   9  -3  -6  472.55   19.30
   9   3  -6  452.75   18.10
   7  -3  -6   33.20    5.90
  -7   3   6   28.10    5.00
   7   3  -6   27.20    4.70
   7   3  -6   26.80    4.70
   5  -3  -6   16.40    3.10
   5  -3  -6    2.60    2.10
  -5  -3   6   18.30    3.60
   5   3  -6   13.40    3.20
   5   3  -6   10.70    2.90
  -5   3   6   19.70    4.30
  -3  -3   6  931.91   22.00
   3  -3  -6  896.81   20.30
   3  -3  -6  902.51   21.60
  -3   3   6  935.91   23.10
   3   3  -6  906.01   21.60
   1  -3  -6 1270.47   26.80
  -1  -3   6 1280.87   28.30
   1  -3  -6 1245.18   26.20
   1   3  -6 1282.07   27.40
  -1   3   6 1301.17   28.70
   1  -3   6   59.99    7.20
  -1  -3  -6   61.49    7.10
  -1  -3  -6   55.49    6.00
  -1   3  -6   52.99    6.70
  -1   3  -6   55.69    6.70
   1   3   6   65.29    7.20
  -3  -3  -6    1.00    2.00
  -3  -3  -6    0.20    1.70
  -3   3  -6    3.10    2.50
  -3   3  -6    4.70    2.70
   3   3   6    7.60    2.90
  -5  -3  -6  853.81   25.90
   5  -3   6  777.12   25.70
  10  -4  -6    7.00    4.30
  10   4  -6    9.90    4.60
   8  -4  -6   42.60    6.80
   8   4  -6   58.39    7.10
   8   4  -6   55.89    7.30
   6  -4  -6 1692.23   36.00
   6   4  -6 1689.93   34.60
  -6   4   6 1714.03   36.40
   6   4  -6 1712.83   33.10
   4  -4  -6  245.38    9.10
  -4  -4   6  238.68    9.80
   4  -4  -6  249.18   10.60
  -4   4   6  234.08   11.00
   4   4  -6  251.87   10.60
  -2  -4   6    0.70    1.40
   2  -4  -6    0.00    1.30
   2  -4  -6    1.50    1.90
  -2   4   6    1.30    1.70
   2   4  -6    0.00    1.50
   0  -4  -6  246.48   10.20
   0  -4   6  243.68   11.20
   0  -4  -6  279.67   11.40
   0   4   6  274.67   11.60
   0   4  -6  278.87   12.00
   0   4  -6  257.47   10.90
  -2  -4  -6 2279.97   42.20
  -2  -4  -6 2190.48   43.00
  -2   4  -6 2208.78   41.70
   2   4   6 2203.38   43.80
  -2   4  -6 2188.48   45.50
  -4  -4  -6   56.69    7.40
  -4  -4  -6   60.79    8.30
  -4   4  -6   63.39    7.50
  -4   4  -6   68.79    8.90
   4   4   6   58.49    7.30
   6  -4   6   19.90    5.70
   6   4   6   14.30    5.00
   9  -5  -6  221.58   13.30
   9   5  -6  200.98   12.20
   7  -5  -6   22.90    5.10
  -7   5   6   19.80    4.70
   7   5  -6   21.60    4.50
   7   5  -6   16.90    4.00
   5  -5  -6  130.99    8.40
  -5   5   6  120.09    8.20
   5   5  -6  124.29    7.90
   3  -5  -6  741.83   17.80
  -3  -5   6  739.13   19.40
   3  -5  -6  825.22   20.70
   3   5  -6  758.32   20.20
  -3   5   6  751.02   20.90
   1  -5  -6  839.02   21.00
   1  -5  -6  809.52   20.40
  -1  -5   6  778.62   21.00
  -1   5   6  804.52   21.70
   1   5  -6  819.72   21.10
   1   5  -6  837.22   21.90
  -1  -5  -6   93.99    6.80
  -1  -5  -6   99.29    7.10
   1   5   6   87.49    6.80
  -1   5  -6   99.19    7.00
  -1   5  -6   82.89    8.70
  -3  -5  -6    3.80    2.90
  -3  -5  -6    3.20    2.40
  -3   5  -6    1.50    2.00
  -3   5  -6    6.90    3.00
   3   5   6    5.00    2.80
  -5  -5  -6  713.63   23.60
  -5   5  -6  744.83   25.50
   5   5   6  723.13   24.50
  10  -6  -6   19.80    5.90
   8  -6  -6   26.30    6.10
  -8   6   6   24.80    5.30
   8   6  -6   22.80    5.00
   6  -6  -6 1847.62   39.60
   6   6  -6 1920.51   39.10
  -6   6   6 1880.31   40.30
   4  -6  -6  136.19    8.50
   4  -6  -6  138.29    6.70
  -4  -6   6  133.89    7.40
   4   6  -6  133.19    8.30
  -4   6   6  141.79    9.00
  -2  -6   6    5.00    2.40
   2  -6  -6    0.00    1.50
   2  -6  -6    1.20    1.50
   2   6  -6    0.80    1.90
  -2   6   6    2.00    1.80
   0  -6  -6  342.67   12.80
   0  -6  -6  330.07   13.00
   0   6   6  320.07   13.10
   0   6  -6  348.37   13.80
   0   6  -6  312.87   12.50
  -2  -6  -6 1937.91   40.40
  -2  -6  -6 1958.90   41.20
  -2   6  -6 1970.00   38.90
   2   6   6 1996.40   40.40
  -2   6  -6 1966.60   42.90
  -4  -6  -6   15.70    4.40
  -4  -6  -6   29.00    6.20
  -4   6  -6   24.20    5.60
  -6   6  -6    2.80    3.20
   6   6   6    5.20    4.10
   9  -7  -6  530.45   21.80
   9   7  -6  551.74   20.40
   7  -7  -6   81.69    9.50
   7   7  -6   59.09    7.70
  -7   7   6   80.99    9.20
   5  -7  -6   35.50    6.00
   5   7  -6   42.10    6.10
  -5   7   6   43.40    6.60
   3  -7  -6 1037.00   22.50
  -3  -7   6 1052.49   24.20
   3  -7  -6 1045.10   26.00
  -3   7   6 1057.09   26.80
   3   7  -6 1054.79   26.00
   1  -7  -6  796.32   21.90
   1  -7  -6  808.62   20.20
   1   7  -6  762.62   21.10
  -1   7   6  793.92   22.10
   1   7  -6  808.52   22.20
  -1  -7  -6  100.99    9.40
  -1  -7  -6  110.09    8.00
   1   7   6  106.29    7.80
  -1   7  -6  125.19    8.70
  -1   7  -6  117.99    7.80
  -3  -7  -6   36.20    6.40
  -3  -7  -6   31.10    6.00
   3   7   6   43.80    6.40
  -3   7  -6   25.90    5.00
  -3   7  -6   24.40    5.30
  -5  -7  -6  616.94   22.70
  -5   7  -6  622.34   23.50
   5   7   6  625.84   23.20
   8  -8  -6   52.19    8.40
  -8   8   6   43.10    7.20
   8   8  -6   47.00    7.40
   6  -8  -6  964.10   26.90
  -6   8   6 1005.20   28.20
   6   8  -6  972.40   26.80
  -4  -8   6  146.89    7.80
   4  -8  -6  146.09    9.30
  -4   8   6  124.99    9.10
   4   8  -6  148.29    9.10
   2  -8  -6  337.07   11.80
   2  -8  -6  336.37   13.90
   2   8  -6  319.97   13.30
  -2   8   6  349.47   14.40
   2   8  -6  326.37   12.80
   0  -8  -6  547.55   18.60
   0  -8  -6  547.95   17.70
   0   8  -6  592.94   18.30
   0   8   6  590.74   18.60
   0   8  -6  594.04   19.10
  -2  -8  -6  856.61   24.40
  -2  -8  -6  870.31   25.60
   2   8   6  867.01   23.70
  -2   8  -6  857.51   22.90
  -2   8  -6  823.62   25.30
  -4  -8  -6   37.90    7.40
  -4   8  -6   31.80    6.80
   4   8   6   53.89    8.40
   9  -9  -6  533.55   22.20
   9   9  -6  553.34   21.20
   7  -9  -6   12.30    4.50
  -7   9   6    9.00    4.00
   7   9  -6    7.00    3.50
   5  -9  -6   10.60    4.00
  -5   9   6    1.90    2.20
   5   9  -6   10.20    3.90
  -3  -9   6 1446.76   30.20
   3  -9  -6 1419.36   27.60
   3  -9  -6 1342.17   32.30
   3   9  -6 1360.96   31.80
  -3   9   6 1372.76   33.20
   1  -9  -6  808.62   23.50
   1  -9  -6  806.52   21.40
   1   9  -6  833.72   23.20
  -1   9   6  811.12   23.70
   1   9  -6  865.01   23.00
  -1  -9  -6   10.40    3.80
  -1  -9  -6    8.70    3.20
   1   9   6   10.00    3.30
  -1   9  -6    6.20    3.30
  -1   9  -6    8.70    3.50
  -3  -9  -6   23.00    5.50
   3   9   6   17.00    4.80
  -3   9  -6   20.30    5.30
  -5  -9  -6  844.32   28.10
   5   9   6  835.32   27.50
  -5   9  -6  745.93   27.20
   8 -10  -6    3.30    3.90
  -8  10   6    4.80    4.00
   8  10  -6   13.50    4.60
   6 -10  -6  544.65   20.30
  -6  10   6  609.64   21.90
   6  10  -6  583.64   21.00
   4 -10  -6   58.49    7.60
  -4  10   6   57.39    7.90
   4  10  -6   61.79    7.70
   2 -10  -6  275.67   11.00
   2 -10  -6  257.57   12.60
   2  10  -6  280.17   12.00
   2  10  -6  263.37   12.60
  -2  10   6  268.87   13.00
   0 -10  -6  176.68    9.60
   0 -10  -6  181.38   11.00
   0  10  -6  166.78   10.30
   0  10   6  155.08    9.70
   0  10  -6  182.28    9.90
  -2 -10  -6  776.52   24.90
  -2 -10  -6  808.92   23.90
   2  10   6  773.72   23.10
  -2  10  -6  749.33   25.10
  -2  10  -6  793.42   22.40
   2  10   6  782.72   23.70
  -4 -10  -6   13.90    5.40
  -4  10  -6    4.50    3.90
   4  10   6   17.20    5.20
   9  11  -6  363.36   18.00
  -9  11   6  354.16   18.40
   7 -11  -6    0.90    3.10
   7  11  -6    1.30    3.10
  -7  11   6    5.40    3.60
   5 -11  -6    2.20    2.90
  -5  11   6    2.20    2.50
   5  11  -6    6.90    3.50
   3 -11  -6  896.51   26.50
  -3  11   6  929.21   26.80
   3  11  -6  890.11   26.00
   3  11  -6  942.61   23.70
   1 -11  -6  783.42   23.80
   1 -11  -6  787.52   21.30
   1  11  -6  775.02   23.00
  -1  11   6  790.42   23.80
   1  11  -6  796.42   23.00
  -1 -11  -6    0.00    1.90
   1  11   6    3.50    2.80
  -1  11  -6    3.00    2.60
  -1  11  -6    3.80    3.10
   1  11   6    0.00    1.90
  -3 -11  -6    2.60    3.00
  -3  11  -6    0.00    3.00
   3  11   6    0.00    2.60
   8 -12  -6   43.90    8.40
  -8  12   6   41.20    7.90
   8  12  -6   40.20    8.10
   6 -12  -6  391.16   18.10
  -6  12   6  405.36   18.80
   6  12  -6  435.96   18.50
   4 -12  -6  147.99   10.40
  -4  12   6  167.18   11.00
   4  12  -6  141.59   10.20
   2 -12  -6  189.98    9.30
   2 -12  -6  192.38   11.60
   2  12  -6  183.18   10.20
  -2  12   6  205.68    9.60
  -2  12   6  184.68   11.30
   2  12  -6  203.38   11.80
   0 -12  -6  136.49   10.20
   0  12   6  151.58   10.00
   0  12   6  136.89    9.10
   0  12  -6  144.29    9.60
   0  12  -6  160.98   10.50
  -2 -12  -6  717.63   25.10
  -2  12  -6  685.93   24.70
   2  12   6  714.43   23.50
  -4 -12  -6   53.89    9.40
   4  12   6   44.80    8.20
  -4  12  -6   34.10    7.90
   7 -13  -6   25.80    6.30
   7  13  -6   23.90    6.40
  -7  13   6   29.70    7.30
   5 -13  -6    3.60    3.20
  -5  13   6   13.20    4.80
   5  13  -6   10.80    4.20
   3 -13  -6  410.36   17.70
  -3  13   6  379.86   17.10
   3  13  -6  412.86   17.30
   1 -13  -6  588.44   21.70
  -1  13   6  582.14   18.30
   1  13  -6  591.64   20.10
   1  13  -6  583.84   20.50
  -1  13   6  559.54   20.30
  -1 -13  -6   43.30    7.40
  -1  13  -6   54.19    8.40
   1  13   6   54.39    7.80
   1  13   6   36.70    6.30
  -3 -13  -6    0.00    2.70
   3  13   6    0.00    2.90
  -3  13  -6    1.10    3.90
   6 -14  -6  864.21   28.40
   6  14  -6  854.81   28.10
  -6  14   6  855.91   29.20
   4 -14  -6   60.79    8.90
   4  14  -6   44.30    7.50
  -4  14   6   50.79    8.10
   2 -14  -6   29.30    6.40
   2  14  -6   32.50    6.10
  -2  14   6   25.80    6.00
   2  14  -6   38.40    6.20
   0 -14  -6  208.48   13.00
   0  14   6  165.48   10.10
   0  14   6  193.48   11.80
   0  14  -6  155.78   10.40
   0  14  -6  169.78   11.40
  -2 -14  -6  853.81   29.20
  -2  14  -6  928.71   30.20
   2  14   6  930.11   27.80
  -7  15   6   38.00    8.20
   5 -15  -6   88.49   10.60
  -5  15   6   83.99   10.50
   5  15  -6   81.39   10.10
   3 -15  -6  460.45   20.10
  -3  15   6  492.05   20.50
   3  15  -6  475.65   19.60
   1 -15  -6  260.87   14.70
   1  15  -6  240.48   13.20
   1  15  -6  232.98   13.40
  -1  15   6  266.07   14.20
  -1 -15  -6  109.69   11.80
   1  15   6  113.89   11.10
  -1  15  -6  117.29   12.50
   6 -16  -6  935.01   30.80
   6  16  -6  882.21   30.50
  -6  16   6  937.71   32.40
   4 -16  -6    9.90    4.40
  -4  16   6    4.30    4.00
   4  16  -6   16.80    5.40
   2 -16  -6    5.10    3.70
   2  16  -6   11.30    4.30
  -2  16   6    7.20    3.80
   0 -16  -6  163.88   15.00
   0  16  -6  152.58   11.50
   0  16   6  161.08   10.70
   0  16   6  143.59   10.90
   2  16   6  811.92   26.70
   5 -17  -6   40.90    7.60
   5  17  -6   35.80    7.80
  -5  17   6   44.70    8.40
   3 -17  -6  389.26   19.20
   3  17  -6  401.46   18.60
  -3  17   6  361.66   18.50
   1 -17  -6  253.97   15.20
   1  17  -6  256.17   14.50
   1  17  -6  239.78   14.50
  -1  17   6  251.67   14.70
  -1  17  -6   58.29    9.10
   1  17   6   70.29    9.20
   4  18  -6   70.99   10.10
   2 -18  -6  177.08   13.40
   2  18  -6  151.78   14.40
  -2  18   6  136.09   13.80
   0  18  -6   95.99   11.20
  10   0  -7  639.14   23.80
   8   0  -7   47.70    7.40
   6   0  -7    1.90    2.40
  -6   0   7    0.40    2.20
   6   0  -7    1.30    2.10
   4   0  -7  490.45   15.10
   4   0  -7  509.85   15.70
  -4   0   7  497.55   16.50
   2   0  -7 1592.54   32.50
  -2   0   7 1620.14   35.00
   0   0  -7  261.57   11.70
   0   0   7  268.17   12.50
   2   0   7    8.60    3.10
  -2   0  -7    7.70    3.40
   4   0   7  690.23   23.60
  -4   0  -7  637.04   22.60
   9  -1  -7    4.80    3.50
   9   1  -7    4.10    3.30
   7  -1  -7  900.51   24.70
   7   1  -7  913.11   22.80
   7   1  -7  909.71   24.20
   5  -1  -7  239.68   10.70
  -5  -1   7  250.17   11.20
   5  -1  -7  254.17   10.50
  -5   1   7  240.08   11.30
   5   1  -7  260.47   11.00
   3  -1  -7  213.68    9.70
   3  -1  -7  206.98    9.10
  -3  -1   7  211.68   10.30
  -3   1   7  200.78   10.30
   3   1  -7  205.98    9.90
  -1  -1   7  494.65   17.20
   1  -1  -7  503.95   16.50
   1   1  -7  505.55   16.50
  -1   1   7  497.75   17.30
  -1  -1  -7 1512.15   34.30
   1  -1   7 1572.54   35.90
   1   1   7 1498.85   35.30
  -1   1  -7 1507.35   33.70
  -3  -1  -7  142.89   10.00
   3  -1   7  124.49   11.90
  -3   1  -7  152.88   10.10
   3   1   7  130.29    9.70
   5  -1   7   52.29    8.60
  -5  -1  -7   41.90    7.60
  10  -2  -7  389.46   18.80
   8  -2  -7   17.10    4.80
   8   2  -7   15.50    4.60
   6  -2  -7   37.80    4.90
   6  -2  -7   23.60    4.80
  -6   2   7   37.10    5.90
   6   2  -7   29.10    5.00
   4  -2  -7  963.30   23.70
   4  -2  -7  974.50   22.70
  -4  -2   7  962.40   24.30
   4   2  -7  999.00   24.20
  -4   2   7  995.90   25.10
  -2  -2   7  851.21   23.20
   2  -2  -7  879.51   22.00
   2  -2  -7  847.52   20.50
   2   2  -7  847.12   22.20
  -2   2   7  871.01   23.40
   0  -2  -7   47.10    6.60
   0  -2   7   51.09    6.80
   0   2  -7   58.69    7.40
   0   2   7   46.20    6.50
   2  -2   7    2.00    2.40
  -2  -2  -7    6.80    3.10
  -2   2  -7    2.60    2.00
   2   2   7    5.20    3.10
   4  -2   7  873.21   27.00
  -4  -2  -7  822.62   26.30
   4   2   7  843.42   25.90
  -4   2  -7  814.32   25.00
   9  -3  -7   28.90    6.20
   7  -3  -7 1155.58   29.40
   7   3  -7 1133.19   27.70
  -7   3   7 1145.69   29.40
  -5  -3   7   46.70    5.90
   5  -3  -7   33.10    5.40
   5  -3  -7   36.60    4.90
  -5   3   7   40.30    6.00
   5   3  -7   37.30    5.70
  -3  -3   7   47.50    6.00
   3  -3  -7   60.29    6.40
   3  -3  -7   58.99    6.60
   3   3  -7   47.60    6.40
  -3   3   7   62.19    7.40
  -1  -3   7  282.07   12.70
   1  -3  -7  262.27   10.60
   1  -3  -7  264.47   11.60
  -1   3   7  268.27   12.40
   1   3  -7  259.57   11.80
   1  -3   7 1299.37   32.50
  -1  -3  -7 1320.47   31.20
   1   3   7 1305.67   32.10
  -1   3  -7 1348.07   31.00
   3  -3   7   11.90    4.10
  -3  -3  -7   11.80    4.10
   3   3   7   24.10    5.60
  -3   3  -7   11.50    3.90
   5  -3   7    9.60    4.70
  -5  -3  -7    9.50    4.10
  10  -4  -7  271.57   16.00
   8  -4  -7   19.00    5.40
   8   4  -7   31.50    5.80
   6  -4  -7   39.20    6.30
  -6   4   7   49.70    7.00
   6   4  -7   40.20    6.40
   4  -4  -7 1331.67   27.50
   4  -4  -7 1307.37   29.90
  -4  -4   7 1339.27   29.60
  -4   4   7 1313.97   31.00
   4   4  -7 1285.87   29.50
   2  -4  -7  531.15   16.50
  -2  -4   7  501.95   17.30
   2  -4  -7  529.35   16.20
  -2   4   7  529.95   18.00
   2   4  -7  512.75   16.70
   0  -4  -7    0.00    1.80
   0  -4  -7    0.90    2.00
   0  -4   7    0.10    1.70
   0   4   7    7.30    3.20
   0   4  -7    0.00    1.80
   2  -4   7   16.80    4.70
  -2  -4  -7   20.20    4.70
   2   4   7   16.70    4.30
  -2   4  -7   16.20    4.40
  -4  -4  -7  866.51   27.40
   4  -4   7  906.81   28.00
  -4   4  -7  915.91   26.20
   9  -5  -7   67.59    9.50
   7  -5  -7  811.32   24.50
  -7   5   7  778.12   24.40
   7   5  -7  789.22   22.70
   5  -5  -7  102.79    9.80
  -5  -5   7  104.39    7.10
  -5   5   7   80.19    8.70
   5   5  -7   99.09    9.10
   3  -5  -7  168.58    9.70
   3  -5  -7  155.68    8.20
  -3  -5   7  152.58    8.90
  -3   5   7  151.48    9.40
   3   5  -7  155.18    9.10
  -1  -5   7  303.57   13.40
   1  -5  -7  299.87   12.50
   1  -5  -7  314.47   12.90
  -1   5   7  341.97   14.20
   1   5  -7  303.67   13.10
   1  -5   7  944.81   26.90
  -1  -5  -7  936.71   24.60
  -1  -5  -7  963.30   25.90
  -1   5  -7  939.31   25.40
   1   5   7  948.01   26.10
   3  -5   7   25.70    5.90
  -3  -5  -7   30.60    6.30
  -3   5  -7   19.50    5.20
   3   5   7   11.50    4.30
  -3   5  -7   15.70    4.40
   5  -5   7   33.80    7.00
   8  -6  -7    5.20    3.70
   8   6  -7   10.80    3.90
  -8   6   7    3.20    3.50
   6  -6  -7   68.79    8.40
   6   6  -7   73.49    8.50
  -6   6   7   68.89    8.80
  -4  -6   7 1028.30   25.10
   4  -6  -7 1020.00   23.10
   4  -6  -7 1010.80   26.20
   4   6  -7 1021.50   26.50
  -4   6   7 1033.10   27.60
  -2  -6   7  696.53   20.60
   2  -6  -7  686.83   19.20
   2  -6  -7  698.73   20.60
  -2   6   7  646.84   20.90
   2   6  -7  708.53   20.60
   0  -6  -7    1.50    2.40
   0  -6   7    1.30    2.20
   0  -6  -7    0.00    1.70
   0   6  -7    2.40    2.30
   0   6  -7    3.00    2.40
   0   6   7    2.50    2.30
  -2  -6  -7    3.80    2.90
  -2  -6  -7    2.70    2.40
  -2   6  -7    4.50    3.00
   2   6   7    3.60    2.90
  -2   6  -7    2.50    2.90
  -4  -6  -7 1044.20   30.80
  -4   6  -7  980.70   30.90
   9  -7  -7    3.80    3.90
   9   7  -7    3.80    3.50
   7  -7  -7  809.62   25.40
  -7   7   7  831.92   26.10
   7   7  -7  813.82   24.40
   5  -7  -7  105.99   10.70
  -5   7   7  121.49   11.40
   5   7  -7  117.89   10.70
   3  -7  -7  121.79    7.40
   3  -7  -7  128.89    9.00
  -3  -7   7  122.99    8.10
   3   7  -7  119.09    8.40
  -3   7   7  130.59    9.20
   1  -7  -7  136.59    8.30
   1  -7  -7  146.19    9.60
  -1  -7   7  141.39    9.20
   1   7  -7  152.18    9.30
   1   7  -7  140.59    9.40
  -1   7   7  151.08    9.70
  -1  -7  -7 1418.06   34.50
  -1  -7  -7 1404.36   33.80
  -1   7  -7 1457.05   33.40
   1   7   7 1456.15   35.00
  -1   7  -7 1428.56   36.10
  -3  -7  -7    3.10    3.10
  -3  -7  -7    3.80    3.00
   3   7   7    6.60    3.60
  -3   7  -7    2.40    3.20
  -3   7  -7    5.10    3.60
   8  -8  -7    0.00    2.30
   8   8  -7    2.00    3.30
  -8   8   7    0.00    2.70
   6  -8  -7   73.89    9.40
  -6   8   7   71.29    8.80
   6   8  -7   60.99    8.10
  -4  -8   7  705.23   20.20
   4  -8  -7  709.03   22.40
  -4   8   7  709.93   23.00
   4   8  -7  711.53   22.10
   2  -8  -7  787.02   21.00
  -2  -8   7  782.12   22.50
   2  -8  -7  812.62   23.60
   2   8  -7  758.32   22.80
  -2   8   7  831.02   24.90
   0  -8  -7   52.39    7.20
   0  -8  -7   50.89    6.80
   0   8  -7   68.79    8.20
   0   8  -7   55.09    7.60
   0   8   7   51.79    7.20
  -2  -8  -7    1.60    3.00
  -2  -8  -7    0.00    1.80
  -2   8  -7    8.50    3.70
   2   8   7    3.40    2.70
  -2   8  -7    1.30    3.00
  -4  -8  -7  828.42   27.40
   4   8   7  806.92   27.60
  -4   8  -7  808.12   28.70
   9  -9  -7    6.60    5.20
   9   9  -7    1.50    3.60
   7  -9  -7  604.44   22.30
  -7   9   7  617.54   22.90
   7   9  -7  606.34   21.90
   5  -9  -7  145.69   10.40
   5   9  -7  140.79   10.10
  -5   9   7  142.59   10.60
   3  -9  -7  174.88   11.00
   3  -9  -7  177.88    8.90
  -3  -9   7  142.69    8.90
   3   9  -7  156.58   10.30
  -3   9   7  139.69   10.10
   1  -9  -7  266.37   12.50
   1  -9  -7  299.27   14.30
  -1   9   7  254.17   13.30
   1   9  -7  276.57   13.50
   1   9  -7  270.57   13.10
  -1  -9  -7 1055.19   29.90
  -1  -9  -7 1127.99   29.20
   1   9   7 1103.39   29.40
  -1   9  -7 1078.29   30.60
  -1   9  -7 1063.59   28.00
  -3  -9  -7   54.69    8.40
   3   9   7   69.19    9.40
  -3   9  -7   57.19    8.60
   8 -10  -7   55.29    8.70
  -8  10   7   57.59    8.80
   8  10  -7   56.99    8.50
   6 -10  -7    1.60    3.10
  -6  10   7    0.00    3.00
   6  10  -7    0.00    2.20
   4 -10  -7  365.26   16.30
  -4  10   7  338.77   16.00
   4  10  -7  319.37   15.20
   2 -10  -7  748.73   23.90
   2 -10  -7  742.53   21.00
   2  10  -7  755.42   23.40
   2  10  -7  718.43   22.20
  -2  10   7  734.13   24.10
   0 -10  -7  157.78   10.80
   0 -10  -7  144.99    9.50
   0  10   7  159.68   10.80
   0  10  -7  140.19    9.90
   0  10  -7  165.38   10.90
  -2 -10  -7   10.20    4.50
  -2 -10  -7    7.40    3.90
   2  10   7    9.00    4.20
  -2  10  -7    3.60    3.20
   2  10   7    5.90    3.40
  -4 -10  -7  340.67   18.10
   7 -11  -7  585.54   23.20
   7  11  -7  561.54   22.10
  -7  11   7  578.64   23.40
   5 -11  -7   71.49    9.70
  -5  11   7   52.39    8.50
   5  11  -7   52.29    7.70
  -3 -11   7   95.69    9.20
   3 -11  -7   96.39   10.60
  -3  11   7   87.99    9.90
   3  11  -7  130.29   12.20
   1 -11  -7  374.86   14.70
   1 -11  -7  356.66   16.60
  -1  11   7  334.97   16.00
   1  11  -7  360.36   15.90
   1  11  -7  352.56   15.60
  -1 -11  -7  678.43   22.30
  -1 -11  -7  625.14   23.20
  -1  11  -7  624.04   23.50
  -1  11  -7  625.24   21.30
   1  11   7  671.93   22.50
   1  11   7  609.74   21.20
  -3 -11  -7   98.19   12.10
   3  11   7   93.09   11.30
  -3  11  -7   83.49   11.20
  -8  12   7   48.90    9.00
   6 -12  -7    7.40    4.30
   6  12  -7   12.00    4.50
  -6  12   7    9.40    4.60
   4 -12  -7  489.95   20.30
  -4  12   7  463.35   19.60
   4  12  -7  468.05   19.10
   2 -12  -7  327.97   13.60
   2 -12  -7  317.07   15.90
   2  12  -7  351.86   15.40
  -2  12   7  327.77   15.90
   2  12  -7  338.37   16.10
   0 -12  -7   39.90    7.30
   0 -12  -7   37.90    6.60
   0  12   7   56.29    7.90
   0  12  -7   47.50    7.70
   0  12   7   50.19    8.30
   0  12  -7   31.00    6.60
  -2 -12  -7    5.00    3.90
  -2  12  -7    5.00    3.70
   2  12   7    3.40    3.50
   7 -13  -7  605.04   24.90
   7  13  -7  654.53   25.20
  -7  13   7  659.83   25.40
   5 -13  -7   11.40    4.50
   5  13  -7   10.20    4.60
  -5  13   7   16.80    5.60
   3 -13  -7   39.50    7.10
   3  13  -7   44.50    7.80
  -3  13   7   42.00    7.20
   1 -13  -7  106.49   11.50
   1  13  -7   88.89   10.10
  -1  13   7  122.69   11.10
  -1  13   7   90.59   10.60
   1  13  -7   96.39   10.60
  -1 -13  -7  732.63   26.50
   1  13   7  718.43   24.00
   1  13   7  709.73   23.90
  -1  13  -7  697.73   25.30
   6 -14  -7   79.99   10.60
   6  14  -7   60.19    9.20
  -6  14   7   69.49   10.00
   4 -14  -7  567.04   22.60
  -4  14   7  501.45   22.00
   4  14  -7  548.75   21.70
   2 -14  -7  290.67   15.70
  -2  14   7  306.57   15.90
   2  14  -7  289.97   15.50
   2  14  -7  312.17   14.90
   0 -14  -7    7.80    4.50
   0  14   7    7.00    4.00
   0  14   7   21.30    5.50
   0  14  -7    1.00    3.20
   0  14  -7    1.10    3.40
   5 -15  -7   58.99    9.30
   5  15  -7   74.89   10.20
  -5  15   7   75.99   10.50
   3 -15  -7  143.29   14.00
   3  15  -7  176.18   12.60
  -3  15   7  158.38   14.70
   1 -15  -7   76.29   10.50
   1  15  -7   63.29    8.80
   1  15  -7   73.79   10.00
  -1  15   7   87.79   10.70
   1  15   7  555.04   21.50
  -1  15  -7  561.04   23.60
   4 -16  -7  364.16   19.10
  -4  16   7  367.66   19.00
   4  16  -7  378.26   18.60
   2 -16  -7  347.17   18.50
  -2  16   7  341.47   18.00
   2  16  -7  373.56   18.30
   0  16   7   20.30    6.00
   0  16   7   19.90    6.20
   0  16  -7   12.30    5.10
   3  17  -7   78.69   10.80
  -1  17   7   58.59    9.30
  -6   0   8   43.00    6.50
   6   0  -8   40.40    6.10
  -4   0   8    7.00    3.00
   4   0  -8    7.70    3.00
   2   0  -8  127.79    8.70
  -2   0   8  133.89    9.40
   0   0   8 1807.52   40.70
   0   0  -8 1719.83   38.30
  -2   0  -8   42.00    7.30
   2   0   8   61.19    9.00
  -4   0  -8    2.40    3.80
   4   0   8    0.10    3.80
   9  -1  -8   65.09    9.30
   7  -1  -8   44.60    7.60
   7   1  -8   61.19    7.50
  -5  -1   8  473.35   17.20
   5  -1  -8  472.25   16.00
   5   1  -8  466.85   16.50
  -5   1   8  487.45   17.70
   3  -1  -8  494.55   16.90
  -3  -1   8  483.05   17.70
  -3   1   8  484.35   17.90
   3   1  -8  526.95   17.70
  -1  -1   8   53.19    7.40
   1  -1  -8   57.89    7.30
   1   1  -8   54.29    7.10
  -1   1   8   58.29    8.10
   1  -1   8    1.20    2.40
  -1  -1  -8    2.60    2.70
  -1   1  -8    2.40    2.80
   1   1   8    0.40    2.50
   3  -1   8  524.35   21.70
  -3  -1  -8  598.44   21.70
   3   1   8  601.24   22.60
  -3   1  -8  581.74   21.30
  10  -2  -8   19.10    6.10
   8  -2  -8  709.93   23.20
   6  -2  -8  116.89    7.90
   6  -2  -8  112.29   10.20
  -6   2   8  117.89    8.90
   6   2  -8  120.89    8.40
  -4  -2   8  116.49    8.30
   4  -2  -8  118.19    7.90
  -4   2   8   98.39    9.50
   4   2  -8  104.19    7.70
   2  -2  -8  337.67   13.90
  -2  -2   8  295.17   13.80
  -2   2   8  296.07   14.00
   2   2  -8  346.07   14.10
   0  -2   8 1227.88   32.50
   0  -2  -8 1209.08   31.10
   0   2   8 1144.49   31.20
   0   2  -8 1194.78   30.30
  -2  -2  -8   58.59    8.40
   2  -2   8   59.89    8.80
  -2   2  -8   56.59    8.20
   2   2   8   49.40    7.70
   4  -2   8   38.10    7.90
  -4  -2  -8   21.50    5.90
   4   2   8   32.20    6.80
  -4   2  -8   29.60    6.60
   9  -3  -8   22.50    6.10
   7  -3  -8   30.20    6.20
  -7   3   8   33.30    6.20
   7   3  -8   39.50    6.40
   5  -3  -8  719.63   21.50
  -5  -3   8  770.32   22.00
   5  -3  -8  743.63   20.40
  -5   3   8  745.13   23.50
   5   3  -8  755.62   22.10
   3  -3  -8  901.21   23.60
  -3  -3   8  862.01   24.70
   3   3  -8  889.01   24.50
  -3   3   8  863.71   25.60
  -1  -3   8   66.29    8.40
   1  -3  -8   79.99    8.70
  -1   3   8   91.09    9.80
   1   3  -8   91.69    9.70
   1  -3   8   23.80    5.80
  -1  -3  -8   18.70    4.70
  -1   3  -8   27.10    5.70
   1   3   8   16.10    4.50
  -3  -3  -8  882.41   28.50
   3  -3   8  866.61   29.10
   3   3   8  887.21   27.80
  -3   3  -8  860.81   26.90
   8  -4  -8  517.15   20.40
   8   4  -8  502.35   18.70
   6  -4  -8   75.19    9.10
   6   4  -8   80.09    8.40
  -6   4   8   83.59    9.30
  -4  -4   8  431.86   16.10
   4  -4  -8  409.06   15.80
   4  -4  -8  404.26   14.50
   4   4  -8  391.76   15.70
  -4   4   8  416.36   16.80
   2  -4  -8  281.67   12.60
  -2  -4   8  264.87   13.10
   2   4  -8  245.38   12.40
  -2   4   8  272.87   13.70
   0  -4   8  905.61   27.40
   0  -4  -8  870.71   25.40
   0   4  -8  907.11   25.90
   0   4   8  883.01   26.50
  -2  -4  -8    8.90    4.00
   2  -4   8    4.70    3.20
  -2   4  -8    2.20    3.20
   2   4   8    9.40    4.20
   9  -5  -8    0.70    3.70
   7  -5  -8   56.39    8.20
  -7   5   8   41.80    7.40
   7   5  -8   36.20    6.50
   5  -5  -8 1113.99   29.50
  -5  -5   8 1122.49   27.60
   5   5  -8 1090.79   28.60
  -5   5   8 1088.49   29.90
   3  -5  -8  648.94   19.50
   3  -5  -8  681.53   21.10
  -3  -5   8  684.63   21.70
  -3   5   8  677.93   22.40
   3   5  -8  688.13   21.80
  -1  -5   8    3.40    2.60
   1  -5  -8    0.50    2.20
   1   5  -8    0.00    1.80
  -1   5   8    0.10    2.10
  -1  -5  -8    0.80    2.70
   1  -5   8    0.80    2.70
   1   5   8    4.40    3.20
  -1   5  -8    1.40    2.60
  -3  -5  -8 1139.29   32.90
   3  -5   8 1102.49   33.50
   3   5   8 1108.29   31.60
  -3   5  -8 1128.09   31.50
   8  -6  -8  366.26   17.40
  -8   6   8  365.86   17.90
   8   6  -8  350.86   16.20
   6  -6  -8   54.49    7.80
   6   6  -8   55.09    8.00
  -6   6   8   52.79    8.10
   4  -6  -8  249.97   11.20
  -4  -6   8  249.68   12.10
   4  -6  -8  283.47   14.00
  -4   6   8  242.78   13.60
   4   6  -8  271.87   13.20
   2  -6  -8  175.68   10.40
   2  -6  -8  161.98    9.70
  -2  -6   8  160.58   10.40
   2   6  -8  171.58   10.70
  -2   6   8  186.88   11.40
   0  -6  -8  716.83   22.80
   0  -6   8  721.53   24.10
   0   6  -8  748.63   23.40
   0   6   8  703.73   23.60
  -2  -6  -8   31.40    6.70
   2  -6   8   23.70    5.80
   2   6   8   19.90    5.40
  -2   6  -8   36.30    6.90
   9  -7  -8   13.90    6.00
   9   7  -8   16.30    5.40
   7  -7  -8    0.80    3.30
  -7   7   8    1.80    3.40
   7   7  -8    0.00    2.60
   5  -7  -8  515.75   19.50
  -5   7   8  533.35   20.60
   5   7  -8  524.75   19.40
   3  -7  -8  585.94   18.40
   3  -7  -8  585.34   20.00
  -3  -7   8  558.64   19.30
   3   7  -8  547.45   19.70
  -3   7   8  584.74   21.60
   1  -7  -8    5.50    3.30
   1  -7  -8   13.10    4.20
  -1  -7   8    7.10    3.10
   1   7  -8    4.10    3.30
  -1   7   8   16.20    4.70
   1  -7   8    4.70    3.40
  -1  -7  -8    0.00    2.30
   1   7   8    2.60    3.20
  -1   7  -8    1.40    2.80
  -3  -7  -8  564.84   24.90
   3  -7   8  630.44   24.50
   8  -8  -8  456.65   20.10
  -8   8   8  458.35   20.50
   8   8  -8  456.25   19.30
   6  -8  -8   66.69    9.30
  -6   8   8   67.79    9.70
   6   8  -8   65.59    8.90
  -4  -8   8   51.19    6.80
   4  -8  -8   60.79    8.40
   4   8  -8   50.69    7.60
  -4   8   8   54.29    8.00
  -2  -8   8  172.98   10.90
   2  -8  -8  182.78   10.30
   2  -8  -8  188.48   11.50
  -2   8   8  179.08   11.70
   2   8  -8  166.08   10.90
   0  -8  -8  786.12   24.50
   0  -8  -8  729.93   24.10
   0  -8   8  759.82   25.30
   0   8   8  748.53   24.80
   0   8  -8  782.22   24.20
  -2  -8  -8   89.59   10.90
   2  -8   8   77.09    9.70
  -2   8  -8   65.29    9.50
   2   8   8   89.29   10.20
  -2   8  -8   85.79   10.10
   7  -9  -8   36.00    7.10
   7   9  -8   35.70    6.80
  -7   9   8   35.10    7.20
   5  -9  -8  307.27   15.60
  -5   9   8  295.57   15.70
   5   9  -8  320.77   15.70
  -3  -9   8  358.56   15.80
   3  -9  -8  363.36   16.60
   3  -9  -8  362.56   14.20
   3   9  -8  407.46   17.20
  -3   9   8  374.06   17.40
  -1  -9   8   66.99    8.80
   1  -9  -8   64.69    8.80
   1  -9  -8   68.09    8.30
   1   9  -8   58.29    8.40
  -1   9   8   46.90    7.80
  -1  -9  -8    0.00    2.30
  -1  -9  -8    2.80    3.40
   1   9   8    0.60    2.90
  -1   9  -8    0.00    2.50
  -1   9  -8    0.10    3.60
   8 -10  -8  829.82   33.00
   8  10  -8  838.82   28.20
  -8  10   8  816.52   29.10
   6 -10  -8   25.90    6.10
  -6  10   8   22.20    6.10
   6  10  -8   21.50    5.60
   4 -10  -8    0.00    2.10
  -4  10   8    3.50    3.10
   4  10  -8    5.10    3.40
   2 -10  -8   95.49    9.70
   2 -10  -8   94.99   10.80
  -2 -10   8  117.69   11.30
   2  10  -8  110.69   11.60
  -2  10   8  108.49   11.50
   0 -10  -8 1207.78   33.80
   0 -10  -8 1189.48   31.50
   0  10  -8 1258.87   33.20
   0  10  -8 1216.28   34.40
   0  10   8 1221.78   33.80
  -2 -10  -8    3.70    3.80
  -2 -10  -8    0.00    3.10
   2  10   8    0.00    3.40
  -2  10  -8    1.80    3.80
   7 -11  -8  147.89   15.00
  -7  11   8  115.49   12.80
   7  11  -8  126.09   12.70
   5 -11  -8  375.76   18.70
   5  11  -8  400.46   18.60
  -5  11   8  401.46   18.90
  -3 -11   8  304.87   14.50
   3 -11  -8  319.47   16.50
  -3  11   8  288.87   15.80
   3  11  -8  321.37   16.10
   1 -11  -8  135.49   13.40
  -1 -11   8  137.49   10.60
   1 -11  -8  102.49   10.30
   1  11  -8  118.69   11.80
   1  11  -8  121.59   12.40
  -1  11   8  143.89   13.70
  -1 -11  -8    0.40    3.20
  -1 -11  -8    1.80    3.20
  -1  11  -8    3.30    3.70
   1  11   8    0.50    2.80
  -1  11  -8    0.70    3.40
   6 -12  -8   56.19    9.60
   6  12  -8   51.29    8.60
  -6  12   8   52.39    8.90
   4 -12  -8  137.79   13.80
   4  12  -8  146.29   14.20
  -4  12   8  114.29   12.00
  -2 -12   8  186.38   12.00
   2 -12  -8  168.18   12.50
   2  12  -8  168.58   11.90
  -2  12   8  181.08   12.70
   0 -12  -8  774.62   24.90
   0 -12  -8  767.32   27.20
   0  12   8  795.02   24.90
   0  12  -8  799.32   27.80
   0  12  -8  776.12   25.80
   0  12   8  811.42   27.40
   5 -13  -8  366.46   18.80
  -5  13   8  356.06   18.80
   3 -13  -8  453.35   20.20
   3  13  -8  423.16   19.30
  -3  13   8  422.96   20.00
   1 -13  -8   59.99    9.10
   1  13  -8   53.59    8.30
   1  13  -8   71.29    9.60
  -1  13   8   63.69    9.50
  -1  13   8   70.59    9.00
   4 -14  -8  146.09   14.30
  -4  14   8  136.69   13.50
   2 -14  -8   84.79   11.10
   2  14  -8   98.29   12.10
   2  14  -8   70.99    9.80
  -2  14   8  101.19   11.70
   0  14   8  377.06   18.40
   0  14   8  369.26   17.30
   3  15  -8  262.07   18.10
   1  15  -8    6.90    4.60
   1  15  -8    4.90    3.70
  -6   0   9  754.92   24.00
   6   0  -9  720.73   22.10
   4   0  -9  392.96   16.00
  -4   0   9  381.46   16.90
   2   0  -9   14.80    4.50
  -2   0   9   27.90    5.90
   0   0   9   20.30    5.50
   0   0  -9   18.50    5.10
  -2   0  -9  806.02   27.50
   2   0   9  879.91   29.10
   7   1  -9   34.20    6.20
   5  -1  -9  127.89    9.00
  -5  -1   9  152.48   10.60
  -5   1   9  151.98   10.60
   5   1  -9  158.88   10.20
  -3  -1   9  175.18   11.30
   3  -1  -9  182.28   10.80
   3   1  -9  184.58   11.20
  -3   1   9  177.98   11.50
   1  -1  -9  782.52   24.60
  -1  -1   9  793.32   26.20
  -1   1   9  800.22   26.20
   1   1  -9  793.32   25.00
   1  -1   9    1.50    3.50
  -1  -1  -9    1.70    3.70
   1   1   9    5.30    4.00
  -1   1  -9    2.60    3.00
   6  -2  -9  632.34   20.30
  -6   2   9  627.84   22.50
   6   2  -9  622.84   20.80
  -4  -2   9  367.26   16.20
   4  -2  -9  370.06   15.30
   4   2  -9  400.26   16.40
  -4   2   9  362.36   16.50
  -2  -2   9   15.70    4.90
   2  -2  -9   15.30    4.70
  -2   2   9    8.10    3.70
   2   2  -9   15.50    4.50
   0  -2  -9    1.00    2.10
   0  -2   9    9.50    4.50
   0   2   9    0.70    3.10
   0   2  -9    0.00    3.10
  -2  -2  -9  817.72   27.20
   2  -2   9  756.72   27.50
   2   2   9  832.52   28.00
  -2   2  -9  802.52   26.80
   7   3  -9   68.99    8.60
  -7   3   9   54.29    8.60
   5  -3  -9   65.39    7.60
  -5  -3   9   83.29    9.50
  -5   3   9   64.29    8.60
   5   3  -9   58.69    7.70
  -3  -3   9  107.59   11.30
   3  -3  -9  114.89   10.70
   3   3  -9  105.39   10.60
  -3   3   9  108.19   12.00
   1  -3  -9 1012.30   28.70
  -1  -3   9 1019.50   30.40
  -1   3   9 1020.60   30.30
   1   3  -9 1005.90   28.90
  -1  -3  -9   36.20    7.10
   1  -3   9   47.70    8.30
  -1   3  -9   39.80    7.30
   1   3   9   40.00    7.80
   8   4  -9    2.40    3.10
  -6   4   9  224.38   13.70
   6   4  -9  259.27   13.40
   4  -4  -9  635.94   20.40
  -4  -4   9  643.44   21.90
  -4   4   9  649.34   23.00
   4   4  -9  633.24   22.00
  -2  -4   9   80.19   10.10
   2  -4  -9   86.09    9.60
  -2   4   9   78.19    9.70
   2   4  -9   73.89    9.10
   0  -4  -9    1.00    2.70
   0  -4   9    3.10    3.20
   0   4   9    0.00    2.70
   0   4  -9    4.30    3.60
   2  -4   9  485.65   22.30
   2   4   9  569.84   22.70
  -2   4  -9  538.15   21.70
   7  -5  -9   94.29   10.60
  -7   5   9  115.59   12.30
   7   5  -9   80.49    9.60
  -5  -5   9  133.59   10.30
  -5   5   9  121.29   12.00
   5   5  -9  117.99   11.30
  -3  -5   9  228.58   12.80
   3  -5  -9  202.58   11.60
   3   5  -9  233.08   12.90
  -3   5   9  197.58   12.60
  -1  -5   9  766.22   26.20
   1  -5  -9  802.22   25.10
  -1   5   9  816.52   27.00
   1   5  -9  823.32   25.90
  -1  -5  -9  125.19   12.90
   1  -5   9  138.99   13.90
  -1   5  -9  158.48   11.50
   1   5   9  147.99   14.10
   8  -6  -9    0.40    4.00
   8   6  -9    0.00    3.20
   6  -6  -9  259.07   14.30
  -6   6   9  243.88   14.40
   6   6  -9  251.57   13.80
   4  -6  -9  534.15   18.30
  -4  -6   9  526.15   19.60
   4   6  -9  492.35   19.80
  -4   6   9  534.65   21.40
  -2  -6   9  140.69   10.50
   2  -6  -9  144.79    9.80
   2   6  -9  132.59   12.50
  -2   6   9  127.19   12.50
   0  -6   9    1.80    3.00
   0  -6  -9    2.10    2.90
   0   6  -9    0.20    3.10
   0   6   9    4.10    4.00
   2   6   9  406.46   19.30
   7  -7  -9   24.00    6.60
  -7   7   9   14.80    5.50
   7   7  -9   14.40    5.40
   5  -7  -9   77.79   10.30
   5   7  -9   75.99    9.50
  -5   7   9   83.89   10.80
  -3  -7   9  186.68   11.80
   3  -7  -9  175.68   10.70
  -3   7   9  182.88   12.80
   3   7  -9  175.18   11.80
  -1  -7   9  749.82   26.00
   1  -7  -9  756.02   24.50
   1   7  -9  810.72   25.70
  -1   7   9  782.62   26.70
  -1  -7  -9    9.00    3.90
   1  -7   9   10.20    4.50
  -1   7  -9   15.40    5.40
   1   7   9   11.30    4.70
  -8   8   9   80.09   11.00
   6  -8  -9  612.14   23.10
  -6   8   9  582.24   22.90
   6   8  -9  545.65   21.40
   4  -8  -9  225.08   13.60
  -4  -8   9  222.38   12.60
   4   8  -9  236.08   13.60
  -4   8   9  215.48   14.00
  -2  -8   9   17.20    5.10
   2  -8  -9   23.90    5.50
  -2   8   9   24.70    6.00
   2   8  -9   10.30    4.40
   0  -8   9    3.20    3.40
   0  -8  -9    0.90    2.80
   0   8  -9    2.50    3.30
   0   8   9    0.70    3.30
   7  -9  -9   18.80    6.20
  -7   9   9   23.90    6.40
   7   9  -9   10.70    5.00
   5  -9  -9   81.09   10.20
  -5   9   9  114.59   12.70
   5   9  -9  116.39   12.20
   3  -9  -9  108.69   11.70
  -3  -9   9  112.89   11.60
   3  -9  -9  121.89   11.00
  -3   9   9   89.59   10.90
   3   9  -9  108.09   12.00
  -1  -9   9  626.74   23.50
   1  -9  -9  611.34   22.50
  -1   9   9  598.34   24.00
   1   9  -9  653.03   24.00
   1   9   9    0.00    3.40
  -1   9  -9    4.20    4.00
   6 -10  -9  363.56   18.50
  -6  10   9  345.07   18.40
   6  10  -9  380.36   18.60
   4 -10  -9  286.97   16.00
   4  10  -9  306.37   16.50
  -4  10   9  295.07   16.50
   2 -10  -9    6.40    3.30
  -2 -10   9   10.20    4.60
   2 -10  -9   11.40    5.10
  -2  10   9    0.00    3.00
   2  10  -9    6.90    4.20
   0 -10   9    1.40    3.60
   0 -10  -9    0.00    2.90
   0  10   9    0.00    3.30
   0  10  -9    0.00    3.30
   5 -11  -9   70.79   10.10
   5  11  -9  101.89   11.80
  -5  11   9   86.29   11.60
   3 -11  -9   31.80    6.90
  -3  11   9   36.30    7.40
   3  11  -9   36.20    7.70
   1 -11  -9  545.95   22.70
   1 -11  -9  547.35   20.80
  -1 -11   9  536.85   22.40
  -1  11   9  532.15   22.80
   1  11  -9  537.75   22.20
   4 -12  -9  285.67   16.90
  -2 -12   9    7.40    4.20
   2 -12  -9   10.00    5.20
  -2  12   9    4.80    4.50
   2  12  -9    3.00    3.90
   6   0 -10  295.87   14.40
  -6   0  10  281.87   15.00
  -4   0  10   61.39    8.80
   4   0 -10   67.19    9.20
   2   0 -10  620.44   22.60
  -2   0  10  633.94   23.90
   0   0  10    0.00    3.20
   0   0 -10    0.00    2.40
   5  -1 -10  447.96   18.30
  -5  -1  10  469.35   19.80
   5   1 -10  457.35   18.40
  -5   1  10  470.05   20.10
  -3  -1  10   17.30    5.10
   3  -1 -10    7.20    4.20
   3   1 -10   11.70    4.40
  -3   1  10    1.60    3.10
  -1  -1  10    0.00    3.00
   1  -1 -10    1.40    3.00
   1   1 -10    0.00    3.30
  -1   1  10    0.00    2.90
  -6   2  10  186.88   13.20
   6   2 -10  178.68   11.70
  -4  -2  10  145.79   13.80
   4  -2 -10  139.59   12.80
  -4   2  10  120.59   12.30
   4   2 -10  137.09   12.40
   2  -2 -10  515.45   20.30
  -2  -2  10  535.05   21.80
   2   2 -10  533.05   21.30
  -2   2  10  490.95   21.20
   0  -2  10   37.40    8.50
   0   2  10   28.30    6.70
   0   2 -10   29.20    7.30
   7   3 -10  270.97   14.80
  -7   3  10  247.28   15.10
   5  -3 -10  296.77   14.30
  -5  -3  10  308.27   15.70
  -5   3  10  276.27   15.60
   5   3 -10  309.27   15.50
  -3  -3  10   65.49    9.40
   3  -3 -10   58.99    8.50
  -3   3  10   51.29    8.00
   3   3 -10   86.29   10.40
  -1  -3  10    3.90    3.60
   1  -3 -10    0.30    2.90
  -1   3  10    2.20    3.50
   1   3 -10    4.50    3.70
  -6   4  10    4.30    3.80
   6   4 -10   12.20    4.90
  -4  -4  10  122.89   12.30
   4  -4 -10  116.59   11.50
   4   4 -10  107.59   11.50
  -4   4  10  116.29   12.90
   2  -4 -10  836.32   26.40
  -2  -4  10  777.12   27.10
   2   4 -10  730.03   25.90
  -2   4  10  757.82   27.30
   7   5 -10  241.28   14.60
  -7   5  10  246.58   15.20
   5   5 -10  109.09   11.50
  -5   5  10  115.89   11.90
   3  -5 -10   42.70    7.10
  -3  -5  10   43.70    7.80
  -3   5  10   49.20    8.20
   3   5 -10   44.20    7.70
   1  -5 -10    2.90    3.40
  -1  -5  10    0.00    3.10
   1   5 -10    3.10    4.00
  -1   5  10    6.20    4.10
  -6   6  10   21.10    6.10
   6   6 -10   18.30    5.50
  -4  -6  10   73.59    9.30
   4  -6 -10   80.99    9.50
  -4   6  10   63.69    9.70
   4   6 -10   74.99   10.20
  -2  -6  10  878.51   29.40
   2  -6 -10  888.41   27.90
  -2   6  10  888.51   29.80
   2   6 -10  895.81   29.10
   5   7 -10  370.66   17.90
  -5   7  10  384.66   19.50
   3  -7 -10  112.09   11.80
  -3  -7  10  100.69   11.10
  -3   7  10   73.49   10.60
   3   7 -10   99.59   11.70
  -4   8  10   59.79   10.50
   2  -8 -10  555.14   21.10
  -2  -8  10  531.45   22.60
  -3  -9  10   11.90    5.10
;
_shelx_hkl_checksum              2977
#END Tags that were not found in dictionaries
loop_
_space_group_symop_operation_xyz
'x, y, z'
'-x, y, -z'
'x+1/2, y+1/2, z'
'-x+1/2, y+1/2, -z'
'-x, -y, -z'
'x, -y, z'
'-x+1/2, -y+1/2, -z'
'x+1/2, -y+1/2, z'
loop_
_atom_site_label
_atom_site_type_symbol
_atom_site_fract_x
_atom_site_fract_y
_atom_site_fract_z
_atom_site_U_iso_or_equiv
_atom_site_adp_type
_atom_site_occupancy
_atom_site_site_symmetry_order
_atom_site_calc_flag
_atom_site_refinement_flags_posn
_atom_site_refinement_flags_adp
_atom_site_refinement_flags_occupancy
_atom_site_disorder_assembly
_atom_site_disorder_group
I1 I 0.0000 0.0000 0.5000 0.01552(8) Uani 1 4 d S T P . .
Tc1 Tc 0.36954(3) 0.0000 0.87061(3) 0.00708(7) Uani 1 2 d S T P . .
O1 O 0.2411(2) -0.09864(9) 0.9904(2) 0.0104(3) Uani 1 1 d . . . . .
O2 O 0.5147(2) -0.09852(9) 1.26213(19) 0.0102(3) Uani 1 1 d . . . . .
C1 C 0.3392(3) -0.12660(12) 1.1669(3) 0.0098(3) Uani 1 1 d . . . . .
C2 C 0.2465(3) -0.19439(13) 1.2638(3) 0.0142(4) Uani 1 1 d . . . . .
H1 H 0.1018 -0.1940 1.1949 0.021 Uiso 1 1 calc R U . . .
H2 H 0.2786 -0.1778 1.4045 0.021 Uiso 1 1 calc R U . . .
H3 H 0.2981 -0.2558 1.2553 0.021 Uiso 1 1 calc R U . . .
loop_
_atom_site_aniso_label
_atom_site_aniso_U_11
_atom_site_aniso_U_22
_atom_site_aniso_U_33
_atom_site_aniso_U_23
_atom_site_aniso_U_13
_atom_site_aniso_U_12
I1 0.01024(13) 0.01990(14) 0.01107(12) 0.000 -0.00271(9) 0.000
Tc1 0.00588(12) 0.00827(11) 0.00646(11) 0.000 0.00142(9) 0.000
O1 0.0092(6) 0.0114(6) 0.0105(6) -0.0002(5) 0.0034(5) -0.0021(5)
O2 0.0092(6) 0.0114(6) 0.0095(6) 0.0011(5) 0.0029(5) -0.0003(5)
C1 0.0093(8) 0.0103(8) 0.0108(8) -0.0012(6) 0.0048(7) 0.0004(6)
C2 0.0141(9) 0.0149(9) 0.0140(8) 0.0029(7) 0.0056(7) -0.0018(8)
loop_
_atom_type_symbol
_atom_type_description
_atom_type_scat_dispersion_real
_atom_type_scat_dispersion_imag
_atom_type_scat_source
O O 0.0106 0.0060 'International Tables Vol C Tables 4.2.6.8 and 6.1.1.4'
H H 0.0000 0.0000 'International Tables Vol C Tables 4.2.6.8 and 6.1.1.4'
Tc Tc -1.4390 0.7593 'International Tables Vol C Tables 4.2.6.8 and 6.1.1.4'
I I -0.4742 1.8119 'International Tables Vol C Tables 4.2.6.8 and 6.1.1.4'
C C 0.0033 0.0016 'International Tables Vol C Tables 4.2.6.8 and 6.1.1.4'
loop_
_geom_angle_atom_site_label_1
_geom_angle_atom_site_label_2
_geom_angle_atom_site_label_3
_geom_angle
_geom_angle_site_symmetry_1
_geom_angle_site_symmetry_3
Tc1 I1 Tc1 180.0 5_556 .
O1 Tc1 O1 88.82(7) . 6
O1 Tc1 O2 91.20(5) . 2_657
O1 Tc1 O2 177.10(6) 6 2_657
O1 Tc1 O2 177.10(6) . 5_657
O1 Tc1 O2 91.20(5) 6 5_657
O2 Tc1 O2 88.64(7) 2_657 5_657
O1 Tc1 Tc1 91.47(4) . 5_657
O1 Tc1 Tc1 91.47(4) 6 5_657
O2 Tc1 Tc1 91.42(4) 2_657 5_657
O2 Tc1 Tc1 91.42(4) 5_657 5_657
O1 Tc1 I1 88.86(4) . .
O1 Tc1 I1 88.86(4) 6 .
O2 Tc1 I1 88.24(4) 2_657 .
O2 Tc1 I1 88.24(4) 5_657 .
Tc1 Tc1 I1 179.534(14) 5_657 .
C1 O1 Tc1 117.73(12) . .
C1 O2 Tc1 117.86(12) . 5_657
O2 C1 O1 121.41(17) . .
O2 C1 C2 119.22(17) . .
O1 C1 C2 119.38(17) . .
loop_
_geom_bond_atom_site_label_1
_geom_bond_atom_site_label_2
_geom_bond_distance
_geom_bond_site_symmetry_2
I1 Tc1 3.0114(3) 5_556
I1 Tc1 3.0114(3) .
Tc1 O1 2.0559(13) .
Tc1 O1 2.0559(13) 6
Tc1 O2 2.0566(13) 2_657
Tc1 O2 2.0566(13) 5_657
Tc1 Tc1 2.1146(4) 5_657
O1 C1 1.274(2) .
O2 C1 1.270(2) .
O2 Tc1 2.0565(13) 5_657
C1 C2 1.495(3) .
