#------------------------------------------------------------------------------
#$Date: 2016-02-18 17:37:37 +0200 (Thu, 18 Feb 2016) $
#$Revision: 176729 $
#$URL: svn://www.crystallography.net/cod/cif/1/51/85/1518591.cif $
#------------------------------------------------------------------------------
#
# This file is available in the Crystallography Open Database (COD),
# http://www.crystallography.net/
#
# All data on this site have been placed in the public domain by the
# contributors.
#
data_1518591
loop_
_publ_author_name
'Seki, Tomohiro'
'Ozaki, Taichi'
'Okura, Takuma'
'Asakura, Kiyotaka'
'Sakon, Aya'
'Uekusa, Hidehiro'
'Ito, Hajime'
_publ_section_title
;
 Interconvertible multiple photoluminescence color of a gold(i) isocyanide
 complex in the solid state: solvent-induced blue-shifted and
 mechano-responsive red-shifted photoluminescence
;
_journal_issue                   4
_journal_name_full               'Chem. Sci.'
_journal_page_first              2187
_journal_paper_doi               10.1039/C4SC03960B
_journal_volume                  6
_journal_year                    2015
_chemical_formula_moiety         'C18 H4 Au2 F8 N4'
_chemical_formula_sum            'C18 H4 Au2 F8 N4'
_chemical_formula_weight         822.18
_chemical_name_common            Au_G
_space_group_crystal_system      triclinic
_space_group_IT_number           2
_space_group_name_Hall           '-P 1'
_space_group_name_H-M_alt        'P -1'
_symmetry_cell_setting           triclinic
_symmetry_Int_Tables_number      2
_symmetry_space_group_name_Hall  '-P 1'
_symmetry_space_group_name_H-M   'P -1'
_atom_sites_solution_hydrogens   geom
_audit_creation_method           SHELXL-2014
_audit_update_record
;
2014-11-25 deposited with the CCDC.
2015-01-21 downloaded from the CCDC.
;
_cell_angle_alpha                107.689(4)
_cell_angle_beta                 92.505(5)
_cell_angle_gamma                100.205(5)
_cell_formula_units_Z            1
_cell_length_a                   3.5707(3)
_cell_length_b                   10.3087(10)
_cell_length_c                   14.2742(11)
_cell_measurement_reflns_used    5156
_cell_measurement_temperature    173(2)
_cell_measurement_theta_max      68.208
_cell_measurement_theta_min      3.268
_cell_volume                     489.99(7)
_computing_cell_refinement       RAPID-AUTO
_computing_data_collection       RAPID-AUTO
_computing_data_reduction        RAPID-AUTO
_computing_structure_refinement  'SHELXL-2014 (Sheldrick, 2014)'
_computing_structure_solution    'SHELXL-97 (Sheldrick, 1990)'
_diffrn_ambient_pressure         101.3
_diffrn_ambient_temperature      173(2)
_diffrn_detector_area_resol_mean 10.0
_diffrn_measured_fraction_theta_full 0.977
_diffrn_measured_fraction_theta_max 0.972
_diffrn_measurement_device_type  'RIGAKU R-AXIS RAPID-II'
_diffrn_measurement_method       \w-scan
_diffrn_radiation_probe          x-ray
_diffrn_radiation_type           CuK\a
_diffrn_radiation_wavelength     1.54186
_diffrn_reflns_av_R_equivalents  0.1077
_diffrn_reflns_av_unetI/netI     0.1248
_diffrn_reflns_Laue_measured_fraction_full 0.977
_diffrn_reflns_Laue_measured_fraction_max 0.972
_diffrn_reflns_limit_h_max       4
_diffrn_reflns_limit_h_min       -4
_diffrn_reflns_limit_k_max       12
_diffrn_reflns_limit_k_min       -12
_diffrn_reflns_limit_l_max       17
_diffrn_reflns_limit_l_min       -17
_diffrn_reflns_number            5156
_diffrn_reflns_point_group_measured_fraction_full 0.977
_diffrn_reflns_point_group_measured_fraction_max 0.972
_diffrn_reflns_theta_full        67.686
_diffrn_reflns_theta_max         68.208
_diffrn_reflns_theta_min         3.268
_diffrn_source                   'fine-focus rotating anode x-ray'
_diffrn_source_type              RIGAKU
_exptl_absorpt_coefficient_mu    28.592
_exptl_absorpt_correction_T_max  0.763
_exptl_absorpt_correction_T_min  0.532
_exptl_absorpt_correction_type   multi-scan
_exptl_absorpt_process_details   'abscor Higashi RIGAKU'
_exptl_crystal_colour            'pale yellow'
_exptl_crystal_density_diffrn    2.786
_exptl_crystal_description       needle
_exptl_crystal_F_000             370
_exptl_crystal_preparation       Luminescent
_exptl_crystal_size_max          0.032
_exptl_crystal_size_mid          0.029
_exptl_crystal_size_min          0.010
_refine_diff_density_max         2.763
_refine_diff_density_min         -3.642
_refine_diff_density_rms         0.436
_refine_ls_extinction_method     none
_refine_ls_goodness_of_fit_ref   1.114
_refine_ls_hydrogen_treatment    constr
_refine_ls_matrix_type           full
_refine_ls_number_parameters     145
_refine_ls_number_reflns         1750
_refine_ls_number_restraints     43
_refine_ls_restrained_S_all      1.102
_refine_ls_R_factor_all          0.1134
_refine_ls_R_factor_gt           0.1008
_refine_ls_shift/su_max          0.000
_refine_ls_shift/su_mean         0.000
_refine_ls_structure_factor_coef Fsqd
_refine_ls_weighting_details
'w=1/[\s^2^(Fo^2^)+(0.1271P)^2^+16.2633P] where P=(Fo^2^+2Fc^2^)/3'
_refine_ls_weighting_scheme      calc
_refine_ls_wR_factor_gt          0.2546
_refine_ls_wR_factor_ref         0.2713
_reflns_Friedel_coverage         0.000
_reflns_number_gt                1344
_reflns_number_total             1750
_reflns_threshold_expression     'I > 2\s(I)'
_cod_data_source_file            c4sc03960b2.cif
_cod_data_source_block           shelx_sq
_cod_depositor_comments
'Adding full bibliography for 1518590--1518592.cif.'
_cod_original_cell_volume        489.99(8)
_cod_database_code               1518591
#BEGIN Tags that were not found in dictionaries:
_shelx_space_group_comment
;
The symmetry employed for this shelxl refinement is uniquely defined
by the following loop, which should always be used as a source of
symmetry information in preference to the above space-group names.
They are only intended as comments.
;
_shelx_estimated_absorpt_t_min   0.461
_shelx_estimated_absorpt_t_max   0.763
_shelxl_version_number           2014-1
_shelx_res_file
;
TITL Au_G
CELL  1.541865  3.57071 10.30870 14.27416 107.68890 92.50490 100.20470
ZERR     1.00   0.00031  0.00103  0.00108   0.00440  0.00450   0.00510
LATT   1
SFAC  C    H    N      F    AU
UNIT  18   4    4      8    2
MERG   2
OMIT     0.00 180.00
FMAP   2
PLAN   25
SIZE 0.032 0.029 0.010
TEMP -100
CONF
HTAB
BOND $H
DELU
DFIX 1.38 0.01 C14 C15
DFIX 1.38 0.01 C14 C16
DFIX 2.45 0.01 C15 C16
DFIX 2.40 0.01 N13 C15
DFIX 2.40 0.01 N13 C16
ACTA
L.S. 5 0   10
ABIN
WGHT    0.127100   16.263300
FVAR       0.21832
C1    1    0.830567    0.213518    0.635084    11.00000    0.03187    0.05258 =
         0.02227    0.00994   -0.00841    0.00241
F2    4    0.657228    0.078435    0.595031    11.00000    0.06601    0.04281 =
         0.05727    0.00447   -0.00030   -0.00447
C3    1    0.815381    0.277572    0.739291    11.00000    0.04303    0.06574 =
         0.02204    0.01900   -0.00611   -0.01851
F4    4    0.655389    0.196416    0.792044    11.00000    0.09528    0.09579 =
         0.04994    0.05561    0.01838    0.01381
N5    3    0.934892    0.407575    0.786413    11.00000    0.05540    0.07045 =
         0.03257    0.00157    0.03353    0.00324
C6    1    1.122848    0.482523    0.735773    11.00000    0.07496    0.05118 =
         0.02824    0.00894   -0.01474   -0.02862
F7    4    1.258969    0.616835    0.782331    11.00000    0.09272    0.04757 =
         0.06545    0.00123   -0.00302    0.00790
C8    1    1.149018    0.424721    0.632116    11.00000    0.05986    0.05601 =
         0.03140    0.01962    0.00788    0.01299
F9    4    1.322608    0.513672    0.586063    11.00000    0.06243    0.05589 =
         0.04954    0.02502    0.01710    0.00255
C10   1    0.996249    0.285793    0.577518    11.00000    0.03837    0.05180 =
         0.02945    0.01675   -0.00606    0.01207
AU11  5    0.999513    0.211071    0.431654    11.00000    0.05471    0.05118 =
         0.03203    0.01323    0.00516    0.00644
C12   1    1.007192    0.136165    0.295695    11.00000    0.04329    0.08221 =
         0.03339    0.01289   -0.00081   -0.00061
N13   3    0.980172    0.092029    0.201423    11.00000    0.03843    0.04957 =
         0.04150   -0.00044    0.01430    0.01355
C14   1    0.986983    0.041528    0.097744    11.00000    0.01978    0.06784 =
         0.03542    0.00632   -0.00427    0.00963
C15   1    0.888464   -0.100429    0.051449    11.00000    0.05175    0.06721 =
         0.02206   -0.00209   -0.01201    0.00861
AFIX  43
H15   2    0.824009   -0.165728    0.085821    11.00000   -1.20000
AFIX   0
C16   1    1.106642    0.137481    0.049669    11.00000    0.03475    0.07351 =
         0.04721    0.00983    0.01318    0.00650
AFIX  43
H16   2    1.188485    0.232500    0.087905    11.00000   -1.20000
AFIX   0
HKLF    4

REM  Au_G
REM R1 =  0.1008 for    1344 Fo > 4sig(Fo)  and  0.1134 for all    1750 data
REM    145 parameters refined using     43 restraints

END

WGHT      0.1271     16.2627

REM Instructions for potential hydrogen bonds
EQIV $1 -x+1, -y, -z+1
HTAB C15 F4_$1

REM Highest difference peak  2.763,  deepest hole -3.642,  1-sigma level  0.436
Q1    1   0.9050  0.0837  0.3995  11.00000  0.05    2.76
Q2    1   1.0775  0.3375  0.4687  11.00000  0.05    2.72
Q3    1   0.8751  0.1257  0.4647  11.00000  0.05    2.55
Q4    1   0.6784  0.2039  0.4187  11.00000  0.05    2.42
Q5    1   0.6071  0.1763  0.4078  11.00000  0.05    2.35
Q6    1   0.8951  0.1597  0.3416  11.00000  0.05    2.29
Q7    1   1.1199  0.2966  0.3989  11.00000  0.05    2.22
Q8    1   1.3860  0.3996  0.5819  11.00000  0.05    2.13
Q9    1   0.7725  0.2219  0.5039  11.00000  0.05    2.00
Q10   1   0.8924  0.1712  0.5600  11.00000  0.05    1.87
Q11   1   1.0607  0.2561  0.5214  11.00000  0.05    1.77
Q12   1   1.3500  0.3868  0.7262  11.00000  0.05    1.75
Q13   1   1.1452  0.0813  0.3939  11.00000  0.05    1.70
Q14   1   0.6302  0.1559  0.5438  11.00000  0.05    1.42
Q15   1   1.2523  0.1992  0.3587  11.00000  0.05    1.39
Q16   1   0.6385 -0.0439  0.5499  11.00000  0.05    1.32
Q17   1   1.1211  0.4603  0.6781  11.00000  0.05    1.26
Q18   1   1.1595  0.5635  0.5207  11.00000  0.05    1.23
Q19   1   1.0077  0.3170  0.6198  11.00000  0.05    1.18
Q20   1   1.0298  0.2712  0.2997  11.00000  0.05    1.12
Q21   1   0.3259  0.0116  0.6425  11.00000  0.05    1.12
Q22   1   0.9506  0.1238  0.2642  11.00000  0.05    1.04
Q23   1   0.5392  0.1034  0.6816  11.00000  0.05    1.01
Q24   1   1.0766  0.5394  0.5792  11.00000  0.05    1.01
Q25   1   0.9516 -0.0059  0.2545  11.00000  0.05    0.99
;
_shelx_res_checksum              32208
_shelx_hkl_file
;
   0   0   1  997.17  122.71
   0   0   1  998.11  101.36
   0   0   1 1122.39  142.90
   0   0   1  916.16   74.92
   0   0   1 1057.91  102.77
   0   0  -1  961.07  109.81
   0   0  -1 1029.03  105.35
   0   0  -1 1005.19  101.62
   0   0  -1  964.15  108.75
   0   0   2  179.77    9.18
   0   0   2  199.17   24.80
   0   0   2  177.02   40.37
   0   0   2  192.45   39.37
   0   0   2  197.02   27.07
   0   0  -2  219.88   51.21
   0   0  -2  168.23   20.28
   0   0  -2  199.89   36.81
   0   0   3   49.48   10.72
   0   0   3   28.06    8.03
   0   0   3   44.49   17.63
   0   0   3   26.20    6.72
   0   0  -3   33.49    8.56
   0   0   4    3.91    3.70
   0   0   4    4.31    8.33
   0   0   4    5.69    3.84
   0   0  -4    6.76    6.78
   0   0   5  778.46  148.93
   0   0   5  833.27  158.93
   0   0   5  890.53  183.30
   0   0  -5  829.57  108.11
   0   0   6 1012.54  144.81
   0   0   6  993.39  180.35
   0   0   6  940.48  171.31
   0   0  -6 1051.58  134.14
   0   0   7  359.73   70.09
   0   0   7  312.64   36.87
   0   0  -7  336.43   52.98
   0   0  -7  309.93   31.16
   0   0   8  425.74   73.01
   0   0   8  395.80   65.02
   0   0  -8  417.10   55.09
   0   0  -8  363.49   34.09
   0   0  -8  421.92   59.90
   0   0   9  181.01   35.52
   0   0   9  176.66   37.44
   0   0  -9  178.92   16.96
   0   0  10    8.01    6.70
   0   0  10   18.28    7.70
   0   0 -10    9.38    2.17
   0   0  11    1.75    1.63
   0   0  11    2.47    2.69
   0   0 -11    0.48    0.91
   0   0  12   18.26    5.07
   0   0  12    7.86    7.08
   0   0 -12   15.45    2.85
   0   0  13   69.40   20.52
   0   0  13  117.44   16.39
   0   0 -13   91.88   14.03
   0   0  14  142.25   18.81
   0   0  14  106.93   24.55
   0   0  15   49.55    7.20
   0   0  15   75.01   10.52
   0   0  16   42.66   13.48
   0  -1  16   19.93    4.13
   0  -1  16   -0.03    3.97
   0  -1  15    5.25    4.90
   0  -1  15    1.21    3.67
   0  -1  14   35.74   12.13
   0  -1  14   12.73    9.75
   0  -1  13   90.39   25.15
   0  -1  13  100.31   27.69
   0  -1  12  111.64   30.28
   0  -1  12  131.19   19.89
   0   1 -11  172.68   14.03
   0  -1  11  214.86   25.07
   0  -1  11  190.09   39.79
   0   1 -10  153.23   11.61
   0  -1  10  220.26   35.02
   0  -1  10  189.73   39.16
   0   1  -9  149.88   16.44
   0   1  -9   99.99    8.64
   0  -1   9  127.32   19.44
   0  -1   9  144.57   16.58
   0   1  -8    5.74    2.96
   0   1  -8    8.56    3.33
   0  -1   8    9.75    6.56
   0  -1   8    4.73    7.44
   0   1  -7   77.94   12.57
   0   1  -7   65.34   12.43
   0  -1   7   71.19   14.33
   0  -1   7   70.61   13.22
   0   1  -6  443.96   53.97
   0   1  -6  386.87   36.96
   0  -1   6  447.04   98.34
   0  -1   6  494.25   87.60
   0  -1   6  443.35   47.98
   0   1  -5  433.38  104.79
   0   1  -5  384.06   48.11
   0  -1   5  365.10   31.58
   0  -1   5  412.11   60.42
   0  -1   5  430.82   52.09
   0  -1   5  344.61   71.36
   0   1  -4  714.63  137.00
   0   1  -4  799.89  126.29
   0  -1   4  778.71  156.78
   0  -1   4  795.83   85.62
   0  -1   4  779.31  120.08
   0  -1   4  809.42  108.74
   0   1  -3  610.03  143.29
   0   1  -3  593.23  118.64
   0  -1   3  516.22  112.01
   0  -1   3  547.24   76.93
   0  -1   3  550.68   82.11
   0  -1   3  562.08   74.02
   0   1  -2   71.89   26.34
   0   1  -2   72.83   22.40
   0  -1   2   80.02   16.55
   0  -1   2   58.37   16.50
   0  -1   2   58.14   11.87
   0  -1   2   54.77   19.37
   0   1  -1   14.99    6.97
   0   1  -1   25.66   13.46
   0   1  -1   21.63    3.87
   0   1  -1   11.75    5.53
   0  -1   1    0.09    6.15
   0  -1   1   19.17    5.90
   0  -1   1   23.64    4.07
   0  -1   1   12.01    7.57
   0   1   0   29.30    5.25
   0   1   0   23.84   11.61
   0   1   0   22.31   14.03
   0   1   0   15.81    6.84
   0   1   0   19.86    8.92
   0  -1   0   14.47    9.09
   0  -1   0   17.30    9.20
   0  -1   0   31.01    6.31
   0  -1   0   21.61    7.21
   0   1   1   73.09   16.27
   0   1   1   62.90   19.28
   0   1   1   65.73    9.17
   0   1   1   53.22   20.93
   0   1   1   91.16   24.88
   0  -1  -1   65.67   23.30
   0  -1  -1   69.95    9.83
   0  -1  -1   79.01   20.02
   0   1   2  650.99  125.61
   0   1   2  439.64  123.95
   0   1   2  599.12   98.00
   0   1   2  634.73  108.01
   0  -1  -2  543.69   91.12
   0  -1  -2  498.24   79.05
   0   1   3  598.82  164.47
   0   1   3  741.69  133.33
   0   1   3  787.08  135.60
   0  -1  -3  738.53  122.15
   0  -1  -3  661.27  165.81
   0   1   4  330.14   67.99
   0   1   4  257.77   73.82
   0   1   4  287.24   36.19
   0  -1  -4  278.67   44.00
   0  -1  -4  347.24   63.16
   0   1   5  354.54   55.17
   0   1   5  453.58   83.31
   0   1   5  419.20   52.49
   0  -1  -5  429.76   52.13
   0  -1  -5  456.28   75.98
   0   1   6   71.30   14.71
   0   1   6   82.80   20.54
   0   1   6   87.24   13.74
   0  -1  -6   78.59   17.80
   0  -1  -6   74.04   10.71
   0   1   7    2.95    2.99
   0   1   7    0.61    1.76
   0   1   7    1.00    1.54
   0  -1  -7    1.01    1.24
   0  -1  -7    0.49    1.12
   0   1   8  145.01   17.90
   0   1   8  182.37   33.39
   0  -1  -8  124.31   12.03
   0  -1  -8  211.39   30.87
   0  -1  -8  138.42   16.82
   0   1   9  145.42   18.88
   0   1   9  199.69   36.14
   0  -1  -9  178.17   29.30
   0   1  10  137.25   16.83
   0   1  10  220.10   36.08
   0  -1 -10  192.54   27.59
   0   1  11  109.62   23.97
   0   1  11  185.05   37.18
   0  -1 -11  144.35   23.91
   0   1  12   62.50   14.09
   0   1  12   91.48   21.67
   0  -1 -12   89.37   16.37
   0   1  13    8.62    5.82
   0   1  13   26.62    9.28
   0  -1 -13   21.81    3.56
   0   1  14    6.88    4.43
   0  -1 -14    4.08    2.25
   0   1  15   23.53    5.01
   0  -2  16   60.95    9.82
   0  -2  16  116.23   24.79
   0  -2  15  107.26   32.55
   0  -2  15  127.14   39.56
   0  -2  14  103.75   33.15
   0  -2  14  114.90   35.79
   0  -2  13   39.58   17.33
   0  -2  13   29.51   16.18
   0  -2  12   16.77    6.71
   0  -2  12   21.88    6.31
   0  -2  11   54.84   12.13
   0  -2  11   78.60   20.73
   0  -2  10  201.17   45.07
   0  -2  10  169.66   23.35
   0   2  -9  384.65   44.51
   0  -2   9  333.17   65.58
   0  -2   9  364.87   49.26
   0   2  -8  516.65   70.21
   0   2  -8  510.93   54.84
   0   2  -8  382.49   38.98
   0  -2   8  387.68   34.51
   0  -2   8  403.66   72.49
   0  -2   8  457.49   88.02
   0   2  -7  242.01   24.81
   0   2  -7  315.91   73.05
   0   2  -7  272.12   48.19
   0  -2   7  262.63   35.56
   0  -2   7  225.95   28.34
   0  -2   7  255.19   22.81
   0  -2   7  193.88   15.64
   0  -2   7  209.46   13.93
   0   2  -6   62.54   29.54
   0   2  -6   68.72   21.30
   0  -2   6   64.64    8.41
   0  -2   6   61.82   22.48
   0  -2   6   74.79   15.38
   0  -2   6   70.15   11.06
   0   2  -5    1.03    6.74
   0   2  -5    5.36    5.15
   0  -2   5    3.97    3.02
   0  -2   5    9.45    5.30
   0  -2   5    0.29    2.55
   0  -2   5    2.64    3.27
   0   2  -4   62.66   24.86
   0   2  -4   57.51   16.03
   0  -2   4   46.11   16.52
   0  -2   4   67.62   23.86
   0  -2   4   78.41   25.96
   0  -2   4   58.21    9.33
   0   2  -3  346.43   52.50
   0   2  -3  313.91   45.80
   0  -2   3  338.38   72.56
   0  -2   3  268.40   42.13
   0  -2   3  324.83   80.77
   0  -2   3  380.74   42.24
   0   2  -2  470.37   99.83
   0   2  -2  592.28  110.67
   0   2  -2  469.29  108.78
   0  -2   2  465.09   72.05
   0  -2   2  356.70  115.85
   0  -2   2  442.48   29.58
   0  -2   2  527.37   90.73
   0   2  -1  820.54   89.22
   0   2  -1  930.10  249.41
   0   2  -1  813.00  100.28
   0   2  -1  864.88  153.19
   0  -2   1  741.48  113.59
   0  -2   1  749.11   92.45
   0  -2   1  749.81   78.61
   0   2   0  331.51   70.55
   0   2   0  410.43  102.66
   0   2   0  389.51   54.71
   0   2   0  422.58  127.66
   0  -2   0  308.97   30.94
   0  -2   0  365.52   77.78
   0  -2   0  338.68   71.11
   0   2   1  227.90   41.81
   0   2   1  214.23   39.46
   0   2   1  237.16   48.52
   0   2   1  169.91   29.79
   0   2   1  200.73   46.42
   0   2   1  255.09   39.33
   0  -2  -1  215.99   53.73
   0  -2  -1  227.57   31.32
   0   2   2   21.47   14.35
   0   2   2   17.55   10.80
   0   2   2   19.11   10.46
   0   2   2   24.64   16.83
   0   2   2   21.72    7.69
   0  -2  -2   13.59    5.12
   0  -2  -2   20.34   13.12
   0   2   3    4.25    7.37
   0   2   3    6.51    2.66
   0   2   3    4.53    5.14
   0   2   3    4.39    5.90
   0   2   3    6.13    4.15
   0  -2  -3    5.08    3.17
   0  -2  -3    6.87    7.53
   0   2   4   70.62   20.09
   0   2   4   89.48   24.55
   0   2   4   67.61   29.90
   0  -2  -4  101.90   12.53
   0  -2  -4   78.14   20.51
   0  -2  -4   88.15   17.13
   0   2   5  238.65   64.06
   0   2   5  287.18   49.81
   0   2   5  211.00   42.41
   0  -2  -5  273.70   34.75
   0  -2  -5  319.64   61.57
   0  -2  -5  259.94   27.71
   0   2   6  324.79   49.92
   0   2   6  434.11   47.55
   0   2   6  304.05   53.72
   0  -2  -6  380.35   41.75
   0  -2  -6  437.12   61.49
   0  -2  -6  373.30   42.26
   0   2   7  262.13   42.09
   0   2   7  210.05   36.28
   0   2   7  223.71   33.83
   0  -2  -7  227.14   23.22
   0  -2  -7  315.11   41.79
   0   2   8  107.06   13.46
   0   2   8  160.20   29.69
   0  -2  -8  115.56   11.46
   0  -2  -8  123.77   15.96
   0   2   9   19.75    7.87
   0   2   9   33.50   12.54
   0  -2  -9   39.46   10.81
   0   2  10    1.78    2.35
   0   2  10    4.37    4.08
   0  -2 -10    4.95    3.58
   0   2  11   38.81   15.67
   0  -2 -11   32.53   11.32
   0   2  12   79.52   13.82
   0  -2 -12  108.67   20.69
   0   2  13   89.46   14.30
   0  -2 -13  121.79   12.82
   0   2  14   65.60   17.45
   0  -2 -14   82.75   12.31
   0   2  15   33.06    8.76
   0   3 -17    3.50    2.52
   0  -3  17    1.19    3.13
   0   3 -16   34.86    5.14
   0  -3  16    2.83    5.08
   0  -3  15   59.45   21.99
   0  -3  15   36.48   11.15
   0  -3  14  137.59   26.36
   0  -3  14  167.79   51.36
   0  -3  13  202.19   36.52
   0  -3  13  180.28   31.46
   0  -3  12  128.47   41.04
   0  -3  12  137.31   41.98
   0  -3  11  158.62   26.30
   0  -3  11  163.58   27.27
   0  -3  10   73.84   21.10
   0  -3  10   40.83   21.06
   0   3  -9    0.59    0.77
   0  -3   9    0.14    0.57
   0  -3   9    0.71    2.41
   0  -3   9   -0.17    1.46
   0   3  -8   47.82    7.44
   0   3  -8   63.05   10.85
   0   3  -8   66.07   25.26
   0  -3   8   52.71   10.83
   0  -3   8   47.75   17.33
   0  -3   8   48.56    6.02
   0   3  -7  267.65   62.19
   0   3  -7  238.68   44.50
   0   3  -7  222.56   27.87
   0  -3   7  229.67   31.14
   0  -3   7  241.33   24.96
   0  -3   7  228.85   23.56
   0  -3   7  205.21   22.30
   0  -3   7  239.09   50.09
   0   3  -6  437.14   58.84
   0   3  -6  490.19   60.21
   0   3  -6  498.08  104.67
   0  -3   6  454.73   40.35
   0  -3   6  459.79   58.05
   0  -3   6  418.04   54.45
   0  -3   6  428.80   56.62
   0   3  -5  586.78   84.01
   0   3  -5  592.69  108.89
   0   3  -5  588.89   82.00
   0  -3   5  610.10  113.30
   0  -3   5  696.50   93.77
   0  -3   5  511.32   60.36
   0  -3   5  533.42   77.48
   0   3  -4  330.74   59.55
   0   3  -4  356.00   79.23
   0   3  -4  381.07   88.92
   0  -3   4  371.07   75.70
   0  -3   4  274.35   72.98
   0  -3   4  332.31   84.94
   0  -3   4  389.89   43.57
   0   3  -3  523.39   61.25
   0   3  -3  545.40  116.72
   0   3  -3  580.76  117.90
   0   3  -3  498.61   95.85
   0  -3   3  534.01   68.88
   0  -3   3  595.44  105.58
   0  -3   3  395.40  113.61
   0   3  -2   58.12   18.44
   0   3  -2   41.81   21.50
   0   3  -2   55.49   18.93
   0   3  -2   35.40   37.04
   0  -3   2   53.16   12.00
   0  -3   2   51.48   15.39
   0  -3   2   46.27    6.74
   0   3  -1  223.99   74.32
   0   3  -1  193.89   61.96
   0   3  -1  183.94   46.68
   0   3  -1  161.40   30.59
   0  -3   1  149.80   24.43
   0  -3   1  198.37   61.10
   0  -3   1  165.48   18.98
   0  -3   1  182.79   24.43
   0   3   0  649.74  112.52
   0   3   0  620.80   79.52
   0   3   0  601.43  135.64
   0   3   0  677.26  172.99
   0  -3   0  642.28  139.40
   0  -3   0  553.26  108.75
   0  -3   0  556.18   73.06
   0  -3   0  690.80  125.63
   0   3   1  378.77   48.94
   0   3   1  443.80   82.72
   0   3   1  367.97   61.69
   0   3   1  409.01  107.38
   0   3   1  317.40   40.74
   0  -3  -1  400.85   63.82
   0  -3  -1  353.99   46.66
   0  -3  -1  460.11   95.35
   0   3   2  767.32  186.25
   0   3   2  766.63  145.95
   0   3   2  710.56  130.17
   0   3   2  671.44  108.13
   0   3   2  774.29   99.11
   0  -3  -2 1094.38  202.04
   0  -3  -2  721.48   88.81
   0   3   3  488.86  110.23
   0   3   3  344.41   56.90
   0   3   3  422.48   55.96
   0   3   3  493.26   58.22
   0   3   3  427.49   75.09
   0  -3  -3  545.73   92.15
   0  -3  -3  464.36   52.52
   0   3   4  137.29   20.92
   0   3   4  152.31   30.60
   0   3   4  128.88   22.12
   0   3   4   73.17   17.74
   0   3   4  144.20   16.42
   0  -3  -4  138.58   18.12
   0  -3  -4  166.38   19.17
   0   3   5    5.73    3.75
   0   3   5    9.40    2.82
   0   3   5    8.83    3.31
   0   3   5   11.29    7.80
   0  -3  -5    8.45    5.10
   0  -3  -5   10.09    3.87
   0  -3  -5    8.24    6.03
   0   3   6   39.56   12.62
   0   3   6   21.17    4.14
   0   3   6   17.40    5.85
   0   3   6   27.70    8.80
   0  -3  -6   18.70    5.17
   0  -3  -6   19.48    4.34
   0  -3  -6   28.61    8.54
   0   3   7  128.96   19.37
   0   3   7   93.12   10.04
   0   3   7  110.19   11.71
   0   3   7  111.55   22.60
   0  -3  -7   98.20   12.93
   0   3   8  271.16   35.10
   0  -3  -8  303.64   35.53
   0   3   9  130.62   19.97
   0  -3  -9  149.90   19.67
   0   3  10  140.50   35.34
   0  -3 -10  163.05   19.97
   0   3  11   63.67   21.72
   0  -3 -11   91.06   12.23
   0   3  12    9.41    8.98
   0  -3 -12   22.46    4.98
   0   3  13    0.58    1.12
   0  -3 -13    0.21    1.97
   0   3  14   13.34    5.68
   0  -3 -14   17.48    3.04
   0   4 -17   66.82   13.14
   0  -4  17   58.69   17.78
   0   4 -16  121.92   25.13
   0  -4  16   82.62   27.42
   0   4 -15    9.13    4.94
   0  -4  15   35.48   11.47
   0  -4  14   28.78   19.56
   0  -4  14   36.67   22.77
   0  -4  13    9.22    5.74
   0  -4  13   10.29    6.34
   0  -4  12    6.00    9.05
   0  -4  12    6.40    7.53
   0  -4  11  342.04   84.32
   0  -4  11  278.84   43.78
   0  -4  10  357.81   87.70
   0  -4  10  329.59   75.21
   0   4  -9  227.12   25.61
   0  -4   9  318.69   56.10
   0  -4   9  230.51   15.67
   0  -4   9  355.35   67.48
   0   4  -8  328.21   40.10
   0   4  -8  375.20   59.62
   0   4  -8  378.30   49.75
   0  -4   8  449.79   82.97
   0  -4   8  323.64   24.87
   0  -4   8  417.68   71.28
   0  -4   8  312.89   34.25
   0   4  -7  236.98   27.33
   0   4  -7  210.47   30.15
   0   4  -7  182.20   27.30
   0  -4   7  226.32   44.30
   0  -4   7  177.51   13.99
   0  -4   7  180.65   25.06
   0  -4   7  206.51   30.61
   0  -4   7  158.09   14.90
   0   4  -6   -0.52    1.57
   0   4  -6    0.16    2.32
   0   4  -6    1.29    2.31
   0  -4   6    0.15    1.44
   0  -4   6   -0.32    1.19
   0  -4   6   -0.04    1.32
   0  -4   6   -0.52    3.05
   0   4  -5  197.12   48.06
   0   4  -5  295.26   47.05
   0   4  -5  163.60   33.24
   0   4  -5  169.17   22.18
   0  -4   5  197.08   35.36
   0  -4   5  206.34   43.11
   0  -4   5  131.96   39.23
   0   4  -4  125.98   16.22
   0   4  -4  143.11   35.18
   0   4  -4  145.77   21.41
   0  -4   4  178.97   21.23
   0  -4   4  135.67   24.16
   0  -4   4  194.19   39.65
   0   4  -3  584.44   82.39
   0   4  -3  566.28   68.33
   0   4  -3  558.78  100.32
   0   4  -3  530.74   93.75
   0  -4   3  599.05   83.45
   0  -4   3  598.06   85.43
   0  -4   3  652.78  115.27
   0   4  -2  767.10  187.88
   0   4  -2  699.17  109.89
   0   4  -2  691.74   93.61
   0   4  -2  781.01  117.26
   0  -4   2  702.84   73.88
   0  -4   2  855.19  164.81
   0  -4   2  769.92  100.79
   0   4  -1  370.53   49.56
   0   4  -1  373.52   46.64
   0   4  -1  393.26   86.51
   0   4  -1  384.24   64.92
   0  -4   1  451.47   81.08
   0  -4   1  407.16   38.95
   0  -4   1  354.96   42.80
   0  -4   1  447.43   90.29
   0   4   0   95.19   24.10
   0   4   0  101.93   19.88
   0   4   0   95.65   14.00
   0   4   0   49.93   18.47
   0   4   0   96.37   32.21
   0  -4   0  105.89   27.75
   0  -4   0  106.03   28.26
   0  -4   0   84.08   12.10
   0  -4   0   96.04   21.57
   0   4   1   64.61   13.39
   0   4   1   76.41   11.65
   0   4   1   67.99   10.13
   0   4   1   98.23   24.96
   0   4   1   92.88   19.12
   0  -4  -1   96.81   13.52
   0  -4  -1   90.71   12.11
   0  -4  -1   94.38   15.59
   0   4   2   37.95    6.84
   0   4   2   50.71   16.22
   0   4   2   40.85    9.11
   0   4   2   24.93   14.41
   0   4   2   29.21   23.60
   0  -4  -2   44.84    9.54
   0  -4  -2   62.60   15.64
   0  -4  -2   45.23   10.53
   0   4   3  229.55   29.42
   0   4   3  258.89   25.29
   0   4   3  297.67   35.85
   0   4   3  217.69   40.19
   0   4   3  269.28   68.21
   0  -4  -3  295.75   55.59
   0  -4  -3  289.63   36.83
   0   4   4  302.83   34.95
   0   4   4  323.17   28.17
   0   4   4  266.28   38.35
   0   4   4  234.17   28.41
   0   4   4  360.26   62.75
   0  -4  -4  440.51   48.46
   0  -4  -4  365.25   45.18
   0   4   5  316.40   66.22
   0   4   5  267.63   52.32
   0  -4  -5  393.72   70.39
   0  -4  -5  297.94   48.85
   0  -4  -5  365.45   54.56
   0   4   6  281.80   34.40
   0   4   6  225.54   24.78
   0  -4  -6  190.98   17.82
   0   4   7  136.46   29.45
   0  -4  -7  152.70   18.14
   0  -4  -7   95.13   15.27
   0   4   8    2.64    3.80
   0  -4  -8    1.40    3.81
   0   4   9    8.90    3.97
   0  -4  -9   12.31    7.17
   0   4  10   27.60    7.14
   0  -4 -10   42.90   12.11
   0   4  11   65.62   21.43
   0  -4 -11   78.39   19.35
   0   4  12   75.95   11.51
   0  -4 -12  134.86   22.75
   0   4  13   45.25   13.56
   0  -4 -13   81.88    8.93
   0   5 -17    3.22    3.17
   0  -5  17    3.32    4.07
   0   5 -16   25.60    9.21
   0  -5  16   27.39    6.96
   0   5 -15   91.48   20.75
   0  -5  15   85.37   27.98
   0   5 -14  216.59   28.83
   0  -5  14  182.20   52.12
   0   5 -13   56.37   12.92
   0  -5  13   85.57   17.32
   0   5 -12    2.04    4.92
   0  -5  12   72.47   11.78
   0  -5  11   21.02   13.48
   0  -5  11   21.36   10.12
   0  -5  10    5.50    4.96
   0  -5  10    5.40    3.67
   0   5  -9   67.17   10.73
   0  -5   9   72.68    9.06
   0  -5   9   58.38    7.21
   0  -5   9  116.01   14.36
   0  -5   9   78.97    7.91
   0   5  -8  147.13   22.06
   0   5  -8  201.13   20.34
   0   5  -8  207.22   39.52
   0  -5   8  146.64   13.19
   0  -5   8  228.02   37.77
   0  -5   8  169.21   16.89
   0  -5   8  137.29   10.39
   0   5  -7  145.95   28.14
   0   5  -7  124.53   30.81
   0   5  -7  183.08   16.07
   0   5  -7  101.15   12.99
   0  -5   7  134.41   19.89
   0  -5   7  154.78   31.80
   0  -5   7   71.98   20.34
   0  -5   7  130.04   17.88
   0   5  -6  200.64   38.60
   0   5  -6  204.11   38.31
   0   5  -6  225.23   23.26
   0  -5   6  292.66   45.57
   0  -5   6  259.14   34.24
   0  -5   6  182.72   37.01
   0   5  -5  218.57   25.98
   0   5  -5  235.73   43.14
   0   5  -5  213.15   30.88
   0  -5   5  220.56   30.37
   0  -5   5  253.49   40.31
   0  -5   5  235.14   35.92
   0   5  -4  112.01   35.97
   0   5  -4  102.48   26.92
   0   5  -4   89.87   12.18
   0  -5   4  108.90   19.70
   0  -5   4  121.04   33.42
   0  -5   4   99.17   14.11
   0   5  -3   -0.47    3.62
   0   5  -3    0.03    1.60
   0   5  -3   -0.32    2.58
   0   5  -3    0.98    1.69
   0  -5   3    0.63    1.85
   0  -5   3    0.38    1.59
   0  -5   3    0.96    2.78
   0   5  -2   24.50   12.42
   0   5  -2   27.38    6.67
   0   5  -2   23.98   15.50
   0   5  -2   25.53   12.99
   0  -5   2   31.17    2.73
   0  -5   2   29.59   15.22
   0  -5   2   42.49   16.89
   0   5  -1  193.14   22.08
   0   5  -1  229.78   42.00
   0   5  -1  192.47   30.57
   0  -5   1  220.50   16.84
   0  -5   1  254.89   53.09
   0  -5   1  215.18   28.25
   0   5   0  230.33   31.32
   0   5   0  268.71   24.48
   0   5   0  323.60   53.13
   0   5   0  198.32   20.85
   0   5   0  315.41   72.31
   0  -5   0  272.02   49.80
   0  -5   0  247.27   16.94
   0  -5   0  306.18   52.34
   0  -5   0  263.17   40.98
   0   5   1  190.34   29.64
   0   5   1  212.65   55.93
   0   5   1  191.05   36.20
   0   5   1  133.73   13.57
   0  -5  -1  163.37   16.65
   0  -5  -1  189.29   30.34
   0  -5  -1  174.74   32.08
   0   5   2  110.33   20.58
   0   5   2  118.02   20.98
   0   5   2   88.41   12.74
   0  -5  -2   96.80   12.25
   0  -5  -2   85.02    8.88
   0  -5  -2  109.94   23.83
   0   5   3  147.14   42.49
   0   5   3  149.19   30.97
   0   5   3  157.03   19.43
   0  -5  -3  173.27   20.47
   0  -5  -3  181.37   34.89
   0   5   4   13.11    8.04
   0   5   4   15.81    5.62
   0   5   4   23.70    8.85
   0   5   5   24.78    6.03
   0   5   5   14.79    8.36
   0  -5  -5   13.07    5.93
   0   5   6   18.81    5.06
   0  -5  -6   23.91    5.37
   0  -5  -6   19.37    3.39
   0   5   7   50.69   16.40
   0  -5  -7   40.92    8.56
   0  -5  -7   69.80   16.29
   0   5   8   86.64   27.17
   0  -5  -8  127.99   27.19
   0   5   9  141.48   21.73
   0  -5  -9  221.64   34.61
   0   5  10   44.16   16.18
   0  -5 -10   75.35   16.85
   0   5  11    9.59    3.62
   0  -5 -11   18.32    6.99
   0   5  12    3.06    2.54
   0  -5 -12    1.69    2.90
   0   6 -16   39.06   11.85
   0  -6  16   30.48    8.21
   0   6 -15    2.15    1.99
   0  -6  15    3.12    4.23
   0   6 -14    5.29    4.36
   0  -6  14    2.50    5.52
   0   6 -13   24.91    5.89
   0  -6  13   26.61   13.13
   0   6 -12  129.05   17.24
   0  -6  12  123.20   20.80
   0   6 -11  182.99   23.16
   0  -6  11  197.46   43.14
   0   6 -10  131.78   17.30
   0  -6  10  143.11   31.86
   0   6  -9   73.76   17.05
   0   6  -9   56.71   13.64
   0  -6   9   58.70    7.03
   0  -6   9   88.88   17.70
   0   6  -8   17.06    8.58
   0   6  -8   15.81    7.65
   0  -6   8   21.64    4.44
   0  -6   8   14.40    6.36
   0   6  -7    2.12    3.16
   0   6  -7    0.56    2.64
   0   6  -7    0.92    2.79
   0  -6   7    0.24    1.76
   0  -6   7    1.09    1.49
   0  -6   7    2.33    2.23
   0   6  -6   80.16   22.09
   0   6  -6   80.43   15.49
   0   6  -6   70.09   15.68
   0  -6   6   81.59    9.90
   0  -6   6   80.02   12.12
   0  -6   6   81.53   17.36
   0  -6   6  105.06   19.90
   0   6  -5  114.50   21.66
   0   6  -5  123.09   29.91
   0   6  -5  126.40   38.79
   0  -6   5  108.84   20.28
   0  -6   5  151.29   35.39
   0  -6   5  154.04   19.62
   0  -6   5  129.92   27.53
   0   6  -4  202.68   30.63
   0   6  -4  201.06   48.30
   0   6  -4  250.27   61.75
   0  -6   4  212.78   31.50
   0  -6   4  220.14   27.16
   0  -6   4  251.44   33.94
   0  -6   4  275.95   33.18
   0   6  -3  225.41   29.14
   0   6  -3  223.54   29.03
   0   6  -3  246.72   35.04
   0  -6   3  234.96   27.93
   0  -6   3  309.17   60.28
   0  -6   3  291.46   34.37
   0  -6   3  352.98   58.62
   0   6  -2  151.67   29.08
   0   6  -2  109.80   14.55
   0   6  -2  152.45   24.00
   0  -6   2  178.60   37.40
   0  -6   2  183.40   22.90
   0   6  -1   88.27   18.27
   0   6  -1   71.04   12.48
   0  -6   1   81.80   22.39
   0  -6   1   77.23   14.05
   0   6   0    9.41    3.19
   0   6   0   14.96    7.28
   0   6   0   18.24   10.96
   0  -6   0   12.62    2.04
   0  -6   0    4.58    3.41
   0  -6   0   14.03    7.74
   0  -6   0   16.50    3.69
   0   6   1   16.72    5.09
   0   6   1   20.83    4.32
   0   6   1   21.54   15.30
   0  -6  -1   11.27    6.84
   0  -6  -1   20.84    3.32
   0  -6  -1   16.00    8.11
   0   6   2   87.90   16.10
   0   6   2   76.80   17.38
   0   6   2  121.39   35.63
   0  -6  -2  107.99   11.47
   0  -6  -2   69.11   11.98
   0   6   3  148.67   19.30
   0   6   3  146.47   25.00
   0   6   4  175.51   35.06
   0  -6  -4  177.30   18.17
   0  -6  -4  159.38   22.15
   0   6   5  182.28   23.73
   0  -6  -5  173.15   18.92
   0  -6  -5  233.98   34.50
   0   6   6   58.17   16.59
   0  -6  -6   68.49    9.39
   0  -6  -6   47.48   11.15
   0   6   7    0.75    2.23
   0  -6  -7    2.30    2.18
   0  -6  -7   -0.20    1.34
   0   6   8    8.14    3.55
   0  -6  -8   10.57    5.42
   0   6   9   21.77   10.42
   0  -6  -9   48.79   11.16
   0   6  10   59.12    8.12
   0  -6 -10  117.43   18.91
   0  -6 -11  114.94   21.64
   0   7 -16   54.66   14.10
   0  -7  16   44.66   14.33
   0   7 -15   60.88   17.63
   0  -7  15   53.98   17.90
   0   7 -14   81.98   13.85
   0  -7  14   79.90   15.47
   0   7 -13   78.94   24.53
   0  -7  13   79.41   26.43
   0   7 -12   18.62    9.72
   0  -7  12   11.26    8.93
   0   7 -11    1.05    2.96
   0  -7  11    0.10    2.57
   0   7 -10   21.92    5.29
   0  -7  10    7.88    4.10
   0  -7  10   13.10    7.52
   0   7  -9   88.58   13.82
   0   7  -9  122.29   17.54
   0  -7   9  123.95   25.67
   0  -7   9   93.60   12.03
   0   7  -8  233.57   48.69
   0   7  -8  194.32   27.89
   0  -7   8  225.92   39.99
   0  -7   8  200.18   23.82
   0   7  -7  184.25   42.01
   0   7  -7  175.28   38.60
   0  -7   7  197.02   38.65
   0  -7   7  148.71   18.08
   0   7  -6  114.75   18.16
   0   7  -6  110.73   29.10
   0  -7   6  145.61   31.48
   0  -7   6   96.68   11.93
   0   7  -5   60.62   11.26
   0   7  -5   72.65   13.37
   0   7  -5   87.34   15.65
   0  -7   5   57.68   10.50
   0  -7   5   78.85   13.00
   0   7  -4   45.12   10.11
   0   7  -4    6.50   13.17
   0  -7   4    6.45   11.53
   0   7  -3  111.49   24.56
   0   7  -3  102.78   35.22
   0  -7   3  118.10   29.36
   0   7  -2  178.54   54.82
   0   7  -2  152.43   21.26
   0  -7   2  149.92   34.25
   0   7  -1  177.61   34.65
   0   7  -1  201.05   60.93
   0  -7   1  192.82   35.95
   0   7   0  236.42   38.97
   0   7   0  290.03   75.61
   0  -7   0  208.04   22.95
   0   7   1  169.19   20.87
   0   7   1  194.52   59.34
   0  -7  -1  156.69   25.93
   0   7   2   46.17   10.47
   0   7   2   24.41   16.87
   0  -7  -2   23.69    5.58
   0  -7  -2   29.41    5.51
   0   7   3   -0.34    1.57
   0   7   3    0.15    1.09
   0  -7  -3    0.30    1.06
   0   7   4    5.95    6.62
   0  -7  -4   11.15    2.44
   0  -7  -4   10.14    7.04
   0   7   5   61.41   16.92
   0  -7  -5   57.02   13.66
   0  -7  -5   69.05   12.41
   0   7   6   94.68   14.15
   0  -7  -6  109.22   16.53
   0  -7  -6   72.89   14.45
   0   7   7   57.35   12.81
   0  -7  -7   76.42    7.48
   0  -7  -7   38.30    4.67
   0   7   8   36.83    7.14
   0  -7  -8   66.31   12.81
   0   7   9    5.86    5.16
   0  -7  -9   38.35    7.18
   0  -7 -10    2.96    1.48
   0   8 -15    4.12    4.05
   0  -8  15    2.06    3.14
   0   8 -14   26.24   11.36
   0  -8  14   15.69    8.53
   0   8 -13   53.80   17.34
   0  -8  13   42.24   14.48
   0   8 -12   89.33   25.66
   0  -8  12   76.05   20.43
   0   8 -11   85.40   25.65
   0  -8  11   73.55   19.49
   0   8 -10   86.10   22.78
   0   8 -10   40.59    7.00
   0  -8  10   51.90   10.71
   0  -8  10   59.64   13.85
   0   8  -9   12.62    5.06
   0   8  -9    7.32    5.64
   0  -8   9   11.31    5.98
   0  -8   9    8.63    3.00
   0   8  -8   -1.55    2.22
   0   8  -8    0.76    3.67
   0  -8   8    1.19    2.36
   0  -8   8   -0.40    1.39
   0   8  -7   12.42    5.57
   0   8  -7   18.64   13.10
   0  -8   7   19.96    5.49
   0   8  -6   87.20   17.28
   0   8  -6   87.86   15.27
   0  -8   6  130.62   31.75
   0   8  -5  176.51   24.92
   0   8  -5  214.24   62.03
   0  -8   5  228.32   33.73
   0   8  -4  260.82   33.53
   0   8  -4  297.65   52.28
   0  -8   4  340.10   70.66
   0   8  -3  110.92   26.92
   0   8  -3  114.83   18.01
   0  -8   3  127.21   34.65
   0   8  -2   19.15    9.32
   0   8  -2   29.60   20.19
   0  -8   2   25.82   11.90
   0   8  -1    0.89    7.00
   0   8  -1    2.58    3.18
   0  -8   1    2.14    2.05
   0   8   0   15.60   14.77
   0   8   0   14.36    4.54
   0  -8   0   13.22    6.71
   0   8   1   74.36   26.78
   0   8   1   62.20   13.14
   0  -8  -1   52.32    6.28
   0   8   2  118.70   44.36
   0   8   2  135.39   28.24
   0   8   3   98.20   14.75
   0  -8  -3  124.72   18.61
   0   8   4   70.81   15.92
   0  -8  -4   57.35   14.22
   0  -8  -4   53.04    8.77
   0   8   5   10.89    7.85
   0  -8  -5    9.36    5.57
   0  -8  -5   21.56    4.29
   0   8   6    2.55    1.52
   0  -8  -6    2.78    1.25
   0  -8  -6    0.82    1.95
   0   8   7    1.09    2.05
   0  -8  -7    0.92    1.77
   0  -8  -8   25.14    6.05
   0   9 -14   14.11    7.27
   0   9 -13    7.40    3.93
   0  -9  13    0.00    1.66
   0   9 -12   14.67    5.71
   0  -9  12    1.17    2.22
   0   9 -11   49.40   15.03
   0  -9  11   20.46    2.84
   0  -9  11   24.43    5.72
   0   9 -10   63.60   18.56
   0   9 -10   37.87   13.64
   0  -9  10   52.35    7.25
   0   9  -9   56.75   10.69
   0   9  -9   32.36   17.49
   0  -9   9   57.73    9.31
   0   9  -8   67.67   21.03
   0   9  -8   59.76   24.13
   0  -9   8   83.08   23.34
   0   9  -7   15.14   15.20
   0   9  -7   26.69    6.25
   0  -9   7   27.61   14.08
   0   9  -6    0.12    4.31
   0   9  -6    1.12    1.56
   0  -9   6    1.04    3.67
   0   9  -5   -1.11    2.22
   0   9  -5    2.30    2.66
   0  -9   5    0.64    1.74
   0   9  -4    5.85    6.17
   0   9  -4    9.53   12.98
   0  -9   4   12.77    4.75
   0   9  -3   18.86   12.85
   0   9  -3   20.51   23.07
   0  -9   3   32.28    7.61
   0   9  -2   97.99   24.88
   0   9  -2   69.62   11.65
   0  -9   2   83.80   13.18
   0   9  -1   58.24   10.75
   0   9  -1   63.29   19.73
   0  -9   1   62.42   15.49
   0   9   0   24.03   19.34
   0   9   0   16.49    9.04
   0  -9   0   34.28    5.16
   0   9   1   22.90   13.46
   0   9   1   14.83    7.62
   0   9   2    0.76    1.56
   0  -9  -2    3.42    2.22
   0   9   3    3.38    1.92
   0  -9  -3    3.19    1.92
   0   9   4   12.50    6.03
   0  -9  -4   10.58    5.02
   0   9   5   25.13    3.87
   0  -9  -5   21.22    3.51
   0  -9  -6   25.20    3.99
   0  10 -13   38.51    9.79
   0  10 -12   38.31   10.68
   0  10 -11   36.77    7.63
   0 -10  11   16.39    2.53
   0  10 -10    3.31    3.76
   0  10 -10    6.29    3.94
   0 -10  10    4.03    3.03
   0  10  -9    1.39    1.42
   0  10  -9    0.11    1.78
   0 -10   9    1.57    1.52
   0  10  -8   10.07    5.26
   0  10  -8   11.10    6.44
   0 -10   8   13.31    4.41
   0  10  -7   38.17    8.22
   0  10  -7   37.65   11.59
   0 -10   7   34.11   16.03
   0  10  -6  105.05   25.73
   0  10  -6  108.51   45.16
   0 -10   6  132.77   36.65
   0  10  -5  151.31   66.84
   0  10  -5  237.48   44.71
   0 -10   5  169.44   30.61
   0  10  -4   29.30   20.57
   0  10  -4  153.52   22.05
   0 -10   4   48.89   13.70
   0  10  -3   11.91    5.58
   0  10  -3    3.19   12.43
   0 -10   3    6.72    7.18
   0  10  -2    3.17    5.91
   0  10  -2    1.20    2.58
   0 -10   2    1.66    2.79
   0  10  -1   13.18    8.44
   0  10  -1    7.57    4.16
   0 -10   1    5.63    2.15
   0  10   0   40.14    5.44
   0 -10   0    1.57    8.33
   0 -10   0   28.92    5.76
   0  10   1   44.55    7.10
   0 -10  -1   71.42   18.63
   0  10   2   13.05    7.81
   0 -10  -2   43.57    9.12
   0  10   3   21.76    3.73
   0 -10  -3   11.30    6.23
   0  11 -11   26.63    5.54
   0 -11  11   17.35    2.81
   0  11 -10   43.06    7.82
   0 -11  10   25.61    4.05
   0  11  -9   37.59    5.58
   0 -11   9   36.63    5.87
   0  11  -8   16.57    6.84
   0  11  -8    0.88    8.75
   0 -11   8   17.60    7.31
   0  11  -7    4.27    6.76
   0  11  -7    4.15    2.61
   0 -11   7    7.13    2.92
   0  11  -6   -1.48    1.60
   0  11  -6    0.87    1.45
   0 -11   6    0.83    1.96
   0  11  -5    6.97   10.68
   0  11  -5    9.86    5.94
   0 -11   5   10.50    6.70
   0  11  -4   17.86   11.42
   0  11  -4   52.73   12.02
   0 -11   4   42.88   12.52
   0  11  -3   15.70   20.79
   0  11  -3   42.04    9.79
   0 -11   3   41.16    6.71
   0  11  -2   30.54    7.96
   0  11  -2   36.27    9.78
   0 -11   2   31.94    7.84
   0  11  -1    5.44    5.68
   0 -11   1   34.61    6.13
   0  11   0    1.37    1.13
   0 -11   0    3.37    1.61
   0 -11  -1    0.59    1.00
   0 -11  -2    0.18    1.19
   0 -12   8   18.84    3.32
   0  12  -7   10.01    4.15
   0 -12   7   16.82    5.11
   0  12  -6   10.96    4.18
   0 -12   6    9.48    4.68
   0 -12   5    3.63    2.08
   0 -12   5    5.00    2.74
   0 -12   4    3.19    1.96
   0 -12   4    2.21    1.79
   0 -12   3   -1.02    1.84
  -1  12  -2    2.52    2.13
  -1  12  -2    3.05    2.68
   1 -12   3   -2.11    2.20
  -1  12  -3    2.16    1.86
  -1  12  -3    3.65    2.39
   1 -12   4    2.25    4.09
  -1  12  -4    7.15    3.95
  -1  12  -4    0.12    6.04
   1 -12   5   11.60    6.43
  -1  12  -5    9.09    3.09
  -1  12  -5    6.00    9.34
   1 -12   6   28.74   14.49
  -1  12  -6   64.50   14.55
  -1  12  -6   14.45   21.17
   1 -12   7   23.95    8.09
  -1  12  -7   11.10    9.07
  -1  12  -7   16.53    7.41
   1 -12   8   10.37    4.91
  -1  12  -8    7.86    4.96
  -1  12  -8    7.30    8.32
  -1  12  -9    2.26    4.15
  -1  11   2    3.01    1.79
  -1  11   1   -1.43    2.73
  -1  11   0    1.20    2.12
  -1  11   0    6.28    3.46
   1 -11   1    1.63    3.11
  -1  11  -1    7.57    4.10
  -1  11  -1    3.47    2.86
   1 -11   2   10.02    6.18
  -1  11  -2   11.57    7.56
  -1  11  -2   10.80    5.87
   1 -11   3   12.93   12.98
  -1  11  -3   55.55   12.08
  -1  11  -3   16.84   10.72
   1 -11   4   10.72    8.79
  -1  11  -4   11.11    8.95
  -1  11  -4   14.52   12.52
   1 -11   5    3.02    5.71
  -1  11  -5    1.28    8.08
  -1  11  -5    4.70    2.63
   1 -11   6    0.96    2.40
  -1  11  -6   -1.13    1.93
  -1  11  -6    1.71    2.57
   1 -11   7    1.07    1.74
  -1  11  -7    1.83    4.51
  -1  11  -7    0.85    3.34
   1 -11   8    5.74    5.36
  -1  11  -8    7.71    7.50
  -1  11  -8    5.27    4.67
   1 -11   9   22.05    9.24
  -1  11  -9   27.97    5.15
  -1  11  -9   16.00   14.06
   1 -11  10    0.89    3.10
  -1  11 -10   11.75    6.02
  -1  11 -10   12.38    4.05
  -1  11 -11    9.88    4.61
  -1  11 -11   10.95    3.49
  -1  10   5    1.34    2.40
  -1  10   4    8.80    3.56
  -1  10   3   13.54    7.66
   1 -10  -2    5.06    2.30
  -1  10   2   19.13    6.01
   1 -10  -1    4.49    3.22
  -1  10   1    8.01    5.23
   1 -10   0   12.58   10.66
  -1  10   0   49.06    8.38
  -1  10   0   35.77   10.23
   1 -10   1    7.00    3.00
  -1  10  -1    5.79    5.14
  -1  10  -1    9.22    3.58
   1 -10   2    0.59    2.80
  -1  10  -2    1.84    2.02
  -1  10  -2   -0.64    2.60
   1 -10   3    6.48    6.30
  -1  10  -3    5.99    3.56
  -1  10  -3    8.10    5.09
   1 -10   4   22.09   16.40
  -1  10  -4   47.81   10.68
  -1  10  -4   21.75   23.56
   1 -10   5  133.60   41.32
  -1  10  -5  191.50   39.61
  -1  10  -5  130.45   57.54
   1 -10   6  105.03   19.36
  -1  10  -6   89.01   39.36
  -1  10  -6  137.45   31.14
   1 -10   7   31.09   17.02
  -1  10  -7   40.99    9.89
  -1  10  -7   39.46   11.50
   1 -10   8    7.79    5.79
  -1  10  -8    4.57    7.42
  -1  10  -8    6.08    5.40
   1 -10   9    1.05    1.29
  -1  10  -9   -0.44    3.50
  -1  10  -9    1.04    1.46
   1 -10  10    2.70    1.50
  -1  10 -10    3.71    3.53
  -1  10 -10    3.19    4.45
  -1  10 -11   27.06    6.50
  -1  10 -11   38.40   10.04
  -1  10 -12    0.78    6.21
  -1  10 -12   33.94    6.60
  -1  10 -13   16.77    5.78
   1  -9  -7    6.13    2.48
  -1   9   7   14.35    5.35
   1  -9  -6   22.34    2.96
  -1   9   6   28.65    5.56
   1  -9  -5   29.86    3.99
  -1   9   5   53.01   14.30
   1  -9  -4   29.13    6.67
  -1   9   4   52.31   14.37
   1  -9  -3    0.78    1.11
   1  -9  -3    1.73    0.84
  -1   9   3    1.42    3.54
   1  -9  -2   -0.56    0.54
  -1   9   2    1.10    1.22
  -1   9   2    0.92    0.98
   1  -9  -1    4.09    4.12
  -1   9   1    7.74    3.43
  -1   9   1    6.09    6.76
   1  -9   0   53.74   15.60
  -1   9   0   62.18   18.52
  -1   9   0   23.06   23.51
   1  -9   1  101.60   31.15
  -1   9  -1  133.78   36.09
  -1   9  -1   80.34   37.15
   1  -9   2  102.58   20.63
  -1   9  -2   92.80   41.42
  -1   9  -2  140.89   37.90
   1  -9   3   60.40   15.92
  -1   9  -3  117.40   23.31
  -1   9  -3   25.78   27.08
   1  -9   4   49.13   13.51
  -1   9  -4   19.93   22.66
  -1   9  -4   70.70   18.19
   1  -9   5    0.23    3.77
  -1   9  -5    1.67    1.90
  -1   9  -5   -2.41    3.32
   1  -9   6    8.94   13.20
  -1   9  -6    7.39   16.67
  -1   9  -6   27.50    6.20
   1  -9   7   27.08   15.55
  -1   9  -7   43.68   12.11
  -1   9  -7   27.35   13.78
   1  -9   8   58.47   10.06
  -1   9  -8   63.74   19.10
  -1   9  -8   65.15   16.52
   1  -9   9   63.72   10.03
  -1   9  -9   75.45   21.01
  -1   9  -9   81.05   28.76
   1  -9  10   31.36    8.82
  -1   9 -10   50.32   11.90
  -1   9 -10   58.44    9.56
  -1   9 -11   17.68    8.29
  -1   9 -11   12.15    5.24
  -1   9 -12    7.68    4.58
  -1   9 -12    2.08    3.63
  -1   9 -13    8.09    3.01
  -1   9 -14   11.03    5.27
   1  -8  -9   39.37    7.31
  -1   8   9   26.13   10.20
   1  -8  -8   18.02    3.11
  -1   8   8   12.95    4.90
   1  -8  -7    2.14    1.61
  -1   8   7    5.49    3.79
   1  -8  -6    0.98    1.22
  -1   8   6    0.34    1.86
  -1   8   5   13.86    8.54
  -1   8   5   12.42    4.45
  -1   8   4   68.20   19.20
  -1   8   4   79.91   24.14
  -1   8   3  108.71   13.98
  -1   8   3   41.47    9.33
  -1   8   3   79.19   16.18
   1  -8  -2   52.78    8.37
  -1   8   2   54.19   20.07
  -1   8   2   61.01    8.42
  -1   8   2   83.66   12.09
   1  -8  -1   20.96    9.71
  -1   8   1   21.00   11.14
  -1   8   1   36.56    7.78
  -1   8   1   14.77    6.80
   1  -8   0    4.61    3.23
  -1   8   0    8.82    5.64
  -1   8   0    5.17    6.68
   1  -8   1   -2.09    3.13
  -1   8  -1   -0.43    3.68
  -1   8  -1    1.07    3.29
   1  -8   2   15.06   17.21
  -1   8  -2   19.78   15.21
  -1   8  -2   32.28    7.02
   1  -8   3   75.32   27.95
  -1   8  -3   74.73   14.57
  -1   8  -3   61.12   25.64
   1  -8   4  126.61   38.34
  -1   8  -4  116.80   17.11
  -1   8  -4  104.19   23.88
   1  -8   5   98.25   18.59
  -1   8  -5   86.92   14.27
  -1   8  -5   81.11   35.51
   1  -8   6   86.50   27.51
  -1   8  -6   75.38   23.67
  -1   8  -6   73.49   33.86
   1  -8   7   26.41   12.33
  -1   8  -7   24.62   15.52
  -1   8  -7   22.92   12.26
   1  -8   8    1.68    1.74
  -1   8  -8    3.33    2.92
  -1   8  -8    0.71    2.71
   1  -8   9    1.94    2.26
  -1   8  -9    2.23    2.74
  -1   8  -9    2.89    5.82
  -1   8 -10   21.13    7.13
  -1   8 -10   22.55   12.85
  -1   8 -11   62.61   13.41
  -1   8 -11   50.36   19.26
  -1   8 -12   59.99   22.41
  -1   8 -12   93.90   16.01
   1  -8  13   28.61    6.50
  -1   8 -13   12.33    8.06
  -1   8 -13   38.01   12.28
  -1   8 -14   11.00    9.03
  -1   8 -15    2.90    3.95
   1  -7 -10    4.39    2.67
  -1   7  10    1.86    1.66
   1  -7  -9   19.55    7.56
  -1   7   9   12.70    9.46
   1  -7  -8  100.26   22.70
  -1   7   8   76.96   16.34
   1  -7  -7    2.66    5.05
  -1   7   7   76.62   10.17
  -1   7   6   58.51   20.24
  -1   7   6   59.09   22.75
  -1   7   5   16.41    9.36
  -1   7   5   11.92    5.17
  -1   7   4    9.92    7.22
  -1   7   4    9.04    7.64
   1  -7  -3    2.16    1.40
  -1   7   3    7.18    3.87
  -1   7   3    1.84    3.37
  -1   7   3    5.12    4.52
   1  -7  -2   58.04   10.55
  -1   7   2   53.13   12.16
  -1   7   2   85.04   11.35
  -1   7   2   72.45   11.08
   1  -7  -1  102.63   26.01
  -1   7   1   92.46   28.17
  -1   7   1  126.26   30.38
  -1   7   1   97.23   20.14
   1  -7   0  120.83   19.21
  -1   7   0  106.18   29.42
  -1   7   0   98.04   17.53
  -1   7   0  150.58   33.74
   1  -7   1  128.84   12.64
   1  -7   1  146.44   22.85
  -1   7  -1  151.22   18.34
  -1   7  -1  125.35   20.01
  -1   7  -1  109.13   12.28
   1  -7   2  129.82   25.61
  -1   7  -2  135.16   26.41
  -1   7  -2  162.14   22.32
   1  -7   3   55.86   14.77
  -1   7  -3   87.39   18.29
  -1   7  -3   56.19   15.86
   1  -7   4    1.24   12.38
  -1   7  -4    5.83    7.18
  -1   7  -4   48.76    9.11
   1  -7   5   66.12   14.27
  -1   7  -5   57.83   18.85
  -1   7  -5   53.54   20.11
   1  -7   6  127.26   32.66
  -1   7  -6   99.21   17.61
  -1   7  -6  122.86   37.65
   1  -7   7  128.20   29.21
  -1   7  -7  130.14   21.07
  -1   7  -7  126.26   32.01
   1  -7   8   80.02   18.89
  -1   7  -8   94.54   25.89
  -1   7  -8   92.95   24.45
   1  -7   9   48.61   10.29
  -1   7  -9   84.44   20.13
  -1   7  -9   93.43   13.65
   1  -7  10   31.58    5.62
  -1   7 -10   24.63   11.84
  -1   7 -10   51.40   14.90
   1  -7  11   -1.65    1.34
  -1   7 -11    0.54    3.25
  -1   7 -11    0.87    2.47
   1  -7  12    2.89    3.70
  -1   7 -12    4.32    4.58
  -1   7 -12    3.15    1.78
   1  -7  13    7.24    5.06
  -1   7 -13   20.26    6.67
  -1   7 -13    7.91    2.61
   1  -7  14   12.11    8.57
  -1   7 -14   34.10    5.94
   1  -7  15   39.60    6.15
  -1   7 -15   58.77   13.51
   1  -6 -11   82.07   16.01
  -1   6  11   60.20   19.64
   1  -6 -10   76.79   10.69
  -1   6  10   51.03   11.26
   1  -6  -9   34.81    7.42
  -1   6   9   13.24   14.78
  -1   6   8    7.13    4.58
  -1   6   8    5.80    6.20
  -1   6   7    6.61    4.29
  -1   6   7    5.05    3.80
  -1   6   6   68.70   14.97
  -1   6   6   52.80   21.01
  -1   6   5  178.03   44.34
  -1   6   5  200.01   29.87
  -1   6   4  209.75   29.27
  -1   6   4  175.16   26.26
   1  -6  -3  147.97   27.32
  -1   6   3  139.70   31.44
  -1   6   3  200.54   23.77
  -1   6   3  170.98   22.30
   1  -6  -2  175.78   24.47
  -1   6   2  216.65   41.79
  -1   6   2  166.67   22.74
  -1   6   2  201.05   23.39
   1  -6  -1   60.01   20.82
   1  -6  -1   59.06    9.21
  -1   6   1   59.86   17.38
  -1   6   1   41.30   15.95
  -1   6   1   52.56    9.30
   1  -6   0   38.03    6.75
   1  -6   0   32.03   27.88
  -1   6   0   60.32   14.67
  -1   6   0   20.89   11.40
  -1   6   0   16.79   13.17
   1  -6   1   51.22    4.72
   1  -6   1   58.63   39.77
  -1   6  -1   62.58   21.09
  -1   6  -1   77.31   23.44
  -1   6  -1   73.84   10.92
  -1   6  -1   44.17   12.10
   1  -6   2  174.99   18.55
   1  -6   2  161.34   19.95
   1  -6   2  256.55   83.97
  -1   6  -2  162.82   25.52
  -1   6  -2  209.56   34.67
  -1   6  -2  132.89   20.40
  -1   6  -2  182.71   28.09
   1  -6   3  377.87   93.15
   1  -6   3  332.81   58.48
   1  -6   3  344.56   25.45
  -1   6  -3  390.20   48.82
  -1   6  -3  401.54   63.30
  -1   6  -3  360.28   37.73
  -1   6  -3  321.81   66.68
   1  -6   4  328.57   59.29
   1  -6   4  253.55   48.83
   1  -6   4  328.00   50.39
  -1   6  -4  377.10   47.18
  -1   6  -4  334.30   42.24
  -1   6  -4  294.94   38.00
   1  -6   5   65.79    8.67
   1  -6   5   79.73   25.11
  -1   6  -5   85.77   13.37
  -1   6  -5   88.37   20.55
  -1   6  -5  100.24   24.07
   1  -6   6   74.93   22.16
  -1   6  -6   94.87   14.31
  -1   6  -6   87.71   12.63
  -1   6  -6   59.50   12.57
   1  -6   7    0.94    0.86
   1  -6   7    0.24    2.57
  -1   6  -7    1.06    1.06
  -1   6  -7   -1.54    2.85
  -1   6  -7    1.78    3.17
   1  -6   8   69.59   12.53
   1  -6   8   44.20   12.07
  -1   6  -8   74.41   17.94
  -1   6  -8   71.74   18.84
   1  -6   9  163.17   28.88
  -1   6  -9  159.49   33.04
  -1   6  -9  174.72   34.21
   1  -6  10  139.89   28.00
  -1   6 -10  129.66   17.49
  -1   6 -10  137.78   30.10
   1  -6  11  138.04   18.74
  -1   6 -11  135.10   17.19
  -1   6 -11  125.24   16.66
   1  -6  12  137.27   30.53
  -1   6 -12   96.04   20.06
  -1   6 -12  136.54   15.94
   1  -6  13   14.64    4.15
  -1   6 -13    3.64    3.30
  -1   6 -13   10.99    5.27
   1  -6  14    4.90    5.83
  -1   6 -14    5.05    4.03
   1  -6  15    5.01    4.67
  -1   6 -15    2.97    3.10
   1  -6  16    5.78    4.17
  -1   6 -16    6.23    3.65
   1  -5 -12    4.96    2.37
  -1   5  12   -4.87    3.36
   1  -5 -11   21.40    7.51
  -1   5  11   13.67    4.60
   1  -5 -10   90.07   13.55
  -1   5  10   44.38   23.93
  -1   5   9  183.82   31.14
  -1   5   9  141.16   45.94
  -1   5   8   76.37   14.31
  -1   5   8  125.39   33.33
  -1   5   7   99.84   19.42
  -1   5   7  151.07   39.57
  -1   5   6   51.94   18.12
  -1   5   6   60.98   22.50
  -1   5   5   13.86    9.54
  -1   5   5   10.85    7.74
   1  -5  -4    4.37    2.14
  -1   5   4    0.97    1.21
  -1   5   4    1.20    3.71
   1  -5  -3  133.47   38.15
   1  -5  -3  153.90   24.20
  -1   5   3   90.25   23.29
  -1   5   3  103.42   25.09
  -1   5   3  188.01   36.02
   1  -5  -2  207.26   36.51
   1  -5  -2  214.93   30.02
  -1   5   2  176.81   24.99
  -1   5   2  238.98   48.38
  -1   5   2  127.79   32.67
   1  -5  -1  305.45   90.84
   1  -5  -1  262.43   24.76
  -1   5   1  231.28   42.70
  -1   5   1  279.57   54.94
  -1   5   1  261.80   52.49
   1  -5   0  175.91   69.59
   1  -5   0  178.84   24.98
  -1   5   0  195.55   29.56
  -1   5   0  187.26   36.40
  -1   5   0  205.32   22.48
   1  -5   1  312.64   37.15
   1  -5   1  211.18   26.81
   1  -5   1  289.47   85.28
  -1   5  -1  224.71   47.81
  -1   5  -1  224.68   25.88
  -1   5  -1  206.21   19.52
  -1   5  -1  205.26   33.69
   1  -5   2   53.74    9.87
   1  -5   2   64.01   10.82
   1  -5   2  151.78   46.57
  -1   5  -2   66.34   11.44
  -1   5  -2   63.89   21.24
  -1   5  -2   48.54    8.35
  -1   5  -2   75.04   17.17
   1  -5   3    1.36    5.31
   1  -5   3    1.63    1.89
   1  -5   3    2.03    1.60
  -1   5  -3    1.44    1.21
  -1   5  -3    7.83    2.65
  -1   5  -3    1.43    1.57
  -1   5  -3    3.52    2.63
  -1   5  -3    3.49    3.79
   1  -5   4   93.04   11.66
   1  -5   4  134.38   14.78
   1  -5   4   86.09   10.35
   1  -5   4  114.40   56.40
  -1   5  -4   80.35   14.73
  -1   5  -4  111.16   24.50
  -1   5  -4   98.00   22.55
  -1   5  -4   84.34    9.37
  -1   5  -4  137.93   17.11
   1  -5   5  203.54   58.28
   1  -5   5  185.40   30.98
   1  -5   5  120.67   15.59
   1  -5   5  122.71   12.29
  -1   5  -5  145.74   16.32
  -1   5  -5  177.26   31.64
  -1   5  -5  109.33   21.97
  -1   5  -5  145.76   28.96
   1  -5   6  242.77   38.27
   1  -5   6  196.28   26.23
   1  -5   6  187.00   22.26
   1  -5   6  165.30   37.36
  -1   5  -6  229.47   36.32
  -1   5  -6  189.62   33.43
  -1   5  -6  220.31   33.28
  -1   5  -6  218.09   25.37
   1  -5   7  118.47   12.86
   1  -5   7  152.27   23.85
   1  -5   7  136.53   24.71
  -1   5  -7  143.47   23.44
  -1   5  -7  139.83   17.04
  -1   5  -7  160.91   29.72
  -1   5  -7  170.33   25.98
   1  -5   8  121.67   20.67
   1  -5   8   79.21    7.46
   1  -5   8   71.14   12.01
  -1   5  -8  131.71   22.53
  -1   5  -8  110.73   10.37
   1  -5   9   59.82   15.99
  -1   5  -9   66.27   15.56
  -1   5  -9   53.86   12.40
   1  -5  10   -0.81    1.32
  -1   5 -10   -4.10    1.97
  -1   5 -10    1.04    1.06
   1  -5  11    7.74    6.24
  -1   5 -11    4.55    4.89
  -1   5 -11    7.86    4.15
   1  -5  12   53.64   10.53
  -1   5 -12   37.24    5.45
  -1   5 -12   50.11   10.53
   1  -5  13   32.34   17.12
  -1   5 -13   37.03    5.35
   1  -5  14  105.85   30.49
  -1   5 -14   95.60   17.54
   1  -5  15   76.94   23.00
  -1   5 -15   60.80   11.93
   1  -5  16    7.63    5.86
  -1   5 -16    5.49    2.88
   1  -4 -13   77.06   12.31
  -1   4  13   59.53   18.17
   1  -4 -12  100.71   11.10
  -1   4  12   78.51   15.18
   1  -4 -11   97.02   18.13
  -1   4  11   47.61   10.75
  -1   4  10   40.69    9.83
  -1   4  10   21.80   15.31
  -1   4   9    1.41    2.98
  -1   4   9   -0.10    1.83
  -1   4   8   11.15    4.52
  -1   4   8   18.94   10.95
  -1   4   7  133.61   36.35
  -1   4   7  108.58   19.20
  -1   4   6  207.85   50.32
  -1   4   6  175.66   38.05
  -1   4   5  270.11   52.06
  -1   4   5  307.40   64.48
   1  -4  -4  240.96   23.84
   1  -4  -4  169.68   21.01
  -1   4   4  245.18   31.72
  -1   4   4  125.19   23.22
  -1   4   4  199.08   23.70
   1  -4  -3   58.20   14.27
   1  -4  -3   35.81   15.42
  -1   4   3   40.76   12.79
  -1   4   3   58.79   11.96
  -1   4   3   37.98   10.31
   1  -4  -2    7.52    3.00
   1  -4  -2    3.29    7.44
  -1   4   2    9.33    7.24
  -1   4   2    7.80    4.00
  -1   4   2    7.19    3.39
   1  -4  -1    6.43   22.11
   1  -4  -1   39.65    7.02
  -1   4   1   43.23    8.77
  -1   4   1   45.42    8.71
  -1   4   1   41.35   13.40
   1  -4   0  122.87   27.21
   1  -4   0  141.59   23.67
  -1   4   0  148.50   18.80
  -1   4   0  121.22   21.67
  -1   4   0  112.88   17.13
   1  -4   1  324.88   44.77
   1  -4   1  374.81   95.68
   1  -4   1  323.90   57.17
  -1   4  -1  353.89   42.38
  -1   4  -1  286.03   33.12
  -1   4  -1  292.86   40.03
   1  -4   2  347.46   93.84
   1  -4   2  376.31   47.81
   1  -4   2  321.56   56.98
  -1   4  -2  272.07   29.56
  -1   4  -2  318.70   39.82
  -1   4  -2  352.03   64.59
  -1   4  -2  324.43   43.17
  -1   4  -2  288.06   40.12
   1  -4   3  295.14   49.45
   1  -4   3  341.01   27.62
   1  -4   3  315.48   36.28
   1  -4   3  295.95   87.41
  -1   4  -3  268.27   32.47
  -1   4  -3  239.88   47.35
  -1   4  -3  346.34   64.43
  -1   4  -3  262.21   20.99
  -1   4  -3  238.22   35.77
   1  -4   4  208.15   38.62
   1  -4   4  183.47   38.27
   1  -4   4  190.44   22.21
   1  -4   4  185.56   27.17
   1  -4   4  169.59   28.63
  -1   4  -4  177.51   19.58
  -1   4  -4  191.80   36.23
  -1   4  -4  192.23   36.46
  -1   4  -4  210.76   45.38
  -1   4  -4  183.34   35.57
   1  -4   5  107.11   24.33
   1  -4   5  106.29   11.98
   1  -4   5   90.15   10.26
   1  -4   5   87.56    8.41
   1  -4   5  153.55   44.57
  -1   4  -5   97.88   18.42
  -1   4  -5  108.23   15.26
  -1   4  -5  117.93   22.49
  -1   4  -5   98.47   10.28
  -1   4  -5   97.63   14.42
   1  -4   6   25.39    5.73
   1  -4   6   31.00    5.61
   1  -4   6   13.67    9.11
   1  -4   6   20.77    4.30
  -1   4  -6   36.41    8.23
  -1   4  -6   25.45   10.63
  -1   4  -6   24.29    3.51
  -1   4  -6   26.84    6.49
  -1   4  -6   28.36    4.69
   1  -4   7   36.25    5.22
   1  -4   7   16.02    6.22
   1  -4   7   34.47    6.65
   1  -4   7   24.68    3.46
  -1   4  -7   27.88    4.59
  -1   4  -7   39.90   10.34
  -1   4  -7   26.94    3.76
  -1   4  -7   33.36   12.79
  -1   4  -7   39.57    8.75
   1  -4   8  151.30   34.61
  -1   4  -8  137.06   21.24
  -1   4  -8  129.83   26.27
   1  -4   9  249.52   34.05
   1  -4   9  241.02   33.34
  -1   4  -9  231.45   40.55
   1  -4  10  219.79   50.81
   1  -4  10  224.42   31.31
  -1   4 -10  184.81   21.22
   1  -4  11  144.08   24.95
   1  -4  11  157.45   24.82
  -1   4 -11  126.89   23.90
   1  -4  12   28.92    9.39
  -1   4 -12    4.88    3.41
  -1   4 -12   20.53    4.59
   1  -4  13    7.30   11.17
  -1   4 -13   16.55    3.71
   1  -4  14   12.80   10.63
  -1   4 -14   15.44    5.92
   1  -4  15   22.07   14.82
  -1   4 -15   32.41    6.49
   1  -4  16   54.90   16.66
  -1   4 -16   36.46    6.84
  -1   3  14   11.13    3.48
   1  -3 -13   -0.22    1.17
  -1   3  13    0.97    1.90
   1  -3 -12   11.24    5.42
  -1   3  12   12.09    4.87
   1  -3 -11   75.25   10.78
  -1   3  11   61.05   12.27
  -1   3  10  112.84   18.35
  -1   3  10  109.16   33.67
  -1   3   9  158.03   41.19
  -1   3   9  155.13   44.92
  -1   3   8  224.04   50.99
  -1   3   8  212.72   32.91
  -1   3   7  102.33   19.14
  -1   3   7  112.32   28.03
  -1   3   6    4.47    2.41
  -1   3   6    4.16    5.41
   1  -3  -5    5.41    4.76
   1  -3  -5   13.34    7.41
  -1   3   5   22.44    4.32
  -1   3   5   20.10   11.58
   1  -3  -4  141.96   31.11
  -1   3   4  122.82   15.73
  -1   3   4  172.97   30.56
  -1   3   4  150.07   26.03
   1  -3  -3  297.54   36.89
  -1   3   3  349.07   43.09
  -1   3   3  294.52   40.60
  -1   3   3  393.00   78.85
  -1   3   3  320.11   35.33
   1  -3  -2  492.09   59.51
  -1   3   2  460.59   72.98
  -1   3   2  518.33   92.06
  -1   3   2  515.21   59.89
  -1   3   2  537.09   76.40
   1  -3  -1  389.09   68.51
  -1   3   1  396.83   64.43
  -1   3   1  355.36   42.94
  -1   3   1  345.64   55.08
  -1   3   1  383.66   43.33
   1  -3   0  230.45   44.68
   1  -3   0  212.40   25.09
  -1   3   0  221.96   44.27
  -1   3   0  215.13   24.25
  -1   3   0  182.25   40.27
  -1   3   0  222.20   39.23
   1  -3   1   84.13   11.43
   1  -3   1   95.47   13.95
  -1   3  -1   95.74   13.71
  -1   3  -1   98.36   19.36
  -1   3  -1   91.27   14.15
  -1   3  -1   68.72   19.23
  -1   3  -1   84.37   15.47
   1  -3   2   36.95   10.74
   1  -3   2   24.19   12.70
  -1   3  -2   39.39   10.36
  -1   3  -2   25.26   11.68
  -1   3  -2   33.97   14.99
  -1   3  -2   45.89    9.78
  -1   3  -2   23.73   13.33
  -1   3  -2   20.20   12.64
   1  -3   3  141.81   19.02
   1  -3   3  151.43   28.18
   1  -3   3  179.67   27.74
  -1   3  -3  170.33   35.43
  -1   3  -3  137.64   20.70
  -1   3  -3  131.82   25.26
  -1   3  -3  145.37   29.48
  -1   3  -3  140.97   30.48
   1  -3   4  261.68   30.95
   1  -3   4  268.80   24.38
   1  -3   4  274.96   31.87
   1  -3   4  289.18   67.22
   1  -3   4  275.19   24.30
  -1   3  -4  285.38   30.26
  -1   3  -4  326.24   54.34
  -1   3  -4  292.59   42.51
  -1   3  -4  298.84   37.89
  -1   3  -4  274.59   23.80
   1  -3   5  454.15   49.41
   1  -3   5  474.07   82.53
   1  -3   5  403.20   57.59
   1  -3   5  442.49   54.85
   1  -3   5  502.56   78.41
   1  -3   5  442.29   53.14
  -1   3  -5  473.21   81.44
  -1   3  -5  456.77   65.26
  -1   3  -5  461.71   53.12
  -1   3  -5  479.41   90.31
   1  -3   6  376.67   64.77
   1  -3   6  471.09   72.86
   1  -3   6  409.37   75.49
   1  -3   6  365.72   33.30
   1  -3   6  362.55   75.66
  -1   3  -6  415.05   53.07
  -1   3  -6  411.83   46.92
  -1   3  -6  416.07   44.81
  -1   3  -6  421.18   39.94
   1  -3   7  198.11   22.19
   1  -3   7  212.41   38.30
   1  -3   7  206.36   46.83
  -1   3  -7  238.29   42.63
  -1   3  -7  227.75   32.61
  -1   3  -7  240.69   28.06
  -1   3  -7  249.98   32.47
   1  -3   8   68.89    8.40
   1  -3   8   66.91   13.52
   1  -3   8   86.66   18.50
  -1   3  -8   92.41   18.66
  -1   3  -8   86.60   28.56
  -1   3  -8   74.23    7.48
   1  -3   9    0.50    5.16
   1  -3   9    5.21    3.59
  -1   3  -9    6.00    1.64
  -1   3  -9    1.15    1.06
   1  -3  10   52.81   29.00
   1  -3  10   84.18   20.67
  -1   3 -10   74.97   14.79
   1  -3  11  160.97   31.75
   1  -3  11  153.55   25.94
  -1   3 -11  123.37   13.38
   1  -3  12  117.74   15.71
   1  -3  12  114.55   20.71
  -1   3 -12   88.25    9.66
   1  -3  13   98.66   26.67
   1  -3  13   84.31   30.56
   1  -3  14   69.05   22.82
  -1   3 -14   53.71    6.86
   1  -3  15   18.99    7.00
  -1   3 -15   22.75    4.71
   1  -3  16    3.20   10.55
  -1   3 -16   22.07    1.89
  -1   2  15   15.98    6.85
  -1   2  14   55.87    9.88
   1  -2 -13   98.91   13.29
  -1   2  13  120.76   27.43
   1  -2 -12  108.83   11.42
  -1   2  12  127.25   32.01
   1  -2 -11    4.39    2.36
  -1   2  11   20.32    5.81
  -1   2  10    7.90    5.03
  -1   2  10    2.82    2.71
  -1   2   9   23.30   11.35
  -1   2   9   20.28   11.10
  -1   2   8  176.07   41.49
  -1   2   8  186.86   41.20
  -1   2   7  350.66   57.90
  -1   2   7  361.67   43.57
  -1   2   6  189.93   14.34
  -1   2   6  274.89   27.12
  -1   2   6  192.48   20.21
  -1   2   6  266.89   50.20
  -1   2   5  495.79   49.82
  -1   2   5  438.87   44.86
  -1   2   5  535.99  106.54
  -1   2   5  482.08   51.56
  -1   2   4  361.65   37.58
  -1   2   4  341.78   27.58
  -1   2   4  338.09   29.09
  -1   2   4  468.06   85.80
  -1   2   4  449.51   61.53
   1  -2  -3   83.28   21.48
  -1   2   3   52.60   12.56
  -1   2   3   63.61    6.13
  -1   2   3   65.43    7.66
  -1   2   3   68.39   12.31
  -1   2   3   72.21    9.53
   1  -2  -2  146.43   29.37
  -1   2   2   93.54   15.51
  -1   2   2  118.95   15.98
  -1   2   2  109.68   19.84
  -1   2   2   91.40    6.49
  -1   2   2  121.81   22.87
   1  -2  -1  211.21   40.15
  -1   2   1  201.66   39.89
  -1   2   1  173.23   17.49
  -1   2   1  165.23   26.28
  -1   2   1  189.88   38.79
   1  -2   0  533.17   91.49
   1  -2   0  570.06   97.31
  -1   2   0  571.81   98.23
  -1   2   0  579.46   87.37
  -1   2   0  496.69   74.81
  -1   2   0  530.23   90.06
   1  -2   1 2792.24  493.92
   1  -2   1 2730.59  479.68
  -1   2  -1 3189.55  643.06
  -1   2  -1 2620.65  459.60
  -1   2  -1 2355.68  484.87
  -1   2  -1 2601.00  510.93
  -1   2  -1 2738.01  486.79
   1  -2   2  900.81  140.33
   1  -2   2  806.20   92.05
  -1   2  -2  821.14  129.44
  -1   2  -2  807.53  115.09
  -1   2  -2  868.91  120.12
  -1   2  -2  728.92  101.26
  -1   2  -2  816.53  102.47
  -1   2  -2  776.03   91.96
   1  -2   3  154.63   30.45
   1  -2   3  132.72   31.46
   1  -2   3  127.57   18.85
   1  -2   3  114.93   12.68
  -1   2  -3  146.98   16.54
  -1   2  -3  111.73   10.85
  -1   2  -3  158.38   43.16
  -1   2  -3  132.23   14.83
  -1   2  -3  131.68   19.82
  -1   2  -3  118.70   19.93
   1  -2   4   66.43   15.77
   1  -2   4   61.37   17.99
   1  -2   4   67.06   12.44
   1  -2   4   65.45   15.49
   1  -2   4   53.17    8.53
  -1   2  -4   78.08   17.06
  -1   2  -4   55.14   18.96
  -1   2  -4   37.61    6.95
  -1   2  -4   57.53   12.31
   1  -2   5   59.17   19.71
   1  -2   5   66.50   15.11
   1  -2   5   74.94   18.55
  -1   2  -5   62.17   14.11
  -1   2  -5   76.45   15.25
  -1   2  -5   55.26   20.65
   1  -2   6  191.42   14.69
   1  -2   6  259.08   26.99
   1  -2   6  237.69   24.92
   1  -2   6  242.76   35.31
   1  -2   6  169.91   32.02
  -1   2  -6  248.36   35.98
  -1   2  -6  267.22   45.35
  -1   2  -6  251.16   28.50
  -1   2  -6  269.70   22.63
   1  -2   7  457.94   47.08
   1  -2   7  546.36  108.99
   1  -2   7  501.22   71.94
  -1   2  -7  495.53   71.99
  -1   2  -7  469.07   52.17
  -1   2  -7  459.08   40.99
  -1   2  -7  476.63   44.00
   1  -2   8  262.66   26.68
   1  -2   8  247.46   61.24
   1  -2   8  230.28   38.43
  -1   2  -8  234.17   39.54
  -1   2  -8  246.06   66.57
  -1   2  -8  245.99   28.42
  -1   2  -8  220.05   29.43
   1  -2   9  254.01   59.71
   1  -2   9  233.54   37.26
  -1   2  -9  231.51   19.93
  -1   2  -9  225.96   23.46
   1  -2  10  122.66   37.83
   1  -2  10  113.83   13.41
  -1   2 -10  111.93   13.37
  -1   2 -10  111.51   15.44
   1  -2  11   18.07    8.31
   1  -2  11   39.76    8.60
  -1   2 -11   32.04    6.20
  -1   2 -11   16.20    3.02
   1  -2  12   -0.37    2.20
   1  -2  12    1.31    1.42
  -1   2 -12    0.59    1.45
   1  -2  13    7.92    4.79
   1  -2  13    5.13    4.27
   1  -2  14   67.75   16.90
   1  -2  14   54.41   21.86
   1  -2  15   68.96   21.96
  -1   2 -15   68.18    6.21
   1  -2  16   36.17    7.41
  -1   1  15    6.30    5.26
  -1   1  14    2.76    4.08
  -1   1  13   25.36    6.79
   1  -1 -12   68.62    6.76
  -1   1  12   86.53   13.36
   1  -1 -11   11.28    4.28
  -1   1  11  151.80    9.95
  -1   1  10  187.23   21.95
  -1   1  10  150.93   19.09
  -1   1   9  146.07   26.69
  -1   1   9   94.21   16.21
  -1   1   9  105.93   23.09
  -1   1   8   65.97   11.99
  -1   1   8  103.42   22.46
  -1   1   8   82.95   11.77
  -1   1   7    0.06    1.17
  -1   1   7    1.09    2.12
  -1   1   7   -0.28    1.88
  -1   1   6   58.52   14.16
  -1   1   6   85.62   15.95
  -1   1   6  139.08   24.25
  -1   1   6   93.99    8.17
  -1   1   5  337.48   70.40
  -1   1   5  442.37   56.16
  -1   1   5  279.68   30.03
  -1   1   5  348.87   32.45
  -1   1   4  260.80   38.52
  -1   1   4  141.30   25.93
  -1   1   4  207.32   41.78
  -1   1   4  210.05   24.62
  -1   1   3  303.18   27.69
  -1   1   3  322.58   35.87
  -1   1   3  257.94   42.75
  -1   1   3  324.67   45.05
  -1   1   2  474.80   77.16
  -1   1   2  436.54   60.82
  -1   1   2  430.87   38.78
  -1   1   2  493.78   71.55
  -1   1   2  478.08   47.44
   1  -1  -1   14.27    8.92
   1  -1  -1    9.87    8.04
  -1   1   1   23.51    3.88
  -1   1   1   14.90    7.36
  -1   1   1    7.27    4.89
  -1   1   1    5.08    4.12
  -1   1   1    3.13    5.66
   1  -1   0   61.35   15.10
  -1   1   0   11.25   11.69
  -1   1   0   28.23    6.93
  -1   1   0   64.07   13.75
   1  -1   1  249.81   47.96
   1  -1   1  134.90   39.85
  -1   1  -1  194.78   35.68
  -1   1  -1  211.50   43.49
   1  -1   2   73.71   10.59
   1  -1   2   82.18   15.22
   1  -1   2   73.53   14.03
  -1   1  -2   47.23    3.86
  -1   1  -2   16.59   10.68
  -1   1  -2   27.18    7.75
  -1   1  -2   96.94   21.78
  -1   1  -2   60.45   11.92
   1  -1   3  413.33   76.12
   1  -1   3  390.11   72.91
   1  -1   3  434.19  104.91
   1  -1   3  433.12   53.18
  -1   1  -3  388.80   45.13
  -1   1  -3  479.15   79.47
  -1   1  -3  373.23   43.41
  -1   1  -3  408.14   53.40
   1  -1   4  448.92   66.79
   1  -1   4  418.67   72.97
   1  -1   4  384.65   37.30
  -1   1  -4  491.64  124.11
  -1   1  -4  412.13   51.75
  -1   1  -4  434.98   46.99
  -1   1  -4  391.18   44.51
   1  -1   5  205.71   38.44
   1  -1   5  190.94   51.51
   1  -1   5  156.82   11.35
   1  -1   5  174.40   17.02
  -1   1  -5  191.03   61.83
  -1   1  -5  199.60   23.96
  -1   1  -5  193.23   21.92
  -1   1  -5  203.73   34.71
   1  -1   6  303.61   78.20
   1  -1   6  306.76   38.44
   1  -1   6  298.59   42.88
  -1   1  -6  336.76   56.91
  -1   1  -6  271.26   44.32
  -1   1  -6  286.46   32.62
  -1   1  -6  295.71   54.55
   1  -1   7  190.04   52.25
   1  -1   7  170.49   25.97
  -1   1  -7  211.53   62.33
  -1   1  -7  155.68   19.12
  -1   1  -7  171.02   18.84
  -1   1  -7  158.37   16.47
   1  -1   8   38.92   21.87
   1  -1   8   40.39    6.08
  -1   1  -8   45.15    6.40
  -1   1  -8   47.14   10.33
  -1   1  -8   38.08   12.33
   1  -1   9   92.49   18.52
   1  -1   9  106.66   35.80
  -1   1  -9   85.96   19.40
  -1   1  -9  103.53   18.13
   1  -1  10  104.78   38.00
   1  -1  10   95.68   19.22
  -1   1 -10   96.73   18.59
  -1   1 -10  104.90   11.44
   1  -1  11  121.95   39.54
   1  -1  11  120.35   21.02
  -1   1 -11  108.32   18.42
  -1   1 -11  124.00   19.58
   1  -1  12  113.35   18.86
   1  -1  12   97.74   30.80
  -1   1 -12   87.15   13.32
  -1   1 -12  101.56   15.54
   1  -1  13   63.89   13.85
   1  -1  13   73.41    9.06
  -1   1 -13   58.01   10.21
   1  -1  14   12.74    4.94
   1  -1  14   11.99    4.39
   1  -1  15    3.14    4.60
  -1   1 -15    5.10    1.07
  -1   0  16   64.51   19.40
  -1   0  15  102.64   16.11
  -1   0  14  117.34   29.41
  -1   0  13  109.30   29.79
  -1   0  12   24.11    6.53
  -1   0  11    1.93    3.87
  -1   0  11    6.71    2.87
  -1   0  10   46.94    9.53
  -1   0  10   37.40   12.69
  -1   0  10   68.47   16.96
  -1   0   9  191.13   34.00
  -1   0   9  127.25   25.33
  -1   0   9  148.68   22.60
  -1   0   8  291.13   45.46
  -1   0   8  330.47   33.42
  -1   0   8  340.73   45.62
  -1   0   7  241.16   37.73
  -1   0   7  227.55   33.96
  -1   0   7  324.33   44.53
  -1   0   7  249.89   17.67
  -1   0   6  385.59   56.20
  -1   0   6  248.58   49.89
  -1   0   6  358.34   53.45
  -1   0   6  330.49   29.44
  -1   0   5   79.84   21.77
  -1   0   5  108.57   21.59
  -1   0   5  101.58   25.12
  -1   0   5   86.42   12.21
  -1   0   4    1.02    2.55
  -1   0   4    1.79    3.81
  -1   0   4    3.78    3.28
  -1   0   4    3.60    2.38
  -1   0   3   75.77   11.47
  -1   0   3   54.53   20.11
  -1   0   3   42.42   12.29
  -1   0   3   42.85    8.23
  -1   0   2  217.60   37.41
  -1   0   2  143.28   47.09
  -1   0   2  200.07   21.97
  -1   0   2  199.13   25.05
  -1   0   2  244.74   44.90
  -1   0   2  259.83   33.91
   1   0  -1  496.31   85.89
  -1   0   1  428.39   49.52
  -1   0   1  462.67   71.80
  -1   0   1  408.36   89.23
  -1   0   1  407.01   43.15
  -1   0   1  367.08   33.66
  -1   0   1  482.84   80.69
   1   0   0 1894.26  343.28
  -1   0   0 1665.52  302.64
  -1   0   0 1649.73  246.46
  -1   0   0 1692.62  278.41
  -1   0   0 1758.88  293.03
   1   0   1  510.98   80.25
   1   0   1  469.36   83.65
   1   0   1  462.19   82.54
  -1   0  -1  467.45   79.84
  -1   0  -1  431.52   52.98
  -1   0  -1  451.52   64.19
   1   0   2  170.87   36.67
   1   0   2  216.71   23.58
   1   0   2  190.95   30.19
   1   0   2  178.78   26.69
  -1   0  -2  187.81   43.89
  -1   0  -2  181.23   18.71
  -1   0  -2  176.52   24.64
   1   0   3   26.05   11.05
   1   0   3   17.24    7.94
   1   0   3   -0.65    6.81
   1   0   3   26.28    5.82
  -1   0  -3   30.46    6.61
  -1   0  -3   25.07    9.42
  -1   0  -3   26.70    5.89
  -1   0  -3   23.14    3.85
   1   0   4    1.66    7.05
   1   0   4    2.13    3.40
   1   0   4    4.57    1.44
  -1   0  -4    3.62    7.11
  -1   0  -4    0.46    5.98
  -1   0  -4    0.55    4.39
  -1   0  -4    2.36    1.73
   1   0   5  110.02   22.55
   1   0   5  118.33   13.79
   1   0   5   85.53    5.39
  -1   0  -5   -1.48   27.38
  -1   0  -5  126.03   15.00
  -1   0  -5  125.25   12.45
  -1   0  -5  103.46   14.43
   1   0   6  342.90   40.97
   1   0   6  311.74   78.97
  -1   0  -6  367.42   56.14
  -1   0  -6  317.51   36.72
  -1   0  -6  332.83   25.27
   1   0   7  222.16   30.40
   1   0   7  252.61   65.98
  -1   0  -7  241.80   23.17
  -1   0  -7  250.79   39.61
  -1   0  -7  241.86   27.09
   1   0   8  257.62   41.69
   1   0   8  243.86   33.49
  -1   0  -8  271.27   42.73
  -1   0  -8  260.28   44.18
  -1   0  -8  260.85   25.82
   1   0   9  111.26   23.51
   1   0   9  104.53   11.17
  -1   0  -9  127.97   21.11
  -1   0  -9   98.57   21.81
   1   0  10   20.92   10.24
   1   0  10   36.23    8.67
  -1   0 -10   35.74    8.70
  -1   0 -10   22.82    9.84
   1   0  11    0.45    3.46
   1   0  11   -1.83    1.69
  -1   0 -11   -0.57    1.50
  -1   0 -11    0.18    1.16
   1   0  12    3.10    3.29
   1   0  12    3.75    5.57
  -1   0 -12    6.87    3.49
   1   0  13   49.55   10.58
   1   0  13   54.67   10.89
  -1   0 -13   55.08   10.96
   1   0  14   51.68   14.45
  -1   0 -14   54.25    6.30
   1   0  15   28.44    4.94
  -1  -1  16   12.06    4.54
  -1  -1  15   -0.43    2.99
  -1  -1  14    8.58    6.34
  -1  -1  14   36.14   10.24
  -1  -1  13  126.86   26.78
  -1  -1  13   72.14   18.30
  -1  -1  12   91.00   13.92
  -1  -1  12  143.06   18.31
  -1  -1  11  140.72   34.11
  -1  -1  11  162.05   34.18
  -1  -1  10  226.63   29.46
  -1  -1  10  223.05   42.53
  -1  -1   9   93.41   25.77
  -1  -1   9   99.22   21.44
  -1  -1   8   35.68    9.10
  -1  -1   8    9.71   11.88
  -1  -1   7   49.15    9.18
  -1  -1   7   46.79   11.21
  -1  -1   7   39.60    4.12
  -1  -1   7   34.59    4.17
  -1  -1   6  297.27   59.36
  -1  -1   6  217.60   31.57
  -1  -1   6  267.01   41.29
  -1  -1   6  244.90   25.90
  -1  -1   5  636.70   79.27
  -1  -1   5  511.65   71.51
  -1  -1   5  724.12   87.96
  -1  -1   5  599.76   81.99
  -1  -1   4  606.66   75.87
  -1  -1   4  531.18   62.08
  -1  -1   4  660.09  120.89
  -1  -1   4  681.98   88.81
  -1  -1   3  323.09   36.53
  -1  -1   3  327.58   32.62
  -1  -1   3  348.80   77.84
  -1  -1   3  336.47   24.01
  -1  -1   3  371.43   37.84
  -1  -1   3  361.57   41.96
   1   1  -2  469.54   89.80
  -1  -1   2  403.83   41.58
  -1  -1   2  355.56   47.94
  -1  -1   2  344.16   54.44
  -1  -1   2  406.85   36.12
  -1  -1   2  423.43   72.80
  -1  -1   2  411.15   52.63
   1   1  -1  321.34   68.46
   1   1  -1  244.43   71.60
  -1  -1   1  256.05   38.38
  -1  -1   1  320.27   62.64
  -1  -1   1  279.10   40.40
  -1  -1   1  220.92   40.97
  -1  -1   1  355.45   67.49
   1   1   0  478.62   74.68
   1   1   0  564.40  102.11
  -1  -1   0  463.35   78.04
  -1  -1   0  525.39   77.37
  -1  -1   0  533.71   81.92
  -1  -1   0  444.54  113.99
  -1  -1   0  483.04   81.27
   1   1   1  541.61   99.28
   1   1   1  495.27   73.50
   1   1   1  508.47   55.61
  -1  -1  -1  507.84   89.11
  -1  -1  -1  653.43  152.56
  -1  -1  -1  529.66   85.19
  -1  -1  -1  501.41   72.21
   1   1   2  345.83  100.03
   1   1   2  430.07   93.65
   1   1   2  410.80   39.75
  -1  -1  -2  397.06   35.51
  -1  -1  -2  387.71   69.96
  -1  -1  -2  499.37   77.49
  -1  -1  -2  383.02   47.03
  -1  -1  -2  454.32   96.10
   1   1   3  563.29  116.64
   1   1   3  634.73   75.36
   1   1   3  641.72  109.48
  -1  -1  -3  554.82  100.00
  -1  -1  -3  701.13  111.12
  -1  -1  -3  683.94   70.13
  -1  -1  -3  637.37  114.78
  -1  -1  -3  655.32   92.06
   1   1   4  531.66   85.14
   1   1   4  542.60   58.98
   1   1   4  528.04   68.99
  -1  -1  -4  637.54  137.54
  -1  -1  -4  539.40   91.90
  -1  -1  -4  504.57   50.52
  -1  -1  -4  584.11  113.02
  -1  -1  -4  471.36   83.60
   1   1   5  176.08   48.13
   1   1   5  209.43   45.01
   1   1   5  135.32   10.55
  -1  -1  -5  172.97   31.83
  -1  -1  -5  173.93   10.97
  -1  -1  -5  201.63   42.36
  -1  -1  -5  173.51   20.09
   1   1   6   33.73   10.24
   1   1   6   57.86   18.00
   1   1   6   32.56    6.04
  -1  -1  -6   46.10    3.55
  -1  -1  -6   57.85   10.89
  -1  -1  -6   42.01    7.46
  -1  -1  -6   49.00   13.83
   1   1   7    1.48   12.41
   1   1   7   20.36    4.30
  -1  -1  -7   23.72    4.51
  -1  -1  -7    5.70    8.75
   1   1   8   83.39   29.85
   1   1   8   94.25   15.04
  -1  -1  -8   91.62   13.19
  -1  -1  -8   82.70   10.51
   1   1   9  173.82   31.63
   1   1   9  177.35   17.03
  -1  -1  -9  191.82   30.96
  -1  -1  -9  200.16   38.51
   1   1  10   92.72   20.12
   1   1  10   95.76   10.11
  -1  -1 -10  109.14   14.07
  -1  -1 -10  102.70   18.31
   1   1  11   76.23   26.50
   1   1  11   72.99    8.46
  -1  -1 -11   69.17   13.10
  -1  -1 -11   87.40   19.81
   1   1  12   27.01   14.19
  -1  -1 -12   52.16   12.58
   1   1  13    3.98    2.03
  -1  -1 -13    5.30    3.34
   1   1  14   -0.08    0.84
  -1  -1 -14   -0.74    0.83
  -1  -2  16   38.24    5.11
  -1  -2  16  119.10   19.17
  -1  -2  15  136.54   27.41
  -1  -2  15   57.98   15.64
  -1  -2  14   49.35   17.68
  -1  -2  14   77.66   24.32
  -1  -2  13   14.98   11.50
  -1  -2  13   33.73    7.98
  -1  -2  12    2.43    4.61
  -1  -2  12    4.75    4.78
  -1  -2  11    8.19    7.86
  -1  -2  11   14.70    7.54
  -1  -2  10  226.26   51.31
  -1  -2  10  280.58   48.18
  -1  -2   9  410.03   77.20
  -1  -2   9  326.60   37.04
  -1  -2   8  410.32   74.92
  -1  -2   8  304.62   27.15
  -1  -2   8  324.96   33.73
  -1  -2   7  322.60   63.57
  -1  -2   7  314.29   24.24
  -1  -2   7  302.93   31.39
  -1  -2   6  156.34   37.96
  -1  -2   6  132.81   10.98
  -1  -2   6  145.20   18.75
  -1  -2   6  158.92   25.21
  -1  -2   5    2.91    2.53
  -1  -2   5    1.32    1.48
  -1  -2   5    1.85    0.52
  -1  -2   5    5.13    3.18
  -1  -2   5    3.32    2.45
   1   2  -4  128.12   35.29
  -1  -2   4  110.35   12.62
  -1  -2   4   87.75    7.59
  -1  -2   4  129.84   38.26
  -1  -2   4  119.02   13.42
  -1  -2   4  127.76   19.37
   1   2  -3  212.46   47.11
   1   2  -3  159.98   48.66
  -1  -2   3  158.99   21.78
  -1  -2   3  163.38   14.96
  -1  -2   3  179.99   51.42
  -1  -2   3  197.89   26.32
  -1  -2   3  203.25   37.10
   1   2  -2  450.04  115.21
   1   2  -2  523.42   97.40
  -1  -2   2  536.62  116.56
  -1  -2   2  532.45   57.09
  -1  -2   2  547.09   93.33
  -1  -2   2  525.04   91.09
   1   2  -1  690.67  131.19
   1   2  -1  544.98   80.83
   1   2  -1  677.76  121.34
  -1  -2   1  576.52   69.02
  -1  -2   1  541.12  106.06
  -1  -2   1  625.97  101.14
  -1  -2   1  607.75  107.61
   1   2   0  379.03   58.32
   1   2   0  451.20   52.81
  -1  -2   0  387.48   50.63
  -1  -2   0  437.90   58.76
  -1  -2   0  409.87   64.32
  -1  -2   0  424.60   90.54
  -1  -2   0  389.08   37.82
  -1  -2   0  468.56   75.82
   1   2   1  122.47   33.82
   1   2   1  138.20   45.18
   1   2   1  175.84   34.01
  -1  -2  -1  173.34   38.91
  -1  -2  -1  177.88   54.50
  -1  -2  -1  118.32   25.85
  -1  -2  -1  141.42   23.21
  -1  -2  -1  140.46   21.53
   1   2   2   54.39   17.07
   1   2   2   93.02   28.99
   1   2   2   80.29   10.24
  -1  -2  -2   70.31    9.58
  -1  -2  -2   99.91   21.39
  -1  -2  -2   99.86   14.26
  -1  -2  -2   89.12   15.21
  -1  -2  -2   92.84   21.36
  -1  -2  -2   64.41   17.91
   1   2   3   16.51   14.78
   1   2   3   25.05    5.77
   1   2   3   14.77   10.86
  -1  -2  -3   48.89   11.12
  -1  -2  -3   14.25   18.73
  -1  -2  -3   19.01   15.74
  -1  -2  -3   35.21    5.97
  -1  -2  -3   33.11    6.83
   1   2   4  122.66   41.25
   1   2   4  150.66   32.83
   1   2   4  126.88   17.40
   1   2   4  101.62   12.18
  -1  -2  -4  176.96   42.46
  -1  -2  -4  131.20   14.01
  -1  -2  -4  153.43   34.29
  -1  -2  -4  120.01   15.00
  -1  -2  -4  111.91   26.46
   1   2   5  213.63   57.30
   1   2   5  265.54   42.81
   1   2   5  234.43   26.23
  -1  -2  -5  250.92   17.90
  -1  -2  -5  262.71   28.56
  -1  -2  -5  217.56   44.07
  -1  -2  -5  319.70   62.14
   1   2   6  210.31   50.29
   1   2   6  281.02   27.86
   1   2   6  228.56   25.62
  -1  -2  -6  243.90   26.06
  -1  -2  -6  272.57   24.05
  -1  -2  -6  220.83   27.66
   1   2   7  162.35   18.88
   1   2   7  172.28   26.30
  -1  -2  -7  211.00   32.88
  -1  -2  -7  190.65   36.48
   1   2   8  104.41   30.95
   1   2   8   98.67   13.65
  -1  -2  -8  124.94   22.21
  -1  -2  -8  117.62   27.54
   1   2   9    0.78    3.31
   1   2   9    2.99    2.94
  -1  -2  -9    8.08    3.55
  -1  -2  -9    4.64    2.82
   1   2  10    1.66    4.69
  -1  -2 -10    3.73    2.74
  -1  -2 -10    2.64    2.27
   1   2  11   14.26    8.83
  -1  -2 -11   11.86    4.95
  -1  -2 -11   32.65    8.81
   1   2  12   14.92    9.03
  -1  -2 -12   55.91   11.01
   1   2  13   24.67    4.06
  -1  -2 -13   73.72    9.67
   1   3 -16   24.28    4.02
  -1  -3  16   -0.10    6.71
  -1  -3  15   27.83   13.47
  -1  -3  15   71.99   20.05
  -1  -3  14  144.23   24.29
  -1  -3  14  126.37   36.81
  -1  -3  13  241.33   35.63
  -1  -3  13  299.88   65.60
  -1  -3  12   95.15   31.61
  -1  -3  12  118.15   33.21
  -1  -3  11   61.11   21.68
  -1  -3  11   52.61   19.11
  -1  -3  10   15.72   10.25
  -1  -3  10   15.01    8.38
  -1  -3   9   13.45    8.81
  -1  -3   9   10.43    6.63
  -1  -3   8  168.53   35.55
  -1  -3   8  121.04    8.70
  -1  -3   8  159.18   25.78
   1   3  -7  336.75   43.31
  -1  -3   7  298.42   36.51
  -1  -3   7  227.33   20.14
  -1  -3   7  241.97   39.74
   1   3  -6  159.10   43.66
  -1  -3   6  150.34   36.03
  -1  -3   6  123.59   12.25
  -1  -3   6  108.80   22.43
   1   3  -5  202.92   30.14
  -1  -3   5  176.54   14.03
  -1  -3   5  228.21   53.46
  -1  -3   5  154.59   28.74
  -1  -3   5  189.23   19.63
   1   3  -4  209.30   22.50
   1   3  -4  184.16   47.31
  -1  -3   4  209.81   49.08
  -1  -3   4  202.99   35.69
  -1  -3   4  177.03   11.37
  -1  -3   4  183.39   19.89
   1   3  -3  142.24   23.14
   1   3  -3  114.67   39.80
   1   3  -3  150.33   30.36
  -1  -3   3  133.69   12.91
  -1  -3   3  124.44   21.37
  -1  -3   3  132.83   18.37
  -1  -3   3  127.87   10.65
   1   3  -2    0.37    1.72
   1   3  -2    1.25    3.40
   1   3  -2    2.91    1.95
  -1  -3   2    0.37    1.13
  -1  -3   2    1.28    2.99
  -1  -3   2    0.29    1.45
  -1  -3   2   -0.16    1.10
   1   3  -1   17.93   23.07
   1   3  -1   58.77   12.26
   1   3  -1   72.78   24.50
  -1  -3   1   19.20   22.48
  -1  -3   1   55.52    4.50
  -1  -3   1   47.47   18.55
  -1  -3   1   52.38    9.61
  -1  -3   1   67.41   10.69
   1   3   0  199.39   58.46
   1   3   0  236.15   53.32
   1   3   0  242.81   31.37
  -1  -3   0  224.22   55.16
  -1  -3   0  151.37   13.91
  -1  -3   0  230.48   48.71
  -1  -3   0  215.80   34.68
  -1  -3   0  183.65   19.06
   1   3   1  237.06   31.17
   1   3   1  232.75   38.15
   1   3   1  277.38   73.39
  -1  -3  -1  295.69   67.34
  -1  -3  -1  178.45   28.36
  -1  -3  -1  192.83   29.62
  -1  -3  -1  262.09   37.10
  -1  -3  -1  215.79   19.84
  -1  -3  -1  212.15   20.39
   1   3   2  160.24   44.10
   1   3   2  204.58   24.98
   1   3   2  170.98   17.74
  -1  -3  -2  233.90   41.33
  -1  -3  -2  169.56   16.55
  -1  -3  -2  214.04   29.00
  -1  -3  -2  238.05   35.86
  -1  -3  -2  134.71   15.63
  -1  -3  -2  154.35   12.15
   1   3   3   77.73   15.49
   1   3   3   82.72   11.33
   1   3   3   77.76   15.32
   1   3   3   62.80    8.33
  -1  -3  -3   72.72    5.71
  -1  -3  -3   69.36   17.22
  -1  -3  -3   83.66   13.93
  -1  -3  -3   83.79   20.20
  -1  -3  -3   53.60   15.73
   1   3   4  131.65   36.84
   1   3   4  152.00   26.60
   1   3   4  111.55    9.31
  -1  -3  -4  121.89   26.28
  -1  -3  -4  110.27   25.13
  -1  -3  -4  129.58   15.62
  -1  -3  -4  206.95   18.02
  -1  -3  -4  137.71   20.21
   1   3   5   29.77   14.18
   1   3   5   28.75    5.07
  -1  -3  -5   36.78    5.95
  -1  -3  -5   43.67   11.06
  -1  -3  -5   40.29   11.75
   1   3   6    6.40    3.23
   1   3   6    6.24    2.72
  -1  -3  -6    6.61    4.90
  -1  -3  -6   11.74    3.25
   1   3   7   13.71   10.86
  -1  -3  -7   25.70    8.95
  -1  -3  -7   32.61   10.92
   1   3   8   45.17    9.29
  -1  -3  -8   45.31    7.53
  -1  -3  -8   64.52   17.26
   1   3   9   54.31   15.15
  -1  -3  -9   36.61    6.15
  -1  -3  -9   75.06   16.66
   1   3  10  119.21   18.28
  -1  -3 -10  101.41   20.97
  -1  -3 -10  193.11   20.30
   1   3  11   30.37   10.29
  -1  -3 -11   35.90    8.24
  -1  -3 -11   82.31    9.64
  -1  -3 -12   13.15    3.66
  -1  -3 -13    0.87    1.05
   1   4 -16   86.40    8.43
  -1  -4  16   64.99   11.50
   1   4 -15   58.01    8.08
  -1  -4  15   42.81   10.22
   1   4 -14    0.55    1.54
  -1  -4  14    6.49    4.20
  -1  -4  13    2.07    4.53
  -1  -4  13    0.97    4.80
  -1  -4  12    5.60    8.16
  -1  -4  12    9.65    7.43
  -1  -4  11  212.37   56.46
  -1  -4  11  214.47   50.21
  -1  -4  10  278.82   43.02
  -1  -4  10  296.31   58.05
  -1  -4   9  161.69   11.86
  -1  -4   9  226.82   46.86
  -1  -4   9  219.16   36.87
  -1  -4   8  191.09   38.22
  -1  -4   8  196.71   51.78
  -1  -4   8  181.09   25.75
   1   4  -7  100.28   35.96
  -1  -4   7  113.92   19.71
  -1  -4   7   91.09   16.34
   1   4  -6   -1.57    1.65
   1   4  -6   -3.56    4.32
  -1  -4   6   -2.25    3.67
  -1  -4   6   -0.65    1.30
   1   4  -5   83.58   18.67
   1   4  -5  135.20   21.50
   1   4  -5  138.51   15.31
  -1  -4   5  155.23   34.78
  -1  -4   5  105.49   11.65
  -1  -4   5  162.00   27.10
   1   4  -4  115.22   15.89
   1   4  -4  127.94   32.46
   1   4  -4   95.16   24.33
   1   4  -4  138.35   23.16
  -1  -4   4  112.61   15.44
  -1  -4   4  137.86   28.05
  -1  -4   4  132.08   31.37
   1   4  -3  356.14   48.26
   1   4  -3  285.15   40.75
   1   4  -3  354.55   44.89
   1   4  -3  345.76   51.35
  -1  -4   3  335.08   42.58
  -1  -4   3  360.75   43.22
  -1  -4   3  316.58   58.59
   1   4  -2  410.66   88.25
   1   4  -2  558.98   87.63
   1   4  -2  503.02   96.76
  -1  -4   2  467.02   60.54
  -1  -4   2  353.50   29.21
  -1  -4   2  484.64   74.06
  -1  -4   2  399.01   33.91
  -1  -4   2  406.10   66.88
   1   4  -1  215.06   61.62
   1   4  -1  271.47   30.67
   1   4  -1  240.68   54.46
  -1  -4   1  267.34   46.19
  -1  -4   1  226.76   25.09
  -1  -4   1  229.77   22.93
  -1  -4   1  177.04   18.48
  -1  -4   1  201.46   37.47
   1   4   0   69.90   29.10
   1   4   0   79.89   17.40
   1   4   0   70.67   20.25
  -1  -4   0   80.99   13.93
  -1  -4   0   56.85    8.75
  -1  -4   0   86.09   11.55
  -1  -4   0   68.22    8.92
   1   4   1   94.52   15.17
   1   4   1   90.38   17.88
   1   4   1   96.00   25.68
  -1  -4  -1   54.36    9.68
  -1  -4  -1   93.35   30.03
  -1  -4  -1   88.00   13.67
  -1  -4  -1   59.94   11.41
   1   4   2   54.28    9.44
   1   4   2   64.58   12.96
   1   4   2   33.37    5.60
   1   4   2   58.55   13.05
  -1  -4  -2   34.43    4.11
  -1  -4  -2   45.84    8.93
  -1  -4  -2   49.46   12.49
  -1  -4  -2   39.53    7.96
  -1  -4  -2   62.61    6.26
  -1  -4  -2   37.34    6.00
   1   4   3  191.95   39.01
   1   4   3  185.97   18.41
  -1  -4  -3  137.46   18.42
  -1  -4  -3  164.91   10.51
  -1  -4  -3  224.54   31.39
  -1  -4  -3  185.07   16.93
   1   4   4  221.43   42.34
   1   4   4  147.90   18.70
  -1  -4  -4  164.67   20.68
  -1  -4  -4  190.62   17.39
  -1  -4  -4  220.66   20.43
   1   4   5  161.17   22.54
  -1  -4  -5  147.40   31.82
  -1  -4  -5  188.01   20.34
   1   4   6  154.70   32.94
  -1  -4  -6  167.77   35.94
  -1  -4  -6  246.64   38.36
   1   4   7   84.36   12.36
  -1  -4  -7   80.58   20.25
  -1  -4  -7  136.50   25.06
   1   4   8    0.31    3.76
  -1  -4  -8    3.42    3.64
  -1  -4  -8   11.96    4.92
  -1  -4  -9    4.56    2.30
  -1  -4  -9   15.67    3.46
  -1  -4 -10   12.00    5.83
  -1  -4 -10   46.85   10.01
  -1  -4 -11   71.40   18.33
  -1  -4 -12   91.28   17.99
   1   5 -16   28.48    6.53
  -1  -5  16    8.49    9.67
   1   5 -15   64.72   12.51
  -1  -5  15   61.19   22.25
   1   5 -14   84.22    9.66
  -1  -5  14   89.28   16.67
   1   5 -13  109.42   21.65
  -1  -5  13   89.98   34.08
   1   5 -12  114.84   22.95
  -1  -5  12  113.38   41.75
   1   5 -11   24.65    8.50
  -1  -5  11   23.44   16.60
   1   5 -10   -0.69    1.73
  -1  -5  10   -0.06    3.52
  -1  -5  10    0.43    0.52
   1   5  -9   14.63    5.05
  -1  -5   9   22.44   12.75
  -1  -5   9   18.36    5.50
   1   5  -8  119.92   10.27
  -1  -5   8  139.91   21.55
  -1  -5   8  120.25   19.05
   1   5  -7  216.90   18.55
  -1  -5   7  221.68   22.35
  -1  -5   7  243.97   51.07
   1   5  -6  219.42   18.58
   1   5  -6  184.59   28.31
  -1  -5   6  209.24   14.94
  -1  -5   6  243.96   30.17
  -1  -5   6  250.80   41.97
   1   5  -5  143.73   25.93
   1   5  -5  162.89   21.28
   1   5  -5  134.80   18.52
  -1  -5   5  138.20   10.48
  -1  -5   5  151.66   32.40
  -1  -5   5  165.81   20.35
   1   5  -4  147.28   24.41
   1   5  -4  141.15   32.22
   1   5  -4  143.25   19.65
   1   5  -4  212.57   49.16
  -1  -5   4  179.86   21.94
  -1  -5   4  151.09   13.02
  -1  -5   4  122.08   32.71
   1   5  -3   11.42    9.20
   1   5  -3   16.33    6.82
   1   5  -3   26.80   11.53
   1   5  -3   11.31    3.33
  -1  -5   3   12.49    4.94
  -1  -5   3   20.37    8.46
  -1  -5   3   15.18    7.26
   1   5  -2   72.97   10.73
   1   5  -2  105.83   20.20
   1   5  -2   78.49   17.71
   1   5  -2  141.34   53.61
  -1  -5   2  100.31   19.22
  -1  -5   2  100.93   12.51
  -1  -5   2   75.31   19.80
   1   5  -1  211.22   55.70
   1   5  -1  252.34   37.81
   1   5  -1  183.41   20.87
   1   5  -1  291.22   74.71
  -1  -5   1  266.24   42.11
  -1  -5   1  181.84   33.71
  -1  -5   1  218.43   35.51
   1   5   0  202.10   55.43
   1   5   0  235.38   46.44
   1   5   0  228.66   21.72
   1   5   0  158.98   17.55
   1   5   0  252.98   56.82
  -1  -5   0  208.31   37.20
  -1  -5   0  186.09   12.23
  -1  -5   0  186.94   12.79
  -1  -5   0  177.64   18.15
   1   5   1  223.94   26.25
   1   5   1  234.62   29.72
   1   5   1  167.42   17.70
   1   5   1  260.01   40.52
  -1  -5  -1  218.51   21.85
  -1  -5  -1  227.22   16.75
  -1  -5  -1  199.41   24.43
   1   5   2  203.25   37.59
   1   5   2  151.58   21.76
  -1  -5  -2  194.21   37.16
  -1  -5  -2  170.84   19.24
  -1  -5  -2  126.10   14.53
   1   5   3   53.56   16.47
  -1  -5  -3   59.69    9.64
  -1  -5  -3   69.54   11.81
   1   5   4    0.63    2.17
  -1  -5  -4    0.39    2.44
  -1  -5  -4    0.76    1.87
   1   5   5    8.27    2.93
  -1  -5  -5   16.13    6.67
  -1  -5  -5   22.34    6.11
  -1  -5  -6   44.58   16.11
  -1  -5  -6   56.88    9.11
  -1  -5  -7  107.17   22.69
  -1  -5  -7   76.53   19.63
  -1  -5  -8   90.51   11.17
  -1  -5  -8   62.08    9.41
  -1  -5  -9   48.09   11.12
  -1  -5  -9   91.41   17.11
  -1  -5 -10   43.41   12.57
  -1  -5 -11    8.82    4.50
  -1  -6  16   17.26    8.28
   1   6 -15    2.51    1.45
  -1  -6  15    1.83    4.14
   1   6 -14    4.38    3.44
  -1  -6  14    3.94    3.28
   1   6 -13   41.86   10.50
  -1  -6  13   37.35   19.12
   1   6 -12   75.41    9.34
  -1  -6  12   80.19   27.61
   1   6 -11  122.12   21.67
  -1  -6  11  134.78   38.01
   1   6 -10  124.21   20.65
  -1  -6  10  141.41   37.44
  -1  -6  10  113.85   18.59
   1   6  -9   74.02   14.44
  -1  -6   9   78.82   14.32
  -1  -6   9   58.76   12.89
   1   6  -8   12.10    4.83
  -1  -6   8   15.42    8.52
  -1  -6   8    9.79    5.47
   1   6  -7    6.09    3.54
  -1  -6   7    7.41    3.48
  -1  -6   7    8.08    4.69
   1   6  -6   36.59    7.68
   1   6  -6   17.79    8.61
  -1  -6   6   36.66   12.93
  -1  -6   6   28.40    6.93
   1   6  -5  133.82   21.72
   1   6  -5  107.24   16.20
  -1  -6   5  127.32   29.86
  -1  -6   5  149.60   31.07
   1   6  -4  135.34   11.21
   1   6  -4  188.64   36.35
  -1  -6   4  180.47   29.26
  -1  -6   4  176.42   32.10
   1   6  -3  224.33   51.60
   1   6  -3  178.25   21.92
  -1  -6   3  221.46   22.82
  -1  -6   3  218.35   38.47
   1   6  -2  124.42   33.17
   1   6  -2   69.40    9.30
  -1  -6   2  121.07   19.47
  -1  -6   2  110.57   20.04
   1   6  -1   52.09   10.11
   1   6  -1   56.56   13.47
  -1  -6   1   49.68    7.62
   1   6   0   -1.53    1.63
   1   6   0    3.49    1.81
  -1  -6   0   -0.65    1.38
   1   6   1   10.92    6.84
  -1  -6  -1   16.94    5.10
  -1  -6  -1   12.50    2.23
   1   6   2   24.75    5.56
  -1  -6  -2   48.19   10.90
  -1  -6  -2   27.20    5.07
  -1  -6  -3  112.36   25.93
  -1  -6  -3  103.14   15.04
  -1  -6  -4  133.30   20.20
  -1  -6  -4  122.15   28.82
  -1  -6  -5   92.89   24.00
  -1  -6  -5   97.73   16.55
  -1  -6  -6   29.69    5.91
  -1  -6  -6   31.33    5.03
  -1  -6  -7    5.14    2.27
  -1  -6  -7    6.19    3.64
  -1  -6  -8   -0.43    0.88
  -1  -6  -8    0.45    1.31
  -1  -6  -9   35.73    8.87
  -1  -6 -10   51.87    6.13
  -1  -7  15   52.41   16.73
   1   7 -14   50.86   12.55
  -1  -7  14   50.70   17.86
   1   7 -13   24.94    8.50
  -1  -7  13   34.65    7.95
   1   7 -12    6.81    2.58
  -1  -7  12   12.92    4.21
   1   7 -11    7.69    4.14
  -1  -7  11   14.33    3.85
  -1  -7  11    3.80    2.46
   1   7 -10   51.84   12.44
  -1  -7  10   52.20   10.05
  -1  -7  10   36.55    6.29
   1   7  -9   74.54    9.57
  -1  -7   9   94.47   23.28
  -1  -7   9   61.97    8.62
   1   7  -8   85.39   21.80
  -1  -7   8  103.75   27.01
  -1  -7   8   85.67   19.83
   1   7  -7   94.84   20.77
  -1  -7   7   97.14   22.99
  -1  -7   7  112.84   28.34
   1   7  -6   36.62    8.55
   1   7  -6   44.35   13.12
  -1  -7   6   62.27   15.76
  -1  -7   6   59.18   16.11
   1   7  -5    4.21    4.07
   1   7  -5    0.78    1.85
  -1  -7   5    3.41    3.09
  -1  -7   5    4.96    2.33
   1   7  -4   -0.09    1.72
   1   7  -4    0.51    0.70
  -1  -7   4    0.32    1.88
  -1  -7   4    0.84    1.41
   1   7  -3   19.71   14.05
  -1  -7   3   22.01    8.74
  -1  -7   3   28.03    6.08
   1   7  -2   24.37    6.42
   1   7  -2   28.02    9.42
  -1  -7   2   31.13    6.02
   1   7  -1   63.12   15.15
   1   7  -1   93.19   34.58
  -1  -7   1  103.26   18.13
  -1  -7   0   82.62   16.31
  -1  -7   0   91.07    9.10
  -1  -7  -1   95.25   22.22
  -1  -7  -1   54.15    8.65
  -1  -7  -2   37.36    7.83
  -1  -7  -3    7.89    3.46
  -1  -7  -4    2.32    1.78
  -1  -7  -4    1.29    1.55
  -1  -7  -5   46.07   12.88
  -1  -7  -5   35.26    4.32
  -1  -7  -6   48.65   12.92
  -1  -7  -6   49.89    8.92
  -1  -7  -7   45.08    6.19
  -1  -7  -7   43.41    4.88
  -1  -7  -8   32.66    6.45
  -1  -8  14   13.49    7.21
   1   8 -13   52.37   13.26
  -1  -8  13   56.82   17.53
   1   8 -12   71.95   17.41
  -1  -8  12   80.85   22.60
   1   8 -11   45.87   12.24
  -1  -8  11   61.13   15.78
  -1  -8  11   34.41    7.02
   1   8 -10   56.03   12.38
  -1  -8  10   81.15   20.24
  -1  -8  10   71.44   15.48
   1   8  -9   17.06    3.48
  -1  -8   9   29.44    5.80
  -1  -8   9   23.21    7.69
   1   8  -8    1.13    1.65
  -1  -8   8    0.92    2.67
  -1  -8   8    1.63    2.44
   1   8  -7    5.17    3.46
  -1  -8   7   13.44    5.33
  -1  -8   7   15.43    3.86
   1   8  -6   15.43   13.57
  -1  -8   6   40.37    6.45
  -1  -8   6   47.61    8.28
   1   8  -5  132.54   34.45
  -1  -8   5  141.97   16.32
  -1  -8   5  170.08   32.95
   1   8  -4  244.55   38.83
  -1  -8   4  297.84   50.38
   1   8  -3   51.30   14.13
   1   8  -3   65.15   25.81
  -1  -8   3   76.94   16.89
   1   8  -2   10.94    6.60
  -1  -8   2   12.62    3.44
  -1  -8   1   -0.24    1.67
  -1  -8   1    1.29    1.67
  -1  -8   0   16.50    8.98
  -1  -8   0   11.42    2.25
  -1  -8  -1   89.00   13.24
  -1  -8  -2  104.80   15.53
  -1  -8  -3   60.80    9.96
  -1  -8  -4   53.71    9.00
  -1  -8  -5    8.54    4.69
  -1  -8  -6    0.46    1.42
  -1  -8  -6    0.18    0.73
  -1  -9  13    0.28    1.40
  -1  -9  12    1.12    1.20
  -1  -9  12   -0.08    0.36
  -1  -9  11    5.96    3.19
  -1  -9  11    3.20    2.65
   1   9 -10   28.54    3.30
  -1  -9  10   43.33    8.35
  -1  -9  10   40.78    8.95
  -1  -9   9   49.03    7.09
  -1  -9   9   62.61    9.87
  -1  -9   8   56.79   13.58
  -1  -9   8   75.35   17.10
  -1  -9   7   36.08    9.33
  -1  -9   7   46.29   13.41
   1   9  -6   -0.08    1.67
   1   9  -6    4.29    3.01
  -1  -9   6    4.40    3.13
   1   9  -5    3.39    4.29
  -1  -9   5    2.16    3.82
   1   9  -4   11.36    5.31
  -1  -9   4   11.91    6.79
  -1  -9   3   43.04   11.28
  -1  -9   3   34.14    8.19
  -1  -9   2   86.56   13.56
  -1  -9   2   66.34    8.93
  -1  -9   1   57.54   16.99
  -1  -9   1   63.69   12.89
  -1  -9   0   45.10   13.86
  -1  -9  -1   15.59    7.56
  -1  -9  -2    0.84    1.31
  -1  -9  -3    6.30    4.50
  -1  -9  -4   10.58    4.78
  -1  -9  -5   28.41    4.03
  -1 -10  11    1.19    1.57
   1  10 -10   -0.10    0.96
  -1 -10  10    1.37    1.40
   1  10  -9    0.05    0.97
  -1 -10   9    2.11    1.79
  -1 -10   8   18.01    5.20
  -1 -10   7    3.45    3.16
  -1 -10   7   36.40    6.98
  -1 -10   6   31.81    4.99
  -1 -10   6   64.89   14.37
  -1 -10   5   35.58   10.79
  -1 -10   5   47.57   12.34
  -1 -10   4    8.99    6.70
  -1 -10   4   19.03    7.47
  -1 -10   3    1.93    1.74
  -1 -10   3    5.04    1.95
  -1 -10   2   -1.41    1.91
  -1 -10   2    0.14    1.61
  -1 -10   1    4.72    2.17
  -1 -10   0   11.58    3.12
  -1 -10  -1   24.58    8.20
  -1 -10  -2   30.74    7.77
  -1 -11   9   21.87    4.02
  -1 -11   8    8.98    4.28
  -1 -11   7    8.55    2.43
  -1 -11   6    0.58    0.59
  -1 -11   6    1.97    1.08
  -1 -11   5    1.80    1.37
  -1 -11   5   12.25    1.89
  -1 -11   4    7.98    4.32
  -1 -11   4   19.59    4.44
  -1 -11   3   10.47    4.04
  -1 -11   2   12.10    4.50
  -2  11   1    0.30    1.27
  -2  11   0    1.17    1.84
   2 -11   1    6.72    1.52
  -2  11  -1    0.33    1.12
  -2  11  -1    2.94    2.35
   2 -11   2   12.55    4.60
  -2  11  -2    7.75    3.76
  -2  11  -2   -0.01    4.40
   2 -11   3   12.13    6.21
  -2  11  -3    9.22    4.37
  -2  11  -3    1.80    5.93
   2 -11   4    4.62    5.64
  -2  11  -4    7.40    5.41
  -2  11  -4    5.79    3.81
   2 -11   5    5.55    4.37
  -2  11  -5    2.16    5.39
  -2  11  -5    4.70    1.68
   2 -11   6    0.71    1.21
  -2  11  -6   -2.42    3.06
  -2  11  -6    1.05    1.67
   2 -11   7    1.64    1.77
  -2  11  -7   -0.20    2.64
  -2  11  -7   -0.03    0.73
   2 -11   8    2.54    2.77
  -2  11  -8    6.23    4.81
  -2  11  -8    2.54    2.18
  -2  11  -9   14.71    7.69
  -2  10   4    0.60    1.52
   2 -10  -3    8.84    1.26
  -2  10   3    5.23    2.67
  -2  10   2    5.12    3.53
   2 -10  -1    2.13    1.65
  -2  10   1    5.83    3.05
   2 -10   0    6.68    2.73
  -2  10   0    2.75    3.64
   2 -10   1    1.54    2.90
  -2  10  -1   -0.03    2.14
  -2  10  -1    0.91    1.98
   2 -10   2    0.40    2.72
  -2  10  -2    0.53    2.06
  -2  10  -2    0.05    1.75
   2 -10   3    1.61    4.69
  -2  10  -3    1.08    2.34
  -2  10  -3    2.83    1.51
   2 -10   4   10.62    8.52
  -2  10  -4    6.43    7.03
  -2  10  -4    9.64    3.21
   2 -10   5   49.29    9.93
  -2  10  -5   19.41   15.96
  -2  10  -5   31.75    9.69
   2 -10   6   19.74    9.81
  -2  10  -6   13.82    5.51
  -2  10  -6   16.08    5.70
   2 -10   7   24.54    5.47
  -2  10  -7   14.59   11.66
  -2  10  -7   19.05    6.94
   2 -10   8    3.43    3.17
  -2  10  -8    4.60    1.64
  -2  10  -8    7.61    6.34
   2 -10   9    0.16    0.62
  -2  10  -9    1.38    2.63
  -2  10  -9   -0.17    1.04
  -2  10 -10   -0.55    2.80
  -2  10 -10    0.46    0.99
  -2  10 -11    7.14    5.29
   2  -9  -6   25.29    3.65
  -2   9   6    4.73    7.09
  -2   9   5    9.88    4.91
  -2   9   5    6.20    4.13
  -2   9   4    3.98    4.15
  -2   9   4    6.31    2.52
  -2   9   3    3.03    3.00
  -2   9   3    2.84    1.81
   2  -9  -2   -0.06    1.59
  -2   9   2    1.20    1.66
  -2   9   2   -0.03    0.88
   2  -9  -1    3.53    4.02
  -2   9   1    3.44    3.18
  -2   9   1    2.28    2.91
   2  -9   0   37.72    8.49
  -2   9   0   10.97    8.87
   2  -9   1   28.18   17.16
  -2   9  -1    5.41   10.25
  -2   9  -1   40.18    8.78
   2  -9   2   35.72   23.93
  -2   9  -2   34.54    8.11
  -2   9  -2   64.99   13.76
   2  -9   3   32.30   24.95
  -2   9  -3   34.73    9.11
  -2   9  -3   68.49   13.69
   2  -9   4   19.83    7.66
  -2   9  -4   13.44    5.90
  -2   9  -4   11.89   11.51
   2  -9   5   -1.70    3.86
  -2   9  -5   -0.28    3.89
  -2   9  -5   -0.61    1.15
   2  -9   6    9.56    4.30
  -2   9  -6    6.49    3.73
  -2   9  -6   12.37    5.66
   2  -9   7    8.31   10.25
  -2   9  -7   25.13    9.23
  -2   9  -7   24.56    5.47
   2  -9   8   10.45    9.27
  -2   9  -8   25.92   17.97
  -2   9  -8   34.96    6.71
   2  -9   9    7.07    2.95
  -2   9  -9   11.76    7.99
  -2   9 -10   24.20   12.68
  -2   9 -10   16.88    2.51
  -2   9 -11    7.52    3.43
  -2   9 -11    3.63    1.79
  -2   9 -12    0.99    3.15
   2  -8  -8   10.46    2.50
  -2   8   8    1.56    3.54
  -2   8   7    1.76    1.98
  -2   8   7    1.76    1.47
  -2   8   6   -0.69    1.80
  -2   8   6    3.24    2.70
  -2   8   5    2.81    4.14
  -2   8   5    7.46    5.30
  -2   8   4   44.44    7.55
  -2   8   4   63.05   17.24
   2  -8  -3   42.93   14.96
  -2   8   3   53.18    8.39
  -2   8   3   72.61   19.25
   2  -8  -2   44.67    9.99
  -2   8   2   48.75   12.84
  -2   8   2   50.36    9.09
   2  -8  -1   17.38   21.45
  -2   8   1   48.08   12.12
  -2   8   1   46.01    8.21
   2  -8   0   14.96    5.93
  -2   8   0    4.19    5.09
  -2   8   0    9.43    4.67
  -2   8   0    8.42    5.96
   2  -8   1    3.89    3.70
  -2   8  -1    5.33    3.11
  -2   8  -1    0.92    3.33
  -2   8  -1    0.04    2.98
   2  -8   2   18.73   10.93
  -2   8  -2   11.77   12.07
  -2   8  -2   31.65    7.42
   2  -8   3   52.34   19.04
  -2   8  -3   22.32   24.51
  -2   8  -3   85.45   15.65
   2  -8   4  120.38   45.34
  -2   8  -4  102.83   35.10
  -2   8  -4  105.63   21.36
   2  -8   5   94.69   17.23
  -2   8  -5   98.05   29.49
  -2   8  -5   53.30   12.33
   2  -8   6   19.41   17.78
  -2   8  -6   30.71   18.64
  -2   8  -6   43.40    5.55
   2  -8   7   12.68    8.38
  -2   8  -7   19.38    5.82
  -2   8  -7    9.55    3.96
   2  -8   8    1.47    2.67
  -2   8  -8    1.06    4.72
  -2   8  -8    2.20    1.01
  -2   8  -9   11.74    6.11
  -2   8  -9    4.59    2.43
  -2   8 -10   31.67    6.17
  -2   8 -10   12.57    4.08
  -2   8 -11   37.37    8.37
  -2   8 -12   29.12   13.16
  -2   8 -13   18.94    8.37
   2  -7  -9   17.08    2.79
  -2   7   9    2.19    1.94
  -2   7   8    9.76    8.85
  -2   7   8   57.74   13.50
  -2   7   7   31.76    7.30
  -2   7   7   54.91   10.72
  -2   7   6   20.08    5.01
  -2   7   6   41.10    8.26
  -2   7   5    3.74    4.80
  -2   7   5    8.16    4.17
   2  -7  -4    1.17    3.21
  -2   7   4    3.43    3.12
  -2   7   4    3.34    2.65
   2  -7  -3    0.37    2.77
  -2   7   3    0.88    1.95
  -2   7   3    0.49    1.74
   2  -7  -2   27.46   12.75
  -2   7   2   21.66    4.64
  -2   7   2   34.63    8.00
   2  -7  -1   31.71   32.36
  -2   7   1   33.86    5.86
  -2   7   1   49.36   10.05
   2  -7   0   48.23   34.02
  -2   7   0   31.40    5.49
  -2   7   0   41.47    9.25
  -2   7   0   61.99   14.90
   2  -7   1   94.44   29.59
  -2   7  -1   74.07   15.27
  -2   7  -1   72.51   18.67
  -2   7  -1   50.44   19.12
   2  -7   2  125.89   54.21
  -2   7  -2   65.59   21.10
  -2   7  -2   62.46   12.26
  -2   7  -2   85.66   15.94
   2  -7   3   22.58   23.32
  -2   7  -3   15.00    8.74
  -2   7  -3   12.57    5.57
  -2   7  -3   17.03    2.79
   2  -7   4   -1.40    4.43
  -2   7  -4    0.42    3.32
  -2   7  -4   -1.30    1.42
   2  -7   5   18.46   19.91
  -2   7  -5   11.80    4.50
  -2   7  -5   17.69    5.37
   2  -7   6   45.96   12.48
  -2   7  -6   60.88   21.96
   2  -7   7   60.73   10.53
  -2   7  -7   95.02   15.59
  -2   7  -7   49.97    9.37
   2  -7   8   16.36    9.69
  -2   7  -8   53.98   10.84
  -2   7  -9   51.70   12.16
  -2   7 -10   31.90    8.75
  -2   7 -11    1.84    3.89
  -2   7 -12    1.34    1.60
  -2   7 -13    7.91    4.81
   2  -6 -10   24.23    4.49
  -2   6  10    6.39    6.41
  -2   6   9    5.10    4.65
  -2   6   9   11.36    4.54
  -2   6   8   -1.50    1.61
  -2   6   8   -1.87    2.62
  -2   6   7   -1.32    3.14
  -2   6   7   -3.56    4.83
  -2   6   6   15.35    8.47
  -2   6   6   60.39   14.98
  -2   6   5   44.28   12.25
  -2   6   5   89.13   23.99
   2  -6  -4   89.25   19.70
  -2   6   4   71.70   16.83
  -2   6   4  141.74   34.24
   2  -6  -3   96.06   28.52
  -2   6   3   61.37    8.40
  -2   6   3  129.55   29.17
   2  -6  -2   62.26   14.72
  -2   6   2   34.74    9.71
  -2   6   2   68.25   20.91
   2  -6  -1   28.47   18.35
  -2   6   1   33.56   12.58
  -2   6   1   19.24    6.14
   2  -6   0   13.52   11.33
  -2   6   0    3.48    2.92
  -2   6   0   22.32    5.85
  -2   6   0   15.16    4.05
   2  -6   1   21.57   15.87
  -2   6  -1   30.47    5.83
  -2   6  -1   15.79    2.67
  -2   6  -1   13.97    7.68
   2  -6   2  111.51   44.89
  -2   6  -2  116.01   16.68
  -2   6  -2   77.02    8.49
  -2   6  -2   99.00   18.98
   2  -6   3  145.31   34.60
  -2   6  -3  136.44   21.21
  -2   6  -3  153.86   32.60
   2  -6   4  149.22   48.71
  -2   6  -4  157.46   31.55
  -2   6  -4  114.54    9.21
  -2   6  -4   84.84   13.98
   2  -6   5  100.08   26.96
  -2   6  -5   75.46   10.82
  -2   6  -5   81.42   14.05
   2  -6   6   38.62   16.83
  -2   6  -6   55.09   18.18
   2  -6   7    1.94    2.11
  -2   6  -7    7.47    4.93
  -2   6  -8   17.13   11.37
  -2   6  -9   57.81   19.98
  -2   6 -10   79.10   23.73
   2  -6  11   33.91   10.85
  -2   6 -11   69.37   10.22
   2  -6  12   36.05    5.79
  -2   6 -12   52.95   12.89
   2  -6  13   -0.02    3.06
  -2   6 -13    9.22    3.69
   2  -5 -11    4.85    1.85
  -2   5  11    1.24    2.67
  -2   5  10    8.01    4.53
  -2   5  10   17.52    8.08
  -2   5   9   28.89    6.03
  -2   5   9   59.48   10.62
  -2   5   8   35.03    6.87
  -2   5   8   62.71   19.02
  -2   5   7   75.93   20.20
  -2   5   7  123.57   31.58
  -2   5   6   35.65   10.35
  -2   5   6   60.43   12.82
   2  -5  -5    4.30    4.22
  -2   5   5    2.05    2.72
  -2   5   5    6.23    3.83
   2  -5  -4    5.85    2.87
  -2   5   4    3.13    2.80
  -2   5   4    3.57    3.97
   2  -5  -3   28.79   15.50
  -2   5   3   42.45   16.47
  -2   5   3   27.48    3.83
   2  -5  -2  138.50   28.50
  -2   5   2  181.72   43.47
   2  -5  -1  174.55   31.81
  -2   5   1  126.82   21.49
  -2   5   1  214.64   28.87
  -2   5   1  131.43   18.72
   2  -5   0   90.24   22.92
  -2   5   0   95.90    8.76
  -2   5   0  147.99   22.52
  -2   5   0   82.53   12.52
  -2   5   0   65.42   12.82
   2  -5   1  106.15   23.63
  -2   5  -1  111.90   17.72
  -2   5  -1  114.94   18.33
  -2   5  -1   74.71   10.94
   2  -5   2   50.79   13.95
  -2   5  -2   30.72    5.87
  -2   5  -2   70.52   11.30
  -2   5  -2   50.98   11.03
   2  -5   3    0.95    6.19
  -2   5  -3    3.52    3.44
  -2   5  -3    2.85    2.57
   2  -5   4   74.91   17.30
  -2   5  -4   84.32   13.39
  -2   5  -4   91.59   21.66
   2  -5   5   99.94   34.11
  -2   5  -5   95.88    9.04
  -2   5  -5  115.83   16.38
   2  -5   6  148.92   51.20
  -2   5  -6  163.02   20.84
  -2   5  -6  194.73   41.80
   2  -5   7  122.85   23.96
  -2   5  -7  139.93   11.30
  -2   5  -7  193.02   39.28
   2  -5   8   58.73   13.66
  -2   5  -8   72.01    9.16
  -2   5  -8  105.32   23.24
   2  -5   9    7.46    5.33
  -2   5  -9   22.07    8.39
   2  -5  10   -0.15    1.98
  -2   5 -10    0.98    1.57
   2  -5  11    2.15    3.67
  -2   5 -11    5.59    4.49
   2  -5  12   14.45   10.81
  -2   5 -12   42.20    6.88
   2  -5  13   31.20    5.92
  -2   5 -13   27.66    5.13
   2  -5  14   13.04    4.22
  -2   5 -14    1.12    3.26
   2  -4 -12   48.39    7.10
  -2   4  12   24.43    4.35
  -2   4  11   57.32    9.22
  -2   4  11   37.86   10.64
  -2   4  10    9.51    5.29
  -2   4  10   27.49    9.37
  -2   4   9   11.07    6.72
  -2   4   9   24.67    6.40
  -2   4   8   13.10    6.18
  -2   4   8   13.80   10.53
  -2   4   7   45.09    7.25
  -2   4   7   63.98   21.62
  -2   4   6  144.39   21.47
  -2   4   6   78.84    9.14
  -2   4   5  150.07   37.12
  -2   4   5   92.31   10.25
  -2   4   4  190.05   27.59
  -2   4   4  224.74   45.00
  -2   4   4  106.00   16.75
  -2   4   3  130.27   14.25
  -2   4   3  169.07   19.57
  -2   4   3   81.71   14.21
  -2   4   2   42.67   10.94
  -2   4   2   43.03    5.82
  -2   4   2   19.62    4.93
  -2   4   1    2.77    2.40
  -2   4   1   12.63    5.21
  -2   4   1    6.31    2.00
  -2   4   1   15.64    5.33
   2  -4   0   60.12   16.15
   2  -4   0   65.25   15.31
  -2   4   0   64.90   17.09
  -2   4   0   40.37    8.97
  -2   4   0   65.69   14.86
   2  -4   1  177.57   28.39
   2  -4   1  165.59   19.50
  -2   4  -1  174.64   33.77
  -2   4  -1  171.27   27.33
  -2   4  -1  127.85   12.46
   2  -4   2  455.46   45.23
   2  -4   2  497.76   54.49
  -2   4  -2  429.21   45.89
  -2   4  -2  486.91   56.74
  -2   4  -2  519.27   70.17
   2  -4   3  340.30   45.80
   2  -4   3  313.71   31.92
  -2   4  -3  346.13   49.83
  -2   4  -3  368.73   66.81
  -2   4  -3  301.07   34.35
  -2   4  -4   97.92   23.00
  -2   4  -4  104.62   18.69
   2  -4   5   13.97    6.83
   2  -4   5   14.04   11.64
  -2   4  -5   37.75    6.55
  -2   4  -5   44.63    7.69
   2  -4   6    0.69    2.20
   2  -4   6    0.94    2.85
  -2   4  -6    4.40    1.89
  -2   4  -6    0.06    1.93
   2  -4   7   23.62    9.06
  -2   4  -7   29.59    7.18
  -2   4  -7   34.11    7.01
   2  -4   8   81.08   12.58
  -2   4  -8   89.08   13.85
  -2   4  -8   93.65   13.88
   2  -4   9   89.93   23.36
  -2   4  -9  109.24   24.31
  -2   4  -9   83.52   13.06
   2  -4  10   86.47   21.73
  -2   4 -10  109.60   21.52
  -2   4 -10   63.04    6.50
   2  -4  11   44.72   10.51
  -2   4 -11   57.03    9.81
   2  -4  12    6.61    4.40
  -2   4 -12   15.46    3.73
   2  -4  13    0.97    1.94
  -2   4 -13    2.89    1.47
   2  -4  14    0.25    2.02
  -2   3  13   -0.03    0.99
   2  -3 -12    2.70    1.24
  -2   3  12    6.31    2.64
  -2   3  11   27.45    4.57
  -2   3  11   29.22    5.99
  -2   3  10   53.89    7.98
  -2   3  10   67.01   18.32
  -2   3   9   68.12   14.31
  -2   3   9   95.28   15.61
  -2   3   8   65.05   20.68
  -2   3   8   57.56   12.21
  -2   3   7   35.48   17.31
  -2   3   7   31.02    5.01
  -2   3   6   -0.58    0.80
  -2   3   6   -4.30    2.47
  -2   3   6   -1.91    1.08
  -2   3   5   39.59    4.39
  -2   3   5   30.46   15.08
  -2   3   5   21.05    3.11
  -2   3   4  160.57   21.31
  -2   3   4  202.05   21.20
  -2   3   4  110.67   10.81
  -2   3   3  112.24   19.99
  -2   3   3  110.19   22.90
   2  -3  -2  189.51   24.10
  -2   3   2  133.35   26.53
  -2   3   2  133.92   27.53
   2  -3  -1  266.82   27.11
   2  -3  -1  249.50   39.91
  -2   3   1  255.51   25.02
  -2   3   1  231.46   37.96
  -2   3   1  158.61   16.55
   2  -3   0   83.38   23.34
   2  -3   0   94.08   20.85
  -2   3   0   67.05   17.87
  -2   3   0   86.71   18.64
   2  -3   1   12.17    6.89
   2  -3   1   10.82    8.01
  -2   3  -1    9.27    6.38
  -2   3  -1   38.92    6.97
  -2   3  -1    6.40    4.30
   2  -3   2   44.89    7.06
   2  -3   2   18.82   11.49
  -2   3  -2   19.16   10.69
  -2   3  -2   40.79    8.80
  -2   3  -2   46.14   11.40
   2  -3   3    1.76    2.36
   2  -3   3    5.17    3.14
   2  -3   3    2.16    2.42
  -2   3  -3    3.21    1.92
  -2   3  -3    2.23    3.16
  -2   3  -3    4.90    3.06
   2  -3   4   86.78   18.36
   2  -3   4  107.50   11.05
   2  -3   4   93.57    8.02
  -2   3  -4   90.52   15.07
  -2   3  -4  121.87   24.64
  -2   3  -4  107.17   17.95
   2  -3   5  180.69   22.81
   2  -3   5  212.82   21.75
  -2   3  -5  170.53   15.79
  -2   3  -5  211.86   25.51
  -2   3  -5  191.07   18.64
   2  -3   6  102.18   26.88
  -2   3  -6  124.86   18.55
  -2   3  -6  135.75   22.78
   2  -3   7  109.96   30.54
  -2   3  -7  113.76   18.40
  -2   3  -7  123.56   13.73
   2  -3   8   72.38   26.39
  -2   3  -8   86.22   24.18
  -2   3  -8   85.22   10.34
   2  -3   9    6.44   11.92
  -2   3  -9   73.90   10.11
  -2   3  -9   14.42    3.98
   2  -3  10   12.97    7.05
  -2   3 -10   51.60    9.67
  -2   3 -10   13.85    6.29
   2  -3  11   45.24   10.07
  -2   3 -11   41.58    7.31
  -2   3 -11   28.13    7.23
   2  -3  12   50.42    9.33
  -2   3 -12   45.44    6.79
  -2   3 -12   22.71    5.86
   2  -3  13   25.95   15.37
  -2   3 -13   40.31    5.88
   2  -3  14    1.64    3.15
  -2   2  13   42.17    5.14
   2  -2 -12   32.04    3.37
  -2   2  12   57.90    9.03
  -2   2  11    4.33    2.84
  -2   2  11    2.51    3.00
  -2   2  10   -1.41    1.64
  -2   2  10   -0.30    1.27
  -2   2   9    8.63    6.13
  -2   2   9    8.62    4.22
  -2   2   8   62.76    9.18
  -2   2   8   35.88    4.91
  -2   2   7  139.62   13.45
  -2   2   7  173.68   37.89
  -2   2   7  131.27   12.29
  -2   2   6  136.81   19.52
  -2   2   6  108.03   15.39
  -2   2   6  125.12   15.70
  -2   2   5  236.28   44.05
  -2   2   5  223.72   29.95
  -2   2   4  117.58   14.28
  -2   2   4  137.44   14.10
  -2   2   3    8.43    8.62
  -2   2   3   49.79    9.59
  -2   2   2   29.16    6.30
  -2   2   2   56.46   11.38
   2  -2  -1  131.98   27.72
   2  -2  -1  124.82   19.09
  -2   2   1  108.02   23.38
  -2   2   1  108.32   24.16
   2  -2   0  168.63   28.85
   2  -2   0  203.14   35.82
   2  -2   0  227.30   26.92
  -2   2   0  172.52   19.80
  -2   2   0  151.76   18.64
  -2   2   0  183.27   32.25
   2  -2   1  889.95  105.84
   2  -2   1 1062.15  124.25
   2  -2   1  906.82  134.03
  -2   2  -1  705.23   81.20
  -2   2  -1  852.78  127.39
  -2   2  -1  795.35   96.77
   2  -2   2  401.75   67.04
   2  -2   2  337.17   61.35
   2  -2   2  469.24   62.82
  -2   2  -2  319.60   34.53
  -2   2  -2  421.30   64.59
  -2   2  -2  398.10   58.65
   2  -2   3   86.80   24.86
   2  -2   3  117.22   23.81
   2  -2   3  109.44   15.89
  -2   2  -3  136.05   23.78
  -2   2  -3  119.34   23.33
  -2   2  -3  110.84   19.44
   2  -2   4   14.69   10.45
   2  -2   4   18.59    4.25
   2  -2   4   24.21    5.32
  -2   2  -4   10.46    4.92
  -2   2  -4   50.65    9.63
  -2   2  -4   27.78    5.15
   2  -2   5    0.33    0.87
   2  -2   5    0.80    2.82
  -2   2  -5    0.53    0.95
  -2   2  -5    1.52    2.40
  -2   2  -5    8.34    2.88
   2  -2   6   66.67   25.72
  -2   2  -6   77.97   10.83
  -2   2  -6   92.80   23.13
   2  -2   7  221.27   58.48
  -2   2  -7  217.77   48.10
  -2   2  -7  231.73   39.04
   2  -2   8  128.78   41.09
  -2   2  -8  122.22   18.54
  -2   2  -8  137.76   25.63
   2  -2   9  133.23   45.20
  -2   2  -9  143.90   34.58
  -2   2  -9  123.22   24.89
   2  -2  10   38.34   26.16
  -2   2 -10   56.38    8.12
  -2   2 -10   64.02   11.39
   2  -2  11    9.57   10.83
  -2   2 -11   17.47    3.84
  -2   2 -11    5.04    5.00
   2  -2  12   -0.32    3.00
  -2   2 -12    0.90    1.07
  -2   2 -12    0.27    0.81
   2  -2  13    1.95    2.82
  -2   2 -13    0.46    0.96
   2  -2  14    9.11    3.38
  -2   1  14    0.20    0.67
  -2   1  13    5.35    3.00
  -2   1  12   49.34   10.26
  -2   1  11   52.31   10.37
  -2   1  10   49.44    6.87
  -2   1  10   72.73   10.78
  -2   1   9   86.99   17.15
  -2   1   9   99.32    9.07
  -2   1   8   74.15   17.11
  -2   1   7   35.03    5.57
  -2   1   7   19.90    2.86
  -2   1   6   16.61    7.75
  -2   1   6   15.26    2.67
  -2   1   5  104.08   21.21
  -2   1   5  109.33   17.73
  -2   1   4  263.91   24.34
  -2   1   4  193.49   22.41
  -2   1   4  266.78   36.15
  -2   1   3  345.59   32.13
  -2   1   3  312.40   37.70
  -2   1   3  352.47   51.17
   2  -1  -2  205.05   27.42
   2  -1  -2  307.75   48.57
  -2   1   2  270.93   36.51
  -2   1   2  279.08   42.01
   2  -1  -1  170.61   20.58
   2  -1  -1  179.20   20.86
  -2   1   1  155.68   16.53
  -2   1   1  148.23   15.23
  -2   1   1  151.62   18.93
  -2   1   1  168.37   30.04
   2  -1   0  107.98   24.37
   2  -1   0  124.26   15.63
  -2   1   0  109.02   18.04
  -2   1   0  105.29   15.01
  -2   1   0  139.09   25.02
  -2   1   0  124.43   23.85
   2  -1   1  106.62   30.03
   2  -1   1   98.25   11.32
  -2   1  -1   75.69   14.28
  -2   1  -1   86.83   19.93
  -2   1  -1  103.29   12.31
  -2   1  -1   97.16   11.55
   2  -1   2  124.51   36.43
   2  -1   2  117.39   24.96
   2  -1   2  118.02   18.39
  -2   1  -2  117.34   28.24
  -2   1  -2  133.69   16.48
  -2   1  -2  110.90   22.77
  -2   1  -2  117.35   21.03
   2  -1   3  229.82   34.80
   2  -1   3  204.13   17.19
   2  -1   3  208.46   24.94
  -2   1  -3  217.64   46.18
  -2   1  -3  232.76   25.25
  -2   1  -3  222.64   39.00
  -2   1  -3  207.44   27.74
   2  -1   4  273.33   60.20
   2  -1   4  232.31   16.91
  -2   1  -4  305.85   48.90
  -2   1  -4  265.23   36.36
  -2   1  -4  296.50   46.04
  -2   1  -4  226.39   24.82
   2  -1   5  269.86   70.73
  -2   1  -5  285.64   57.22
  -2   1  -5  284.88   32.88
   2  -1   6  111.86   38.63
  -2   1  -6  132.46   20.40
  -2   1  -6  141.09   28.31
   2  -1   7    8.42   11.96
  -2   1  -7   22.06    9.45
  -2   1  -7   10.45    7.41
   2  -1   8    0.19    3.17
  -2   1  -8    1.32    1.32
  -2   1  -8   -2.38    1.89
   2  -1   9   24.02   19.29
  -2   1  -9   31.91   12.99
  -2   1  -9   25.64   10.42
   2  -1  10   83.53   34.58
  -2   1 -10   81.99   22.13
  -2   1 -10   75.21   11.19
   2  -1  11   58.92   16.09
  -2   1 -11   60.69   10.53
  -2   1 -11   50.11   13.84
   2  -1  12   34.98    9.79
  -2   1 -12   36.92    9.69
  -2   1 -12   31.14    8.72
   2  -1  13    6.26    4.37
  -2   1 -13    1.01    2.48
  -2   1 -13    3.97    2.27
   2  -1  14    2.45    1.69
  -2   0  14   41.27    8.11
  -2   0  13   30.18    7.15
  -2   0  12    4.80    2.95
  -2   0  11   -1.15    1.67
  -2   0   8  153.86   11.10
  -2   0   7  132.53   13.19
  -2   0   7  128.16   23.30
  -2   0   7  185.81   18.92
  -2   0   6  167.72   25.74
  -2   0   6  115.18   20.84
  -2   0   6  174.31   14.54
  -2   0   5   53.70    8.81
  -2   0   5   33.34   11.32
  -2   0   5  102.14   13.45
  -2   0   4   12.77    1.84
  -2   0   4    3.84    4.10
  -2   0   4   13.33    5.76
   2   0  -3   47.62   12.26
  -2   0   3   29.85    3.66
  -2   0   3   18.57    7.22
  -2   0   3   45.33    9.87
   2   0  -2  130.25   16.57
  -2   0   2  121.78   17.61
  -2   0   2   55.96   21.15
  -2   0   2  129.78   23.28
   2   0  -1  287.68   40.50
   2   0  -1  254.60   29.58
  -2   0   1  207.32   21.41
  -2   0   1  237.86   29.43
  -2   0   1  240.76   39.35
  -2   0   1  268.82   38.01
   2   0   0  374.29   83.60
   2   0   0  360.02   39.10
  -2   0   0  328.84   39.53
  -2   0   0  380.65   53.79
  -2   0   0  346.75   34.78
  -2   0   0  363.35   54.56
   2   0   1  241.25   62.52
   2   0   1  278.58   38.95
  -2   0  -1  223.93   29.13
  -2   0  -1  274.24   28.93
  -2   0  -1  257.09   38.25
   2   0   2  161.58   29.45
   2   0   2  138.76   13.53
  -2   0  -2  141.05   25.21
  -2   0  -2  162.82   34.55
  -2   0  -2  143.96   16.92
  -2   0  -2  130.60   12.41
   2   0   3   44.00   12.81
   2   0   3   46.44    6.91
  -2   0  -3   46.18   10.45
  -2   0  -3   50.06   12.92
  -2   0  -3   36.14   17.66
  -2   0  -3   43.89    7.32
  -2   0  -3   34.78    4.05
   2   0   4    4.02    8.40
   2   0   4    8.39    2.04
  -2   0  -4   10.43    2.98
  -2   0  -4    5.49    6.10
  -2   0  -4    1.74    1.90
   2   0   5   27.41   20.93
  -2   0  -5   37.48    8.44
  -2   0  -5   37.89    9.23
   2   0   6   95.48   23.37
  -2   0  -6  129.04   33.74
  -2   0  -6  140.30   20.95
   2   0   7  150.74   33.51
  -2   0  -7  163.41   25.97
  -2   0  -7  206.02   28.26
   2   0   8  144.72   33.79
  -2   0  -8  191.77   26.78
  -2   0  -8  142.62   24.77
   2   0   9   47.36   36.63
  -2   0  -9   72.77   26.35
  -2   0  -9   96.33   16.16
   2   0  10    9.09   10.99
  -2   0 -10    7.68    7.00
  -2   0 -10   11.09    5.99
   2   0  11    0.45    3.26
  -2   0 -11    0.47    1.87
  -2   0 -11    0.05    0.97
   2   0  12    2.74    2.66
  -2   0 -12    4.14    2.54
  -2   0 -12    1.70    1.50
   2   0  13    8.16    7.60
  -2   0 -13   18.94    3.09
  -2  -1  14   16.65    4.94
  -2  -1  10   15.37    5.68
  -2  -1   9    6.61    4.01
  -2  -1   8    1.37    3.39
  -2  -1   8    4.96    2.10
  -2  -1   7   24.91   11.94
  -2  -1   7   54.77    9.11
  -2  -1   6   95.54   27.01
  -2  -1   6  155.12   13.90
  -2  -1   5   85.53   10.49
  -2  -1   5   90.69   12.72
  -2  -1   5  113.95   16.72
  -2  -1   4  102.47   11.52
  -2  -1   4   94.82   12.91
  -2  -1   4  130.22   11.99
   2   1  -3  171.58   30.04
  -2  -1   3  122.51    9.26
  -2  -1   3   97.93   15.65
  -2  -1   3  132.36   13.30
   2   1  -2  138.82   26.15
  -2  -1   2  102.11   27.02
  -2  -1   2  102.79   11.40
  -2  -1   2   93.48   13.18
   2   1  -1    2.18    5.55
   2   1  -1   11.21    5.79
  -2  -1   1    7.65    2.22
  -2  -1   1    7.84    2.70
   2   1   0   19.48   24.82
   2   1   0   65.79   12.74
  -2  -1   0   31.65    7.91
  -2  -1   0   35.10   11.40
  -2  -1   0   62.79    7.05
  -2  -1   0   48.77   10.30
   2   1   1   90.66   20.24
   2   1   1  125.17   12.41
  -2  -1  -1   98.46   10.46
  -2  -1  -1  108.94   14.01
  -2  -1  -1  115.12   12.52
  -2  -1  -1   96.91   10.01
   2   1   2  150.88   18.71
   2   1   2  140.05   46.60
  -2  -1  -2  162.30   34.51
  -2  -1  -2  136.49   15.75
  -2  -1  -2  165.90   20.48
  -2  -1  -2  141.62   16.03
  -2  -1  -2  124.12   16.68
   2   1   3  167.74   54.80
   2   1   3  168.50   18.21
  -2  -1  -3  177.69   30.54
  -2  -1  -3  188.22   35.51
  -2  -1  -3  122.54   13.38
   2   1   4   87.88   23.48
  -2  -1  -4   99.17   23.13
  -2  -1  -4   97.30   27.05
   2   1   5   70.97   31.92
  -2  -1  -5   66.96   20.05
  -2  -1  -5   73.68   12.12
   2   1   6   14.28   15.02
  -2  -1  -6   18.95   10.48
  -2  -1  -6   30.66   12.29
   2   1   7    0.88    4.11
  -2  -1  -7    0.52    2.70
  -2  -1  -7    0.40    3.11
   2   1   8   10.64    7.83
  -2  -1  -8   17.27    5.68
  -2  -1  -8   15.02   10.46
   2   1   9   26.65   23.02
  -2  -1  -9   41.44    9.56
  -2  -1  -9   43.76   10.44
   2   1  10   15.84   17.76
  -2  -1 -10   30.28    6.89
  -2  -1 -10   22.38   13.45
   2   1  11   52.46   13.86
  -2  -1 -11   49.75    8.39
  -2  -1 -11   53.33    8.39
   2   1  12    5.55    8.23
  -2  -1 -12   15.12    4.66
  -2  -2  13    2.44    2.29
  -2  -2  12    0.62    1.89
  -2  -2  11    0.43    1.98
  -2  -2  10   89.65   21.26
  -2  -2   9  169.94   35.70
  -2  -2   9  175.76   13.42
  -2  -2   8  149.59   34.54
  -2  -2   8  159.16   13.42
  -2  -2   7  145.13   20.33
  -2  -2   7  140.06   19.59
  -2  -2   6  130.70   30.62
  -2  -2   6  129.25   20.39
  -2  -2   5    8.05   10.97
  -2  -2   5   24.41    4.67
  -2  -2   4   92.97   13.93
  -2  -2   4  107.72   21.63
  -2  -2   3   60.71    8.01
  -2  -2   3   85.98   12.59
  -2  -2   3   94.95   17.85
   2   2  -2  264.35   46.28
  -2  -2   2  343.30   56.61
  -2  -2   2  197.21   23.64
  -2  -2   2  215.01   24.17
  -2  -2   2  255.72   39.62
   2   2  -1  173.40   57.39
   2   2  -1  432.72   60.73
  -2  -2   1  364.74   44.41
  -2  -2   1  334.12   36.23
  -2  -2   1  352.11   38.12
  -2  -2   1  405.30   53.43
   2   2   0  267.09   76.00
   2   2   0  334.18   45.28
  -2  -2   0  215.51   28.96
  -2  -2   0  219.95   32.23
  -2  -2   0  229.09   29.76
  -2  -2   0  231.73   22.31
  -2  -2   0  293.99   38.70
   2   2   1   80.75   14.45
   2   2   1   66.38   15.37
  -2  -2  -1   66.92   15.63
  -2  -2  -1   58.34   12.42
  -2  -2  -1   62.43   13.25
  -2  -2  -1   56.42    9.29
  -2  -2  -1   91.79   17.05
   2   2   2   38.59   24.77
   2   2   2   57.54    9.49
  -2  -2  -2   62.23   13.84
  -2  -2  -2   50.59    7.40
  -2  -2  -2   39.39    6.47
   2   2   3    8.55    7.86
   2   2   3    2.47    1.70
  -2  -2  -3    6.39    4.20
  -2  -2  -3    7.94    4.09
   2   2   4  108.95   25.72
  -2  -2  -4   95.02   22.59
  -2  -2  -4  113.07   26.56
   2   2   5  140.12   53.49
  -2  -2  -5  146.83   19.72
  -2  -2  -5  171.64   38.01
   2   2   6  108.11   39.68
  -2  -2  -6  107.77   16.55
  -2  -2  -6  122.63   18.44
   2   2   7  103.80   23.63
  -2  -2  -7  103.62   27.90
  -2  -2  -7  118.71   19.36
   2   2   8   78.40   19.91
  -2  -2  -8   84.46   23.26
  -2  -2  -8   86.77   26.27
   2   2   9    0.56    4.46
  -2  -2  -9    0.31    3.31
  -2  -2  -9   -1.97    2.00
   2   2  10    1.51    2.91
  -2  -2 -10    3.02    3.75
  -2  -2 -10    4.35    4.27
   2   2  11    2.84    7.09
  -2  -2 -11    9.41    2.79
  -2  -2 -11   11.36    5.10
   2   2  12    4.64    4.33
  -2  -2 -12   12.44    4.15
  -2  -3  14   20.59    3.60
  -2  -3  13   58.96   14.84
  -2  -3  12   50.08    9.14
  -2  -3  11   62.90   19.66
  -2  -3  10    6.43    6.22
  -2  -3   9    3.44    4.16
  -2  -3   9    1.71    1.83
  -2  -3   8   17.04    5.91
  -2  -3   8   15.01    4.86
  -2  -3   7  108.90   31.48
  -2  -3   7  101.31   12.04
  -2  -3   6  147.75   23.52
  -2  -3   6  141.41   28.59
  -2  -3   5  152.61   38.54
  -2  -3   5  180.02   21.57
  -2  -3   4  121.61   35.77
  -2  -3   4  147.10   29.82
  -2  -3   3  139.11   39.11
  -2  -3   3  129.93   28.61
  -2  -3   2    5.73    2.16
  -2  -3   2    4.64    2.04
  -2  -3   2   10.22    7.35
  -2  -3   2   10.02    4.67
   2   3  -1   30.88   11.25
  -2  -3   1   25.59    5.62
  -2  -3   1   16.72    6.81
  -2  -3   1   18.56    4.43
  -2  -3   1   27.42    4.76
  -2  -3   1   25.84    5.47
   2   3   0  135.68   24.52
  -2  -3   0  114.66   17.29
  -2  -3   0   85.56    7.83
  -2  -3   0  119.01   17.31
   2   3   1  126.07   37.78
  -2  -3  -1  123.77   18.86
  -2  -3  -1   90.29    9.10
  -2  -3  -1  106.73    8.98
   2   3   2  163.57   55.11
  -2  -3  -2  125.06   15.16
  -2  -3  -2  124.01   23.20
   2   3   3   74.60   21.10
  -2  -3  -3   86.03   19.77
  -2  -3  -3   64.13   17.80
   2   3   4   53.18   28.39
  -2  -3  -4   59.68   17.13
  -2  -3  -4   43.05   13.10
   2   3   5    3.47    7.73
  -2  -3  -5    5.89    3.01
  -2  -3  -5    1.90    4.11
   2   3   6    5.93    4.21
  -2  -3  -6    6.48    6.08
  -2  -3  -6    6.60    5.03
   2   3   7   11.88   12.17
  -2  -3  -7   16.92   10.52
  -2  -3  -7   19.69    8.50
   2   3   8   20.94   15.71
  -2  -3  -8   13.05   13.70
  -2  -3  -8   56.99   13.99
   2   3   9   16.99    8.31
  -2  -3  -9   24.78   11.99
  -2  -3  -9   58.02   12.71
   2   3  10   19.13   17.97
  -2  -3 -10   49.18    8.82
  -2  -3 -10   66.30    8.29
   2   3  11   -0.19    1.82
  -2  -3 -11    1.88    1.75
  -2  -4  15   -0.09    1.03
  -2  -4  14   -0.17    1.67
  -2  -4  13    6.00    5.07
  -2  -4  12   22.08   11.38
  -2  -4  11   79.76   15.23
  -2  -4  10  111.67   29.37
  -2  -4  10   79.37   11.21
  -2  -4   9  132.64   34.49
  -2  -4   9   98.23   14.76
  -2  -4   8   76.16   27.01
  -2  -4   8   72.83   15.58
  -2  -4   7   16.96    6.83
  -2  -4   7   17.61    4.50
  -2  -4   6    3.11    4.44
  -2  -4   6    2.44    3.68
  -2  -4   5   22.95   14.07
  -2  -4   5   35.75   12.63
  -2  -4   4  135.90   31.48
  -2  -4   4   89.27   15.15
  -2  -4   3  243.48   48.00
  -2  -4   3  139.92   20.52
   2   4  -2    2.26   23.63
  -2  -4   2   95.80   11.33
   2   4  -1   94.68   37.14
  -2  -4   1   59.67   11.97
  -2  -4   1   76.03   16.46
   2   4   0   47.69   17.68
  -2  -4   0   32.72    5.03
  -2  -4   0   24.28    4.59
   2   4   1    4.40    3.48
  -2  -4  -1    3.60    3.13
  -2  -4  -1    1.95    0.93
  -2  -4  -1    3.43    1.82
   2   4   2    8.20    5.89
  -2  -4  -2    6.19    4.75
  -2  -4  -2    6.55    3.55
   2   4   3   19.38   17.48
  -2  -4  -3   16.57   10.29
  -2  -4  -3   27.93    4.72
   2   4   4   65.93   15.12
  -2  -4  -4   48.00   10.71
  -2  -4  -4   71.98   15.00
   2   4   5   92.25   34.42
  -2  -4  -5   73.39   26.80
  -2  -4  -5  110.17   22.30
   2   4   6   66.01   25.52
  -2  -4  -6   57.80   21.74
  -2  -4  -6   97.30   20.41
   2   4   7   28.57    8.54
  -2  -4  -7   25.85   14.64
  -2  -4  -7   42.03    7.44
   2   4   8    0.49    3.88
  -2  -4  -8    3.53    3.90
  -2  -4  -8    3.32    3.58
   2   4   9    0.08    2.05
  -2  -4  -9    0.48    1.22
  -2  -4  -9   -1.19    0.96
  -2  -4 -10    1.44    4.52
  -2  -4 -10   15.61    4.01
  -2  -5  14   38.17    6.19
  -2  -5  13   50.26   17.32
  -2  -5  12   50.59   11.00
  -2  -5  11   15.14    5.22
  -2  -5  11   10.81    1.65
  -2  -5  10    4.92    2.75
  -2  -5  10    1.78    1.02
  -2  -5   9   37.21    9.52
  -2  -5   9   28.08    4.95
  -2  -5   8   76.99   24.05
  -2  -5   8   71.15   10.43
  -2  -5   7  112.28   19.11
  -2  -5   7  106.59   25.62
  -2  -5   6  120.42   35.90
  -2  -5   6  115.20   17.81
  -2  -5   5   68.00   25.05
  -2  -5   5   60.16   11.99
  -2  -5   4   22.94    8.45
  -2  -5   4   20.32   11.09
  -2  -5   3    1.56    2.70
  -2  -5   3    1.22    3.26
   2   5  -2   35.97   10.71
  -2  -5   2   12.83    5.07
  -2  -5   2   25.07    5.20
   2   5  -1   50.62   19.61
  -2  -5   1   19.30    7.38
  -2  -5   1   36.42    9.34
   2   5   0   78.08   25.72
  -2  -5   0   56.45   13.97
  -2  -5   0   57.70    6.85
   2   5   1  133.87   38.87
  -2  -5  -1   78.52   19.17
  -2  -5  -1   73.43   10.17
   2   5   2   92.39   19.28
  -2  -5  -2   64.84   18.70
   2   5   3   27.04   14.92
  -2  -5  -3   23.08   10.04
  -2  -5  -3   23.39    4.89
   2   5   4    5.97    6.48
  -2  -5  -4    5.06    2.89
  -2  -5  -4    4.74    3.21
   2   5   5    1.46    1.85
  -2  -5  -5    1.16    1.93
  -2  -5  -5    1.83    2.26
   2   5   6   11.21   10.75
  -2  -5  -6   29.82    6.36
  -2  -5  -6   34.48    8.65
   2   5   7   -0.36   10.56
  -2  -5  -7   48.09    7.90
  -2  -5  -7   40.84    4.91
   2   5   8   -0.22    7.01
  -2  -5  -8   33.03    5.61
  -2  -5  -8   36.47    6.34
  -2  -6  14   -1.14    2.41
  -2  -6  13    7.35    5.36
  -2  -6  12   44.63    8.88
  -2  -6  11   67.18   10.39
  -2  -6  11   40.28    7.31
  -2  -6  10   58.50   10.86
  -2  -6  10   43.24   10.28
  -2  -6   9   81.93   14.63
  -2  -6   9   69.01   16.27
  -2  -6   8   36.79   14.89
  -2  -6   8   26.81    6.21
  -2  -6   7    0.75    2.20
  -2  -6   7    1.98    3.19
  -2  -6   6   12.24   10.63
  -2  -6   6   11.56    4.61
  -2  -6   5   93.32   23.02
  -2  -6   5   36.01    9.85
   2   6  -4  147.91   37.54
  -2  -6   4  138.62   34.90
   2   6  -3  369.78   92.15
  -2  -6   3  258.09   33.78
   2   6  -2   77.48   31.97
  -2  -6   2   56.75   11.89
  -2  -6   2   85.67   11.22
   2   6  -1   12.89    9.89
  -2  -6   1   11.33    5.34
  -2  -6   1   13.40    5.25
   2   6   0   -2.89    3.38
  -2  -6   0    0.36    0.93
  -2  -6   0    0.08    1.08
   2   6   1   11.56    5.33
  -2  -6  -1    6.23    5.79
   2   6   2   58.33   11.97
  -2  -6  -2   52.31    8.95
   2   6   3   81.72   25.25
  -2  -6  -3   91.23   22.17
   2   6   4   37.28    7.19
  -2  -6  -4   51.51   14.31
   2   6   5   -0.22    6.74
  -2  -6  -5   44.18    9.13
  -2  -6  -5   19.10    3.53
   2   6   6   -0.07    2.29
  -2  -6  -6    4.14    3.50
  -2  -6  -6    3.59    0.91
  -2  -6  -7    0.77    1.64
  -2  -6  -7   -0.03    0.73
  -2  -7  13   10.07    6.15
  -2  -7  12    4.96    1.53
  -2  -7  12    0.38    0.46
  -2  -7  11    4.08    1.88
  -2  -7  11    0.03    1.25
  -2  -7  10   24.79    6.39
  -2  -7  10   16.04    6.17
  -2  -7   9   58.88   20.64
  -2  -7   9   52.37   13.99
  -2  -7   8   61.41   12.99
  -2  -7   8   48.06    9.00
  -2  -7   7   73.96   27.37
  -2  -7   7   68.41   21.42
  -2  -7   6   54.76   13.55
  -2  -7   6   51.89   10.71
   2   7  -5   11.85    6.78
  -2  -7   5    8.11    4.01
   2   7  -4    4.10    7.30
  -2  -7   4    4.68    2.79
   2   7  -3    6.57    5.59
  -2  -7   3    1.72    2.37
  -2  -7   3   12.90    4.48
   2   7  -2   11.02    7.05
  -2  -7   2    4.07    3.46
  -2  -7   2    9.51    4.26
   2   7  -1   75.20   24.66
  -2  -7   1   51.80    7.43
  -2  -7   1   55.26    6.29
   2   7   0   48.82   10.13
  -2  -7   0   52.41   11.03
  -2  -7   0   33.37    3.64
   2   7   1   12.71   11.06
  -2  -7  -1   29.86    5.14
   2   7   2    7.38    6.00
  -2  -7  -2   15.56    6.13
   2   7   3   -0.05    1.71
  -2  -7  -3    2.54    2.39
   2   7   4   -0.06    0.56
  -2  -7  -4   -0.31    1.71
  -2  -7  -5   20.37    7.52
  -2  -8  12   52.70   16.46
  -2  -8  11   26.05   11.24
  -2  -8  11   22.19    4.62
  -2  -8  10   16.43    8.45
  -2  -8  10   11.08    4.01
  -2  -8   9    2.61    2.38
  -2  -8   9    1.53    2.69
   2   8  -8    0.64    3.39
  -2  -8   8    3.17    3.10
   2   8  -7   13.90    7.96
  -2  -8   7   16.72    4.57
   2   8  -6   13.51   15.45
  -2  -8   6   32.35   10.86
   2   8  -5   67.85   23.17
  -2  -8   5   62.19   17.68
   2   8  -4   45.98   17.57
  -2  -8   4   75.26   16.21
   2   8  -3   10.35    4.94
  -2  -8   3    3.75    2.39
   2   8  -2    3.24    3.68
  -2  -8   2    1.51    1.67
  -2  -8   2    1.14    1.95
   2   8  -1    0.79    1.92
  -2  -8   1    0.07    0.69
  -2  -8   1    0.15    0.86
   2   8   0   -0.10    0.89
  -2  -8   0    2.67    1.63
   2   8   1   -0.06    3.42
  -2  -8  -1   18.13    2.85
  -2  -8  -2   33.32    9.39
  -2  -8  -3   18.86    6.40
   2   9 -10   10.83    9.64
  -2  -9  10   20.06    4.29
   2   9  -9   32.21    7.75
  -2  -9   9   35.66    7.48
   2   9  -8   13.58   13.00
  -2  -9   8   38.95    5.75
   2   9  -7   -0.13    2.46
  -2  -9   7   27.24    4.38
   2   9  -6   -0.20    3.62
  -2  -9   6    9.14    3.74
   2   9  -5   -0.01    1.51
  -2  -9   5    0.37    1.54
   2   9  -4   -0.18    5.51
  -2  -9   4   17.40    4.46
   2   9  -3   -0.18    2.93
  -2  -9   3    3.22    1.53
  -2  -9   3    5.53    2.26
   2   9  -2   30.14    2.68
  -2  -9   2   16.96    2.74
  -2  -9   1   23.45    5.31
  -2  -9   0   10.64    3.73
   3 -10   1    2.74    3.39
   3 -10   2    0.98    2.67
   3 -10   3    5.03    4.68
   3 -10   4    6.00    4.91
   3 -10   5   21.14    4.59
   3 -10   6    7.72    3.77
   3  -9  -1    3.76    2.54
   3  -9   0   11.81    8.88
   3  -9   1   10.32    8.47
   3  -9   2    8.24    7.99
   3  -9   3    7.01    7.36
   3  -9   4    4.89    4.12
  -3   9  -4    0.84    1.70
   3  -9   5   -2.51    2.36
  -3   9  -5    0.03    0.77
   3  -9   6    2.16    1.47
  -3   9  -6   -0.06    2.92
   3  -9   7    0.70    1.13
  -3   9  -7    5.08    1.86
  -3   9  -8    8.09    6.03
  -3   8   5    4.46    4.19
  -3   8   4   18.39    9.32
   3  -8  -3    3.77    2.86
  -3   8   3   24.26    5.76
   3  -8  -2    9.92    9.13
  -3   8   2   16.27    7.83
   3  -8  -1    9.14    4.93
  -3   8   1    8.14    6.33
   3  -8   0    1.74    6.60
  -3   8   0    4.60    4.73
   3  -8   1    2.20    5.37
  -3   8  -1    1.72    1.90
   3  -8   2    6.86    7.85
  -3   8  -2    3.97    4.24
   3  -8   3   16.47   14.57
  -3   8  -3   18.30    3.74
   3  -8   4   46.67    7.90
  -3   8  -4    3.32    7.26
  -3   8  -4   13.22    5.48
   3  -8   5   22.02    9.17
  -3   8  -5    6.85    7.57
   3  -8   6    7.21    5.30
  -3   8  -6    4.64    5.24
   3  -8   7    0.61    2.70
  -3   8  -7    7.12    2.69
  -3   8  -8   -0.24    2.42
  -3   8  -9    1.90    2.10
  -3   8 -10   13.81    4.53
  -3   7   7    9.71    3.69
  -3   7   6   18.68    9.80
  -3   7   5    3.95    4.84
   3  -7  -4    1.58    3.03
  -3   7   4    2.69    4.13
   3  -7  -3    1.64    2.88
  -3   7   3   -0.11    3.78
   3  -7  -2    7.37    9.31
  -3   7   2    2.53    6.11
   3  -7  -1   22.63   13.55
  -3   7   1   21.36   14.19
   3  -7   0   64.78   25.36
  -3   7   0   57.59   13.01
   3  -7   1   33.75   22.27
  -3   7  -1   47.86   10.14
   3  -7   2   35.17   20.16
  -3   7  -2   41.33   11.91
   3  -7   3    8.31   18.90
  -3   7  -3   13.59    3.38
   3  -7   4    6.74    5.60
  -3   7  -4   -0.21    1.94
  -3   7  -4    0.39    1.62
   3  -7   5    7.72   11.88
  -3   7  -5    4.33    2.79
  -3   7  -5   11.10    2.88
   3  -7   6    9.02    5.92
  -3   7  -6    5.52    5.00
   3  -7   7    4.35    6.90
  -3   7  -7   38.61    5.88
  -3   7  -8   36.26    7.58
  -3   7  -9   21.73    5.64
  -3   7 -10    8.41    5.83
  -3   7 -11    2.86    1.95
  -3   6   8   -0.15    1.13
  -3   6   7    1.28    3.48
  -3   6   6   10.83    4.55
   3  -6  -5    4.13   13.44
  -3   6   5   33.29    8.30
   3  -6  -4    4.81   17.64
  -3   6   4   47.23   11.70
   3  -6  -3   25.76   12.78
  -3   6   3   44.20   11.97
   3  -6  -2    8.30   16.86
  -3   6   2   25.07    8.43
   3  -6  -1    4.78   11.07
  -3   6   1    8.27    4.76
   3  -6   0    3.76    4.28
  -3   6   0    2.74    2.46
   3  -6   1    7.15   11.57
  -3   6  -1    7.95    4.98
   3  -6   2   21.39   26.59
  -3   6  -2   47.82   12.18
   3  -6   3   69.58   36.33
  -3   6  -3   43.14   11.34
  -3   6  -3   92.25   10.95
   3  -6   4   36.65   29.29
  -3   6  -4   49.76   12.40
  -3   6  -4   75.92   15.18
   3  -6   5   15.07   10.61
  -3   6  -5   26.27    5.63
  -3   6  -5   27.64    6.89
   3  -6   6    6.50    5.17
  -3   6  -6   10.86    6.52
  -3   6  -6    9.53    2.09
  -3   6  -7    1.30    1.70
  -3   6  -7   -0.10    0.47
  -3   6  -8    3.52    3.67
  -3   6  -8    2.13    0.79
  -3   6  -9   15.06    9.72
  -3   6 -10   35.54    8.47
  -3   6 -11   35.45   13.28
  -3   5   9   11.53    3.74
  -3   5   8   32.00   12.71
  -3   5   7   39.25    9.01
   3  -5  -6    4.49    5.99
  -3   5   6   12.58    4.87
   3  -5  -5    0.86    2.23
  -3   5   5   -1.33    2.99
   3  -5  -4    5.78    8.29
  -3   5   4    8.65    9.04
   3  -5  -3   47.07   15.00
  -3   5   3   43.93   23.92
   3  -5  -2   59.29   19.98
  -3   5   2   64.33   22.90
   3  -5  -1   53.51   20.87
  -3   5   1   65.32   17.93
   3  -5   0   47.02   21.81
  -3   5   0   74.81   17.82
   3  -5   1   30.68   15.88
  -3   5  -1   49.11   15.21
   3  -5   2    4.32    4.96
  -3   5  -2    4.96    2.44
   3  -5   3   -0.02    4.21
  -3   5  -3    2.45    2.46
  -3   5  -3   -0.01    1.65
   3  -5   4    4.93    4.87
  -3   5  -4   14.28    3.32
  -3   5  -4    4.65    4.43
   3  -5   5   13.40    6.34
  -3   5  -5   36.89    7.53
  -3   5  -5   10.60    7.69
   3  -5   6   34.57   10.28
  -3   5  -6   72.65   12.13
  -3   5  -6   53.02    9.06
  -3   5  -7   44.66    5.74
  -3   5  -7   44.52    8.71
  -3   5  -8   25.01    3.64
  -3   5  -8   33.51    6.71
  -3   5  -9    2.46    2.03
  -3   5  -9   15.64    4.92
  -3   5 -10    3.92    4.54
  -3   5 -11    5.43    4.71
  -3   4  10    0.83    0.99
  -3   4   9    0.77    1.23
  -3   4   8   -0.48    2.27
  -3   4   7   14.22    5.39
   3  -4  -6   39.00    9.54
  -3   4   6   65.41   21.47
   3  -4  -5    2.71    5.14
  -3   4   5   30.51    9.77
  -3   4   4   81.95   26.61
  -3   4   4   86.83   33.13
  -3   4   3   55.95   21.15
  -3   4   3   70.65   13.94
  -3   4   2   10.78    4.98
  -3   4   2   13.10    4.12
  -3   4   1    5.56    4.11
  -3   4   1    9.62    3.80
  -3   4   0   20.90    7.03
  -3   4   0   23.85    9.70
  -3   4  -1   46.27   20.66
  -3   4  -1   64.56   18.99
  -3   4  -2  282.74   70.07
  -3   4  -2  274.28   56.82
  -3   4  -3  153.59   22.57
  -3   4  -3  154.51   19.04
  -3   4  -3  104.82   18.97
   3  -4   4   35.39    9.11
  -3   4  -4   40.67   12.25
  -3   4  -4   33.51    5.58
   3  -4   5    1.63    2.19
  -3   4  -5    5.59    2.12
  -3   4  -5    4.44    3.74
  -3   4  -6    2.74    2.55
  -3   4  -6   -0.09    3.05
  -3   4  -7   15.27    5.70
  -3   4  -7   11.61    8.20
  -3   4  -8   53.12   11.43
  -3   4  -8   68.86   18.75
  -3   4  -9   33.19    4.36
  -3   4  -9   42.02    8.11
  -3   4 -10    4.75    2.71
  -3   4 -10   28.01    6.42
  -3   4 -11   15.13    4.25
  -3   3  10    5.90    1.81
  -3   3   9   14.53    6.39
  -3   3   8   40.22   12.26
  -3   3   7   21.79    3.82
  -3   3   7   19.84   11.83
  -3   3   6    1.39    1.33
  -3   3   6    2.89    2.42
  -3   3   5    1.11    3.00
  -3   3   5    1.54    3.95
  -3   3   4   52.30   10.71
  -3   3   4   50.57   18.55
  -3   3   3   93.44   26.03
  -3   3   3   74.91   11.60
  -3   3   2  107.09   29.15
  -3   3   2  120.49   17.96
  -3   3   1  103.21   14.29
  -3   3   1  107.63   27.21
  -3   3   0   49.42   20.87
  -3   3   0   54.79   10.09
  -3   3  -1   22.24    7.02
  -3   3  -1   24.73    5.85
  -3   3  -2    6.63    7.35
  -3   3  -2   13.10    6.76
  -3   3  -3   12.10    3.35
  -3   3  -3   18.19    7.11
  -3   3  -3   11.23    2.59
  -3   3  -4   69.06   10.21
  -3   3  -4   45.50   13.69
  -3   3  -4   51.37   12.51
  -3   3  -5   93.07   12.93
  -3   3  -5   77.43   19.00
   3  -3   6   32.61    7.19
  -3   3  -6   72.77   13.64
  -3   3  -6   57.88    8.43
   3  -3   7    7.96    9.19
  -3   3  -7   44.11   11.18
  -3   3  -7   38.17    9.42
   3  -3   8    1.56    4.57
  -3   3  -8   12.82    5.57
  -3   3  -8    7.32    4.01
   3  -3   9    1.16    3.21
  -3   3  -9    1.63    2.59
  -3   3  -9    6.38    2.41
   3  -3  10    0.06    2.13
  -3   3 -10   10.03    3.37
  -3   3 -10    1.53    1.01
  -3   3 -11   15.35    6.67
  -3   2   9    1.55    1.16
  -3   2   8   10.14    3.07
  -3   2   8    9.70    3.12
  -3   2   7   65.40   13.36
  -3   2   7   53.29   18.71
  -3   2   6   65.78   12.11
  -3   2   6   65.23   14.05
  -3   2   5   94.72   24.87
  -3   2   5   72.82   18.00
  -3   2   4   16.11    7.02
  -3   2   4   18.95    8.53
  -3   2   3    1.96    1.88
  -3   2   3    2.15    1.97
  -3   2   2    6.89    2.51
  -3   2   2    5.32    3.09
  -3   2   1   51.95    8.86
  -3   2   1   49.10    9.38
  -3   2   0   83.74   11.72
  -3   2   0   74.71   21.52
  -3   2  -1  163.49   19.67
  -3   2  -1  137.44   28.80
  -3   2  -2   73.80   18.43
  -3   2  -2   57.97    8.12
   3  -2   3   24.09   10.08
  -3   2  -3   45.10    6.38
  -3   2  -3   39.20    8.60
  -3   2  -3   52.55   13.73
   3  -2   4    5.32    2.86
  -3   2  -4    6.69    1.72
  -3   2  -4    8.88    2.38
  -3   2  -4   11.99    3.51
   3  -2   5    1.13    2.15
  -3   2  -5    4.18    1.86
  -3   2  -5    3.37    2.34
   3  -2   6    4.86    7.10
  -3   2  -6   13.03    3.73
  -3   2  -6   16.71    7.37
   3  -2   7   13.73   13.72
  -3   2  -7   34.85    7.03
  -3   2  -7   49.22   12.59
   3  -2   8   12.85   15.40
  -3   2  -8   45.30   13.38
  -3   2  -8   55.21   12.87
   3  -2   9   18.45   15.78
  -3   2  -9   40.77    7.86
  -3   2  -9   49.02    7.07
   3  -2  10    5.78    3.54
  -3   2 -10   21.46    6.08
  -3   2 -10   11.02    4.51
   3  -2  11    0.75    2.11
  -3   2 -11    4.63    2.34
  -3   2 -11    1.22    0.84
  -3   1   8    3.18    2.02
  -3   1   7    0.21    1.92
  -3   1   7    0.88    1.71
  -3   1   6    4.96    4.24
  -3   1   6    6.09    4.09
  -3   1   5   41.68    6.83
  -3   1   5   54.53   14.35
  -3   1   4   57.92   13.21
  -3   1   4   81.03   11.80
  -3   1   3   76.19   15.27
  -3   1   3   99.90   23.08
  -3   1   2   73.35    9.73
  -3   1   2   85.87   21.30
  -3   1   1   54.07    7.63
  -3   1   1   52.11   16.81
  -3   1   0   20.43    4.78
  -3   1   0   27.00    5.52
   3  -1   1    5.64    6.61
  -3   1  -1    8.52    6.02
  -3   1  -1   12.02    3.41
   3  -1   2   30.23   14.28
  -3   1  -2   44.41    8.81
  -3   1  -2   51.45   14.97
  -3   1  -2   41.58    6.23
   3  -1   3   53.35   10.74
  -3   1  -3   61.71   12.05
  -3   1  -3   71.88   10.17
  -3   1  -3   40.00    5.24
   3  -1   4   50.87   11.63
  -3   1  -4   73.94   16.60
  -3   1  -4   83.49   20.24
   3  -1   5   35.93   10.65
  -3   1  -5   54.42   15.44
  -3   1  -5   52.23   10.04
   3  -1   6   19.26    8.49
  -3   1  -6   30.76    7.13
  -3   1  -6   33.39    7.30
   3  -1   7    2.80    3.52
  -3   1  -7    7.34    3.10
  -3   1  -7    5.30    2.97
   3  -1   8    0.45    2.10
  -3   1  -8    3.45    2.67
  -3   1  -8    0.44    1.59
   3  -1   9    1.48    5.70
  -3   1  -9    6.19    4.20
  -3   1  -9    4.65    4.11
   3  -1  10    1.46    7.82
  -3   1 -10   18.30    3.23
  -3   1 -10    7.38    3.04
  -3   0   9   23.88    2.69
  -3   0   8   79.35    8.42
  -3   0   7   90.48   11.42
  -3   0   6   77.05   18.04
  -3   0   5   40.27    9.56
  -3   0   5   59.77    8.83
  -3   0   4    5.93    3.23
  -3   0   4    8.02    5.37
  -3   0   3   21.38    5.18
  -3   0   3   18.30    9.40
   3   0  -2   46.66   14.51
  -3   0   2   46.55   10.10
  -3   0   2   54.02   14.88
   3   0  -1   90.69   16.70
  -3   0   1   83.66   15.62
  -3   0   1   98.91   21.56
   3   0   0  167.82   43.12
  -3   0   0  154.94   18.24
  -3   0   0  153.34   26.39
   3   0   1   87.78   33.17
  -3   0  -1   95.30   18.83
  -3   0  -1  104.13   22.28
   3   0   2   18.67   15.27
  -3   0  -2   24.76    6.73
  -3   0  -2   36.13    6.48
  -3   0  -2   26.90    8.06
   3   0   3   10.87    9.58
  -3   0  -3   11.16    5.03
  -3   0  -3   14.78    7.06
  -3   0  -3   10.44    3.55
   3   0   4   -1.49    3.86
  -3   0  -4   -0.43    2.22
  -3   0  -4   -0.80    1.60
   3   0   5   16.32   13.58
  -3   0  -5   25.14    9.76
  -3   0  -5   24.85   11.32
   3   0   6   20.99   24.65
  -3   0  -6   62.74   10.48
  -3   0  -6   60.15   17.65
   3   0   7   23.25   19.93
  -3   0  -7   47.73   15.15
  -3   0  -7   49.64   14.45
   3   0   8   20.51   18.22
  -3   0  -8   44.08    8.22
  -3   0  -8   22.78   13.22
   3   0   9   10.54    7.28
  -3   0  -9   26.79    8.47
  -3   0  -9   25.91    5.12
   3   0  10   -0.77    2.47
  -3   0 -10    0.85    1.62
  -3   0 -10    0.32    1.63
  -3  -1   9    0.56    1.33
  -3  -1   8    1.13    1.94
  -3  -1   7    8.69    4.96
  -3  -1   6   54.03    8.70
   3   1  -5   36.84   16.86
  -3  -1   5   65.94   15.73
   3   1  -4   44.77   19.99
  -3  -1   4   74.40   17.90
   3   1  -3   37.29    7.59
  -3  -1   3   26.54    5.07
  -3  -1   3   52.69   12.27
   3   1  -2   64.88   17.25
  -3  -1   2   32.69    6.54
  -3  -1   2   53.46   13.41
   3   1  -1    6.35    5.71
  -3  -1   1    3.36    1.43
  -3  -1   1    4.39    3.80
   3   1   0    5.25   10.54
  -3  -1   0    8.33    2.80
  -3  -1   0    8.53    2.48
   3   1   1   34.13   26.30
  -3  -1  -1   47.89    7.50
  -3  -1  -1   50.23   10.76
   3   1   2   40.88   25.31
  -3  -1  -2   43.87    9.54
  -3  -1  -2   55.09   13.21
  -3  -1  -2   42.59    8.84
   3   1   3   71.74   28.64
  -3  -1  -3   57.14   14.21
  -3  -1  -3   65.49   10.34
   3   1   4   23.02   13.66
  -3  -1  -4   11.81    7.38
  -3  -1  -4   18.29    8.36
   3   1   5   13.70   14.18
  -3  -1  -5   25.69    5.54
  -3  -1  -5   15.11    9.18
   3   1   6    4.73    7.80
  -3  -1  -6    5.72    5.39
  -3  -1  -6    6.82    4.83
   3   1   7    4.80    5.64
  -3  -1  -7    2.99    2.29
  -3  -1  -7    3.03    3.64
   3   1   8    5.69    5.42
  -3  -1  -8    9.50    7.14
  -3  -1  -8   19.99    6.40
   3   1   9    5.66    9.27
  -3  -1  -9    8.64    5.95
  -3  -1  -9   16.44    3.52
  -3  -2  10   27.13    4.95
  -3  -2   9   51.02    9.67
   3   2  -8   46.84   10.75
  -3  -2   8   68.16   12.48
   3   2  -7   13.00    7.49
  -3  -2   7   40.48    8.85
   3   2  -6    1.85    4.20
  -3  -2   6   12.60    4.93
   3   2  -5    1.60    3.41
  -3  -2   5   -1.02    1.39
   3   2  -4   12.39    6.37
  -3  -2   4   17.28    7.75
   3   2  -3   19.05    7.96
  -3  -2   3   37.11   10.56
   3   2  -2   69.51   27.53
  -3  -2   2   62.66   10.36
   3   2  -1   48.26   23.47
  -3  -2   1   38.18    4.19
  -3  -2   1   57.64    7.73
   3   2   0   39.19   21.72
  -3  -2   0   35.53    8.51
  -3  -2   0   24.96    3.72
   3   2   1   13.38   13.26
  -3  -2  -1   10.59    2.68
  -3  -2  -1   13.24    4.29
   3   2   2    6.76    7.33
  -3  -2  -2    2.78    1.44
  -3  -2  -2    3.63    2.91
   3   2   3    1.66    4.56
  -3  -2  -3    0.69    1.16
  -3  -2  -3    0.95    1.23
   3   2   4    9.40    9.30
  -3  -2  -4    4.83    4.71
  -3  -2  -4    7.63    4.72
   3   2   5   16.16   12.44
  -3  -2  -5   18.51    8.28
  -3  -2  -5   15.82    6.99
   3   2   6   18.19   17.28
  -3  -2  -6   28.37    6.73
  -3  -2  -6   37.59    9.65
   3   2   7   13.76    8.57
  -3  -2  -7   25.28   10.90
  -3  -2  -7   52.35    9.98
   3   2   8    9.47   12.15
  -3  -2  -8   16.68    9.11
  -3  -2  -8   24.22    4.34
   3   3 -10   -0.11    1.15
  -3  -3  10    0.37    0.95
   3   3  -9   -0.06    1.37
  -3  -3   9   -0.18    1.21
   3   3  -8    4.49    4.31
  -3  -3   8    8.79    4.09
   3   3  -7   39.36   11.36
  -3  -3   7   34.38    6.40
   3   3  -6   74.50   32.36
  -3  -3   6   70.28   18.02
   3   3  -5   71.38   33.98
  -3  -3   5   83.53   21.09
   3   3  -4   34.97   23.41
  -3  -3   4   41.03    8.01
   3   3  -3   21.98    8.52
  -3  -3   3   24.09    5.60
   3   3  -2    5.29    7.57
  -3  -3   2    3.94    4.12
   3   3  -1    7.81   13.66
  -3  -3   1   10.89    5.30
   3   3   0   29.13   16.59
  -3  -3   0   14.67    5.70
   3   3   1   30.31   22.07
  -3  -3  -1   31.95    5.76
  -3  -3  -1   25.71    3.54
   3   3   2   27.56   24.00
  -3  -3  -2   33.75    8.73
  -3  -3  -2   46.73    8.19
   3   3   3   29.94   18.66
  -3  -3  -3    8.43    8.00
  -3  -3  -3   37.90    6.99
   3   3   4   13.36    8.56
  -3  -3  -4    5.88    2.79
  -3  -3  -4    8.87    2.34
   3   3   5    1.61    1.90
  -3  -3  -5    0.74    2.09
  -3  -3  -5    0.21    0.92
   3   3   6    2.92    4.24
  -3  -3  -6    2.22    1.63
  -3  -3  -6    1.35    1.23
   3   3   7    2.18    6.31
  -3  -3  -7    7.50    2.55
  -3  -3  -7    6.75    3.44
  -3  -4  11   14.00    2.54
   3   4 -10   30.80    7.59
  -3  -4  10   22.16    5.28
   3   4  -9   24.69    9.52
  -3  -4   9   30.71    7.26
   3   4  -8   45.15   13.17
  -3  -4   8   39.85    6.21
   3   4  -7   19.38   13.21
  -3  -4   7   12.12    6.64
   3   4  -6    1.50    4.18
  -3  -4   6    0.52    1.29
   3   4  -5    7.81    5.00
  -3  -4   5    5.07    2.72
   3   4  -4   24.96   14.65
  -3  -4   4   20.26    5.12
   3   4  -3  119.49   25.83
  -3  -4   3   45.15    8.56
   3   4  -2  140.99   42.66
  -3  -4   2   89.17   20.37
   3   4  -1   62.16   17.15
  -3  -4   1   37.31    9.98
   3   4   0   16.20    6.05
  -3  -4   0    4.34    3.02
   3   4   1    2.09    2.39
  -3  -4  -1    0.10    1.14
   3   4   2    3.85    2.54
  -3  -4  -2   -0.14    1.65
   3   4   3   16.40   10.02
  -3  -4  -3    3.23    4.45
  -3  -4  -3   10.28    1.61
   3   4   4   15.17   11.95
  -3  -4  -4   28.46    4.21
  -3  -4  -4   17.44    2.69
   3   4   5   11.72    9.46
  -3  -4  -5   22.87    6.31
  -3  -4  -5   13.72    2.18
   3   4   6    7.07    6.60
  -3  -4  -6   12.86    5.05
   3   5 -10    1.30    2.66
  -3  -5  10    0.14    1.02
   3   5  -9    7.81    8.24
  -3  -5   9    7.83    3.60
   3   5  -8   35.00   17.25
  -3  -5   8   26.04    8.12
   3   5  -7   42.82   11.09
  -3  -5   7   22.51    9.99
   3   5  -6   31.65   17.94
  -3  -5   6   24.76    5.25
   3   5  -5   25.62    7.75
  -3  -5   5   18.91    4.75
   3   5  -4    0.11    5.22
  -3  -5   4    1.79    1.53
   3   5  -3   -0.51    2.97
  -3  -5   3    0.01    0.80
   3   5  -2    8.34    5.53
  -3  -5   2    4.55    3.52
   3   5  -1    3.17    3.31
  -3  -5   1    1.53    1.02
   3   5   0   23.71    9.62
   3   5   1   21.96    4.15
  -3  -5  -1    0.83    2.23
   3   5   2   10.66    3.61
  -3  -5  -2    1.82    2.46
   3   5   3    5.24    3.67
  -3  -5  -3    1.55    1.12
   3   5   4    0.96    2.62
  -3  -5  -4    0.79    1.67
   3   6  -9    5.42    9.57
  -3  -6   9   14.09    4.15
   3   6  -8    3.32    4.91
  -3  -6   8    3.36    1.50
   3   6  -7    0.74    1.63
  -3  -6   7    0.10    1.75
   3   6  -6    3.18    8.26
  -3  -6   6   10.32    2.77
   3   6  -5    9.09    7.40
  -3  -6   5   22.25    4.00
   3   6  -4   84.34   21.84
  -3  -6   4   31.12    5.33
   3   6  -3   83.72   31.53
  -3  -6   3   59.96   12.17
   3   6  -2   13.02    7.42
  -3  -6   2   15.80    2.48
   3   6  -1    2.38    2.93
   3   6   0   -0.69    1.69
   3   6   1    0.72    2.83
   3   6   2    4.15    4.05
   3   7  -6   10.89   12.10
  -3  -7   6   20.28    5.44
   3   7  -5    2.88    6.93
  -3  -7   5    6.33    2.96
   3   7  -4    0.20    1.81
  -3  -7   4   -0.78    0.74
   3   7  -3    6.37    6.44
   3   7  -2    7.81    5.95
   4  -6  -1    0.15    6.87
  -4   6   1    3.57    4.09
   4  -6   0    1.28    4.42
  -4   6   0   -1.11    2.58
   4  -6   1    2.59    7.32
  -4   6  -1    3.32    2.18
   4  -6   2    7.55    4.67
  -4   6  -2    4.39    4.92
   4  -6   3   13.76   11.41
  -4   6  -3   45.68    6.76
   4  -5  -3    4.79    7.85
  -4   5   3    7.26    5.93
   4  -5  -2   18.92    7.56
  -4   5   2   11.11    9.59
   4  -5  -1   10.53    9.40
  -4   5   1   26.61    6.16
   4  -5   0   12.77    9.28
  -4   5   0   26.68    6.34
   4  -5   1    5.61    4.72
  -4   5  -1    9.10    6.07
   4  -5   2    1.90    6.26
  -4   5  -2    3.09    1.94
   4  -5   3    0.46    3.43
  -4   5  -3    1.17    2.31
  -4   5  -4    0.65    1.59
  -4   4   5   14.53    3.47
   4  -4  -4   16.87   13.08
  -4   4   4   23.54    5.67
   4  -4  -3   12.83   11.42
  -4   4   3   13.98    8.26
   4  -4  -2    6.60    8.63
  -4   4   2    6.30    5.79
   4  -4  -1    1.65    8.88
  -4   4   1    7.48    3.47
   4  -4   0    8.01   12.90
  -4   4   0   17.66    4.57
   4  -4   1   10.57    6.05
  -4   4  -1   18.27    6.25
   4  -4   2   20.79   17.56
  -4   4  -2   43.14    6.40
   4  -4   3    1.45    6.46
  -4   4  -3   19.80    6.13
  -4   4  -4   18.27    7.31
  -4   4  -5    4.14    1.83
   4  -3  -5    0.01    2.51
  -4   3   5    0.12    1.46
   4  -3  -4   14.23    6.02
  -4   3   4   10.54    3.52
   4  -3  -3   16.37    9.08
  -4   3   3   22.55    5.17
   4  -3  -2    5.25   10.22
  -4   3   2   31.32    6.24
   4  -3  -1    6.71    9.93
  -4   3   1   28.64    5.33
   4  -3   0   14.73    8.57
  -4   3   0   25.68    7.28
   4  -3   1    8.68    5.31
  -4   3  -1   13.79    5.39
   4  -3   2    0.56    4.13
  -4   3  -2    3.62    2.01
   4  -3   3    0.46    5.23
  -4   3  -3   20.68    5.73
  -4   3  -4   20.73    6.74
  -4   3  -5   14.86    5.19
   4  -2  -6   26.83    7.28
  -4   2   5   25.80    4.03
  -4   2   5    5.04    2.41
  -4   2   4    7.58    5.66
  -4   2   4    3.65    3.47
  -4   2   3    9.76    4.91
  -4   2   3    2.08    3.94
  -4   2   2    6.54    5.86
  -4   2   2    8.21    4.29
  -4   2   1   16.64    8.77
  -4   2   1   20.91    5.99
  -4   2   0   27.99   13.94
  -4   2   0   40.08    9.01
   4  -2   1    2.88    8.31
  -4   2  -1   44.59    5.84
   4  -2   2    3.12    3.91
  -4   2  -2   27.77    5.15
   4  -2   3    0.99    3.75
  -4   2  -3   13.90    2.56
  -4   2  -4    3.45    2.70
  -4   2  -5   -1.01    1.68
  -4   1   6    0.89    2.00
  -4   1   5    9.23    3.12
  -4   1   4   21.42    5.56
  -4   1   4    2.52    2.68
  -4   1   3   22.87    6.08
  -4   1   3    5.37    2.04
  -4   1   2   19.09    6.25
  -4   1   2    6.88    2.02
  -4   1   1   16.62    6.53
  -4   1   1   13.08    2.33
  -4   1   0    2.30    1.60
  -4   1   0    3.77    2.50
  -4   1  -1    0.83    3.04
  -4   1  -1    5.54    2.83
   4  -1   2    0.89    2.54
  -4   1  -2   12.30    2.00
  -4   1  -3   12.80    4.31
  -4   1  -4   10.30    4.13
  -4   0   6   11.96    5.98
  -4   0   5    4.90    2.48
  -4   0   4    2.60    3.58
  -4   0   3    7.05    5.32
  -4   0   2   11.40    4.16
  -4   0   2    3.88    1.11
  -4   0   1   23.79    3.79
  -4   0   1   12.31    1.84
  -4   0   0    2.17    3.16
  -4   0   0    8.38    2.63
  -4   0  -1    4.04    2.36
  -4   0  -2    3.04    1.02
  -4   0  -3    1.82    1.51
  -4  -1   6    8.10    4.63
  -4  -1   5   11.67    4.97
  -4  -1   4   22.98    4.12
  -4  -1   3   14.04    3.03
  -4  -1   2   10.63    4.36
  -4  -1   1    1.24    1.97
  -4  -2   5    0.32    0.76
  -4  -2   4    2.90    2.33
  -4  -2   3    4.02    1.42
  -4  -2   2   11.87    3.72
   0   0   0    0.00    0.00
;
_shelx_hkl_checksum              24529
_shelx_fab_file
;
    0    0    1     16.14      0.00
    0    0    2     13.62      0.00
    0    0    3     10.31      0.00
    0    0    4      7.14      0.00
    0    0    5      4.79      0.00
    0    0    6      3.47      0.00
    0    0    7      2.97      0.00
    0    0    8      2.84      0.00
    0    0    9      2.68      0.00
    0    0   10      2.32      0.00
    0    0   11      1.81      0.00
    0    0   12      1.33      0.00
    0    0   13      1.01      0.00
    0    0   14      0.88      0.00
    0    0   15      0.85      0.00
    0    0   16      0.80      0.00
    0   -1   16     -0.47      0.00
    0   -1   15     -0.68      0.00
    0   -1   14     -0.87      0.00
    0   -1   13     -1.08      0.00
    0   -1   12     -1.35      0.00
    0   -1   11     -1.69      0.00
    0   -1   10     -2.00      0.00
    0   -1    9     -2.20      0.00
    0   -1    8     -2.30      0.00
    0   -1    7     -2.51      0.00
    0   -1    6     -3.15      0.00
    0   -1    5     -4.53      0.00
    0   -1    4     -6.71      0.00
    0   -1    3     -9.38      0.00
    0   -1    2    -11.91      0.00
    0   -1    1    -13.53      0.00
    0    1    0    -13.71      0.00
    0    1    1    -12.39      0.00
    0    1    2     -9.98      0.00
    0    1    3     -7.25      0.00
    0    1    4     -4.91      0.00
    0    1    5     -3.39      0.00
    0    1    6     -2.70      0.00
    0    1    7     -2.53      0.00
    0    1    8     -2.46      0.00
    0    1    9     -2.23      0.00
    0    1   10     -1.82      0.00
    0    1   11     -1.38      0.00
    0    1   12     -1.10      0.00
    0    1   13     -1.04      0.00
    0    1   14     -1.15      0.00
    0    1   15     -1.27      0.00
    0   -2   16      0.85      0.00
    0   -2   15      1.20      0.00
    0   -2   14      1.38      0.00
    0   -2   13      1.42      0.00
    0   -2   12      1.40      0.00
    0   -2   11      1.38      0.00
    0   -2   10      1.41      0.00
    0   -2    9      1.47      0.00
    0   -2    8      1.56      0.00
    0   -2    7      1.74      0.00
    0   -2    6      2.13      0.00
    0   -2    5      2.88      0.00
    0   -2    4      3.98      0.00
    0   -2    3      5.25      0.00
    0   -2    2      6.35      0.00
    0   -2    1      6.92      0.00
    0    2    0      6.74      0.00
    0    2    1      5.86      0.00
    0    2    2      4.57      0.00
    0    2    3      3.28      0.00
    0    2    4      2.31      0.00
    0    2    5      1.78      0.00
    0    2    6      1.56      0.00
    0    2    7      1.44      0.00
    0    2    8      1.24      0.00
    0    2    9      0.94      0.00
    0    2   10      0.64      0.00
    0    2   11      0.48      0.00
    0    2   12      0.56      0.00
    0    2   13      0.80      0.00
    0    2   14      1.04      0.00
    0    2   15      1.15      0.00
    0   -3   17     -0.76      0.00
    0   -3   16     -1.30      0.00
    0   -3   15     -1.65      0.00
    0   -3   14     -1.72      0.00
    0   -3   13     -1.52      0.00
    0   -3   12     -1.21      0.00
    0   -3   11     -0.96      0.00
    0   -3   10     -0.89      0.00
    0   -3    9     -0.97      0.00
    0   -3    8     -1.13      0.00
    0   -3    7     -1.26      0.00
    0   -3    6     -1.31      0.00
    0   -3    5     -1.31      0.00
    0   -3    4     -1.32      0.00
    0   -3    3     -1.40      0.00
    0   -3    2     -1.53      0.00
    0   -3    1     -1.67      0.00
    0    3    0     -1.74      0.00
    0    3    1     -1.71      0.00
    0    3    2     -1.61      0.00
    0    3    3     -1.46      0.00
    0    3    4     -1.27      0.00
    0    3    5     -1.04      0.00
    0    3    6     -0.74      0.00
    0    3    7     -0.36      0.00
    0    3    8      0.01      0.00
    0    3    9      0.28      0.00
    0    3   10      0.33      0.00
    0    3   11      0.14      0.00
    0    3   12     -0.18      0.00
    0    3   13     -0.49      0.00
    0    3   14     -0.63      0.00
    0   -4   17      0.47      0.00
    0   -4   16      0.94      0.00
    0   -4   15      1.21      0.00
    0   -4   14      1.19      0.00
    0   -4   13      0.91      0.00
    0   -4   12      0.55      0.00
    0   -4   11      0.31      0.00
    0   -4   10      0.30      0.00
    0   -4    9      0.49      0.00
    0   -4    8      0.75      0.00
    0   -4    7      0.88      0.00
    0   -4    6      0.78      0.00
    0   -4    5      0.47      0.00
    0   -4    4      0.09      0.00
    0   -4    3     -0.18      0.00
    0   -4    2     -0.19      0.00
    0   -4    1      0.08      0.00
    0    4    0      0.54      0.00
    0    4    1      1.02      0.00
    0    4    2      1.34      0.00
    0    4    3      1.39      0.00
    0    4    4      1.14      0.00
    0    4    5      0.65      0.00
    0    4    6      0.07      0.00
    0    4    7     -0.42      0.00
    0    4    8     -0.70      0.00
    0    4    9     -0.68      0.00
    0    4   10     -0.41      0.00
    0    4   11     -0.02      0.00
    0    4   12      0.30      0.00
    0    4   13      0.43      0.00
    0   -5   17      0.26      0.00
    0   -5   16     -0.05      0.00
    0   -5   15     -0.25      0.00
    0   -5   14     -0.26      0.00
    0   -5   13     -0.09      0.00
    0   -5   12      0.15      0.00
    0   -5   11      0.31      0.00
    0   -5   10      0.30      0.00
    0   -5    9      0.13      0.00
    0   -5    8     -0.07      0.00
    0   -5    7     -0.18      0.00
    0   -5    6     -0.13      0.00
    0   -5    5      0.05      0.00
    0   -5    4      0.22      0.00
    0   -5    3      0.23      0.00
    0   -5    2     -0.01      0.00
    0   -5    1     -0.47      0.00
    0    5    0     -0.97      0.00
    0    5    1     -1.34      0.00
    0    5    2     -1.40      0.00
    0    5    3     -1.11      0.00
    0    5    4     -0.55      0.00
    0    5    5      0.08      0.00
    0    5    6      0.57      0.00
    0    5    7      0.78      0.00
    0    5    8      0.67      0.00
    0    5    9      0.31      0.00
    0    5   10     -0.12      0.00
    0    5   11     -0.46      0.00
    0    5   12     -0.57      0.00
    0   -6   16     -0.46      0.00
    0   -6   15     -0.27      0.00
    0   -6   14     -0.17      0.00
    0   -6   13     -0.19      0.00
    0   -6   12     -0.30      0.00
    0   -6   11     -0.45      0.00
    0   -6   10     -0.55      0.00
    0   -6    9     -0.60      0.00
    0   -6    8     -0.59      0.00
    0   -6    7     -0.58      0.00
    0   -6    6     -0.56      0.00
    0   -6    5     -0.50      0.00
    0   -6    4     -0.36      0.00
    0   -6    3     -0.09      0.00
    0   -6    2      0.29      0.00
    0   -6    1      0.68      0.00
    0    6    0      0.95      0.00
    0    6    1      0.98      0.00
    0    6    2      0.73      0.00
    0    6    3      0.28      0.00
    0    6    4     -0.21      0.00
    0    6    5     -0.56      0.00
    0    6    6     -0.65      0.00
    0    6    7     -0.45      0.00
    0    6    8     -0.07      0.00
    0    6    9      0.35      0.00
    0    6   10      0.63      0.00
    0    6   11      0.69      0.00
    0   -7   16      0.41      0.00
    0   -7   15      0.24      0.00
    0   -7   14      0.07      0.00
    0   -7   13     -0.01      0.00
    0   -7   12      0.02      0.00
    0   -7   11      0.17      0.00
    0   -7   10      0.39      0.00
    0   -7    9      0.60      0.00
    0   -7    8      0.76      0.00
    0   -7    7      0.84      0.00
    0   -7    6      0.81      0.00
    0   -7    5      0.68      0.00
    0   -7    4      0.46      0.00
    0   -7    3      0.18      0.00
    0   -7    2     -0.08      0.00
    0   -7    1     -0.28      0.00
    0    7    0     -0.34      0.00
    0    7    1     -0.25      0.00
    0    7    2     -0.07      0.00
    0    7    3      0.12      0.00
    0    7    4      0.21      0.00
    0    7    5      0.14      0.00
    0    7    6     -0.09      0.00
    0    7    7     -0.39      0.00
    0    7    8     -0.67      0.00
    0    7    9     -0.81      0.00
    0    7   10     -0.76      0.00
    0   -8   15     -0.18      0.00
    0   -8   14     -0.04      0.00
    0   -8   13      0.09      0.00
    0   -8   12      0.14      0.00
    0   -8   11      0.09      0.00
    0   -8   10     -0.04      0.00
    0   -8    9     -0.22      0.00
    0   -8    8     -0.38      0.00
    0   -8    7     -0.49      0.00
    0   -8    6     -0.53      0.00
    0   -8    5     -0.51      0.00
    0   -8    4     -0.47      0.00
    0   -8    3     -0.42      0.00
    0   -8    2     -0.39      0.00
    0   -8    1     -0.38      0.00
    0    8    0     -0.36      0.00
    0    8    1     -0.31      0.00
    0    8    2     -0.19      0.00
    0    8    3      0.00      0.00
    0    8    4      0.25      0.00
    0    8    5      0.52      0.00
    0    8    6      0.75      0.00
    0    8    7      0.88      0.00
    0    8    8      0.88      0.00
    0   -9   14      0.21      0.00
    0   -9   13      0.06      0.00
    0   -9   12     -0.12      0.00
    0   -9   11     -0.26      0.00
    0   -9   10     -0.33      0.00
    0   -9    9     -0.33      0.00
    0   -9    8     -0.27      0.00
    0   -9    7     -0.16      0.00
    0   -9    6     -0.02      0.00
    0   -9    5      0.15      0.00
    0   -9    4      0.35      0.00
    0   -9    3      0.57      0.00
    0   -9    2      0.77      0.00
    0   -9    1      0.90      0.00
    0    9    0      0.89      0.00
    0    9    1      0.73      0.00
    0    9    2      0.45      0.00
    0    9    3      0.09      0.00
    0    9    4     -0.25      0.00
    0    9    5     -0.49      0.00
    0    9    6     -0.59      0.00
    0  -10   13     -0.10      0.00
    0  -10   12      0.18      0.00
    0  -10   11      0.47      0.00
    0  -10   10      0.70      0.00
    0  -10    9      0.83      0.00
    0  -10    8      0.84      0.00
    0  -10    7      0.76      0.00
    0  -10    6      0.60      0.00
    0  -10    5      0.36      0.00
    0  -10    4      0.05      0.00
    0  -10    3     -0.29      0.00
    0  -10    2     -0.63      0.00
    0  -10    1     -0.87      0.00
    0   10    0     -0.96      0.00
    0   10    1     -0.87      0.00
    0   10    2     -0.64      0.00
    0   10    3     -0.35      0.00
    0  -11   11     -0.53      0.00
    0  -11   10     -0.75      0.00
    0  -11    9     -0.88      0.00
    0  -11    8     -0.94      0.00
    0  -11    7     -0.94      0.00
    0  -11    6     -0.90      0.00
    0  -11    5     -0.81      0.00
    0  -11    4     -0.63      0.00
    0  -11    3     -0.36      0.00
    0  -11    2     -0.04      0.00
    0  -11    1      0.25      0.00
    0   11    0      0.45      0.00
    0   11    1      0.50      0.00
    0   11    2      0.40      0.00
    0  -12    8      0.39      0.00
    0  -12    7      0.49      0.00
    0  -12    6      0.64      0.00
    0  -12    5      0.77      0.00
    0  -12    4      0.81      0.00
    0  -12    3      0.72      0.00
    1  -12    2     -0.10      0.00
    1  -12    3     -0.04      0.00
    1  -12    4      0.17      0.00
    1  -12    5      0.45      0.00
    1  -12    6      0.70      0.00
    1  -12    7      0.79      0.00
    1  -12    8      0.69      0.00
    1  -12    9      0.43      0.00
   -1   11    2     -0.97      0.00
   -1   11    1     -1.01      0.00
   -1   11    0     -0.95      0.00
    1  -11    1     -0.84      0.00
    1  -11    2     -0.74      0.00
    1  -11    3     -0.72      0.00
    1  -11    4     -0.78      0.00
    1  -11    5     -0.86      0.00
    1  -11    6     -0.88      0.00
    1  -11    7     -0.74      0.00
    1  -11    8     -0.45      0.00
    1  -11    9     -0.07      0.00
    1  -11   10      0.27      0.00
    1  -11   11      0.46      0.00
   -1   10    5      0.66      0.00
   -1   10    4      0.85      0.00
   -1   10    3      1.11      0.00
   -1   10    2      1.35      0.00
   -1   10    1      1.49      0.00
   -1   10    0      1.50      0.00
    1  -10    1      1.39      0.00
    1  -10    2      1.21      0.00
    1  -10    3      1.03      0.00
    1  -10    4      0.89      0.00
    1  -10    5      0.79      0.00
    1  -10    6      0.67      0.00
    1  -10    7      0.48      0.00
    1  -10    8      0.23      0.00
    1  -10    9     -0.04      0.00
    1  -10   10     -0.24      0.00
    1  -10   11     -0.30      0.00
    1  -10   12     -0.21      0.00
    1  -10   13     -0.03      0.00
   -1    9    7      0.07      0.00
   -1    9    6      0.20      0.00
   -1    9    5      0.17      0.00
   -1    9    4     -0.04      0.00
   -1    9    3     -0.37      0.00
   -1    9    2     -0.70      0.00
   -1    9    1     -0.90      0.00
   -1    9    0     -0.89      0.00
    1   -9    1     -0.68      0.00
    1   -9    2     -0.37      0.00
    1   -9    3     -0.08      0.00
    1   -9    4      0.10      0.00
    1   -9    5      0.14      0.00
    1   -9    6      0.08      0.00
    1   -9    7     -0.03      0.00
    1   -9    8     -0.11      0.00
    1   -9    9     -0.15      0.00
    1   -9   10     -0.16      0.00
    1   -9   11     -0.19      0.00
    1   -9   12     -0.24      0.00
    1   -9   13     -0.33      0.00
    1   -9   14     -0.41      0.00
   -1    8    9     -0.64      0.00
   -1    8    8     -1.08      0.00
   -1    8    7     -1.43      0.00
   -1    8    6     -1.56      0.00
   -1    8    5     -1.42      0.00
   -1    8    4     -1.06      0.00
   -1    8    3     -0.62      0.00
   -1    8    2     -0.28      0.00
   -1    8    1     -0.17      0.00
   -1    8    0     -0.35      0.00
    1   -8    1     -0.74      0.00
    1   -8    2     -1.19      0.00
    1   -8    3     -1.52      0.00
    1   -8    4     -1.60      0.00
    1   -8    5     -1.41      0.00
    1   -8    6     -1.02      0.00
    1   -8    7     -0.55      0.00
    1   -8    8     -0.15      0.00
    1   -8    9      0.10      0.00
    1   -8   10      0.18      0.00
    1   -8   11      0.14      0.00
    1   -8   12      0.06      0.00
    1   -8   13      0.01      0.00
    1   -8   14      0.01      0.00
    1   -8   15      0.06      0.00
   -1    7   10      0.86      0.00
   -1    7    9      1.39      0.00
   -1    7    8      1.78      0.00
   -1    7    7      1.92      0.00
   -1    7    6      1.74      0.00
   -1    7    5      1.30      0.00
   -1    7    4      0.76      0.00
   -1    7    3      0.31      0.00
   -1    7    2      0.11      0.00
   -1    7    1      0.23      0.00
   -1    7    0      0.65      0.00
    1   -7    1      1.23      0.00
    1   -7    2      1.77      0.00
    1   -7    3      2.12      0.00
    1   -7    4      2.17      0.00
    1   -7    5      1.93      0.00
    1   -7    6      1.47      0.00
    1   -7    7      0.97      0.00
    1   -7    8      0.57      0.00
    1   -7    9      0.38      0.00
    1   -7   10      0.39      0.00
    1   -7   11      0.55      0.00
    1   -7   12      0.72      0.00
    1   -7   13      0.80      0.00
    1   -7   14      0.73      0.00
    1   -7   15      0.54      0.00
   -1    6   11     -0.57      0.00
   -1    6   10     -0.95      0.00
   -1    6    9     -1.16      0.00
   -1    6    8     -1.11      0.00
   -1    6    7     -0.77      0.00
   -1    6    6     -0.23      0.00
   -1    6    5      0.37      0.00
   -1    6    4      0.88      0.00
   -1    6    3      1.15      0.00
   -1    6    2      1.13      0.00
   -1    6    1      0.82      0.00
   -1    6    0      0.31      0.00
    1   -6    1     -0.29      0.00
    1   -6    2     -0.84      0.00
    1   -6    3     -1.27      0.00
    1   -6    4     -1.49      0.00
    1   -6    5     -1.51      0.00
    1   -6    6     -1.38      0.00
    1   -6    7     -1.16      0.00
    1   -6    8     -0.96      0.00
    1   -6    9     -0.86      0.00
    1   -6   10     -0.86      0.00
    1   -6   11     -0.93      0.00
    1   -6   12     -0.97      0.00
    1   -6   13     -0.90      0.00
    1   -6   14     -0.68      0.00
    1   -6   15     -0.35      0.00
    1   -6   16     -0.04      0.00
   -1    5   12      0.50      0.00
   -1    5   11      0.64      0.00
   -1    5   10      0.57      0.00
   -1    5    9      0.29      0.00
   -1    5    8     -0.18      0.00
   -1    5    7     -0.73      0.00
   -1    5    6     -1.24      0.00
   -1    5    5     -1.61      0.00
   -1    5    4     -1.80      0.00
   -1    5    3     -1.80      0.00
   -1    5    2     -1.65      0.00
   -1    5    1     -1.38      0.00
   -1    5    0     -1.04      0.00
    1   -5    1     -0.62      0.00
    1   -5    2     -0.13      0.00
    1   -5    3      0.40      0.00
    1   -5    4      0.92      0.00
    1   -5    5      1.33      0.00
    1   -5    6      1.56      0.00
    1   -5    7      1.56      0.00
    1   -5    8      1.36      0.00
    1   -5    9      1.04      0.00
    1   -5   10      0.69      0.00
    1   -5   11      0.39      0.00
    1   -5   12      0.13      0.00
    1   -5   13     -0.12      0.00
    1   -5   14     -0.38      0.00
    1   -5   15     -0.64      0.00
    1   -5   16     -0.84      0.00
   -1    4   13     -0.72      0.00
   -1    4   12     -0.71      0.00
   -1    4   11     -0.48      0.00
   -1    4   10     -0.06      0.00
   -1    4    9      0.41      0.00
   -1    4    8      0.81      0.00
   -1    4    7      1.06      0.00
   -1    4    6      1.12      0.00
   -1    4    5      1.03      0.00
   -1    4    4      0.87      0.00
   -1    4    3      0.70      0.00
   -1    4    2      0.57      0.00
   -1    4    1      0.48      0.00
   -1    4    0      0.35      0.00
    1   -4    1      0.10      0.00
    1   -4    2     -0.34      0.00
    1   -4    3     -0.96      0.00
    1   -4    4     -1.66      0.00
    1   -4    5     -2.25      0.00
    1   -4    6     -2.52      0.00
    1   -4    7     -2.37      0.00
    1   -4    8     -1.80      0.00
    1   -4    9     -0.98      0.00
    1   -4   10     -0.12      0.00
    1   -4   11      0.57      0.00
    1   -4   12      1.01      0.00
    1   -4   13      1.22      0.00
    1   -4   14      1.28      0.00
    1   -4   15      1.27      0.00
    1   -4   16      1.23      0.00
   -1    3   14      0.76      0.00
   -1    3   13      0.71      0.00
   -1    3   12      0.43      0.00
   -1    3   11      0.01      0.00
   -1    3   10     -0.39      0.00
   -1    3    9     -0.60      0.00
   -1    3    8     -0.58      0.00
   -1    3    7     -0.36      0.00
   -1    3    6     -0.02      0.00
   -1    3    5      0.34      0.00
   -1    3    4      0.63      0.00
   -1    3    3      0.84      0.00
   -1    3    2      0.99      0.00
   -1    3    1      1.13      0.00
   -1    3    0      1.32      0.00
    1   -3    1      1.63      0.00
    1   -3    2      2.09      0.00
    1   -3    3      2.66      0.00
    1   -3    4      3.21      0.00
    1   -3    5      3.54      0.00
    1   -3    6      3.47      0.00
    1   -3    7      2.90      0.00
    1   -3    8      1.90      0.00
    1   -3    9      0.69      0.00
    1   -3   10     -0.42      0.00
    1   -3   11     -1.19      0.00
    1   -3   12     -1.50      0.00
    1   -3   13     -1.42      0.00
    1   -3   14     -1.15      0.00
    1   -3   15     -0.88      0.00
    1   -3   16     -0.71      0.00
   -1    2   15     -0.57      0.00
   -1    2   14     -0.47      0.00
   -1    2   13     -0.16      0.00
   -1    2   12      0.25      0.00
   -1    2   11      0.55      0.00
   -1    2   10      0.61      0.00
   -1    2    9      0.39      0.00
   -1    2    8      0.00      0.00
   -1    2    7     -0.40      0.00
   -1    2    6     -0.71      0.00
   -1    2    5     -0.94      0.00
   -1    2    4     -1.17      0.00
   -1    2    3     -1.50      0.00
   -1    2    2     -1.98      0.00
   -1    2    1     -2.56      0.00
   -1    2    0     -3.14      0.00
    1   -2    1     -3.63      0.00
    1   -2    2     -3.97      0.00
    1   -2    3     -4.15      0.00
    1   -2    4     -4.15      0.00
    1   -2    5     -3.92      0.00
    1   -2    6     -3.39      0.00
    1   -2    7     -2.52      0.00
    1   -2    8     -1.40      0.00
    1   -2    9     -0.24      0.00
    1   -2   10      0.72      0.00
    1   -2   11      1.24      0.00
    1   -2   12      1.27      0.00
    1   -2   13      0.94      0.00
    1   -2   14      0.49      0.00
    1   -2   15      0.16      0.00
    1   -2   16      0.06      0.00
   -1    1   15      0.25      0.00
   -1    1   14     -0.11      0.00
   -1    1   13     -0.53      0.00
   -1    1   12     -0.78      0.00
   -1    1   11     -0.70      0.00
   -1    1   10     -0.29      0.00
   -1    1    9      0.27      0.00
   -1    1    8      0.73      0.00
   -1    1    7      0.93      0.00
   -1    1    6      0.89      0.00
   -1    1    5      0.83      0.00
   -1    1    4      1.03      0.00
   -1    1    3      1.67      0.00
   -1    1    2      2.69      0.00
   -1    1    1      3.82      0.00
   -1    1    0      4.74      0.00
    1   -1    1      5.18      0.00
    1   -1    2      5.09      0.00
    1   -1    3      4.60      0.00
    1   -1    4      3.91      0.00
    1   -1    5      3.18      0.00
    1   -1    6      2.45      0.00
    1   -1    7      1.68      0.00
    1   -1    8      0.87      0.00
    1   -1    9      0.09      0.00
    1   -1   10     -0.52      0.00
    1   -1   11     -0.81      0.00
    1   -1   12     -0.75      0.00
    1   -1   13     -0.44      0.00
    1   -1   14     -0.10      0.00
    1   -1   15      0.08      0.00
   -1    0   16     -0.18      0.00
   -1    0   15      0.15      0.00
   -1    0   14      0.57      0.00
   -1    0   13      0.84      0.00
   -1    0   12      0.73      0.00
   -1    0   11      0.20      0.00
   -1    0   10     -0.58      0.00
   -1    0    9     -1.29      0.00
   -1    0    8     -1.62      0.00
   -1    0    7     -1.49      0.00
   -1    0    6     -1.09      0.00
   -1    0    5     -0.82      0.00
   -1    0    4     -1.06      0.00
   -1    0    3     -1.95      0.00
   -1    0    2     -3.28      0.00
   -1    0    1     -4.62      0.00
    1    0    0     -5.46      0.00
    1    0    1     -5.54      0.00
    1    0    2     -4.91      0.00
    1    0    3     -3.90      0.00
    1    0    4     -2.88      0.00
    1    0    5     -2.11      0.00
    1    0    6     -1.65      0.00
    1    0    7     -1.34      0.00
    1    0    8     -1.04      0.00
    1    0    9     -0.66      0.00
    1    0   10     -0.26      0.00
    1    0   11      0.04      0.00
    1    0   12      0.14      0.00
    1    0   13      0.09      0.00
    1    0   14     -0.01      0.00
    1    0   15     -0.01      0.00
   -1   -1   16      0.07      0.00
   -1   -1   15     -0.23      0.00
   -1   -1   14     -0.51      0.00
   -1   -1   13     -0.53      0.00
   -1   -1   12     -0.15      0.00
   -1   -1   11      0.62      0.00
   -1   -1   10      1.50      0.00
   -1   -1    9      2.14      0.00
   -1   -1    8      2.26      0.00
   -1   -1    7      1.87      0.00
   -1   -1    6      1.25      0.00
   -1   -1    5      0.83      0.00
   -1   -1    4      0.98      0.00
   -1   -1    3      1.77      0.00
   -1   -1    2      2.93      0.00
   -1   -1    1      3.96      0.00
    1    1    0      4.44      0.00
    1    1    1      4.19      0.00
    1    1    2      3.38      0.00
    1    1    3      2.40      0.00
    1    1    4      1.66      0.00
    1    1    5      1.34      0.00
    1    1    6      1.38      0.00
    1    1    7      1.54      0.00
    1    1    8      1.58      0.00
    1    1    9      1.37      0.00
    1    1   10      0.98      0.00
    1    1   11      0.57      0.00
    1    1   12      0.28      0.00
    1    1   13      0.15      0.00
    1    1   14      0.11      0.00
   -1   -2   16     -0.44      0.00
   -1   -2   15     -0.29      0.00
   -1   -2   14     -0.15      0.00
   -1   -2   13     -0.20      0.00
   -1   -2   12     -0.56      0.00
   -1   -2   11     -1.18      0.00
   -1   -2   10     -1.84      0.00
   -1   -2    9     -2.25      0.00
   -1   -2    8     -2.19      0.00
   -1   -2    7     -1.68      0.00
   -1   -2    6     -0.97      0.00
   -1   -2    5     -0.42      0.00
   -1   -2    4     -0.32      0.00
   -1   -2    3     -0.71      0.00
   -1   -2    2     -1.39      0.00
   -1   -2    1     -1.98      0.00
    1    2    0     -2.21      0.00
    1    2    1     -1.98      0.00
    1    2    2     -1.48      0.00
    1    2    3     -0.99      0.00
    1    2    4     -0.77      0.00
    1    2    5     -0.88      0.00
    1    2    6     -1.17      0.00
    1    2    7     -1.43      0.00
    1    2    8     -1.45      0.00
    1    2    9     -1.21      0.00
    1    2   10     -0.82      0.00
    1    2   11     -0.44      0.00
    1    2   12     -0.21      0.00
    1    2   13     -0.13      0.00
   -1   -3   16      1.00      0.00
   -1   -3   15      0.98      0.00
   -1   -3   14      0.87      0.00
   -1   -3   13      0.79      0.00
   -1   -3   12      0.87      0.00
   -1   -3   11      1.11      0.00
   -1   -3   10      1.41      0.00
   -1   -3    9      1.57      0.00
   -1   -3    8      1.44      0.00
   -1   -3    7      0.99      0.00
   -1   -3    6      0.37      0.00
   -1   -3    5     -0.18      0.00
   -1   -3    4     -0.46      0.00
   -1   -3    3     -0.38      0.00
   -1   -3    2     -0.04      0.00
   -1   -3    1      0.36      0.00
    1    3    0      0.63      0.00
    1    3    1      0.70      0.00
    1    3    2      0.63      0.00
    1    3    3      0.54      0.00
    1    3    4      0.52      0.00
    1    3    5      0.57      0.00
    1    3    6      0.62      0.00
    1    3    7      0.57      0.00
    1    3    8      0.38      0.00
    1    3    9      0.13      0.00
    1    3   10     -0.10      0.00
    1    3   11     -0.21      0.00
    1    3   12     -0.16      0.00
    1    3   13     -0.03      0.00
   -1   -4   16     -1.05      0.00
   -1   -4   15     -1.12      0.00
   -1   -4   14     -1.00      0.00
   -1   -4   13     -0.77      0.00
   -1   -4   12     -0.56      0.00
   -1   -4   11     -0.46      0.00
   -1   -4   10     -0.46      0.00
   -1   -4    9     -0.48      0.00
   -1   -4    8     -0.40      0.00
   -1   -4    7     -0.16      0.00
   -1   -4    6      0.20      0.00
   -1   -4    5      0.54      0.00
   -1   -4    4      0.73      0.00
   -1   -4    3      0.66      0.00
   -1   -4    2      0.34      0.00
   -1   -4    1     -0.11      0.00
    1    4    0     -0.54      0.00
    1    4    1     -0.84      0.00
    1    4    2     -0.93      0.00
    1    4    3     -0.83      0.00
    1    4    4     -0.58      0.00
    1    4    5     -0.23      0.00
    1    4    6      0.15      0.00
    1    4    7      0.51      0.00
    1    4    8      0.77      0.00
    1    4    9      0.86      0.00
    1    4   10      0.76      0.00
    1    4   11      0.51      0.00
    1    4   12      0.20      0.00
   -1   -5   16      0.50      0.00
   -1   -5   15      0.64      0.00
   -1   -5   14      0.58      0.00
   -1   -5   13      0.33      0.00
   -1   -5   12     -0.01      0.00
   -1   -5   11     -0.32      0.00
   -1   -5   10     -0.50      0.00
   -1   -5    9     -0.57      0.00
   -1   -5    8     -0.60      0.00
   -1   -5    7     -0.64      0.00
   -1   -5    6     -0.73      0.00
   -1   -5    5     -0.81      0.00
   -1   -5    4     -0.78      0.00
   -1   -5    3     -0.58      0.00
   -1   -5    2     -0.18      0.00
   -1   -5    1      0.33      0.00
    1    5    0      0.80      0.00
    1    5    1      1.10      0.00
    1    5    2      1.12      0.00
    1    5    3      0.84      0.00
    1    5    4      0.35      0.00
    1    5    5     -0.24      0.00
    1    5    6     -0.77      0.00
    1    5    7     -1.11      0.00
    1    5    8     -1.19      0.00
    1    5    9     -1.01      0.00
    1    5   10     -0.64      0.00
    1    5   11     -0.20      0.00
   -1   -6   16     -0.06      0.00
   -1   -6   15     -0.28      0.00
   -1   -6   14     -0.32      0.00
   -1   -6   13     -0.13      0.00
   -1   -6   12      0.21      0.00
   -1   -6   11      0.59      0.00
   -1   -6   10      0.89      0.00
   -1   -6    9      1.06      0.00
   -1   -6    8      1.13      0.00
   -1   -6    7      1.13      0.00
   -1   -6    6      1.13      0.00
   -1   -6    5      1.10      0.00
   -1   -6    4      1.00      0.00
   -1   -6    3      0.78      0.00
   -1   -6    2      0.42      0.00
   -1   -6    1     -0.01      0.00
    1    6    0     -0.41      0.00
    1    6    1     -0.63      0.00
    1    6    2     -0.61      0.00
    1    6    3     -0.35      0.00
    1    6    4      0.09      0.00
    1    6    5      0.55      0.00
    1    6    6      0.89      0.00
    1    6    7      1.02      0.00
    1    6    8      0.92      0.00
    1    6    9      0.62      0.00
    1    6   10      0.23      0.00
   -1   -7   15      0.38      0.00
   -1   -7   14      0.47      0.00
   -1   -7   13      0.38      0.00
   -1   -7   12      0.12      0.00
   -1   -7   11     -0.21      0.00
   -1   -7   10     -0.50      0.00
   -1   -7    9     -0.70      0.00
   -1   -7    8     -0.81      0.00
   -1   -7    7     -0.87      0.00
   -1   -7    6     -0.91      0.00
   -1   -7    5     -0.95      0.00
   -1   -7    4     -0.95      0.00
   -1   -7    3     -0.86      0.00
   -1   -7    2     -0.64      0.00
   -1   -7    1     -0.34      0.00
    1    7    0     -0.01      0.00
    1    7    1      0.23      0.00
    1    7    2      0.31      0.00
    1    7    3      0.22      0.00
    1    7    4      0.01      0.00
    1    7    5     -0.22      0.00
    1    7    6     -0.40      0.00
    1    7    7     -0.44      0.00
    1    7    8     -0.37      0.00
   -1   -8   14     -0.51      0.00
   -1   -8   13     -0.49      0.00
   -1   -8   12     -0.39      0.00
   -1   -8   11     -0.26      0.00
   -1   -8   10     -0.14      0.00
   -1   -8    9     -0.07      0.00
   -1   -8    8     -0.03      0.00
   -1   -8    7      0.03      0.00
   -1   -8    6      0.13      0.00
   -1   -8    5      0.27      0.00
   -1   -8    4      0.38      0.00
   -1   -8    3      0.40      0.00
   -1   -8    2      0.29      0.00
   -1   -8    1      0.04      0.00
    1    8    0     -0.28      0.00
    1    8    1     -0.57      0.00
    1    8    2     -0.75      0.00
    1    8    3     -0.79      0.00
    1    8    4     -0.69      0.00
    1    8    5     -0.51      0.00
    1    8    6     -0.33      0.00
   -1   -9   13      0.07      0.00
   -1   -9   12      0.14      0.00
   -1   -9   11      0.23      0.00
   -1   -9   10      0.34      0.00
   -1   -9    9      0.44      0.00
   -1   -9    8      0.49      0.00
   -1   -9    7      0.45      0.00
   -1   -9    6      0.34      0.00
   -1   -9    5      0.18      0.00
   -1   -9    4      0.05      0.00
   -1   -9    3      0.01      0.00
   -1   -9    2      0.11      0.00
   -1   -9    1      0.34      0.00
    1    9    0      0.63      0.00
    1    9    1      0.89      0.00
    1    9    2      1.04      0.00
    1    9    3      1.05      0.00
    1    9    4      0.94      0.00
    1    9    5      0.75      0.00
   -1  -10   11      0.07      0.00
   -1  -10   10     -0.09      0.00
   -1  -10    9     -0.19      0.00
   -1  -10    8     -0.20      0.00
   -1  -10    7     -0.13      0.00
   -1  -10    6     -0.01      0.00
   -1  -10    5      0.12      0.00
   -1  -10    4      0.19      0.00
   -1  -10    3      0.18      0.00
   -1  -10    2      0.08      0.00
   -1  -10    1     -0.08      0.00
    1   10    0     -0.26      0.00
    1   10    1     -0.39      0.00
    1   10    2     -0.44      0.00
   -1  -11    9     -0.11      0.00
   -1  -11    8     -0.23      0.00
   -1  -11    7     -0.37      0.00
   -1  -11    6     -0.48      0.00
   -1  -11    5     -0.52      0.00
   -1  -11    4     -0.50      0.00
   -1  -11    3     -0.45      0.00
   -1  -11    2     -0.39      0.00
   -2   11    1      0.37      0.00
   -2   11    0      0.21      0.00
    2  -11    1     -0.03      0.00
    2  -11    2     -0.24      0.00
    2  -11    3     -0.35      0.00
    2  -11    4     -0.32      0.00
    2  -11    5     -0.19      0.00
    2  -11    6     -0.06      0.00
    2  -11    7      0.00      0.00
    2  -11    8     -0.05      0.00
    2  -11    9     -0.17      0.00
   -2   10    4     -0.02      0.00
   -2   10    3     -0.08      0.00
   -2   10    2     -0.10      0.00
   -2   10    1     -0.03      0.00
   -2   10    0      0.12      0.00
    2  -10    1      0.31      0.00
    2  -10    2      0.46      0.00
    2  -10    3      0.52      0.00
    2  -10    4      0.50      0.00
    2  -10    5      0.45      0.00
    2  -10    6      0.46      0.00
    2  -10    7      0.56      0.00
    2  -10    8      0.75      0.00
    2  -10    9      0.94      0.00
    2  -10   10      1.00      0.00
    2  -10   11      0.86      0.00
   -2    9    6     -0.03      0.00
   -2    9    5     -0.14      0.00
   -2    9    4     -0.15      0.00
   -2    9    3     -0.08      0.00
   -2    9    2      0.00      0.00
   -2    9    1      0.04      0.00
   -2    9    0      0.01      0.00
    2   -9    1     -0.08      0.00
    2   -9    2     -0.20      0.00
    2   -9    3     -0.31      0.00
    2   -9    4     -0.41      0.00
    2   -9    5     -0.54      0.00
    2   -9    6     -0.72      0.00
    2   -9    7     -0.95      0.00
    2   -9    8     -1.17      0.00
    2   -9    9     -1.30      0.00
    2   -9   10     -1.24      0.00
    2   -9   11     -0.96      0.00
    2   -9   12     -0.52      0.00
   -2    8    8      0.06      0.00
   -2    8    7      0.30      0.00
   -2    8    6      0.47      0.00
   -2    8    5      0.50      0.00
   -2    8    4      0.35      0.00
   -2    8    3      0.07      0.00
   -2    8    2     -0.23      0.00
   -2    8    1     -0.47      0.00
   -2    8    0     -0.56      0.00
    2   -8    1     -0.49      0.00
    2   -8    2     -0.29      0.00
    2   -8    3      0.00      0.00
    2   -8    4      0.30      0.00
    2   -8    5      0.59      0.00
    2   -8    6      0.84      0.00
    2   -8    7      1.03      0.00
    2   -8    8      1.13      0.00
    2   -8    9      1.12      0.00
    2   -8   10      0.98      0.00
    2   -8   11      0.73      0.00
    2   -8   12      0.42      0.00
    2   -8   13      0.11      0.00
   -2    7    9     -0.42      0.00
   -2    7    8     -0.67      0.00
   -2    7    7     -0.86      0.00
   -2    7    6     -0.88      0.00
   -2    7    5     -0.68      0.00
   -2    7    4     -0.27      0.00
   -2    7    3      0.25      0.00
   -2    7    2      0.74      0.00
   -2    7    1      1.06      0.00
   -2    7    0      1.12      0.00
    2   -7    1      0.91      0.00
    2   -7    2      0.49      0.00
    2   -7    3     -0.02      0.00
    2   -7    4     -0.51      0.00
    2   -7    5     -0.87      0.00
    2   -7    6     -1.06      0.00
    2   -7    7     -1.10      0.00
    2   -7    8     -1.04      0.00
    2   -7    9     -0.95      0.00
    2   -7   10     -0.88      0.00
    2   -7   11     -0.85      0.00
    2   -7   12     -0.83      0.00
    2   -7   13     -0.80      0.00
   -2    6   10      0.27      0.00
   -2    6    9      0.43      0.00
   -2    6    8      0.58      0.00
   -2    6    7      0.64      0.00
   -2    6    6      0.52      0.00
   -2    6    5      0.19      0.00
   -2    6    4     -0.30      0.00
   -2    6    3     -0.84      0.00
   -2    6    2     -1.28      0.00
   -2    6    1     -1.48      0.00
   -2    6    0     -1.37      0.00
    2   -6    1     -0.97      0.00
    2   -6    2     -0.37      0.00
    2   -6    3      0.28      0.00
    2   -6    4      0.83      0.00
    2   -6    5      1.17      0.00
    2   -6    6      1.27      0.00
    2   -6    7      1.19      0.00
    2   -6    8      1.06      0.00
    2   -6    9      0.99      0.00
    2   -6   10      1.06      0.00
    2   -6   11      1.25      0.00
    2   -6   12      1.46      0.00
    2   -6   13      1.56      0.00
   -2    5   11      0.34      0.00
   -2    5   10      0.42      0.00
   -2    5    9      0.43      0.00
   -2    5    8      0.38      0.00
   -2    5    7      0.34      0.00
   -2    5    6      0.38      0.00
   -2    5    5      0.54      0.00
   -2    5    4      0.80      0.00
   -2    5    3      1.09      0.00
   -2    5    2      1.31      0.00
   -2    5    1      1.35      0.00
   -2    5    0      1.17      0.00
    2   -5    1      0.77      0.00
    2   -5    2      0.23      0.00
    2   -5    3     -0.33      0.00
    2   -5    4     -0.78      0.00
    2   -5    5     -1.03      0.00
    2   -5    6     -1.06      0.00
    2   -5    7     -0.95      0.00
    2   -5    8     -0.82      0.00
    2   -5    9     -0.78      0.00
    2   -5   10     -0.89      0.00
    2   -5   11     -1.11      0.00
    2   -5   12     -1.31      0.00
    2   -5   13     -1.34      0.00
    2   -5   14     -1.11      0.00
   -2    4   12     -0.69      0.00
   -2    4   11     -1.02      0.00
   -2    4   10     -1.26      0.00
   -2    4    9     -1.34      0.00
   -2    4    8     -1.25      0.00
   -2    4    7     -1.06      0.00
   -2    4    6     -0.84      0.00
   -2    4    5     -0.68      0.00
   -2    4    4     -0.61      0.00
   -2    4    3     -0.62      0.00
   -2    4    2     -0.68      0.00
   -2    4    1     -0.72      0.00
   -2    4    0     -0.69      0.00
    2   -4    1     -0.55      0.00
    2   -4    2     -0.32      0.00
    2   -4    3     -0.04      0.00
    2   -4    4      0.22      0.00
    2   -4    5      0.39      0.00
    2   -4    6      0.44      0.00
    2   -4    7      0.37      0.00
    2   -4    8      0.24      0.00
    2   -4    9      0.15      0.00
    2   -4   10      0.14      0.00
    2   -4   11      0.18      0.00
    2   -4   12      0.22      0.00
    2   -4   13      0.13      0.00
    2   -4   14     -0.11      0.00
   -2    3   13      0.53      0.00
   -2    3   12      0.88      0.00
   -2    3   11      1.23      0.00
   -2    3   10      1.46      0.00
   -2    3    9      1.51      0.00
   -2    3    8      1.35      0.00
   -2    3    7      1.05      0.00
   -2    3    6      0.72      0.00
   -2    3    5      0.42      0.00
   -2    3    4      0.23      0.00
   -2    3    3      0.15      0.00
   -2    3    2      0.19      0.00
   -2    3    1      0.32      0.00
   -2    3    0      0.50      0.00
    2   -3    1      0.66      0.00
    2   -3    2      0.74      0.00
    2   -3    3      0.70      0.00
    2   -3    4      0.54      0.00
    2   -3    5      0.34      0.00
    2   -3    6      0.19      0.00
    2   -3    7      0.17      0.00
    2   -3    8      0.28      0.00
    2   -3    9      0.48      0.00
    2   -3   10      0.67      0.00
    2   -3   11      0.81      0.00
    2   -3   12      0.88      0.00
    2   -3   13      0.92      0.00
    2   -3   14      0.98      0.00
   -2    2   13     -0.36      0.00
   -2    2   12     -0.61      0.00
   -2    2   11     -0.86      0.00
   -2    2   10     -1.02      0.00
   -2    2    9     -1.05      0.00
   -2    2    8     -0.98      0.00
   -2    2    7     -0.87      0.00
   -2    2    6     -0.77      0.00
   -2    2    5     -0.69      0.00
   -2    2    4     -0.63      0.00
   -2    2    3     -0.58      0.00
   -2    2    2     -0.59      0.00
   -2    2    1     -0.70      0.00
   -2    2    0     -0.91      0.00
    2   -2    1     -1.17      0.00
    2   -2    2     -1.36      0.00
    2   -2    3     -1.39      0.00
    2   -2    4     -1.20      0.00
    2   -2    5     -0.88      0.00
    2   -2    6     -0.58      0.00
    2   -2    7     -0.44      0.00
    2   -2    8     -0.53      0.00
    2   -2    9     -0.79      0.00
    2   -2   10     -1.09      0.00
    2   -2   11     -1.28      0.00
    2   -2   12     -1.29      0.00
    2   -2   13     -1.14      0.00
    2   -2   14     -0.91      0.00
   -2    1   14      0.00      0.00
   -2    1   13      0.07      0.00
   -2    1   12      0.20      0.00
   -2    1   11      0.32      0.00
   -2    1   10      0.39      0.00
   -2    1    9      0.46      0.00
   -2    1    8      0.59      0.00
   -2    1    7      0.83      0.00
   -2    1    6      1.13      0.00
   -2    1    5      1.39      0.00
   -2    1    4      1.51      0.00
   -2    1    3      1.47      0.00
   -2    1    2      1.35      0.00
   -2    1    1      1.28      0.00
   -2    1    0      1.36      0.00
    2   -1    1      1.56      0.00
    2   -1    2      1.75      0.00
    2   -1    3      1.76      0.00
    2   -1    4      1.53      0.00
    2   -1    5      1.12      0.00
    2   -1    6      0.71      0.00
    2   -1    7      0.51      0.00
    2   -1    8      0.60      0.00
    2   -1    9      0.91      0.00
    2   -1   10      1.25      0.00
    2   -1   11      1.42      0.00
    2   -1   12      1.31      0.00
    2   -1   13      0.98      0.00
    2   -1   14      0.56      0.00
   -2    0   14      0.06      0.00
   -2    0   13     -0.02      0.00
   -2    0   12     -0.05      0.00
   -2    0   11      0.01      0.00
   -2    0    8     -0.07      0.00
   -2    0    7     -0.51      0.00
   -2    0    6     -1.07      0.00
   -2    0    5     -1.55      0.00
   -2    0    4     -1.77      0.00
   -2    0    3     -1.70      0.00
   -2    0    2     -1.46      0.00
   -2    0    1     -1.24      0.00
    2    0    0     -1.21      0.00
    2    0    1     -1.35      0.00
    2    0    2     -1.52      0.00
    2    0    3     -1.53      0.00
    2    0    4     -1.29      0.00
    2    0    5     -0.87      0.00
    2    0    6     -0.46      0.00
    2    0    7     -0.29      0.00
    2    0    8     -0.45      0.00
    2    0    9     -0.85      0.00
    2    0   10     -1.27      0.00
    2    0   11     -1.47      0.00
    2    0   12     -1.36      0.00
    2    0   13     -1.00      0.00
   -2   -1   14      0.18      0.00
   -2   -1   10     -0.35      0.00
   -2   -1    9     -0.59      0.00
   -2   -1    8     -0.52      0.00
   -2   -1    7     -0.10      0.00
   -2   -1    6      0.51      0.00
   -2   -1    5      1.08      0.00
   -2   -1    4      1.38      0.00
   -2   -1    3      1.37      0.00
   -2   -1    2      1.14      0.00
   -2   -1    1      0.91      0.00
    2    1    0      0.82      0.00
    2    1    1      0.88      0.00
    2    1    2      0.96      0.00
    2    1    3      0.88      0.00
    2    1    4      0.58      0.00
    2    1    5      0.14      0.00
    2    1    6     -0.22      0.00
    2    1    7     -0.29      0.00
    2    1    8     -0.02      0.00
    2    1    9      0.49      0.00
    2    1   10      1.01      0.00
    2    1   11      1.32      0.00
    2    1   12      1.31      0.00
   -2   -2   13     -0.64      0.00
   -2   -2   12     -0.61      0.00
   -2   -2   11     -0.28      0.00
   -2   -2   10      0.21      0.00
   -2   -2    9      0.60      0.00
   -2   -2    8      0.66      0.00
   -2   -2    7      0.31      0.00
   -2   -2    6     -0.31      0.00
   -2   -2    5     -0.96      0.00
   -2   -2    4     -1.40      0.00
   -2   -2    3     -1.52      0.00
   -2   -2    2     -1.39      0.00
   -2   -2    1     -1.15      0.00
    2    2    0     -0.94      0.00
    2    2    1     -0.79      0.00
    2    2    2     -0.62      0.00
    2    2    3     -0.33      0.00
    2    2    4      0.09      0.00
    2    2    5      0.54      0.00
    2    2    6      0.83      0.00
    2    2    7      0.83      0.00
    2    2    8      0.49      0.00
    2    2    9     -0.06      0.00
    2    2   10     -0.60      0.00
    2    2   11     -0.94      0.00
    2    2   12     -1.00      0.00
   -2   -3   14      0.19      0.00
   -2   -3   13      0.56      0.00
   -2   -3   12      0.67      0.00
   -2   -3   11      0.47      0.00
   -2   -3   10      0.07      0.00
   -2   -3    9     -0.26      0.00
   -2   -3    8     -0.31      0.00
   -2   -3    7      0.04      0.00
   -2   -3    6      0.67      0.00
   -2   -3    5      1.36      0.00
   -2   -3    4      1.88      0.00
   -2   -3    3      2.07      0.00
   -2   -3    2      1.96      0.00
   -2   -3    1      1.66      0.00
    2    3    0      1.28      0.00
    2    3    1      0.89      0.00
    2    3    2      0.51      0.00
    2    3    3      0.10      0.00
    2    3    4     -0.33      0.00
    2    3    5     -0.69      0.00
    2    3    6     -0.86      0.00
    2    3    7     -0.79      0.00
    2    3    8     -0.47      0.00
    2    3    9     -0.03      0.00
    2    3   10      0.37      0.00
    2    3   11      0.61      0.00
   -2   -4   15      0.78      0.00
   -2   -4   14      0.38      0.00
   -2   -4   13     -0.03      0.00
   -2   -4   12     -0.26      0.00
   -2   -4   11     -0.24      0.00
   -2   -4   10     -0.03      0.00
   -2   -4    9      0.17      0.00
   -2   -4    8      0.18      0.00
   -2   -4    7     -0.09      0.00
   -2   -4    6     -0.59      0.00
   -2   -4    5     -1.15      0.00
   -2   -4    4     -1.56      0.00
   -2   -4    3     -1.71      0.00
   -2   -4    2     -1.59      0.00
   -2   -4    1     -1.27      0.00
    2    4    0     -0.87      0.00
    2    4    1     -0.49      0.00
    2    4    2     -0.16      0.00
    2    4    3      0.12      0.00
    2    4    4      0.34      0.00
    2    4    5      0.48      0.00
    2    4    6      0.50      0.00
    2    4    7      0.38      0.00
    2    4    8      0.15      0.00
    2    4    9     -0.11      0.00
    2    4   10     -0.31      0.00
   -2   -5   14     -0.76      0.00
   -2   -5   13     -0.47      0.00
   -2   -5   12     -0.26      0.00
   -2   -5   11     -0.21      0.00
   -2   -5   10     -0.33      0.00
   -2   -5    9     -0.50      0.00
   -2   -5    8     -0.61      0.00
   -2   -5    7     -0.57      0.00
   -2   -5    6     -0.38      0.00
   -2   -5    5     -0.11      0.00
   -2   -5    4      0.11      0.00
   -2   -5    3      0.21      0.00
   -2   -5    2      0.17      0.00
   -2   -5    1      0.03      0.00
    2    5    0     -0.14      0.00
    2    5    1     -0.28      0.00
    2    5    2     -0.38      0.00
    2    5    3     -0.43      0.00
    2    5    4     -0.44      0.00
    2    5    5     -0.42      0.00
    2    5    6     -0.36      0.00
    2    5    7     -0.26      0.00
    2    5    8     -0.13      0.00
   -2   -6   14      0.57      0.00
   -2   -6   13      0.45      0.00
   -2   -6   12      0.33      0.00
   -2   -6   11      0.30      0.00
   -2   -6   10      0.41      0.00
   -2   -6    9      0.65      0.00
   -2   -6    8      0.93      0.00
   -2   -6    7      1.16      0.00
   -2   -6    6      1.27      0.00
   -2   -6    5      1.23      0.00
   -2   -6    4      1.10      0.00
   -2   -6    3      0.92      0.00
   -2   -6    2      0.74      0.00
   -2   -6    1      0.61      0.00
    2    6    0      0.53      0.00
    2    6    1      0.50      0.00
    2    6    2      0.50      0.00
    2    6    3      0.52      0.00
    2    6    4      0.55      0.00
    2    6    5      0.57      0.00
    2    6    6      0.55      0.00
    2    6    7      0.49      0.00
   -2   -7   13      0.05      0.00
   -2   -7   12      0.15      0.00
   -2   -7   11      0.19      0.00
   -2   -7   10      0.07      0.00
   -2   -7    9     -0.21      0.00
   -2   -7    8     -0.58      0.00
   -2   -7    7     -0.93      0.00
   -2   -7    6     -1.13      0.00
   -2   -7    5     -1.12      0.00
   -2   -7    4     -0.90      0.00
   -2   -7    3     -0.56      0.00
   -2   -7    2     -0.22      0.00
   -2   -7    1      0.03      0.00
    2    7    0      0.13      0.00
    2    7    1      0.08      0.00
    2    7    2     -0.08      0.00
    2    7    3     -0.30      0.00
    2    7    4     -0.49      0.00
    2    7    5     -0.61      0.00
   -2   -8   12     -0.69      0.00
   -2   -8   11     -0.75      0.00
   -2   -8   10     -0.65      0.00
   -2   -8    9     -0.39      0.00
   -2   -8    8     -0.04      0.00
   -2   -8    7      0.25      0.00
   -2   -8    6      0.37      0.00
   -2   -8    5      0.25      0.00
   -2   -8    4     -0.07      0.00
   -2   -8    3     -0.47      0.00
   -2   -8    2     -0.80      0.00
   -2   -8    1     -0.94      0.00
    2    8    0     -0.86      0.00
    2    8    1     -0.60      0.00
    2    8    2     -0.24      0.00
    2    8    3      0.10      0.00
   -2   -9   10      0.76      0.00
   -2   -9    9      0.54      0.00
   -2   -9    8      0.29      0.00
   -2   -9    7      0.13      0.00
   -2   -9    6      0.13      0.00
   -2   -9    5      0.32      0.00
   -2   -9    4      0.63      0.00
   -2   -9    3      0.92      0.00
   -2   -9    2      1.08      0.00
   -2   -9    1      1.03      0.00
    2    9    0      0.80      0.00
    3  -10    1     -0.10      0.00
    3  -10    2     -0.17      0.00
    3  -10    3     -0.12      0.00
    3  -10    4      0.03      0.00
    3  -10    5      0.24      0.00
    3  -10    6      0.42      0.00
   -3    9    1     -0.16      0.00
   -3    9    0     -0.04      0.00
    3   -9    1      0.10      0.00
    3   -9    2      0.20      0.00
    3   -9    3      0.20      0.00
    3   -9    4      0.12      0.00
    3   -9    5      0.01      0.00
    3   -9    6     -0.04      0.00
    3   -9    7      0.02      0.00
    3   -9    8      0.20      0.00
   -3    8    5     -0.27      0.00
   -3    8    4     -0.19      0.00
   -3    8    3     -0.07      0.00
   -3    8    2      0.01      0.00
   -3    8    1      0.03      0.00
   -3    8    0     -0.03      0.00
    3   -8    1     -0.12      0.00
    3   -8    2     -0.21      0.00
    3   -8    3     -0.27      0.00
    3   -8    4     -0.31      0.00
    3   -8    5     -0.36      0.00
    3   -8    6     -0.45      0.00
    3   -8    7     -0.58      0.00
    3   -8    8     -0.71      0.00
    3   -8    9     -0.79      0.00
    3   -8   10     -0.76      0.00
   -3    7    7      0.42      0.00
   -3    7    6      0.62      0.00
   -3    7    5      0.72      0.00
   -3    7    4      0.70      0.00
   -3    7    3      0.59      0.00
   -3    7    2      0.41      0.00
   -3    7    1      0.24      0.00
   -3    7    0      0.11      0.00
    3   -7    1      0.05      0.00
    3   -7    2      0.06      0.00
    3   -7    3      0.14      0.00
    3   -7    4      0.27      0.00
    3   -7    5      0.42      0.00
    3   -7    6      0.55      0.00
    3   -7    7      0.61      0.00
    3   -7    8      0.59      0.00
    3   -7    9      0.47      0.00
    3   -7   10      0.26      0.00
    3   -7   11      0.03      0.00
   -3    6    8     -0.24      0.00
   -3    6    7     -0.61      0.00
   -3    6    6     -0.96      0.00
   -3    6    5     -1.17      0.00
   -3    6    4     -1.19      0.00
   -3    6    3     -1.00      0.00
   -3    6    2     -0.67      0.00
   -3    6    1     -0.28      0.00
   -3    6    0      0.07      0.00
    3   -6    1      0.28      0.00
    3   -6    2      0.32      0.00
    3   -6    3      0.22      0.00
    3   -6    4      0.03      0.00
    3   -6    5     -0.17      0.00
    3   -6    6     -0.28      0.00
    3   -6    7     -0.26      0.00
    3   -6    8     -0.13      0.00
    3   -6    9      0.08      0.00
    3   -6   10      0.28      0.00
    3   -6   11      0.40      0.00
   -3    5    9     -0.36      0.00
   -3    5    8      0.02      0.00
   -3    5    7      0.50      0.00
   -3    5    6      0.95      0.00
   -3    5    5      1.20      0.00
   -3    5    4      1.19      0.00
   -3    5    3      0.90      0.00
   -3    5    2      0.42      0.00
   -3    5    1     -0.12      0.00
   -3    5    0     -0.58      0.00
    3   -5    1     -0.84      0.00
    3   -5    2     -0.86      0.00
    3   -5    3     -0.69      0.00
    3   -5    4     -0.42      0.00
    3   -5    5     -0.17      0.00
    3   -5    6     -0.04      0.00
    3   -5    7     -0.07      0.00
    3   -5    8     -0.20      0.00
    3   -5    9     -0.35      0.00
    3   -5   10     -0.43      0.00
    3   -5   11     -0.39      0.00
   -3    4   10      0.77      0.00
   -3    4    9      0.58      0.00
   -3    4    8      0.16      0.00
   -3    4    7     -0.36      0.00
   -3    4    6     -0.79      0.00
   -3    4    5     -1.00      0.00
   -3    4    4     -0.91      0.00
   -3    4    3     -0.54      0.00
   -3    4    2      0.00      0.00
   -3    4    1      0.56      0.00
   -3    4    0      1.00      0.00
    3   -4    1      1.22      0.00
    3   -4    2      1.19      0.00
    3   -4    3      0.96      0.00
    3   -4    4      0.65      0.00
    3   -4    5      0.37      0.00
    3   -4    6      0.21      0.00
    3   -4    7      0.20      0.00
    3   -4    8      0.29      0.00
    3   -4    9      0.38      0.00
    3   -4   10      0.38      0.00
    3   -4   11      0.28      0.00
   -3    3   10     -0.47      0.00
   -3    3    9     -0.23      0.00
   -3    3    8      0.17      0.00
   -3    3    7      0.59      0.00
   -3    3    6      0.88      0.00
   -3    3    5      0.94      0.00
   -3    3    4      0.75      0.00
   -3    3    3      0.37      0.00
   -3    3    2     -0.10      0.00
   -3    3    1     -0.56      0.00
   -3    3    0     -0.91      0.00
    3   -3    1     -1.09      0.00
    3   -3    2     -1.06      0.00
    3   -3    3     -0.87      0.00
    3   -3    4     -0.59      0.00
    3   -3    5     -0.33      0.00
    3   -3    6     -0.17      0.00
    3   -3    7     -0.16      0.00
    3   -3    8     -0.26      0.00
    3   -3    9     -0.36      0.00
    3   -3   10     -0.39      0.00
    3   -3   11     -0.31      0.00
   -3    2    9     -0.47      0.00
   -3    2    8     -0.72      0.00
   -3    2    7     -0.89      0.00
   -3    2    6     -0.91      0.00
   -3    2    5     -0.78      0.00
   -3    2    4     -0.55      0.00
   -3    2    3     -0.27      0.00
   -3    2    2      0.02      0.00
   -3    2    1      0.29      0.00
   -3    2    0      0.54      0.00
    3   -2    1      0.71      0.00
    3   -2    2      0.77      0.00
    3   -2    3      0.68      0.00
    3   -2    4      0.47      0.00
    3   -2    5      0.24      0.00
    3   -2    6      0.07      0.00
    3   -2    7      0.05      0.00
    3   -2    8      0.15      0.00
    3   -2    9      0.30      0.00
    3   -2   10      0.38      0.00
    3   -2   11      0.34      0.00
   -3    1    8      0.76      0.00
   -3    1    7      0.60      0.00
   -3    1    6      0.35      0.00
   -3    1    5      0.09      0.00
   -3    1    4     -0.08      0.00
   -3    1    3     -0.16      0.00
   -3    1    2     -0.20      0.00
   -3    1    1     -0.28      0.00
   -3    1    0     -0.46      0.00
    3   -1    1     -0.68      0.00
    3   -1    2     -0.86      0.00
    3   -1    3     -0.88      0.00
    3   -1    4     -0.71      0.00
    3   -1    5     -0.42      0.00
    3   -1    6     -0.16      0.00
    3   -1    7     -0.04      0.00
    3   -1    8     -0.09      0.00
    3   -1    9     -0.22      0.00
    3   -1   10     -0.32      0.00
   -3    0    9     -0.52      0.00
   -3    0    8     -0.27      0.00
   -3    0    7      0.12      0.00
   -3    0    6      0.51      0.00
   -3    0    5      0.77      0.00
   -3    0    4      0.81      0.00
   -3    0    3      0.68      0.00
   -3    0    2      0.53      0.00
   -3    0    1      0.52      0.00
    3    0    0      0.72      0.00
    3    0    1      1.05      0.00
    3    0    2      1.34      0.00
    3    0    3      1.42      0.00
    3    0    4      1.21      0.00
    3    0    5      0.81      0.00
    3    0    6      0.39      0.00
    3    0    7      0.13      0.00
    3    0    8      0.07      0.00
    3    0    9      0.17      0.00
    3    0   10      0.27      0.00
   -3   -1    9      0.30      0.00
   -3   -1    8     -0.02      0.00
   -3   -1    7     -0.44      0.00
   -3   -1    6     -0.81      0.00
   -3   -1    5     -0.97      0.00
   -3   -1    4     -0.89      0.00
   -3   -1    3     -0.65      0.00
   -3   -1    2     -0.44      0.00
   -3   -1    1     -0.44      0.00
    3    1    0     -0.71      0.00
    3    1    1     -1.14      0.00
    3    1    2     -1.49      0.00
    3    1    3     -1.58      0.00
    3    1    4     -1.34      0.00
    3    1    5     -0.85      0.00
    3    1    6     -0.34      0.00
    3    1    7      0.01      0.00
    3    1    8      0.10      0.00
    3    1    9     -0.01      0.00
   -3   -2   10     -0.53      0.00
   -3   -2    9     -0.46      0.00
   -3   -2    8     -0.23      0.00
   -3   -2    7      0.09      0.00
   -3   -2    6      0.35      0.00
   -3   -2    5      0.43      0.00
   -3   -2    4      0.29      0.00
   -3   -2    3      0.03      0.00
   -3   -2    2     -0.18      0.00
   -3   -2    1     -0.17      0.00
    3    2    0      0.09      0.00
    3    2    1      0.50      0.00
    3    2    2      0.84      0.00
    3    2    3      0.94      0.00
    3    2    4      0.72      0.00
    3    2    5      0.30      0.00
    3    2    6     -0.15      0.00
    3    2    7     -0.43      0.00
    3    2    8     -0.46      0.00
   -3   -3   10      0.63      0.00
   -3   -3    9      0.65      0.00
   -3   -3    8      0.53      0.00
   -3   -3    7      0.34      0.00
   -3   -3    6      0.17      0.00
   -3   -3    5      0.15      0.00
   -3   -3    4      0.31      0.00
   -3   -3    3      0.59      0.00
   -3   -3    2      0.84      0.00
   -3   -3    1      0.91      0.00
    3    3    0      0.75      0.00
    3    3    1      0.44      0.00
    3    3    2      0.13      0.00
    3    3    3     -0.02      0.00
    3    3    4      0.04      0.00
    3    3    5      0.25      0.00
    3    3    6      0.48      0.00
    3    3    7      0.61      0.00
   -3   -4   11     -0.36      0.00
   -3   -4   10     -0.47      0.00
   -3   -4    9     -0.54      0.00
   -3   -4    8     -0.52      0.00
   -3   -4    7     -0.42      0.00
   -3   -4    6     -0.33      0.00
   -3   -4    5     -0.37      0.00
   -3   -4    4     -0.56      0.00
   -3   -4    3     -0.86      0.00
   -3   -4    2     -1.15      0.00
   -3   -4    1     -1.29      0.00
    3    4    0     -1.22      0.00
    3    4    1     -0.97      0.00
    3    4    2     -0.63      0.00
    3    4    3     -0.35      0.00
    3    4    4     -0.19      0.00
    3    4    5     -0.14      0.00
    3    4    6     -0.16      0.00
   -3   -5   10      0.21      0.00
   -3   -5    9      0.32      0.00
   -3   -5    8      0.37      0.00
   -3   -5    7      0.38      0.00
   -3   -5    6      0.39      0.00
   -3   -5    5      0.47      0.00
   -3   -5    4      0.65      0.00
   -3   -5    3      0.91      0.00
   -3   -5    2      1.14      0.00
   -3   -5    1      1.24      0.00
    3    5    0      1.16      0.00
    3    5    1      0.89      0.00
    3    5    2      0.53      0.00
    3    5    3      0.16      0.00
    3    5    4     -0.12      0.00
   -3   -6    9     -0.18      0.00
   -3   -6    8     -0.29      0.00
   -3   -6    7     -0.38      0.00
   -3   -6    6     -0.46      0.00
   -3   -6    5     -0.56      0.00
   -3   -6    4     -0.68      0.00
   -3   -6    3     -0.80      0.00
   -3   -6    2     -0.88      0.00
   -3   -6    1     -0.87      0.00
    3    6    0     -0.75      0.00
    3    6    1     -0.53      0.00
    3    6    2     -0.27      0.00
   -3   -7    6      0.35      0.00
   -3   -7    5      0.41      0.00
   -3   -7    4      0.42      0.00
   -3   -7    3      0.39      0.00
   -3   -7    2      0.35      0.00
   -4    6    1      0.19      0.00
   -4    6    0      0.23      0.00
    4   -6    1      0.27      0.00
    4   -6    2      0.28      0.00
    4   -6    3      0.26      0.00
   -4    5    3     -0.31      0.00
   -4    5    2     -0.23      0.00
   -4    5    1     -0.20      0.00
   -4    5    0     -0.22      0.00
    4   -5    1     -0.27      0.00
    4   -5    2     -0.32      0.00
    4   -5    3     -0.35      0.00
    4   -5    4     -0.32      0.00
   -4    4    5      0.58      0.00
   -4    4    4      0.45      0.00
   -4    4    3      0.28      0.00
   -4    4    2      0.14      0.00
   -4    4    1      0.06      0.00
   -4    4    0      0.05      0.00
    4   -4    1      0.09      0.00
    4   -4    2      0.16      0.00
    4   -4    3      0.23      0.00
    4   -4    4      0.27      0.00
    4   -4    5      0.28      0.00
   -4    3    5     -0.38      0.00
   -4    3    4     -0.15      0.00
   -4    3    3      0.10      0.00
   -4    3    2      0.30      0.00
   -4    3    1      0.43      0.00
   -4    3    0      0.49      0.00
    4   -3    1      0.49      0.00
    4   -3    2      0.42      0.00
    4   -3    3      0.30      0.00
    4   -3    4      0.14      0.00
    4   -3    5     -0.01      0.00
   -4    2    6      0.23      0.00
   -4    2    5     -0.03      0.00
   -4    2    4     -0.34      0.00
   -4    2    3     -0.62      0.00
   -4    2    2     -0.84      0.00
   -4    2    1     -0.99      0.00
   -4    2    0     -1.08      0.00
    4   -2    1     -1.10      0.00
    4   -2    2     -1.02      0.00
    4   -2    3     -0.83      0.00
    4   -2    4     -0.55      0.00
    4   -2    5     -0.26      0.00
   -4    1    6      0.06      0.00
   -4    1    5      0.36      0.00
   -4    1    4      0.63      0.00
   -4    1    3      0.82      0.00
   -4    1    2      0.95      0.00
   -4    1    1      1.04      0.00
   -4    1    0      1.12      0.00
    4   -1    1      1.15      0.00
    4   -1    2      1.07      0.00
    4   -1    3      0.84      0.00
    4   -1    4      0.51      0.00
   -4    0    6     -0.14      0.00
   -4    0    5     -0.35      0.00
   -4    0    4     -0.45      0.00
   -4    0    3     -0.45      0.00
   -4    0    2     -0.42      0.00
   -4    0    1     -0.42      0.00
    4    0    0     -0.49      0.00
    4    0    1     -0.57      0.00
    4    0    2     -0.56      0.00
    4    0    3     -0.41      0.00
   -4   -1    6     -0.08      0.00
   -4   -1    5     -0.03      0.00
   -4   -1    4     -0.11      0.00
   -4   -1    3     -0.26      0.00
   -4   -1    2     -0.39      0.00
   -4   -1    1     -0.39      0.00
   -4   -2    5      0.42      0.00
   -4   -2    4      0.57      0.00
   -4   -2    3      0.76      0.00
   -4   -2    2      0.88      0.00
    4    1    0     -0.26      0.00
    4    2    0      0.63      0.00
    4    3    0     -0.62      0.00
    4    4    0      0.47      0.00
   -4    7    0     -0.33      0.00
    3    7    0      0.22      0.00
   -4    8    0      0.44      0.00
    3    8    0      0.20      0.00
   -3   10    0      0.02      0.00
    2   10    0     -0.33      0.00
   -3   11    0      0.04      0.00
    1   11    0     -0.31      0.00
   -2   12    0     -0.44      0.00
   -1   12    0      0.15      0.00
    0   12    0      0.04      0.00
   -1  -12    1      0.21      0.00
    0  -12    1      0.26      0.00
    1  -12    1     -0.01      0.00
    2  -12    1     -0.26      0.00
   -1  -11    1     -0.34      0.00
    3  -11    1      0.10      0.00
   -2  -10    1     -0.53      0.00
   -3   -8    1      0.24      0.00
    4   -8    1      0.48      0.00
   -3   -7    1      0.29      0.00
    4   -7    1     -0.37      0.00
   -4   -4    1      0.58      0.00
   -4   -3    1     -0.82      0.00
   -4   -2    1      0.84      0.00
    4    1    1     -0.06      0.00
    4    2    1      0.33      0.00
    4    3    1     -0.34      0.00
    4    4    1      0.29      0.00
   -4    7    1     -0.25      0.00
    3    7    1      0.17      0.00
   -4    8    1      0.33      0.00
    2    9    1      0.46      0.00
   -3   10    1      0.11      0.00
    2   10    1     -0.11      0.00
   -3   11    1     -0.02      0.00
    1   11    1     -0.30      0.00
   -2   12    1     -0.52      0.00
   -1   12    1      0.28      0.00
    0   12    1     -0.05      0.00
   -1  -12    2      0.18      0.00
    0  -12    2      0.51      0.00
    2  -12    2     -0.05      0.00
    3  -11    2      0.15      0.00
   -2  -10    2     -0.65      0.00
    4   -9    2     -0.39      0.00
   -3   -8    2      0.20      0.00
    4   -8    2      0.43      0.00
    4   -7    2     -0.34      0.00
   -4   -4    2      0.56      0.00
   -4   -3    2     -0.86      0.00
    4    1    2      0.08      0.00
    4    2    2      0.08      0.00
    4    3    2     -0.09      0.00
   -4    6    2      0.16      0.00
   -4    7    2     -0.15      0.00
    3    7    2      0.13      0.00
   -4    8    2      0.20      0.00
   -3    9    2     -0.19      0.00
    2    9    2      0.12      0.00
   -3   10    2      0.12      0.00
   -2   11    2      0.40      0.00
    1   11    2     -0.31      0.00
   -2   12    2     -0.48      0.00
   -1   12    2      0.32      0.00
    0   12    2     -0.03      0.00
   -1  -12    3      0.19      0.00
    2  -12    3      0.10      0.00
    3  -11    3      0.12      0.00
   -2  -10    3     -0.65      0.00
    4   -9    3     -0.26      0.00
   -3   -8    3      0.12      0.00
    4   -8    3      0.30      0.00
    4   -7    3     -0.25      0.00
   -4   -4    3      0.44      0.00
   -4   -3    3     -0.76      0.00
    4    1    3      0.08      0.00
    4    2    3     -0.03      0.00
    4    3    3      0.02      0.00
   -4    6    3      0.17      0.00
    3    6    3     -0.01      0.00
   -4    7    3     -0.08      0.00
    3    7    3      0.11      0.00
   -4    8    3      0.09      0.00
   -3    9    3     -0.11      0.00
    2    9    3     -0.13      0.00
   -3   10    3      0.05      0.00
    1   10    3     -0.40      0.00
   -2   11    3      0.31      0.00
   -1   11    3     -0.82      0.00
    0   11    3      0.23      0.00
   -1   12    3      0.25      0.00
   -1  -12    4      0.25      0.00
    2  -12    4      0.13      0.00
   -2  -11    4      0.19      0.00
    3  -11    4      0.03      0.00
   -2  -10    4     -0.53      0.00
   -3   -8    4      0.02      0.00
    4   -8    4      0.14      0.00
    4   -7    4     -0.13      0.00
    4   -6    4      0.18      0.00
   -4   -4    4      0.28      0.00
   -4   -3    4     -0.59      0.00
    4    0    4     -0.15      0.00
    4    1    4     -0.06      0.00
    4    2    4      0.01      0.00
   -4    5    4     -0.41      0.00
   -4    6    4      0.19      0.00
    3    6    4      0.19      0.00
   -4    7    4     -0.05      0.00
    2    8    4      0.34      0.00
   -3    9    4      0.02      0.00
    2    9    4     -0.25      0.00
   -3   10    4     -0.05      0.00
    0   10    4     -0.09      0.00
    1   10    4     -0.29      0.00
   -2   11    4      0.14      0.00
   -1   11    4     -0.61      0.00
    0   11    4      0.07      0.00
   -1  -12    5      0.34      0.00
    2  -12    5      0.06      0.00
   -2  -11    5      0.17      0.00
    3  -11    5     -0.13      0.00
   -2  -10    5     -0.36      0.00
   -3   -8    5     -0.05      0.00
    4   -8    5     -0.02      0.00
    4   -7    5      0.00      0.00
    4   -6    5      0.08      0.00
    4   -5    5     -0.25      0.00
   -4   -4    5      0.16      0.00
   -4   -3    5     -0.45      0.00
    4   -1    5      0.17      0.00
    4    0    5      0.13      0.00
    4    1    5     -0.24      0.00
    4    2    5      0.12      0.00
   -4    5    5     -0.48      0.00
    3    5    5     -0.30      0.00
   -4    6    5      0.22      0.00
    3    6    5      0.31      0.00
   -4    7    5     -0.04      0.00
    2    8    5      0.44      0.00
   -3    9    5      0.15      0.00
   -2   10    5      0.02      0.00
    0   10    5      0.05      0.00
    1   10    5     -0.17      0.00
   -2   11    5     -0.01      0.00
   -1   11    5     -0.39      0.00
    0   11    5     -0.02      0.00
   -1  -12    6      0.41      0.00
    2  -12    6     -0.08      0.00
   -2  -11    6      0.13      0.00
    3  -11    6     -0.28      0.00
   -2  -10    6     -0.21      0.00
   -3   -8    6     -0.04      0.00
    4   -8    6     -0.11      0.00
    4   -7    6      0.10      0.00
    4   -6    6     -0.04      0.00
    4   -5    6     -0.13      0.00
   -4   -4    6      0.14      0.00
    4   -4    6      0.24      0.00
   -4   -3    6     -0.41      0.00
    4   -3    6     -0.10      0.00
   -4   -2    6      0.38      0.00
    4   -2    6     -0.06      0.00
    4   -1    6     -0.05      0.00
    4    0    6      0.30      0.00
    4    1    6     -0.35      0.00
   -4    3    6     -0.51      0.00
   -4    4    6      0.62      0.00
   -4    5    6     -0.49      0.00
    3    5    6     -0.37      0.00
   -4    6    6      0.23      0.00
    2    7    6     -0.63      0.00
   -3    8    6     -0.29      0.00
    2    8    6      0.41      0.00
   -3    9    6      0.21      0.00
    1    9    6      0.55      0.00
   -2   10    6      0.01      0.00
   -1   10    6      0.55      0.00
    0   10    6      0.08      0.00
   -1  -12    7      0.39      0.00
    2  -12    7     -0.21      0.00
   -2  -11    7      0.10      0.00
    3  -11    7     -0.37      0.00
   -2  -10    7     -0.15      0.00
    3  -10    7      0.49      0.00
   -3   -8    7      0.04      0.00
   -3   -7    7      0.24      0.00
    4   -7    7      0.16      0.00
    4   -6    7     -0.15      0.00
    4   -5    7      0.00      0.00
   -4   -4    7      0.19      0.00
    4   -4    7      0.15      0.00
   -4   -3    7     -0.45      0.00
    4   -3    7     -0.10      0.00
   -4   -2    7      0.44      0.00
    4   -2    7     -0.01      0.00
   -4   -1    7     -0.22      0.00
    4   -1    7     -0.08      0.00
   -4    0    7      0.10      0.00
    4    0    7      0.29      0.00
   -4    1    7     -0.19      0.00
   -4    2    7      0.37      0.00
   -4    3    7     -0.51      0.00
   -4    4    7      0.55      0.00
    3    4    7     -0.18      0.00
   -4    5    7     -0.42      0.00
    3    5    7     -0.38      0.00
    2    7    7     -0.56      0.00
   -3    8    7     -0.21      0.00
    1    8    7     -0.20      0.00
   -2    9    7      0.14      0.00
    0    9    7     -0.55      0.00
    1    9    7      0.40      0.00
   -2   10    7     -0.06      0.00
   -1   10    7      0.50      0.00
    0   10    7      0.02      0.00
   -1  -12    8      0.26      0.00
    2  -12    8     -0.28      0.00
    3  -11    8     -0.38      0.00
   -2  -10    8     -0.19      0.00
    3  -10    8      0.42      0.00
   -3   -8    8      0.17      0.00
   -3   -7    8      0.11      0.00
    4   -7    8      0.18      0.00
    4   -6    8     -0.23      0.00
    4   -5    8      0.11      0.00
   -4   -4    8      0.25      0.00
    4   -4    8      0.05      0.00
   -4   -3    8     -0.50      0.00
    4   -3    8     -0.02      0.00
   -4   -2    8      0.50      0.00
    4   -2    8     -0.11      0.00
   -4   -1    8     -0.35      0.00
    4   -1    8      0.05      0.00
   -4    0    8      0.29      0.00
   -4    1    8     -0.33      0.00
   -4    2    8      0.36      0.00
   -4    3    8     -0.38      0.00
    3    3    8      0.58      0.00
   -4    4    8      0.39      0.00
    3    4    8     -0.16      0.00
    2    6    8      0.39      0.00
   -3    7    8      0.19      0.00
    2    7    8     -0.43      0.00
   -3    8    8     -0.08      0.00
    1    8    8     -0.12      0.00
   -2    9    8      0.30      0.00
   -1    9    8     -0.11      0.00
    0    9    8     -0.43      0.00
   -1  -12    9      0.06      0.00
    0  -12    9      0.33      0.00
    2  -12    9     -0.27      0.00
    3  -11    9     -0.32      0.00
   -2  -10    9     -0.31      0.00
    3  -10    9      0.23      0.00
    3   -9    9      0.41      0.00
   -3   -8    9      0.28      0.00
   -3   -7    9     -0.02      0.00
    4   -5    9      0.16      0.00
    4   -4    9     -0.03      0.00
   -4   -3    9     -0.47      0.00
    4   -3    9      0.10      0.00
   -4   -2    9      0.48      0.00
   -4   -1    9     -0.38      0.00
   -4    0    9      0.35      0.00
   -2    0    9      0.13      0.00
   -4    1    9     -0.31      0.00
   -3    1    9      0.78      0.00
   -4    2    9      0.23      0.00
    3    2    9     -0.30      0.00
   -4    3    9     -0.19      0.00
    3    3    9      0.43      0.00
    2    5    9      0.00      0.00
   -3    6    9      0.06      0.00
    2    6    9      0.28      0.00
   -3    7    9     -0.01      0.00
    1    7    9     -0.21      0.00
   -2    8    9     -0.13      0.00
    0    8    9      0.75      0.00
    1    8    9     -0.08      0.00
   -1    9    9     -0.24      0.00
    0    9    9     -0.28      0.00
   -1  -12   10     -0.14      0.00
    0  -12   10      0.28      0.00
    1  -12   10      0.13      0.00
    2  -12   10     -0.21      0.00
   -1  -11   10     -0.04      0.00
    2  -11   10     -0.28      0.00
   -2  -10   10     -0.45      0.00
    3  -10   10      0.01      0.00
    3   -9   10      0.59      0.00
   -3   -7   10     -0.11      0.00
   -3   -6   10     -0.05      0.00
   -4   -2   10      0.34      0.00
   -4   -1   10     -0.30      0.00
   -3   -1   10      0.43      0.00
   -4    0   10      0.29      0.00
   -3    0   10     -0.59      0.00
   -2    0   10      0.12      0.00
   -4    1   10     -0.21      0.00
   -3    1   10      0.68      0.00
    3    1   10     -0.18      0.00
   -4    2   10      0.07      0.00
   -3    2   10     -0.25      0.00
    3    2   10     -0.07      0.00
   -3    5   10     -0.52      0.00
    2    5   10      0.10      0.00
   -3    6   10      0.20      0.00
   -2    7   10     -0.22      0.00
    1    7   10     -0.04      0.00
   -2    8   10     -0.21      0.00
   -1    8   10     -0.26      0.00
    0    8   10      0.54      0.00
    0  -12   11      0.19      0.00
    1  -12   11     -0.09      0.00
    2  -12   11     -0.14      0.00
   -1  -11   11     -0.06      0.00
    2  -11   11     -0.30      0.00
   -2  -10   11     -0.53      0.00
    3  -10   11     -0.17      0.00
   -2   -9   11      0.86      0.00
    3   -9   11      0.65      0.00
    3   -8   11     -0.61      0.00
   -3   -7   11     -0.12      0.00
   -3   -6   11      0.04      0.00
   -3   -5   11      0.09      0.00
   -3   -3   11      0.54      0.00
   -3   -2   11     -0.47      0.00
   -3   -1   11      0.39      0.00
   -2   -1   11      0.00      0.00
    3   -1   11     -0.27      0.00
   -3    0   11     -0.52      0.00
    3    0   11      0.26      0.00
   -3    1   11      0.55      0.00
    3    1   11     -0.27      0.00
   -3    2   11     -0.13      0.00
   -3    3   11     -0.48      0.00
   -3    4   11      0.70      0.00
    2    4   11     -0.40      0.00
   -3    5   11     -0.46      0.00
   -2    6   11      0.17      0.00
    1    6   11     -0.13      0.00
   -2    7   11     -0.11      0.00
   -1    7   11      0.35      0.00
    0    7   11     -0.56      0.00
   -1    8   11     -0.04      0.00
    0  -12   12      0.04      0.00
    1  -12   12     -0.16      0.00
   -1  -11   12     -0.16      0.00
    0  -11   12     -0.24      0.00
    1  -11   12      0.44      0.00
    2  -11   12     -0.19      0.00
   -1  -10   12      0.26      0.00
    2  -10   12      0.53      0.00
   -2   -9   12      0.82      0.00
    3   -9   12      0.56      0.00
    3   -8   12     -0.37      0.00
    3   -7   12     -0.16      0.00
   -3   -6   12      0.09      0.00
    3   -6   12      0.41      0.00
   -3   -5   12      0.02      0.00
    3   -5   12     -0.24      0.00
   -3   -4   12     -0.29      0.00
    3   -4   12      0.10      0.00
   -3   -3   12      0.44      0.00
    3   -3   12     -0.17      0.00
   -3   -2   12     -0.35      0.00
    3   -2   12      0.19      0.00
   -3   -1   12      0.27      0.00
   -2   -1   12      0.27      0.00
    3   -1   12     -0.10      0.00
   -3    0   12     -0.38      0.00
    3    0   12      0.13      0.00
   -3    1   12      0.43      0.00
   -3    2   12     -0.13      0.00
   -3    3   12     -0.30      0.00
    2    3   12      0.64      0.00
   -3    4   12      0.44      0.00
    2    4   12     -0.38      0.00
   -2    5   12      0.19      0.00
    1    5   12      0.18      0.00
   -2    6   12      0.14      0.00
   -1    6   12     -0.15      0.00
    0    6   12      0.54      0.00
    1    6   12     -0.39      0.00
   -1    7   12     -0.02      0.00
    0    7   12     -0.29      0.00
    0  -12   13     -0.12      0.00
    1  -12   13     -0.09      0.00
   -1  -11   13     -0.28      0.00
    0  -11   13      0.04      0.00
    1  -11   13      0.28      0.00
    2  -11   13      0.00      0.00
   -1  -10   13      0.40      0.00
    2  -10   13      0.11      0.00
   -2   -9   13      0.67      0.00
    2   -9   13     -0.03      0.00
   -2   -8   13     -0.54      0.00
    3   -8   13     -0.12      0.00
    3   -7   13     -0.27      0.00
   -3   -6   13      0.09      0.00
    3   -6   13      0.32      0.00
   -3   -5   13      0.04      0.00
    3   -5   13     -0.07      0.00
   -3   -4   13     -0.31      0.00
    3   -4   13     -0.04      0.00
   -3   -3   13      0.42      0.00
    3   -3   13     -0.04      0.00
   -3   -2   13     -0.26      0.00
    3   -2   13      0.02      0.00
   -3   -1   13      0.13      0.00
   -2   -1   13      0.31      0.00
   -3    0   13     -0.23      0.00
   -3    1   13      0.34      0.00
    2    1   13      1.04      0.00
   -3    2   13     -0.20      0.00
    2    2   13     -0.83      0.00
   -3    3   13     -0.04      0.00
    2    3   13      0.51      0.00
   -2    4   13     -0.36      0.00
    1    4   13     -0.06      0.00
   -2    5   13      0.02      0.00
   -1    5   13      0.24      0.00
    0    5   13     -0.45      0.00
    1    5   13      0.41      0.00
   -1    6   13      0.19      0.00
    0    6   13      0.27      0.00
    0  -11   14      0.21      0.00
    1  -11   14      0.07      0.00
   -1  -10   14      0.46      0.00
    0  -10   14     -0.27      0.00
    1  -10   14      0.15      0.00
    2  -10   14     -0.26      0.00
   -1   -9   14      0.03      0.00
    2   -9   14      0.35      0.00
   -2   -8   14     -0.40      0.00
    2   -8   14     -0.12      0.00
   -2   -7   14     -0.02      0.00
    2   -7   14     -0.71      0.00
    2   -6   14      1.45      0.00
   -3   -5   14      0.13      0.00
   -3   -4   14     -0.41      0.00
   -3   -3   14      0.45      0.00
   -3   -2   14     -0.22      0.00
   -2   -2   14     -0.40      0.00
   -3   -1   14      0.03      0.00
   -3    0   14     -0.10      0.00
    2    0   14     -0.56      0.00
   -3    1   14      0.25      0.00
    2    1   14      0.69      0.00
   -3    2   14     -0.25      0.00
   -2    2   14     -0.24      0.00
    1    2   14     -0.15      0.00
   -2    3   14      0.30      0.00
    1    3   14      0.09      0.00
   -2    4   14     -0.11      0.00
   -1    4   14     -0.52      0.00
    0    4   14      0.33      0.00
    1    4   14     -0.18      0.00
   -1    5   14     -0.02      0.00
    0    5   14     -0.17      0.00
    0  -11   15      0.22      0.00
   -1  -10   15      0.42      0.00
    0  -10   15     -0.29      0.00
    1  -10   15      0.24      0.00
   -1   -9   15      0.02      0.00
    0   -9   15      0.28      0.00
    1   -9   15     -0.43      0.00
    2   -9   15      0.53      0.00
   -2   -8   15     -0.34      0.00
   -1   -8   15     -0.43      0.00
    2   -8   15     -0.24      0.00
   -2   -7   15      0.01      0.00
    2   -7   15     -0.54      0.00
   -2   -6   15      0.60      0.00
    2   -6   15      1.12      0.00
   -2   -5   15     -0.99      0.00
    2   -5   15     -0.67      0.00
    2   -4   15     -0.45      0.00
   -2   -3   15     -0.23      0.00
    2   -3   15      1.04      0.00
   -2   -2   15     -0.08      0.00
    2   -2   15     -0.70      0.00
   -2   -1   15      0.00      0.00
    2   -1   15      0.22      0.00
   -2    0   15      0.10      0.00
    2    0   15     -0.21      0.00
   -2    1   15      0.06      0.00
    1    1   15      0.07      0.00
   -2    2   15     -0.27      0.00
    1    2   15     -0.18      0.00
   -2    3   15      0.22      0.00
   -1    3   15      0.57      0.00
    0    3   15     -0.53      0.00
    1    3   15      0.13      0.00
   -1    4   15     -0.25      0.00
    0    4   15      0.05      0.00
    0  -10   16     -0.16      0.00
    1  -10   16      0.21      0.00
   -1   -9   16      0.03      0.00
    0   -9   16      0.25      0.00
    1   -9   16     -0.39      0.00
   -1   -8   16     -0.28      0.00
    0   -8   16     -0.27      0.00
    1   -8   16      0.10      0.00
   -1   -7   16      0.14      0.00
    1   -7   16      0.32      0.00
    2   -7   16     -0.31      0.00
   -2   -6   16      0.50      0.00
    2   -6   16      0.64      0.00
   -2   -5   16     -1.04      0.00
    2   -5   16     -0.14      0.00
   -2   -4   16      0.99      0.00
    2   -4   16     -0.76      0.00
   -2   -3   16     -0.50      0.00
    2   -3   16      1.04      0.00
   -2   -2   16      0.14      0.00
    2   -2   16     -0.53      0.00
   -2   -1   16     -0.10      0.00
    1   -1   16      0.01      0.00
   -2    0   16      0.04      0.00
    1    0   16      0.13      0.00
   -2    1   16      0.23      0.00
   -1    1   16      0.41      0.00
    0    1   16     -1.27      0.00
    1    1   16     -0.02      0.00
   -1    2   16     -0.42      0.00
    0    2   16      1.03      0.00
   -1    3   16      0.27      0.00
    0    3   16     -0.26      0.00
    0   -9   17      0.12      0.00
   -1   -8   17     -0.14      0.00
    0   -8   17     -0.26      0.00
    1   -8   17      0.11      0.00
   -1   -7   17     -0.12      0.00
    0   -7   17      0.49      0.00
    1   -7   17      0.17      0.00
   -1   -6   17      0.24      0.00
    0   -6   17     -0.64      0.00
    1   -6   17      0.13      0.00
   -2   -5   17     -0.87      0.00
   -1   -5   17      0.22      0.00
    1   -5   17     -0.87      0.00
   -2   -4   17      0.90      0.00
   -1   -4   17     -0.82      0.00
    1   -4   17      1.12      0.00
   -2   -3   17     -0.47      0.00
   -1   -3   17      0.87      0.00
    1   -3   17     -0.63      0.00
   -2   -2   17      0.13      0.00
   -1   -2   17     -0.46      0.00
    0   -2   17      0.42      0.00
    1   -2   17      0.18      0.00
   -2   -1   17     -0.04      0.00
   -1   -1   17      0.22      0.00
    0   -1   17     -0.23      0.00
    1   -1   17     -0.24      0.00
   -1    0   17     -0.30      0.00
    0    0   17      0.68      0.00
   -1    1   17      0.33      0.00
    0    1   17     -1.10      0.00
    0    0    0      0.00      0.00
loop_
  _platon_squeeze_void_nr
  _platon_squeeze_void_average_x
  _platon_squeeze_void_average_y
  _platon_squeeze_void_average_z
  _platon_squeeze_void_volume
  _platon_squeeze_void_count_electrons
  _platon_squeeze_void_content
   1 -0.028  0.500  0.000        48        17 ' '
_platon_squeeze_details
(replace by semicolon in column 1 when used as .sqf)
TITL Au_G
CELL    3.5707   10.3087   14.2742    107.69     92.50    100.21
SPGR P-1
Q101 0.742 0.226 0.423 !       3.60 eA-3
Q102 0.880 0.134 0.471 !       3.28 eA-3
Q103 0.110 0.316 0.462 !       3.22 eA-3
Q104 0.880 0.347 0.468 !       3.15 eA-3
Q105 0.103 0.911 0.599 !       3.00 eA-3
Q106 0.111 0.813 0.447 !       2.87 eA-3
Q107 0.625 0.594 0.409 !       2.84 eA-3
Q108 0.179 0.099 0.384 !       2.79 eA-3
Q109 0.945 0.152 0.365 !       2.64 eA-3
Q110 0.096 0.286 0.400 !       2.50 eA-3
Q111 0.614 0.192 0.406 !       2.42 eA-3
Q112 0.244 0.758 0.493 !       2.38 eA-3
Q113 1.004 0.254 0.500 !       2.36 eA-3
C114 0.315 0.473 0.000 !       2.19 eA-3
Q115 0.430 0.846 0.454 !       2.11 eA-3
C116 0.633 0.442 0.004 !       1.96 eA-3
Q117 0.652 0.631 0.262 !       1.84 eA-3
Q118 0.246 0.413 0.393 !       1.80 eA-3
Q119 0.760 0.787 0.566 !       1.77 eA-3
Q120 0.878 0.432 0.506 !       1.76 eA-3
Q121 0.439 0.718 0.166 !       1.74 eA-3
Q122 0.642 0.968 0.556 !       1.73 eA-3
Q123 0.372 0.622 0.301 !       1.64 eA-3
Q124 0.262 0.179 0.364 !       1.61 eA-3
Q125 0.936 0.868 0.325 !       1.59 eA-3
Q126 0.313 0.036 0.634 !       1.57 eA-3
Q127 1.003 0.279 0.282 !       1.57 eA-3
Q128 0.892 0.819 0.799 !       1.55 eA-3
Q129 0.877 0.571 0.320 !       1.54 eA-3
Q130 0.070 0.126 0.122 !       1.54 eA-3
Q131 0.880 0.934 0.099 !       1.44 eA-3
Q132 0.817 0.106 0.187 !       1.43 eA-3
Q133 0.934 0.713 0.413 !       1.42 eA-3
Q134 0.614 0.245 0.874 !       1.42 eA-3
Q135 0.456 0.686 0.448 !       1.39 eA-3
Q136 0.756 0.089 0.607 !       1.38 eA-3
Q137 0.672 0.368 0.143 !       1.38 eA-3
Q138 0.681 0.630 0.168 !       1.37 eA-3
Q139 0.491 0.470 0.454 !       1.35 eA-3
Q140 0.179 0.649 0.348 !       1.31 eA-3
Q141 0.067 1.009 0.736 !       1.30 eA-3
Q142 0.891 0.056 0.104 !       1.30 eA-3
Q143 0.809 0.385 0.872 !       1.30 eA-3
Q144 0.029 0.991 0.163 !       1.28 eA-3
Q145 0.879 0.275 0.781 !       1.28 eA-3
Q146 0.928 0.683-0.001 !       1.25 eA-3
Q147 0.928 0.128 0.272 !       1.23 eA-3
Q148 0.418 0.563 0.881 !       1.22 eA-3
Q149 0.874 0.053 0.750 !       1.22 eA-3
Q150 0.805 0.425 0.560 !       1.22 eA-3
Q151 0.313 0.594 0.387 !       1.21 eA-3
Q152 0.056 0.690 0.421 !       1.18 eA-3
Q153 0.146 0.973 0.327 !       1.18 eA-3
Q154 0.505 0.462 0.195 !       1.17 eA-3
Q155 0.689 0.786 0.067 !       1.16 eA-3
Q156 0.062 0.786 0.342 !       1.14 eA-3
Q157 0.498 0.865 0.332 !       1.14 eA-3
Q158 0.861 0.972 0.041 !       1.13 eA-3
Q159 0.607 0.542 0.335 !       1.13 eA-3
Q160 0.431 0.917 0.306 !       1.13 eA-3
Q161 0.951 0.188 0.071 !       1.12 eA-3
Q162 0.765 0.496 0.156 !       1.11 eA-3
Q163 0.143 0.063 0.066 !       1.09 eA-3
Q164 0.124 0.439 0.226 !       1.08 eA-3
Q165 0.634 0.760 0.488 !       1.08 eA-3
Q166 0.301 0.828 0.716 !       1.07 eA-3
Q167 0.802 0.251 0.347 !       1.07 eA-3
Q168 0.194 0.775 0.356 !       1.06 eA-3
Q169 0.878 0.033 0.334 !       1.05 eA-3
Q170 1.010 0.754 0.283 !       1.04 eA-3
Q171 0.247 0.752 0.981 !       1.01 eA-3
Q172 0.730 0.463 0.368 !       1.01 eA-3
Q173 0.296 0.563 0.248 !       1.01 eA-3
Q174 0.238 0.289 0.018 !       1.01 eA-3
Q175 0.880 0.936 0.703 !       1.00 eA-3
Q176 0.377 0.403 0.521 !       0.98 eA-3
Q177 0.954 0.147 0.978 !       0.96 eA-3
Q178 0.110 0.740 0.781 !       0.96 eA-3
Q179 0.552 0.309 0.904 !       0.95 eA-3
Q180 0.688 0.929 0.483 !       0.94 eA-3
Q181 0.447 0.642 0.213 !       0.94 eA-3
Q182 0.624 0.320 0.625 !       0.94 eA-3
Q183 0.570 0.661 0.970 !       0.93 eA-3
Q184 0.370 0.721 0.595 !       0.92 eA-3
Q185 0.489 0.153 0.091 !       0.91 eA-3
Q186 0.401 0.097 0.332 !       0.90 eA-3
Q187 0.310 0.588 0.590 !       0.90 eA-3
Q188 0.876 0.364 0.301 !       0.90 eA-3
Q189 1.019 0.472 0.427 !       0.90 eA-3
Q190 0.884 0.445 0.068 !       0.89 eA-3
Q191 0.812 0.289 0.708 !       0.88 eA-3
Q192 0.795 0.930 0.395 !       0.88 eA-3
Q193 0.260 0.809 0.204 !       0.87 eA-3
Q194 0.769 0.810 0.308 !       0.87 eA-3
Q195 0.630 0.403 0.231 !       0.86 eA-3
Q196 0.327 0.266 0.594 !       0.86 eA-3
Q197 0.107 0.149-0.003 !       0.86 eA-3
Q198 0.567 0.023 0.202 !       0.85 eA-3
Q199 0.488 0.464 0.862 !       0.85 eA-3
(replace by semicolon in column 1 when used as .sqf)
;
_shelx_fab_checksum              39992
#END Tags that were not found in dictionaries
loop_
_space_group_symop_operation_xyz
'x, y, z'
'-x, -y, -z'
loop_
_atom_site_label
_atom_site_type_symbol
_atom_site_fract_x
_atom_site_fract_y
_atom_site_fract_z
_atom_site_U_iso_or_equiv
_atom_site_adp_type
_atom_site_occupancy
_atom_site_site_symmetry_order
_atom_site_calc_flag
_atom_site_refinement_flags_posn
_atom_site_refinement_flags_adp
C1 C 0.831(7) 0.214(3) 0.6351(17) 0.037(4) Uani 1 1 d . U
F2 F 0.657(5) 0.0784(16) 0.5950(13) 0.060(4) Uani 1 1 d . U
C3 C 0.815(7) 0.278(3) 0.7393(18) 0.047(6) Uani 1 1 d . U
F4 F 0.655(6) 0.196(2) 0.7920(14) 0.073(5) Uani 1 1 d . U
N5 N 0.935(7) 0.408(3) 0.7864(17) 0.056(6) Uani 1 1 d . U
C6 C 1.123(10) 0.483(3) 0.736(2) 0.058(8) Uani 1 1 d . U
F7 F 1.259(6) 0.6168(18) 0.7823(15) 0.074(5) Uani 1 1 d . U
C8 C 1.149(9) 0.425(3) 0.632(2) 0.047(5) Uani 1 1 d . U
F9 F 1.323(5) 0.5137(17) 0.5861(12) 0.055(4) Uani 1 1 d . U
C10 C 0.996(7) 0.286(3) 0.5775(17) 0.039(4) Uani 1 1 d . U
Au11 Au 0.9995(3) 0.21107(11) 0.43165(8) 0.0465(5) Uani 1 1 d . U
C12 C 1.007(8) 0.136(4) 0.296(2) 0.056(7) Uani 1 1 d . U
N13 N 0.980(6) 0.092(2) 0.2014(11) 0.046(5) Uani 1 1 d D U
C14 C 0.987(6) 0.0415(18) 0.0977(13) 0.043(5) Uani 1 1 d D U
C15 C 0.888(8) -0.1004(17) 0.0514(15) 0.052(6) Uani 1 1 d D U
H15 H 0.8240 -0.1657 0.0858 0.062 Uiso 1 1 calc R U
C16 C 1.107(8) 0.137(2) 0.0497(16) 0.054(6) Uani 1 1 d D U
H16 H 1.1885 0.2325 0.0879 0.065 Uiso 1 1 calc R U
loop_
_atom_site_aniso_label
_atom_site_aniso_U_11
_atom_site_aniso_U_22
_atom_site_aniso_U_33
_atom_site_aniso_U_23
_atom_site_aniso_U_13
_atom_site_aniso_U_12
C1 0.032(11) 0.053(9) 0.022(7) 0.010(7) -0.008(8) 0.002(9)
F2 0.066(11) 0.043(7) 0.057(10) 0.004(7) 0.000(8) -0.004(7)
C3 0.043(13) 0.066(10) 0.022(8) 0.019(7) -0.006(9) -0.019(12)
F4 0.095(14) 0.096(12) 0.050(10) 0.056(10) 0.018(9) 0.014(10)
N5 0.055(14) 0.070(10) 0.033(10) 0.002(8) 0.034(10) 0.003(11)
C6 0.075(19) 0.051(11) 0.028(9) 0.009(7) -0.015(11) -0.029(14)
F7 0.093(14) 0.048(8) 0.065(11) 0.001(7) -0.003(10) 0.008(8)
C8 0.060(16) 0.056(10) 0.031(8) 0.020(6) 0.008(10) 0.013(11)
F9 0.062(10) 0.056(9) 0.050(9) 0.025(8) 0.017(8) 0.003(7)
C10 0.038(13) 0.052(9) 0.029(6) 0.017(7) -0.006(9) 0.012(9)
Au11 0.0547(8) 0.0512(8) 0.0320(7) 0.0132(5) 0.0052(5) 0.0064(5)
C12 0.043(14) 0.08(2) 0.033(6) 0.013(13) -0.001(11) -0.001(14)
N13 0.038(11) 0.050(12) 0.042(6) 0.000(8) 0.014(9) 0.014(9)
C14 0.020(10) 0.068(12) 0.035(8) 0.006(9) -0.004(9) 0.010(10)
C15 0.052(15) 0.067(12) 0.022(12) -0.002(9) -0.012(11) 0.009(12)
C16 0.035(13) 0.074(15) 0.047(14) 0.010(13) 0.013(12) 0.006(13)
loop_
_atom_type_symbol
_atom_type_description
_atom_type_scat_dispersion_real
_atom_type_scat_dispersion_imag
_atom_type_scat_source
C C 0.0181 0.0091 'International Tables Vol C Tables 4.2.6.8 and 6.1.1.4'
H H 0.0000 0.0000 'International Tables Vol C Tables 4.2.6.8 and 6.1.1.4'
N N 0.0311 0.0180 'International Tables Vol C Tables 4.2.6.8 and 6.1.1.4'
F F 0.0727 0.0534 'International Tables Vol C Tables 4.2.6.8 and 6.1.1.4'
Au Au -4.4197 7.2980 'International Tables Vol C Tables 4.2.6.8 and 6.1.1.4'
loop_
_geom_angle_atom_site_label_1
_geom_angle_atom_site_label_2
_geom_angle_atom_site_label_3
_geom_angle
_geom_angle_site_symmetry_1
F2 C1 C10 121(2) .
F2 C1 C3 117(2) .
C10 C1 C3 122(2) .
N5 C3 F4 117(2) .
N5 C3 C1 125(2) .
F4 C3 C1 118(2) .
C3 N5 C6 116(2) .
N5 C6 F7 118(3) .
N5 C6 C8 121(2) .
F7 C6 C8 120(3) .
F9 C8 C10 120(2) .
F9 C8 C6 116(2) .
C10 C8 C6 123(2) .
C1 C10 C8 112(2) .
C1 C10 Au11 125.2(18) .
C8 C10 Au11 122.8(19) .
C12 Au11 C10 178.2(12) .
N13 C12 Au11 173(3) .
C12 N13 C14 175(3) .
C15 C14 C16 124.2(13) .
C15 C14 N13 118.1(10) .
C16 C14 N13 117.7(10) .
C16 C15 C14 113(2) 2_755
C16 C15 H15 123.5 2_755
C14 C15 H15 123.5 .
C15 C16 C14 123(2) 2_755
C15 C16 H16 118.7 2_755
C14 C16 H16 118.7 .
loop_
_geom_bond_atom_site_label_1
_geom_bond_atom_site_label_2
_geom_bond_distance
_geom_bond_site_symmetry_2
C1 F2 1.35(3) .
C1 C10 1.36(3) .
C1 C3 1.44(3) .
C3 N5 1.29(4) .
C3 F4 1.36(3) .
N5 C6 1.33(4) .
C6 F7 1.33(3) .
C6 C8 1.43(4) .
C8 F9 1.36(3) .
C8 C10 1.40(4) .
C10 Au11 1.99(2) .
Au11 C12 1.86(3) .
C12 N13 1.28(3) .
N13 C14 1.415(16) .
C14 C15 1.383(10) .
C14 C16 1.386(10) .
C15 C16 1.38(3) 2_755
C15 H15 0.9500 .
C16 C15 1.38(3) 2_755
C16 H16 0.9500 .
loop_
_geom_torsion_atom_site_label_1
_geom_torsion_atom_site_label_2
_geom_torsion_atom_site_label_3
_geom_torsion_atom_site_label_4
_geom_torsion
_geom_torsion_site_symmetry_4
F2 C1 C3 N5 -173(3) .
C10 C1 C3 N5 4(4) .
F2 C1 C3 F4 5(4) .
C10 C1 C3 F4 -178(2) .
F4 C3 N5 C6 174(3) .
C1 C3 N5 C6 -8(5) .
C3 N5 C6 F7 -179(3) .
C3 N5 C6 C8 7(5) .
N5 C6 C8 F9 175(3) .
F7 C6 C8 F9 1(5) .
N5 C6 C8 C10 -3(5) .
F7 C6 C8 C10 -177(3) .
F2 C1 C10 C8 178(2) .
C3 C1 C10 C8 1(3) .
F2 C1 C10 Au11 2(3) .
C3 C1 C10 Au11 -175.3(19) .
F9 C8 C10 C1 -179(2) .
C6 C8 C10 C1 -1(4) .
F9 C8 C10 Au11 -3(4) .
C6 C8 C10 Au11 175(2) .
C16 C14 C15 C16 -5(4) 2_755
N13 C14 C15 C16 178(2) 2_755
C15 C14 C16 C15 5(4) 2_755
N13 C14 C16 C15 -178(2) 2_755
loop_
_platon_squeeze_void_nr
_platon_squeeze_void_average_x
_platon_squeeze_void_average_y
_platon_squeeze_void_average_z
_platon_squeeze_void_volume
_platon_squeeze_void_count_electrons
_platon_squeeze_void_content
1 -0.028 0.500 0.000 48 17 ' '
