#------------------------------------------------------------------------------
#$Date: 2016-02-18 17:37:37 +0200 (Thu, 18 Feb 2016) $
#$Revision: 176729 $
#$URL: svn://www.crystallography.net/cod/cif/1/51/86/1518684.cif $
#------------------------------------------------------------------------------
#
# This file is available in the Crystallography Open Database (COD),
# http://www.crystallography.net/
#
# All data on this site have been placed in the public domain by the
# contributors.
#
data_1518684
loop_
_publ_author_name
'Breternitz, Joachim'
'Farrugia, Louis J.'
'Godula-Jopek, Agata'
'Saremi-Yarahmadi, Sina'
'Malka, Iwona E.'
'Hoang, Tuan K.A.'
'Gregory, Duncan H.'
_publ_section_title
;
 Reaction of [Ni(H2O)6](NO3)2 with gaseous NH3; crystal growth via in-situ
 solvation
;
_journal_name_full               'Journal of Crystal Growth'
_journal_page_first              1
_journal_paper_doi               10.1016/j.jcrysgro.2014.11.021
_journal_volume                  412
_journal_year                    2015
_chemical_compound_source        commercial
_chemical_formula_moiety         'H12  Ni O6, 2(N O3)'
_chemical_formula_sum            'H12 N2 Ni O12'
_chemical_formula_weight         290.83
_space_group_IT_number           2
_symmetry_cell_setting           triclinic
_symmetry_Int_Tables_number      2
_symmetry_space_group_name_Hall  '-P 1'
_symmetry_space_group_name_H-M   'P -1'
_atom_sites_solution_hydrogens   difmap
_atom_sites_solution_primary     direct
_atom_sites_solution_secondary   direct
_audit_conform_dict_location     ftp://ftp.iucr.org/pub/cif_core.dic
_audit_conform_dict_name         cif_core.dic
_audit_conform_dict_version      2.4.2
_audit_creation_date             2013-05-13T12:52:10-00:00
_audit_creation_method           'WinGX routine CIF_UPDATE'
_cell_angle_alpha                105.841(2)
_cell_angle_beta                 98.451(2)
_cell_angle_gamma                102.203(2)
_cell_formula_units_Z            2
_cell_length_a                   5.8056(2)
_cell_length_b                   7.7023(3)
_cell_length_c                   11.6864(4)
_cell_measurement_reflns_used    9894
_cell_measurement_temperature    295(2)
_cell_measurement_theta_max      44.52
_cell_measurement_theta_min      2.85
_cell_measurement_wavelength     0.71073
_cell_volume                     479.59(3)
_computing_cell_refinement
'SAINT V8.27B integration software (Bruker, 2012)'
_computing_data_collection       'Bruker APEX2 software (Bruker, 2012)'
_computing_data_reduction        'SORTAV (Blessing, 1995)'
_computing_molecular_graphics    'Diamond 3.1 (Brandenburg, 2005)'
_computing_publication_material  'WinGX publication routines (Farrugia, 2012)'
_computing_structure_refinement  'SHELXL-2013 (Sheldrick, 2008)'
_computing_structure_solution    'SIR-92 (Altomare et al., 1994)'
_diffrn_ambient_temperature      295(2)
_diffrn_detector                 'APEX-II CCD'
_diffrn_measured_fraction_theta_full 0.997
_diffrn_measured_fraction_theta_max 0.997
_diffrn_measurement_device       '\k-geometry diffractometer'
_diffrn_measurement_device_type  'Bruker APEX-II'
_diffrn_measurement_method       '\f or \w oscillation scans'
_diffrn_orient_matrix_UB_11      -0.107897
_diffrn_orient_matrix_UB_12      0.042522
_diffrn_orient_matrix_UB_13      -0.05526
_diffrn_orient_matrix_UB_21      -0.060289
_diffrn_orient_matrix_UB_22      -0.130822
_diffrn_orient_matrix_UB_23      -0.057317
_diffrn_orient_matrix_UB_31      -0.131623
_diffrn_orient_matrix_UB_32      -0.025667
_diffrn_orient_matrix_UB_33      0.044343
_diffrn_radiation_monochromator  graphite
_diffrn_radiation_probe          x-ray
_diffrn_radiation_type           MoK\a
_diffrn_radiation_wavelength     0.71073
_diffrn_reflns_av_R_equivalents  0.059
_diffrn_reflns_Laue_measured_fraction_full 0.997
_diffrn_reflns_Laue_measured_fraction_max 0.997
_diffrn_reflns_limit_h_max       7
_diffrn_reflns_limit_h_min       -8
_diffrn_reflns_limit_k_max       10
_diffrn_reflns_limit_k_min       -10
_diffrn_reflns_limit_l_max       16
_diffrn_reflns_limit_l_min       -16
_diffrn_reflns_number            12115
_diffrn_reflns_point_group_measured_fraction_full 0.997
_diffrn_reflns_point_group_measured_fraction_max 0.997
_diffrn_reflns_reduction_process
;
        Scaled and merged with Sortav
        R.H. Blessing, (1987) Cryst. Rev. 1, 3-58
        R.H. Blessing, (1989) J. Appl. Cryst. 22, 396-397
;
_diffrn_reflns_theta_full        25.242
_diffrn_reflns_theta_max         30.022
_diffrn_reflns_theta_min         1.856
_diffrn_source                   'sealed x-ray tube'
_exptl_absorpt_coefficient_mu    2.088
_exptl_absorpt_correction_T_max  0.749
_exptl_absorpt_correction_T_min  0.567
_exptl_absorpt_correction_type   multi-scan
_exptl_absorpt_process_details
;
SADABS-2012/1 - Bruker AXS area detector scaling and absorption correction
;
_exptl_crystal_colour            green
_exptl_crystal_density_diffrn    2.014
_exptl_crystal_density_method    'not measured'
_exptl_crystal_description       irregular
_exptl_crystal_F_000             300
_exptl_crystal_size_max          0.4
_exptl_crystal_size_mid          0.4
_exptl_crystal_size_min          0.4
_refine_diff_density_max         0.759
_refine_diff_density_min         -0.397
_refine_diff_density_rms         0.114
_refine_ls_extinction_coef       0.193(9)
_refine_ls_extinction_expression Fc^*^=kFc[1+0.001xFc^2^\l^3^/sin(2\q)]^-1/4^
_refine_ls_extinction_method     SHELXL
_refine_ls_goodness_of_fit_ref   1.139
_refine_ls_hydrogen_treatment    refall
_refine_ls_matrix_type           full
_refine_ls_number_constraints    0
_refine_ls_number_parameters     186
_refine_ls_number_reflns         2786
_refine_ls_number_restraints     12
_refine_ls_restrained_S_all      1.137
_refine_ls_R_factor_all          0.0351
_refine_ls_R_factor_gt           0.0343
_refine_ls_shift/su_max          0.001
_refine_ls_shift/su_mean         0
_refine_ls_structure_factor_coef Fsqd
_refine_ls_weighting_details
'w=1/[\s^2^(Fo^2^)+(0.0304P)^2^+0.3126P] where P=(Fo^2^+2Fc^2^)/3'
_refine_ls_weighting_scheme      calc
_refine_ls_wR_factor_gt          0.0955
_refine_ls_wR_factor_ref         0.096
_reflns_number_gt                2691
_reflns_number_total             2786
_reflns_threshold_expression     'I > 2\s(I)'
_iucr_refine_instructions_details
;
TITL [Ni(H2O)6]2+ (NO3-)2 room temperature code svc_31 in P -1
CELL  0.71073   5.8056   7.7023  11.6864  105.841   98.451  102.203
ZERR     2.00   0.0002   0.0003   0.0004    0.002    0.002    0.002
LATT   1
SFAC  NI   O    N    H
UNIT  2    24   4    24
MERG   2
DFIX   21 0.01 O1 H11 O1 H12
DFIX   21 0.01 O2 H21 O2 H22
DFIX   21 0.01 O3 H31 O3 H32
DFIX   21 0.01 O4 H41 O4 H42
DFIX   21 0.01 O5 H51 O5 H52
DFIX   21 0.01 O6 H61 O6 H62
FMAP   2
PLAN   16
SIZE     0.400   0.400   0.400
ACTA
BOND   $H
CONF
LIST   4
L.S.  10
TEMP    22.00
WGHT    0.030400    0.312600
EXTI    0.192902
FVAR       1.22582   0.78339
MOLE    1
NI1   1    0.671982    0.142785    0.232515    11.00000    0.01903    0.01734 =
         0.02156    0.00712    0.00412    0.00437
O1    2    0.595597    0.351277    0.365454    11.00000    0.03543    0.02386 =
         0.02887    0.00656    0.00686    0.00930
O2    2    0.311231    0.033371    0.143988    11.00000    0.02104    0.02371 =
         0.03190    0.00979    0.00565    0.00567
O3    2    0.751366   -0.064396    0.104944    11.00000    0.03160    0.02232 =
         0.02524    0.00450    0.00649    0.00747
O4    2    0.633739   -0.011134    0.349168    11.00000    0.03267    0.02808 =
         0.03339    0.01661    0.00942    0.00997
O5    2    1.039374    0.236954    0.314636    11.00000    0.02257    0.03019 =
         0.03335    0.01399    0.00050    0.00163
O6    2    0.722325    0.308583    0.126345    11.00000    0.02838    0.02981 =
         0.04141    0.02145    0.01229    0.01006
H11   4    0.669217    0.450659    0.368356    11.00000    0.04409
H12   4    0.638129    0.348032    0.431803    11.00000    0.04408
H21   4    0.259888   -0.071767    0.138730    11.00000    0.04568
H22   4    0.215496    0.071913    0.176700    11.00000    0.04689
H31   4    0.697653   -0.166627    0.107392    11.00000    0.04503
H32   4    0.724842   -0.071682    0.035939    11.00000    0.03592
H41   4    0.502085   -0.050157    0.354786    11.00000    0.03692
H42   4    0.699457   -0.084427    0.362201    11.00000    0.06010
H51   4    1.105586    0.341985    0.327385    11.00000    0.06082
H52   4    1.070539    0.217380    0.376493    11.00000    0.06242
H61   4    0.856370    0.339809    0.120615    11.00000    0.04343
H62   4    0.667224    0.394212    0.131776    11.00000    0.05472
MOLE    2
O11   2    0.208121    0.384437    0.123936    11.00000    0.03706    0.02332 =
         0.06048    0.02166    0.01679    0.00681
O12   2    0.519508    0.604671    0.135394    11.00000    0.03087    0.02981 =
         0.06583    0.01895    0.01415    0.00590
O13   2    0.163704    0.655834    0.123224    11.00000    0.03851    0.02601 =
         0.04228    0.01342    0.00953    0.01407
N1    3    0.295724    0.549582    0.127175    11.00000    0.03143    0.02138 =
         0.02494    0.00858    0.00804    0.00537
MOLE    3
O21   2    0.213702    0.654880    0.396348    11.00000    0.04689    0.03955 =
         0.03641    0.01320    0.00741    0.02221
O22   2    0.152775    0.910381    0.370555    11.00000    0.05225    0.03654 =
         0.04723    0.02286    0.02148    0.01581
O23   2   -0.130595    0.720101    0.409636    11.00000    0.03605    0.03900 =
         0.07278    0.01909    0.01840    0.00801
N2    3    0.078464    0.761340    0.391211    11.00000    0.03459    0.02894 =
         0.02506    0.00875    0.00636    0.01054
HKLF    4
REM  [Ni(H2O)6]2+ (NO3-)2 room temperature code svc_31 in P -1
REM R1 =  0.0343 for    2691 Fo > 4sig(Fo)  and  0.0351 for all    2786 data
REM    186 parameters refined using     12 restraints
END
;
_cod_data_source_file            hydrates.cif
_cod_data_source_block           RT
_cod_database_code               1518684
#BEGIN Tags that were not found in dictionaries:
_shelx_estimated_absorpt_t_min   0.489
_shelx_estimated_absorpt_t_max   0.489
_iucr_refine_reflections_details
;
  -8   1   1 103.281  7.3386   1
  -8   1   2 2.19197 1.10879   1
  -8   1   3 15.1437 2.59695   1
  -8   1   4 -0.0207 2.10987   1
  -8   1   5 93.6426 10.3152   1
  -8   2   0 191.102 12.7687   1
  -8   2   1 158.033  11.279   1
  -8   2   2 58.3147 4.15632   1
  -8   2   3 17.6352 2.35818   1
  -8   2   4 1.99997 1.60227   1
  -8   2   5 7.44487 1.95005   1
  -8   3   0 48.8645 3.89759   1
  -8   3   1 12.3385 1.61731   1
  -8   3   2 35.4385 2.88907   1
  -8   3   3  3.0588 1.15537   1
  -8   3   4 231.062 20.6401   1
  -8   4   0 1.62537 1.11197   1
  -8   4   1 58.4497 4.32687   1
  -8   4   2 29.0876 3.65713   1
  -8   4   3 141.962  9.3491   1
  -7  -3   2 46.2919 3.92096   1
  -7  -3   3 64.3221 5.83616   1
  -7  -3   4 25.7287 4.08821   1
  -7  -3   5 68.5619 7.68882   1
  -7  -3   6 2.76332 2.32681   1
  -7  -3   7 126.909 12.7693   1
  -7  -2   1 1.02871 1.07747   1
  -7  -2   2  48.433 10.8002   1
  -7  -2   3 4.84097  1.2223   1
  -7  -2   4 94.8692 9.76402   1
  -7  -2   5 27.4159 4.00717   1
  -7  -2   6  175.36  16.666   1
  -7  -2   7 113.232 11.3707   1
  -7  -2   8 120.545 12.0689   1
  -7  -2   9 90.4464 9.54131   1
  -7  -1   1 33.2932 2.88273   1
  -7  -1   2 27.3929 5.25767   1
  -7  -1   3 52.6412 6.81218   1
  -7  -1   4 195.246 22.8426   1
  -7  -1   5 53.1147 4.65144   1
  -7  -1   6 304.345 21.4514   1
  -7  -1   7  8.8208 1.69424   1
  -7  -1   8 203.931 14.9912   1
  -7  -1   9 0.39475 2.44868   1
  -7  -1  10 125.425 14.0607   1
  -7   0   1 19.5404 1.56802   1
  -7   0   2 6.41381  1.0628   1
  -7   0   3  266.91 15.1985   1
  -7   0   4 12.6019 1.94008   1
  -7   0   5 459.228  31.161   1
  -7   0   6 90.9258 7.20466   1
  -7   0   7 171.428  12.703   1
  -7   0   8 66.8461 4.67238   1
  -7   0   9 42.1261 3.32211   1
  -7   0  10 72.2573   5.126   1
  -7   1   0 121.567 8.17855   1
  -7   1   1 35.3225 2.42504   1
  -7   1   2 194.978 11.2808   1
  -7   1   3 123.465 7.39128   1
  -7   1   4 109.933 6.70277   1
  -7   1   5 158.316 11.7136   1
  -7   1   6 43.4185 4.00536   1
  -7   1   7 268.601 16.1072   1
  -7   1   8 69.5178 14.7879   1
  -7   1   9  263.38 15.9959   1
  -7   1  10  6.4933 1.43211   1
  -7   2   0 248.108 19.9452   1
  -7   2   1 48.8508 3.65016   1
  -7   2   2 213.206 10.8733   1
  -7   2   3 3.76988 1.02196   1
  -7   2   4 183.691 10.7082   1
  -7   2   5 5.12355 1.03462   1
  -7   2   6 266.754  31.577   1
  -7   2   7 19.9414 2.06315   1
  -7   2   8 190.926 14.6255   1
  -7   2   9 32.9767 2.87752   1
  -7   2  10 50.3438 4.97643   1
  -7   3   0 21.1926 2.77788   1
  -7   3   1 500.826 26.3509   1
  -7   3   2 105.331 6.13552   1
  -7   3   3 162.587 9.57028   1
  -7   3   4 140.811 11.8188   1
  -7   3   5 63.6905 7.25409   1
  -7   3   6 90.5493 5.74727   1
  -7   3   7 97.8906 7.13971   1
  -7   3   8 105.179 15.6989   1
  -7   3   9 53.5611  9.2969   1
  -7   4   0 74.5786 4.25552   1
  -7   4   1 228.331 12.4627   1
  -7   4   2 103.183 6.36929   1
  -7   4   3 473.975 25.8715   1
  -7   4   4 22.3796 3.26684   1
  -7   4   5 242.421 14.0365   1
  -7   4   6 1.52439  1.5898   1
  -7   4   7 12.2006 3.41082   1
  -7   4   8-1.03365 1.81859   1
  -7   5   0 53.3324 3.26419   1
  -7   5   2  344.23 22.6627   1
  -7   5   3 33.8933 5.71545   1
  -7   5   4 431.983  23.977   1
  -7   5   5 40.0639 6.89225   1
  -7   5   6  46.309 3.52944   1
  -7   5   7 10.5572 1.55709   1
  -7   6   0 148.381 8.00432   1
  -7   6   1 63.8318 5.60338   1
  -7   6   2 48.2929   4.749   1
  -7   6   3 8.22385 1.22833   1
  -7   6   4  44.672 3.48106   1
  -7   6   5 36.8757 10.1605   1
  -7   7   0 15.7014 2.17499   1
  -7   7   1 251.493 15.7155   1
  -7   7   2 1.32315 1.20608   1
  -6  -5   2 3.68908 1.35532   1
  -6  -5   3 65.3801 5.02241   1
  -6  -5   4 22.0268 5.30492   1
  -6  -5   5 234.094 17.3764   1
  -6  -5   6 135.164 13.4559   1
  -6  -5   7 112.041 11.4197   1
  -6  -5   8 117.929 11.9713   1
  -6  -4   1 149.098 10.0697   1
  -6  -4   2 49.7804 4.03227   1
  -6  -4   3 114.359 7.88006   1
  -6  -4   4 32.2032 3.35477   1
  -6  -4   5 94.3379 14.7328   1
  -6  -4   6 27.2026 4.01271   1
  -6  -4   7 293.825 26.5124   1
  -6  -4   8 7.95278 2.39363   1
  -6  -4   9 475.478 31.5069   1
  -6  -4  10 17.1656 2.28352   1
  -6  -3   1 12.4221 3.90118   1
  -6  -3   2 434.904 22.7639   1
  -6  -3   3 53.6815 5.01019   1
  -6  -3   4 285.691 36.7554   1
  -6  -3   5 26.5187 3.75937   1
  -6  -3   6 162.762  15.287   1
  -6  -3   7  53.962  6.0506   1
  -6  -3   8 157.705 13.5602   1
  -6  -3   9 150.708 10.9237   1
  -6  -3  10 153.161 11.1771   1
  -6  -3  11 97.8445 7.55819   1
  -6  -3  12 20.1348 3.55949   1
  -6  -2   1 221.628 12.6752   1
  -6  -2   2 304.623 16.2399   1
  -6  -2   3 315.892 32.2311   1
  -6  -2   4 368.625 31.2613   1
  -6  -2   5 95.1689 7.22006   1
  -6  -2   6 284.923 19.9062   1
  -6  -2   7 22.5276 2.36202   1
  -6  -2   8 115.425 8.43459   1
  -6  -2   9 18.8155 2.31903   1
  -6  -2  10 79.5211 6.15919   1
  -6  -2  11 2.40823 2.91223   1
  -6  -2  12 163.462 31.6399   1
  -6  -1   1  4.7943 0.76494   1
  -6  -1   2 38.0036 4.38989   1
  -6  -1   3  418.85 20.1674   1
  -6  -1   4 5.37288 1.23258   1
  -6  -1   5 1604.11 89.4674   1
  -6  -1   6 36.1036 3.20676   1
  -6  -1   7 328.784  19.087   1
  -6  -1   8 38.0431 2.85781   1
  -6  -1   9 8.65826 1.79113   1
  -6  -1  10 7.38329 2.19395   1
  -6  -1  11 34.3977 3.31442   1
  -6  -1  12 65.5244 5.43891   1
  -6   0   1 125.565 8.79242   1
  -6   0   2 416.611 23.5029   1
  -6   0   3 124.563 6.36023   1
  -6   0   4  202.42 11.4883   1
  -6   0   5 214.093 17.8559   1
  -6   0   6 146.485 8.90391   1
  -6   0   7  171.58 10.4178   1
  -6   0   8 151.196 9.29739   1
  -6   0   9 113.473 13.1459   1
  -6   0  10 22.0721  2.9179   1
  -6   0  11 120.835 7.72497   1
  -6   0  12 10.4394 1.61266   1
  -6   1   0 285.926 16.9677   1
  -6   1   1 199.506 10.0146   1
  -6   1   2 422.534   20.32   1
  -6   1   3 66.8144 3.60115   1
  -6   1   4 430.593 21.0617   1
  -6   1   5 29.2213 2.86451   1
  -6   1   6 145.186 8.91106   1
  -6   1   7 10.3482 2.01757   1
  -6   1   8 215.942 13.9887   1
  -6   1   9 46.2416 5.76546   1
  -6   1  10  274.95 16.4032   1
  -6   1  11  37.495 3.07829   1
  -6   1  12 78.1658 5.42107   1
  -6   2   0 31.1374 2.83314   1
  -6   2   1 2363.31 91.6377   1
  -6   2   2 109.462 5.73188   1
  -6   2   3  232.10 11.5995   1
  -6   2   4 6.40356 0.74209   1
  -6   2   5 42.8271 2.71273   1
  -6   2   6 1.42134 0.85534   1
  -6   2   7 196.313 11.8218   1
  -6   2   8 164.351 10.0454   1
  -6   2   9 411.443 21.6138   1
  -6   2  10 437.322 32.3763   1
  -6   2  11 13.9123 2.88262   1
  -6   2  12 148.761 9.60389   1
  -6   3   0 227.917 10.4509   1
  -6   3   1 107.455 6.34716   1
  -6   3   2 192.008 9.70882   1
  -6   3   3 384.039 19.0254   1
  -6   3   4 261.362 13.1154   1
  -6   3   5 273.602 12.5915   1
  -6   3   6 13.2934 2.44649   1
  -6   3   7 157.906 8.28502   1
  -6   3   8 43.6495 3.85114   1
  -6   3   9 158.398 9.26235   1
  -6   3  10  6.1796  1.4005   1
  -6   3  11 197.553 13.5922   1
  -6   4   0 526.408 22.9204   1
  -6   4   1 10.8646 1.49216   1
  -6   4   2  32.583 1.87804   1
  -6   4   3 0.77654 0.56282   1
  -6   4   4 152.168 7.22038   1
  -6   4   5 16.2988 2.08479   1
  -6   4   6 572.456  30.456   1
  -6   4   7 29.4587 4.97361   1
  -6   4   8 147.214 11.9193   1
  -6   4   9 65.6808  10.156   1
  -6   4  10  5.3385 1.37492   1
  -6   5   0 2.55886 0.64156   1
  -6   5   1 76.6023 6.12217   1
  -6   5   2 54.8411 2.92118   1
  -6   5   3  335.03 16.6273   1
  -6   5   4 253.244 12.4996   1
  -6   5   5 90.6901  7.4542   1
  -6   5   6 236.932 11.0287   1
  -6   5   7 0.31729 1.23426   1
  -6   5   8 104.567 11.7594   1
  -6   5   9  4.0222 1.54401   1
  -6   6   0 35.7575 2.35908   1
  -6   6   1 91.8363 6.42117   1
  -6   6   2 16.6515 2.45977   1
  -6   6   3 211.287 18.6996   1
  -6   6   4 3.27125 5.20502   1
  -6   6   5 217.877  15.845   1
  -6   6   6 4.56673 1.18918   1
  -6   6   7 143.928 12.3539   1
  -6   6   8 45.5756 15.6061   1
  -6   7   0 274.933  19.711   1
  -6   7   1 6.24779 1.75562   1
  -6   7   2 153.681 14.1124   1
  -6   7   3 30.0892 3.34292   1
  -6   7   4 42.6695 3.25679   1
  -6   7   5 107.844  10.994   1
  -6   7   6 58.6112  4.2471   1
  -6   8   0 81.2907 8.96476   1
  -6   8   1  46.173 3.23098   1
  -6   8   2 77.6717  6.3497   1
  -6   8   3 15.8189  1.9528   1
  -5  -6   1 68.5032 5.18182   1
  -5  -6   2-0.28215 1.59803   1
  -5  -6   3 84.6939 6.10052   1
  -5  -6   4 5.66653 1.32298   1
  -5  -6   5 355.956 22.2772   1
  -5  -6   6 96.9118 10.4721   1
  -5  -6   7 344.745 21.6518   1
  -5  -6   8 141.772 10.6237   1
  -5  -6   9 67.2696 5.49718   1
  -5  -6  10 16.1068 2.17526   1
  -5  -5   1 119.618 8.11246   1
  -5  -5   2 170.009 11.1569   1
  -5  -5   3 95.5041 6.66514   1
  -5  -5   4 117.424 6.71076   1
  -5  -5   5 220.473 17.6166   1
  -5  -5   6 83.8045 12.6689   1
  -5  -5   7  292.11 50.4828   1
  -5  -5   8 21.9533 3.49715   1
  -5  -5   9 237.031 27.9673   1
  -5  -5  10 0.93126 1.15343   1
  -5  -5  11 85.0001 10.4332   1
  -5  -5  12 12.8452 2.87704   1
  -5  -4   1 44.5203 2.87563   1
  -5  -4   2 1123.06 67.4367   1
  -5  -4   4 906.385 55.7641   1
  -5  -4   5 14.4993 9.63299   1
  -5  -4   6 18.9522 2.02694   1
  -5  -4   7 3.74689 2.55225   1
  -5  -4   8 14.8495 1.78965   1
  -5  -4   9 21.0371 2.20013   1
  -5  -4  10  400.68 26.6459   1
  -5  -4  11 211.773 14.8896   1
  -5  -4  12 238.074 16.7054   1
  -5  -4  13 139.358 15.0741   1
  -5  -3   1 696.336 34.6873   1
  -5  -3   2 172.443 10.9886   1
  -5  -3   3 674.773 38.0239   1
  -5  -3   4 346.718 18.2382   1
  -5  -3   5 273.953 14.9418   1
  -5  -3   6  87.922  16.358   1
  -5  -3   7 24.3807 2.29233   1
  -5  -3   8 80.9361 5.99121   1
  -5  -3   9 3.47124 1.07299   1
  -5  -3  10 258.647 17.6693   1
  -5  -3  11 3.59468 3.07248   1
  -5  -3  12 353.702 35.0227   1
  -5  -3  13 62.1603 6.63531   1
  -5  -3  14 161.816 17.4274   1
  -5  -2   1 909.146 44.0258   1
  -5  -2   2 109.823 7.15881   1
  -5  -2   3 197.418 10.5433   1
  -5  -2   4 3.59243 0.73865   1
  -5  -2   5 234.504 14.3622   1
  -5  -2   6 6.06467 1.39486   1
  -5  -2   7 621.542 34.1435   1
  -5  -2   8 1.24252 0.89692   1
  -5  -2   9 288.609 19.3981   1
  -5  -2  10 66.7712 4.54762   1
  -5  -2  11 109.139  7.5975   1
  -5  -2  12 179.635 18.8412   1
  -5  -2  13 99.0143 16.8311   1
  -5  -2  14 134.347  14.772   1
  -5  -1   1  6.6481 0.79327   1
  -5  -1   2 409.414 24.5763   1
  -5  -1   3 59.4493  3.1555   1
  -5  -1   4 379.174 22.0287   1
  -5  -1   5  125.51 8.23614   1
  -5  -1   6 215.143 12.6247   1
  -5  -1   7 344.526 34.4995   1
  -5  -1   8 160.863 15.8872   1
  -5  -1   9 359.361 21.3114   1
  -5  -1  10 88.4263 6.48369   1
  -5  -1  11 135.256 8.92024   1
  -5  -1  12 7.86549 1.35506   1
  -5  -1  13 311.527 28.0477   1
  -5  -1  14 2.29917 2.33979   1
  -5   0   1 103.127 5.25699   1
  -5   0   2 3.19661 0.51668   1
  -5   0   3  33.205 1.71192   1
  -5   0   4 309.434 15.2925   1
  -5   0   5 201.512 10.1928   1
  -5   0   6 970.946  50.989   1
  -5   0   7 102.311  13.736   1
  -5   0   8 482.429 24.6797   1
  -5   0   9 82.6016 4.96802   1
  -5   0  10  297.55 17.6658   1
  -5   0  11 73.0597 4.44824   1
  -5   0  12 209.722 19.7053   1
  -5   0  13 15.9396 1.82039   1
  -5   0  14 53.8597 13.5721   1
  -5   1   0 34.1689 1.97376   1
  -5   1   1 723.564 30.8907   1
  -5   1   2 1.59228 1.02051   1
  -5   1   3 1018.99 42.8171   1
  -5   1   4 10.8326 0.79067   1
  -5   1   5 129.464 11.8008   1
  -5   1   6 178.244 9.80303   1
  -5   1   7 188.188 14.8745   1
  -5   1   8 226.843 14.8834   1
  -5   1   9 481.914 33.5902   1
  -5   1  10 207.451 13.8865   1
  -5   1  11 110.361 6.40931   1
  -5   1  12 189.318 14.9846   1
  -5   1  13 2.03122 1.16823   1
  -5   2   0 632.169 24.2473   1
  -5   2   1 17.0964 1.03121   1
  -5   2   2 49.3903 3.02817   1
  -5   2   4 282.664 25.1532   1
  -5   2   5 378.996 18.6201   1
  -5   2   6 443.952 20.5386   1
  -5   2   7 676.241 33.5114   1
  -5   2   8 2.41337 0.63433   1
  -5   2   9 647.599 28.8916   1
  -5   2  10 41.5901 2.51811   1
  -5   2  11  180.46 9.51999   1
  -5   2  12 7.37666 1.33064   1
  -5   2  13 16.4876 2.65144   1
  -5   3   0 1558.66 55.0374   1
  -5   3   1 341.318 16.8381   1
  -5   3   2 1978.18 95.5522   1
  -5   3   3 6.04207 0.72263   1
  -5   3   4 33.0125  3.6053   1
  -5   3   5 200.483 11.3896   1
  -5   3   6 188.255 9.33493   1
  -5   3   7 62.9049 3.21055   1
  -5   3   8  815.89 38.1174   1
  -5   3   9 8.12508 1.36372   1
  -5   3  10 182.946  10.081   1
  -5   3  11 75.8427  5.0886   1
  -5   3  12 5.91751  1.3265   1
  -5   4   0 46.3891 3.51124   1
  -5   4   1 4.33081 0.54886   1
  -5   4   2 53.6687 2.72755   1
  -5   4   3 1051.46 43.1429   1
  -5   4   4 615.778 26.5433   1
  -5   4   5 1028.53 70.5753   1
  -5   4   6  461.52 19.3645   1
  -5   4   7 1.74491 0.52208   1
  -5   4   8 141.382 6.54903   1
  -5   4   9 15.3759 1.38748   1
  -5   4  10 41.3141 2.91313   1
  -5   4  11 75.8157 5.22963   1
  -5   5   0 125.469  5.5315   1
  -5   5   1  232.12 10.3763   1
  -5   5   2  79.954 3.63768   1
  -5   5   3 628.299 27.0702   1
  -5   5   4 8.19221 1.01774   1
  -5   5   5 866.488 46.4165   1
  -5   5   6 1.60912  0.6024   1
  -5   5   7 206.577 10.0022   1
  -5   5   8 24.0029 1.89341   1
  -5   5   9 13.0453 1.37118   1
  -5   5  10 70.2141  8.1045   1
  -5   6   0 60.4774 3.09565   1
  -5   6   1 20.1103 2.28149   1
  -5   6   2  328.67 14.9482   1
  -5   6   3 72.1524 4.87509   1
  -5   6   4 586.065 30.2428   1
  -5   6   5 80.9733 5.13953   1
  -5   6   6 106.842 10.5962   1
  -5   6   7 110.074  6.8891   1
  -5   6   8  24.895 4.90727   1
  -5   6   9 65.3753 4.65773   1
  -5   7   0 585.354 27.9325   1
  -5   7   1 444.148 30.7379   1
  -5   7   2 391.188 21.0164   1
  -5   7   3 2.41883 0.79812   1
  -5   7   4 25.2732  2.2077   1
  -5   7   5 1.10141 0.94587   1
  -5   7   6 62.8778  5.5263   1
  -5   7   7 53.5305 3.94931   1
  -5   8   0 11.6246 1.30065   1
  -5   8   1 543.669 49.2771   1
  -5   8   2 0.45122 0.78863   1
  -5   8   3 162.305 8.70232   1
  -5   8   4 1.72954 1.23087   1
  -5   8   5 20.8329 4.32593   1
  -5   9   0 129.062 7.09126   1
  -5   9   1 56.8309 5.09259   1
  -5   9   2 79.0632 4.72169   1
  -4  -8   4 139.597  8.8511   1
  -4  -8   5  35.347 3.35229   1
  -4  -8   6 48.5631 9.92549   1
  -4  -8   7 15.8466 1.68451   1
  -4  -7   1  179.37 11.9907   1
  -4  -7   2 62.1881 4.83021   1
  -4  -7   3 319.022 21.7586   1
  -4  -7   4 7.22048  1.1454   1
  -4  -7   5 286.007 26.9635   1
  -4  -7   6 34.4216  2.5459   1
  -4  -7   7 108.839  9.1484   1
  -4  -7   8 67.4393 5.17478   1
  -4  -7   9 46.8767 3.83611   1
  -4  -7  10 37.2273 2.78266   1
  -4  -7  11 92.6067 7.51435   1
  -4  -6   1 215.523 17.9983   1
  -4  -6   2 305.034 19.0759   1
  -4  -6   3 21.6631 2.27926   1
  -4  -6   4 19.7638  1.3913   1
  -4  -6   5 12.8445 1.06581   1
  -4  -6   6 60.7081 3.30727   1
  -4  -6   7 329.443 17.9658   1
  -4  -6   8  153.55 8.85989   1
  -4  -6   9 393.286  21.259   1
  -4  -6  10 9.60646 1.68554   1
  -4  -6  11 140.089 13.4776   1
  -4  -6  12 17.8347 3.39259   1
  -4  -6  13 127.026  13.965   1
  -4  -5   1 147.643 8.50782   1
  -4  -5   2 86.6959 5.00037   1
  -4  -5   3 27.9963  5.7383   1
  -4  -5   4 968.527 43.4511   1
  -4  -5   5 11.6827 1.80409   1
  -4  -5   6 425.798 20.1585   1
  -4  -5   7 44.4584 2.85646   1
  -4  -5   8 59.9688 4.05731   1
  -4  -5   9 101.646 7.43354   1
  -4  -5  10 214.999 14.9054   1
  -4  -5  11 51.8325 4.28463   1
  -4  -5  12 402.144 38.7741   1
  -4  -5  13 102.074 11.3737   1
  -4  -5  14 57.9241 7.33688   1
  -4  -4   1 1064.36 50.5825   1
  -4  -4   2 75.7952 7.08824   1
  -4  -4   3 54.3287 5.29707   1
  -4  -4   4 0.84309 0.44567   1
  -4  -4   5 29.9302 1.72294   1
  -4  -4   6 63.6984 3.31023   1
  -4  -4   7  659.62 33.7144   1
  -4  -4   8 377.556 24.8223   1
  -4  -4   9 286.422 19.2393   1
  -4  -4  10  761.30 47.0499   1
  -4  -4  11 10.0191 2.49624   1
  -4  -4  12 396.757 37.5671   1
  -4  -4  13 4.81097 2.21043   1
  -4  -4  14 66.8291 8.08147   1
  -4  -3   1 390.388 20.2814   1
  -4  -3   2 542.675  37.179   1
  -4  -3   3 2298.44 142.063   1
  -4  -3   4 178.039 10.1874   1
  -4  -3   5 237.952 14.5864   1
  -4  -3   6 66.3226 3.86722   1
  -4  -3   7 11.6657 6.16902   1
  -4  -3   8 29.8274 2.73003   1
  -4  -3   9 951.258 50.6126   1
  -4  -3  10 4.68751 1.41931   1
  -4  -3  11 984.295 67.4882   1
  -4  -3  12 76.4297 8.65332   1
  -4  -3  13 77.0928 9.77736   1
  -4  -3  14 113.815 12.4804   1
  -4  -3  15 2.02734 2.21314   1
  -4  -2   1 14.4176 0.78612   1
  -4  -2   2 187.679 14.2361   1
  -4  -2   3 6.64754 0.78484   1
  -4  -2   4 591.736 21.8762   1
  -4  -2   5 144.077  11.362   1
  -4  -2   6 1723.26 84.2385   1
  -4  -2   7 318.959 18.2758   1
  -4  -2   8 453.485 27.5463   1
  -4  -2   9 535.755 39.1814   1
  -4  -2  10 24.0926 2.18269   1
  -4  -2  11 261.248  15.584   1
  -4  -2  12 52.5602 4.19455   1
  -4  -2  13 64.4749 5.79403   1
  -4  -2  14 53.7846 6.82838   1
  -4  -2  15 83.7985 9.87249   1
  -4  -1   1 66.5866  3.6558   1
  -4  -1   2 54.0395 2.78368   1
  -4  -1   3 255.037 11.8519   1
  -4  -1   4  811.53 45.2532   1
  -4  -1   5 438.086 24.7239   1
  -4  -1   6 2280.51 153.545   1
  -4  -1   7  106.49 8.31184   1
  -4  -1   8 1043.87  66.032   1
  -4  -1   9 12.5472 1.11619   1
  -4  -1  10 43.5961 3.56864   1
  -4  -1  11-0.48129 1.35566   1
  -4  -1  12 113.445 10.1556   1
  -4  -1  13 25.2106 2.77551   1
  -4  -1  14 289.375 21.4891   1
  -4  -1  15 52.2714 6.99931   1
  -4   0   1 6.97354  0.6901   1
  -4   0   2 1.16693 0.60399   1
  -4   0   3 62.2418 3.92019   1
  -4   0   4 0.04709 0.57812   1
  -4   0   5 2926.33 198.473   1
  -4   0   6 249.126 49.2508   1
  -4   0   7 2243.45 107.954   1
  -4   0   8 335.271 18.2488   1
  -4   0   9 156.376 10.7426   1
  -4   0  10 63.8058 3.81535   1
  -4   0  11  14.205  1.3524   1
  -4   0  12 37.2625 2.62467   1
  -4   0  13 58.1209 3.97207   1
  -4   0  14 191.608 15.6765   1
  -4   0  15 33.1285 3.70238   1
  -4   1   0 1334.71  51.543   1
  -4   1   1  445.72 19.7169   1
  -4   1   2 1844.94 83.6525   1
  -4   1   3 917.631 38.9275   1
  -4   1   4 370.091  15.161   1
  -4   1   5 607.149 25.2008   1
  -4   1   6 100.525 5.78142   1
  -4   1   7 344.682 16.0106   1
  -4   1   8 228.907 9.97287   1
  -4   1   9 355.394 15.1927   1
  -4   1  10 52.6983  2.8562   1
  -4   1  11 382.251 21.1238   1
  -4   1  12 1.52331 0.89436   1
  -4   1  13 100.483 15.4183   1
  -4   1  14 12.1543 1.95104   1
  -4   2   0 364.418 15.1783   1
  -4   2   1 835.172 46.0116   1
  -4   2   2 6448.61 285.659   1
  -4   2   3  588.12 25.9771   1
  -4   2   4 1925.92 68.3863   1
  -4   2   5 7.35073 0.69807   1
  -4   2   6 9.01742 0.90761   1
  -4   2   7 84.6342 3.65312   1
  -4   2   8 241.855 10.5681   1
  -4   2   9 9.83528  0.8059   1
  -4   2  10 718.735 31.0535   1
  -4   2  11 43.6512 2.89118   1
  -4   2  12 124.375 7.71107   1
  -4   2  13 118.496 8.61061   1
  -4   2  14 5.67881 1.39371   1
  -4   3   0 65.2759 6.24418   1
  -4   3   1 1522.46 57.0025   1
  -4   3   2 237.973 9.87326   1
  -4   3   3 951.386 43.3874   1
  -4   3   4 302.339  11.264   1
  -4   3   5 927.241 35.0172   1
  -4   3   6  63.612 2.81478   1
  -4   3   7 197.319 8.57626   1
  -4   3   8 115.477 4.95521   1
  -4   3   9 0.62469 0.85264   1
  -4   3  10 313.165 14.8427   1
  -4   3  11 30.6514 1.99019   1
  -4   3  12 175.866 23.5628   1
  -4   3  13 25.5202 3.97613   1
  -4   4   0  978.18 35.1172   1
  -4   4   1 1122.79 40.9421   1
  -4   4   2 369.697 17.9063   1
  -4   4   3 304.065  13.344   1
  -4   4   4 18.1126 1.16525   1
  -4   4   5 403.635  17.121   1
  -4   4   6  8.8691 0.82626   1
  -4   4   7  645.38 26.8706   1
  -4   4   8 62.9152 4.05964   1
  -4   4   9 115.233 5.41709   1
  -4   4  10  21.961 3.14455   1
  -4   4  11  44.435 3.45116   1
  -4   4  12 162.791 15.5171   1
  -4   5   0 507.245 20.3022   1
  -4   5   1 18.9055 1.11475   1
  -4   5   2 89.9914 4.22563   1
  -4   5   3 16.0353 0.97218   1
  -4   5   4 871.078 37.0431   1
  -4   5   5 6.44219  0.7582   1
  -4   5   6 493.868 30.8571   1
  -4   5   7 77.6359 4.02366   1
  -4   5   8 32.6726 3.17388   1
  -4   5   9 129.191 9.23941   1
  -4   5  10 41.3535 2.89387   1
  -4   5  11 81.1008 6.67817   1
  -4   6   0 187.476 7.59413   1
  -4   6   1 611.065 24.8449   1
  -4   6   2 199.973 14.4667   1
  -4   6   3 208.761 10.9979   1
  -4   6   4  166.11 7.43886   1
  -4   6   5 8.04301 0.86084   1
  -4   6   6 193.062 12.1522   1
  -4   6   7 50.4296 6.46356   1
  -4   6   8 171.885  10.361   1
  -4   6   9 11.7617 2.35033   1
  -4   6  10 198.496 12.0975   1
  -4   7   0 27.3558  1.4355   1
  -4   7   1 208.471 9.28373   1
  -4   7   2 6.41538 1.15221   1
  -4   7   3 316.014 14.4224   1
  -4   7   4 52.1361   3.627   1
  -4   7   5 141.127 7.55608   1
  -4   7   6 7.62816 1.15291   1
  -4   7   7 94.8783 10.0113   1
  -4   7   8 132.105 9.02048   1
  -4   8   0 750.183 31.9611   1
  -4   8   1 28.0037 4.04221   1
  -4   8   2 169.548 11.3492   1
  -4   8   3 11.0407 1.38973   1
  -4   8   4  5.0165 1.01662   1
  -4   8   5 66.3283 8.07985   1
  -4   8   6 73.0661 4.47077   1
  -4   9   0 158.822 7.71452   1
  -4   9   1 40.7782 2.73502   1
  -4   9   2 79.4324 7.05829   1
  -4   9   3  10.027 1.34486   1
  -4   9   4 106.565 6.12062   1
  -4  10   0 4.36557 1.05992   1
  -3  -9   5 65.9624 4.46351   1
  -3  -9   6 69.3685 4.06394   1
  -3  -8   1 59.3296 7.51822   1
  -3  -8   2   37.53 4.09577   1
  -3  -8   3 182.983 14.5131   1
  -3  -8   4  7.3283 1.43809   1
  -3  -8   5 299.819 14.8856   1
  -3  -8   6 10.4406 1.17311   1
  -3  -8   7 156.274 10.7944   1
  -3  -8   8 20.0261 2.15505   1
  -3  -8   9 73.9706 10.5183   1
  -3  -8  10 49.6773 3.44261   1
  -3  -8  11 169.598 19.6652   1
  -3  -7   1 8.18492 1.50017   1
  -3  -7   2 161.385 25.8346   1
  -3  -7   3  63.267 4.33631   1
  -3  -7   4  101.69 5.63089   1
  -3  -7   5 61.8493 3.12596   1
  -3  -7   6 109.788 5.23373   1
  -3  -7   7 291.057 18.0954   1
  -3  -7   8 177.328 11.1217   1
  -3  -7   9 415.616 26.1909   1
  -3  -7  10 86.5079  5.6037   1
  -3  -7  11 125.741 8.94006   1
  -3  -7  12   0.235 1.14846   1
  -3  -7  13 77.6873 9.52289   1
  -3  -6   1  144.32 8.07728   1
  -3  -6   2 2.42819 0.60837   1
  -3  -6   3 0.57034  0.4848   1
  -3  -6   4 20.2699 2.35128   1
  -3  -6   5 36.9462 1.95013   1
  -3  -6   6 1182.20 46.8804   1
  -3  -6   7 29.3648 1.80421   1
  -3  -6   8 1534.91 71.0936   1
  -3  -6   9 86.7799 4.57349   1
  -3  -6  10 217.077 12.2057   1
  -3  -6  11 42.8235 3.56235   1
  -3  -6  12 9.99142 1.61765   1
  -3  -6  13 0.69981 1.06741   1
  -3  -6  14 47.7734  6.9127   1
  -3  -5   1 1177.61 50.4721   1
  -3  -5   2 198.107 12.6318   1
  -3  -5   3 518.063 27.3168   1
  -3  -5   4 16.6688 1.49328   1
  -3  -5   5  19.767 1.16159   1
  -3  -5   6 89.9422  4.2041   1
  -3  -5   7  429.40 39.1635   1
  -3  -5   8 417.885 27.9767   1
  -3  -5   9 894.603   54.18   1
  -3  -5  10 317.271 17.4833   1
  -3  -5  11 62.3825 4.12325   1
  -3  -5  12 155.635 9.53222   1
  -3  -5  13 23.0297  2.0233   1
  -3  -5  14 92.5605 6.10625   1
  -3  -5  15 0.02118 1.82132   1
  -3  -4   1 100.288  4.9759   1
  -3  -4   2 244.941 11.6745   1
  -3  -4   3 1216.80 87.6651   1
  -3  -4   4 1749.19 71.6081   1
  -3  -4   5 2959.61  158.28   1
  -3  -4   6 317.303  15.222   1
  -3  -4   7 156.037 7.67263   1
  -3  -4   8 210.818 9.77068   1
  -3  -4   9 73.6715 3.58604   1
  -3  -4  10 13.4581 1.58495   1
  -3  -4  11 775.248  41.634   1
  -3  -4  12 75.0554 10.0786   1
  -3  -4  13 315.608 18.4846   1
  -3  -4  14 32.1733 4.26283   1
  -3  -4  15 12.9604 1.83475   1
  -3  -3   1 2.41693 0.42184   1
  -3  -3   2 2477.98 115.416   1
  -3  -3   3 1.02039  0.2831   1
  -3  -3   4 1598.43 112.414   1
  -3  -3   5 154.076 6.20931   1
  -3  -3   6 1029.16 38.0872   1
  -3  -3   7  14.755 1.90225   1
  -3  -3   8 621.572 46.7259   1
  -3  -3   9 11.1648 0.90653   1
  -3  -3  10 75.9045 4.10543   1
  -3  -3  11 499.485  38.745   1
  -3  -3  12 50.9668 5.87479   1
  -3  -3  13 358.017  20.692   1
  -3  -3  14 86.6067 11.2258   1
  -3  -3  15 39.8093 3.97795   1
  -3  -2   1 512.185 22.0348   1
  -3  -2   2  406.28 16.5093   1
  -3  -2   3 2681.70 123.834   1
  -3  -2   4 1985.44 90.4494   1
  -3  -2   5 1666.14 162.905   1
  -3  -2   6 1015.14 81.9888   1
  -3  -2   7 5.53635  1.6838   1
  -3  -2   8 708.656 102.439   1
  -3  -2   9 4.36513 0.62257   1
  -3  -2  10 234.187 11.0221   1
  -3  -2  11 84.9678 6.47495   1
  -3  -2  12 125.288 10.4928   1
  -3  -2  13 26.1805 3.37989   1
  -3  -2  14 326.173 21.5098   1
  -3  -2  15 124.182 9.00711   1
  -3  -2  16 206.824 44.3876   1
  -3  -1   1 4823.93 248.337   1
  -3  -1   2 327.511 15.8817   1
  -3  -1   3 143.812 6.49618   1
  -3  -1   4  143.90 12.8451   1
  -3  -1   5 382.559 22.2338   1
  -3  -1   7 2720.33  129.36   1
  -3  -1   8 20.0593 1.60275   1
  -3  -1   9 614.094 27.9287   1
  -3  -1  10 131.656 6.86495   1
  -3  -1  11 16.1728 1.64192   1
  -3  -1  12 182.264 9.86195   1
  -3  -1  13 108.365 6.93852   1
  -3  -1  14 161.884 9.87937   1
  -3  -1  15 103.852 6.69087   1
  -3   0   1 16.5793 1.54598   1
  -3   0   2 1654.67 142.834   1
  -3   0   3 310.817 17.8188   1
  -3   0   4 3226.63 225.723   1
  -3   0   5 446.353 25.7775   1
  -3   0   6 254.962 13.4662   1
  -3   0   7 711.214  42.507   1
  -3   0   8 17.1708 1.16945   1
  -3   0   9 305.384 16.5699   1
  -3   0  10 202.646  8.9159   1
  -3   0  11  223.29 9.86744   1
  -3   0  12 16.9089 1.28046   1
  -3   0  13 407.897  25.044   1
  -3   0  14 29.2427 4.26439   1
  -3   0  15 223.202 13.4824   1
  -3   1   0 3406.41 165.262   1
  -3   1   1 991.953   46.58   1
  -3   1   2 1160.47 83.0368   1
  -3   1   3 23.6185 1.34972   1
  -3   1   4  819.93 34.9348   1
  -3   1   5 137.875 5.52332   1
  -3   1   6 643.776 28.1411   1
  -3   1   7 158.349 6.57473   1
  -3   1   8 301.219 13.0258   1
  -3   1   9 73.6151 4.20986   1
  -3   1  10 662.021 27.3973   1
  -3   1  11  216.29  10.532   1
  -3   1  12 485.335 22.3413   1
  -3   1  13 69.7697 3.85033   1
  -3   1  14 47.0289 3.51864   1
  -3   1  15 33.9813 2.88869   1
  -3   2   0 44.7165 3.06487   1
  -3   2   1 2957.52 132.401   1
  -3   2   2  15.479 0.93765   1
  -3   2   3 2251.25 97.0141   1
  -3   2   4 1.15731 0.27729   1
  -3   2   5  170.25  6.6942   1
  -3   2   6 48.0523 2.01784   1
  -3   2   7 171.558 6.99182   1
  -3   2   8 394.567 20.8526   1
  -3   2   9 432.248 19.9802   1
  -3   2  10  620.15 32.0079   1
  -3   2  11 99.0415 5.07135   1
  -3   2  12 376.286 20.5785   1
  -3   2  13 5.46816 1.23433   1
  -3   2  14 33.7649 3.16471   1
  -3   3   0 3056.82 163.405   1
  -3   3   1 2211.76 132.455   1
  -3   3   2 2042.89 102.265   1
  -3   3   3 579.338 22.0501   1
  -3   3   4 3.69075 0.50202   1
  -3   3   5 12.4543 0.67743   1
  -3   3   6  2.5464 0.50341   1
  -3   3   7 474.945 21.8634   1
  -3   3   8 74.1939 3.79586   1
  -3   3   9 1030.41 50.4981   1
  -3   3  10 0.97557 0.74962   1
  -3   3  11 357.386 16.8765   1
  -3   3  12 42.6692 3.76956   1
  -3   3  13 42.8395 3.35326   1
  -3   4   0 29.4439  1.7583   1
  -3   4   1 9.13362 0.89309   1
  -3   4   2 305.487 16.2362   1
  -3   4   3 152.493 6.34074   1
  -3   4   4 1687.37 64.4367   1
  -3   4   5 2.95328 0.38862   1
  -3   4   6 1173.47 43.6709   1
  -3   4   7 373.866 17.4039   1
  -3   4   8 166.641 8.91164   1
  -3   4   9 282.534 18.8437   1
  -3   4  10 31.6208 3.45577   1
  -3   4  11 33.0343 2.71342   1
  -3   4  12 73.1215 7.82683   1
  -3   5   0 19.3308   1.024   1
  -3   5   1 29.2517 1.32413   1
  -3   5   2 1.51776 0.36008   1
  -3   5   3 40.8468 2.10798   1
  -3   5   4 536.277 22.4769   1
  -3   5   5 574.022 22.5864   1
  -3   5   6 921.345 48.8569   1
  -3   5   7 295.106 13.5706   1
  -3   5   8  239.35 19.3055   1
  -3   5   9 6.08708 1.17938   1
  -3   5  10 50.8726 4.36397   1
  -3   5  11 8.11077 2.40815   1
  -3   6   0 26.7596 1.83711   1
  -3   6   1 7.73034 0.58299   1
  -3   6   2 28.8615 1.35337   1
  -3   6   3 535.336 20.6942   1
  -3   6   4 59.7704 3.63136   1
  -3   6   5 1167.47 56.6816   1
  -3   6   6 21.5529 1.34717   1
  -3   6   7 323.159 19.7324   1
  -3   6   8 79.4502 4.52073   1
  -3   6   9 54.4559 3.37365   1
  -3   6  10 9.31439 1.95205   1
  -3   7   0 1232.21 51.1188   1
  -3   7   1  24.897 1.31018   1
  -3   7   2 760.255 28.5114   1
  -3   7   3  255.21 23.1209   1
  -3   7   4 27.5709 1.58019   1
  -3   7   5 90.2004  4.9977   1
  -3   7   6 50.4426 3.10793   1
  -3   7   7 55.9841 3.46192   1
  -3   7   8 169.185 11.9032   1
  -3   7   9 127.359 7.18264   1
  -3   8   0 204.577 14.2389   1
  -3   8   1 473.312 20.4471   1
  -3   8   2 703.193  27.925   1
  -3   8   3 193.985 9.11905   1
  -3   8   4 265.745 14.8038   1
  -3   8   5 3.92251 0.97421   1
  -3   8   6 50.9082 3.30995   1
  -3   8   7 18.0643 1.72999   1
  -3   9   0-0.07421  1.7029   1
  -3   9   1 256.859 11.9046   1
  -3   9   2 14.0743  1.2637   1
  -3   9   3 176.836 10.3622   1
  -3   9   4 11.0457 1.39313   1
  -3   9   5 148.107 12.6699   1
  -3  10   0  114.84 6.24596   1
  -3  10   1 55.7053  3.4434   1
  -2  -9   1  26.866  2.0394   1
  -2  -9   2 2.04067 0.85079   1
  -2  -9   3  206.87 10.6445   1
  -2  -9   4 16.2203 1.51916   1
  -2  -9   5 341.161  28.823   1
  -2  -9   6  4.8574 1.13128   1
  -2  -9   7 245.524 12.4492   1
  -2  -9   8 0.95071 0.83555   1
  -2  -9   9 129.752 8.60565   1
  -2  -9  10 1.05835  0.9908   1
  -2  -8   1-0.81118 2.27561   1
  -2  -8   2 49.1526 2.66594   1
  -2  -8   3 1.66194 0.77483   1
  -2  -8   4 377.636 18.2941   1
  -2  -8   5 128.128 6.68434   1
  -2  -8   6 688.564 35.3408   1
  -2  -8   7 264.771  20.049   1
  -2  -8   8 191.225 9.70184   1
  -2  -8   9 112.552  5.9556   1
  -2  -8  10 2.79361 0.92384   1
  -2  -8  11 62.2836 16.1052   1
  -2  -8  12 8.94917 1.62535   1
  -2  -8  13 76.2059 6.06529   1
  -2  -7   1 265.706 12.0143   1
  -2  -7   2 494.907 25.6827   1
  -2  -7   3 365.859 15.1761   1
  -2  -7   4 410.021   18.00   1
  -2  -7   5 33.6992 2.88226   1
  -2  -7   6 214.955 13.2081   1
  -2  -7   7  4.1187 0.74395   1
  -2  -7   8 543.068 23.4296   1
  -2  -7   9 27.3189 1.83548   1
  -2  -7  10 357.833 17.4752   1
  -2  -7  11  3.2359 0.80941   1
  -2  -7  12 44.7248 3.79681   1
  -2  -7  13 36.0723 3.31057   1
  -2  -7  14 33.9615 3.33603   1
  -2  -6   1 767.588 36.8704   1
  -2  -6   2 40.1532 2.32116   1
  -2  -6   3 969.815 37.7503   1
  -2  -6   4 1.21326 0.76591   1
  -2  -6   5 743.522 44.3118   1
  -2  -6   6 65.6093 4.12208   1
  -2  -6   7 464.789 21.9268   1
  -2  -6   8 305.351 14.4829   1
  -2  -6   9 192.966 8.78274   1
  -2  -6  10  176.20 11.6521   1
  -2  -6  11  95.877 6.09228   1
  -2  -6  12 24.8639 2.75446   1
  -2  -6  13  24.065  2.4601   1
  -2  -6  14 144.619 10.2872   1
  -2  -6  15  6.1777  1.5135   1
  -2  -5   1 334.904 13.8189   1
  -2  -5   2 524.648 23.1748   1
  -2  -5   3 141.324 6.34536   1
  -2  -5   4 352.314 14.6639   1
  -2  -5   5 640.727 27.2268   1
  -2  -5   6 553.649 22.2808   1
  -2  -5   7  831.06 36.9812   1
  -2  -5   8 80.9051 3.65101   1
  -2  -5   9 229.152 9.85638   1
  -2  -5  10 26.7588 1.74271   1
  -2  -5  11 227.098 11.7193   1
  -2  -5  12 3.42082 0.70791   1
  -2  -5  13 434.857 23.5303   1
  -2  -5  14 3.55236 1.21759   1
  -2  -5  15 196.171 13.6641   1
  -2  -4   1 463.108 21.5807   1
  -2  -4   2 2441.09 139.493   1
  -2  -4   3 56.0219 3.36708   1
  -2  -4   4 1247.04 50.8068   1
  -2  -4   5  10.849 0.99297   1
  -2  -4   6 276.461 13.0327   1
  -2  -4   7 10.3625 0.65341   1
  -2  -4   8 478.637 21.3722   1
  -2  -4   9 8.75644 1.05512   1
  -2  -4  10 453.413 29.3554   1
  -2  -4  11 388.685 20.8618   1
  -2  -4  12 166.655 8.80245   1
  -2  -4  13 613.056  32.033   1
  -2  -4  14 85.6751 6.48381   1
  -2  -4  15  92.932 6.84204   1
  -2  -4  16 21.4425 4.12056   1
  -2  -3   1 1749.16  70.297   1
  -2  -3   2 503.622 20.4882   1
  -2  -3   3 4853.20 201.511   1
  -2  -3   4 1544.07 73.8193   1
  -2  -3   5 1025.40 47.0805   1
  -2  -3   6 84.8158  6.5899   1
  -2  -3   7 90.9996 4.42784   1
  -2  -3   8 5.82845 0.48786   1
  -2  -3   9 40.8462 3.94695   1
  -2  -3  10 927.092 43.2854   1
  -2  -3  11 334.482 18.4837   1
  -2  -3  12 1094.42 49.6389   1
  -2  -3  13 9.52354 1.01361   1
  -2  -3  14 219.512 11.5572   1
  -2  -3  15 74.1709 12.1557   1
  -2  -3  16 56.6475 4.66878   1
  -2  -2   1 1584.51 81.5865   1
  -2  -2   2 1357.59 59.8588   1
  -2  -2   3 2810.68 139.564   1
  -2  -2   4 190.425 8.89828   1
  -2  -2   5  709.71 31.8699   1
  -2  -2   6 5.27939 0.44254   1
  -2  -2   7  926.24 40.8008   1
  -2  -2   8 1.40726 0.32873   1
  -2  -2   9 889.488 40.2228   1
  -2  -2  10 179.088  10.561   1
  -2  -2  11 468.799 23.3629   1
  -2  -2  12 311.711 17.5154   1
  -2  -2  13 218.832 15.1537   1
  -2  -2  14 42.6656  2.5002   1
  -2  -2  15 82.6997 6.70192   1
  -2  -2  16 27.2411 2.79175   1
  -2  -1   1  14.887 1.07562   1
  -2  -1   2 129.533 6.66682   1
  -2  -1   3 1.93136 0.75003   1
  -2  -1   4 404.758 43.0947   1
  -2  -1   6 2428.08 111.923   1
  -2  -1   7 1123.64 53.2618   1
  -2  -1   8 726.763 45.5399   1
  -2  -1   9 1389.92 57.4208   1
  -2  -1  10 171.679 7.58919   1
  -2  -1  11 199.503 10.9596   1
  -2  -1  12 34.4623 2.55851   1
  -2  -1  13 131.369 6.76071   1
  -2  -1  14 1.17375  0.7321   1
  -2  -1  15 315.626 21.1201   1
  -2  -1  16  0.9965 1.04022   1
  -2   0   1 2474.95 121.521   1
  -2   0   2 123.099 5.55792   1
  -2   0   3 1475.14 170.712   1
  -2   0   4 629.435 38.2446   1
  -2   0   5 13.3147 1.21691   1
  -2   0   6 3750.27  197.70   1
  -2   0   7  942.20 36.2599   1
  -2   0   8 3664.45 126.428   1
  -2   0   9 12.1973 1.24158   1
  -2   0  10 273.644 13.8668   1
  -2   0  11 176.445 9.62704   1
  -2   0  12 74.7552  5.0517   1
  -2   0  13 14.6239 1.20457   1
  -2   0  14 176.206 10.6877   1
  -2   0  15 27.3284 3.72171   1
  -2   1   0 218.807 12.2782   1
  -2   1   1 889.991  45.498   1
  -2   1   2 12.5345 1.28685   1
  -2   1   3 1858.21 84.2155   1
  -2   1   4 4.78411 0.38223   1
  -2   1   5 1494.33 64.1641   1
  -2   1   6 276.869 11.1686   1
  -2   1   7  579.75 22.8686   1
  -2   1   8 625.664 25.8977   1
  -2   1   9 930.936 39.8425   1
  -2   1  10 259.258 13.4988   1
  -2   1  11  386.72 18.5633   1
  -2   1  12  151.03 9.76561   1
  -2   1  13 17.7691  3.2741   1
  -2   1  14  109.46 12.2989   1
  -2   1  15 1.44293  1.5447   1
  -2   2   0 96.7822 5.51194   1
  -2   2   1  267.61 18.5261   1
  -2   2   2 6125.82 268.133   1
  -2   2   3 3140.22 145.958   1
  -2   2   4 2214.44 144.404   1
  -2   2   5 1827.88 67.4383   1
  -2   2   6 1.59667 0.30871   1
  -2   2   7 277.429 12.2209   1
  -2   2   8 1.29908 0.59715   1
  -2   2   9 401.095 18.1882   1
  -2   2  10 28.6912 2.37738   1
  -2   2  11 719.766 52.4759   1
  -2   2  12 17.3747  1.3658   1
  -2   2  13 151.446 9.27444   1
  -2   2  14 3.13878 1.21844   1
  -2   3   0 88.0247 4.23898   1
  -2   3   1   33.44 1.84723   1
  -2   3   2 1483.58 72.4739   1
  -2   3   3 110.891 5.22228   1
  -2   3   4 4281.71 166.701   1
  -2   3   5 221.887 9.16998   1
  -2   3   6 1226.42 48.2607   1
  -2   3   7 63.8596 2.81832   1
  -2   3   8 313.795 13.6294   1
  -2   3   9 289.509 13.6298   1
  -2   3  10 206.053 10.0209   1
  -2   3  11 79.3132 4.72213   1
  -2   3  12 82.3349 4.96333   1
  -2   3  13 37.7556 3.08437   1
  -2   4   0 39.8605  1.9982   1
  -2   4   1 4260.23 155.997   1
  -2   4   2  162.33  7.1268   1
  -2   4   3 437.834 18.2515   1
  -2   4   4 775.055 31.9614   1
  -2   4   5 173.685 8.05573   1
  -2   4   6  889.49 51.1658   1
  -2   4   7  635.71 34.9283   1
  -2   4   8 173.012 7.78041   1
  -2   4   9 122.303 6.14243   1
  -2   4  10 33.8182 2.42458   1
  -2   4  11-1.99372 1.68887   1
  -2   4  12 94.5937 6.26629   1
  -2   4  13-1.26491 4.70872   1
  -2   5   0 146.575 7.30599   1
  -2   5   1 315.758 12.1193   1
  -2   5   2 3.39546 0.36188   1
  -2   5   3 578.212 22.7405   1
  -2   5   4 419.296 17.5516   1
  -2   5   5 1125.85 46.0404   1
  -2   5   6 68.4125  3.2283   1
  -2   5   7 735.622 32.3294   1
  -2   5   8 39.5677 4.09705   1
  -2   5   9 100.459 12.3305   1
  -2   5  10 8.43574 1.46172   1
  -2   5  11 13.7579 2.10569   1
  -2   6   0 2219.22  75.357   1
  -2   6   1 39.8521 1.73571   1
  -2   6   2 1094.17 43.5121   1
  -2   6   3 304.376 11.6897   1
  -2   6   4 235.882 9.25711   1
  -2   6   5 315.021 13.4599   1
  -2   6   6 146.269 6.56511   1
  -2   6   7 2.37941 1.01525   1
  -2   6   8 127.104 18.6461   1
  -2   6   9 10.6883 4.30244   1
  -2   6  10  69.538 8.86072   1
  -2   7   0 178.617 7.24658   1
  -2   7   1 53.9751 2.41532   1
  -2   7   2 381.617 24.6901   1
  -2   7   3 676.708  26.507   1
  -2   7   4 219.917 9.52039   1
  -2   7   5  166.10 8.74319   1
  -2   7   6 78.5111 4.45878   1
  -2   7   7 17.0462 4.97396   1
  -2   7   8 123.977 11.3513   1
  -2   7   9 5.57586 1.86452   1
  -2   8   0 291.381 12.9311   1
  -2   8   1 1225.54 44.8512   1
  -2   8   2 5.81024 0.68425   1
  -2   8   3  101.93  6.8313   1
  -2   8   4 60.6306 3.13697   1
  -2   8   5 8.70826 1.01742   1
  -2   8   6 8.00148 1.21844   1
  -2   8   7 116.235 7.98869   1
  -2   9   0 179.796 13.2097   1
  -2   9   1 67.7508 3.82994   1
  -2   9   2 306.574 14.0844   1
  -2   9   3 3.69898 0.89666   1
  -2   9   4 92.7736 4.80822   1
  -2   9   5 39.5149 2.81508   1
  -2  10   0 82.9619 6.06588   1
  -2  10   1 2.49856 0.97612   1
  -1 -10   3 262.121 13.5296   1
  -1 -10   4 68.9645 3.78493   1
  -1 -10   5 241.655 12.3865   1
  -1 -10   6  12.055 1.41927   1
  -1 -10   7 71.0145 4.76198   1
  -1 -10   8 0.73988 0.94566   1
  -1  -9   1 1.46908 0.84363   1
  -1  -9   2 218.411 14.1012   1
  -1  -9   3-0.18583 1.55614   1
  -1  -9   4 354.633 17.9512   1
  -1  -9   5 36.1505 2.17082   1
  -1  -9   6 415.003 23.5089   1
  -1  -9   7 68.2208  8.0654   1
  -1  -9   8 102.295 5.53808   1
  -1  -9   9 10.0675  1.3506   1
  -1  -9  10 2.46713 1.02779   1
  -1  -9  11 62.2989 4.20284   1
  -1  -8   1 91.6267 4.85184   1
  -1  -8   2 36.9192 2.78533   1
  -1  -8   3 619.971 26.6776   1
  -1  -8   4 880.943 45.0341   1
  -1  -8   5 514.587 22.2818   1
  -1  -8   6 528.461 22.5001   1
  -1  -8   7 7.62435 0.81253   1
  -1  -8   8 16.3431 3.67148   1
  -1  -8   9 7.16856 1.10603   1
  -1  -8  10  65.644  4.2102   1
  -1  -8  11 28.0355 2.26941   1
  -1  -8  12 406.843 25.7021   1
  -1  -8  13  16.056 1.69716   1
  -1  -7   1 720.417 29.7244   1
  -1  -7   2 57.3381 2.96111   1
  -1  -7   3  182.47 8.06912   1
  -1  -7   4 2.19816 0.43734   1
  -1  -7   5 283.301  11.244   1
  -1  -7   6 3.02175  0.4978   1
  -1  -7   7 658.919 32.6369   1
  -1  -7   8 39.4448 2.89519   1
  -1  -7   9 271.238 15.2285   1
  -1  -7  10 209.406 10.8196   1
  -1  -7  11 59.6872 3.86642   1
  -1  -7  12 150.445 14.7315   1
  -1  -7  13  110.01 6.70674   1
  -1  -7  14 62.9743 7.33638   1
  -1  -6   1 180.811  8.3907   1
  -1  -6   2 1456.71 83.6719   1
  -1  -6   3 171.858  10.147   1
  -1  -6   4 28.0799 2.20247   1
  -1  -6   5 2.65919 0.36905   1
  -1  -6   6  1.4957  0.3964   1
  -1  -6   7 408.139  15.909   1
  -1  -6   8 362.603 16.6378   1
  -1  -6   9 1351.61 59.4524   1
  -1  -6  10 269.009 13.2274   1
  -1  -6  11 452.362 23.4117   1
  -1  -6  12  6.0146 0.83053   1
  -1  -6  13 73.2288 6.30707   1
  -1  -6  14 21.8879  2.3873   1
  -1  -6  15 124.918 20.4074   1
  -1  -5   1 1048.54 50.9229   1
  -1  -5   2 1831.42 73.7488   1
  -1  -5   3 16.8672 0.86426   1
  -1  -5   4 6.80374 0.65996   1
  -1  -5   5 30.2251 1.54957   1
  -1  -5   6 92.9058 3.79618   1
  -1  -5   7 8.91499 0.53192   1
  -1  -5   8 1483.07 59.9248   1
  -1  -5   9 58.6172 3.82467   1
  -1  -5  10 1272.72 80.6404   1
  -1  -5  11  209.34 9.80591   1
  -1  -5  12 302.302 17.5836   1
  -1  -5  13 104.165 5.22446   1
  -1  -5  14 18.0735 1.83281   1
  -1  -5  15 68.9675 6.81302   1
  -1  -5  16 11.5339 1.74983   1
  -1  -4   1 13.1218 1.09228   1
  -1  -4   2 38.3967 2.34124   1
  -1  -4   3 2800.91 117.435   1
  -1  -4   4 449.266 19.3342   1
  -1  -4   5 3058.65 122.676   1
  -1  -4   6 632.093 32.6552   1
  -1  -4   7 48.6911 2.77061   1
  -1  -4   8 425.209 17.9105   1
  -1  -4   9 6.44654 0.97494   1
  -1  -4  10 484.237 21.7477   1
  -1  -4  11 317.601   15.35   1
  -1  -4  12  682.08 29.8169   1
  -1  -4  13 150.401 7.28905   1
  -1  -4  14 239.303 14.3391   1
  -1  -4  15 2.77714  1.2698   1
  -1  -4  16 24.0137 2.51206   1
  -1  -3   1 75.4802 6.01906   1
  -1  -3   2 35.7842 1.95381   1
  -1  -3   3 262.017 17.8136   1
  -1  -3   4 126.316 5.69829   1
  -1  -3   5 3283.25 142.037   1
  -1  -3   6 1122.65  51.018   1
  -1  -3   7 2250.20 85.0276   1
  -1  -3   8 208.791 9.01915   1
  -1  -3   9 470.408 18.6208   1
  -1  -3  10 157.145 7.82604   1
  -1  -3  11  489.05  20.509   1
  -1  -3  12 226.513  9.8556   1
  -1  -3  13 343.946 15.8161   1
  -1  -3  14 23.6364 2.05561   1
  -1  -3  15 52.2687 9.57432   1
  -1  -3  16 2.33596 1.61772   1
  -1  -2   1 8.45173 0.82641   1
  -1  -2   2 1922.38 86.5591   1
  -1  -2   3 29.0462 2.08643   1
  -1  -2   4 4860.77 236.639   1
  -1  -2   5 448.746 19.7128   1
  -1  -2   6 1918.42 141.024   1
  -1  -2   7 1323.83 53.5581   1
  -1  -2   8 605.042 33.5995   1
  -1  -2   9 412.382 18.0742   1
  -1  -2  10  413.50   17.30   1
  -1  -2  11 80.7893 3.63162   1
  -1  -2  12 122.576 5.44175   1
  -1  -2  13 108.687 5.01723   1
  -1  -2  14 6.45465 0.89761   1
  -1  -2  15 232.744 20.6827   1
  -1  -2  16 0.48174 1.50529   1
  -1  -1   1 4057.15 207.497   1
  -1  -1   2 618.934 31.3565   1
  -1  -1   3 170.294  7.7278   1
  -1  -1   4 138.341 7.37133   1
  -1  -1   5 238.171 12.3001   1
  -1  -1   6 1887.96   88.83   1
  -1  -1   7 1981.88 109.335   1
  -1  -1   8 3098.56 120.816   1
  -1  -1   9 205.429 8.70341   1
  -1  -1  10 764.244  29.568   1
  -1  -1  11 100.077 4.31495   1
  -1  -1  12 11.5221 0.80488   1
  -1  -1  13 23.8525 1.35244   1
  -1  -1  14  88.032 6.30192   1
  -1  -1  16 246.544 18.9756   1
  -1   0   1 3076.65  202.18   1
  -1   0   2 1448.30 64.6297   1
  -1   0   3 4898.63 274.315   1
  -1   0   4 228.921 11.0011   1
  -1   0   5 3160.29 161.898   1
  -1   0   6 1000.42 44.3347   1
  -1   0   7 1053.84 58.5158   1
  -1   0   8 482.663 20.0757   1
  -1   0   9 572.697 22.3128   1
  -1   0  10 4.79419 0.84138   1
  -1   0  11 251.297 11.0812   1
  -1   0  12 15.2582   1.249   1
  -1   0  13 90.4799  6.6028   1
  -1   0  14 375.615 24.5029   1
  -1   0  15 24.0012 4.35669   1
  -1   1   0 4639.60 250.076   1
  -1   1   1 312.096 14.5533   1
  -1   1   2 19.7364 1.72123   1
  -1   1   3 1112.64 51.2186   1
  -1   1   4 2355.22 155.946   1
  -1   1   5 1234.47 74.4303   1
  -1   1   6 2966.58 163.611   1
  -1   1   7  551.66 25.6103   1
  -1   1   8  137.25  6.6624   1
  -1   1   9 263.226 10.3018   1
  -1   1  10 43.4766 2.43629   1
  -1   1  11 368.127 17.7853   1
  -1   1  12 24.7552 3.22452   1
  -1   1  13 358.513 18.5385   1
  -1   1  14 7.75169 1.82911   1
  -1   1  15 82.7024 8.26746   1
  -1   2   0 2134.46 137.237   1
  -1   2   1 3137.75 183.214   1
  -1   2   2 7555.69 400.454   1
  -1   2   3 1420.63  79.297   1
  -1   2   4 3917.33 193.394   1
  -1   2   5 108.652  5.2554   1
  -1   2   6 125.173 5.45322   1
  -1   2   7 1.38379 0.43665   1
  -1   2   8 56.9611 2.49571   1
  -1   2   9 19.9981 1.83276   1
  -1   2  10 640.359 28.7907   1
  -1   2  11 107.571 5.90937   1
  -1   2  12 434.691 20.6465   1
  -1   2  13 282.463  14.524   1
  -1   2  14 35.9287 2.89714   1
  -1   3   0 58.1947 2.94149   1
  -1   3   1 5477.97  269.27   1
  -1   3   2 304.638 14.1834   1
  -1   3   3 4885.99 278.607   1
  -1   3   4 78.2496 4.06749   1
  -1   3   5 379.988 17.7582   1
  -1   3   6 37.2436 1.65534   1
  -1   3   7 28.0128 1.42314   1
  -1   3   8 274.663 12.3963   1
  -1   3   9 169.738 8.67948   1
  -1   3  10 458.533 22.5061   1
  -1   3  11 75.0381   4.482   1
  -1   3  12 260.501 14.0839   1
  -1   3  13 1.52579 1.19539   1
  -1   4   0 1816.78 88.2648   1
  -1   4   1 1117.70 114.433   1
  -1   4   2 354.592 14.8636   1
  -1   4   3 857.804 36.3559   1
  -1   4   4 172.537 7.69411   1
  -1   4   5 408.799 18.9099   1
  -1   4   6 200.741 9.71734   1
  -1   4   7 371.831 17.1349   1
  -1   4   8 1.08155 0.59396   1
  -1   4   9 496.928 23.5432   1
  -1   4  10 29.0324 2.66012   1
  -1   4  11 185.533 15.7699   1
  -1   4  12  33.064 3.41758   1
  -1   5   0 1958.48 79.4116   1
  -1   5   1 27.0359 1.46873   1
  -1   5   2 123.485 5.39884   1
  -1   5   3 47.4788  2.2407   1
  -1   5   4 189.166 8.21849   1
  -1   5   5 68.3425  3.7593   1
  -1   5   6  963.91 38.1814   1
  -1   5   7 222.262 9.70858   1
  -1   5   8 401.693 21.8247   1
  -1   5   9 77.3063 9.77088   1
  -1   5  10 10.1492 1.99416   1
  -1   5  11 58.3388 7.97166   1
  -1   6   0 237.608 9.47155   1
  -1   6   1 12.8606 1.00702   1
  -1   6   2 50.0534 2.23532   1
  -1   6   3 4.07831 0.87662   1
  -1   6   4  83.162 4.17006   1
  -1   6   5 468.141 23.8205   1
  -1   6   6  315.87 14.2775   1
  -1   6   7 98.9054 7.31624   1
  -1   6   8 364.283 36.8386   1
  -1   6   9 2.30377 1.46412   1
  -1   6  10 145.797 11.1008   1
  -1   7   0 547.705 26.9267   1
  -1   7   1 878.729 32.6018   1
  -1   7   2 395.889 15.7838   1
  -1   7   3 445.947 25.8892   1
  -1   7   4 64.1398 3.29734   1
  -1   7   5 131.232 7.99521   1
  -1   7   6 76.0729 4.23879   1
  -1   7   7 120.498 9.47719   1
  -1   7   8  0.9007 2.42881   1
  -1   8   0 5.36525 0.70862   1
  -1   8   1 61.6649 3.06056   1
  -1   8   2 541.169 20.9402   1
  -1   8   3 51.9032 3.45315   1
  -1   8   4 470.665 24.1383   1
  -1   8   5 24.2127 1.91743   1
  -1   8   6 7.33006 1.40415   1
  -1   9   0 97.8614 5.18418   1
  -1   9   1 222.328 11.0402   1
  -1   9   2 155.416 12.5583   1
  -1   9   3 2.48256 0.90807   1
  -1   9   4 195.151 9.33264   1
  -1  10   0 18.2231 1.66941   1
  -1  10   1 42.4921 2.85363   1
   0 -10   1 47.7141 5.63201   1
   0 -10   2 228.477 13.0802   1
   0 -10   3 2.15744 0.99802   1
   0 -10   4 146.415 8.56767   1
   0 -10   5 3.07862 0.98372   1
   0 -10   6 168.505 10.7535   1
   0 -10   7 14.0664 1.28044   1
   0 -10   8 122.038 13.5058   1
   0 -10   9 38.7966 3.07285   1
   0  -9   1 154.461  7.9275   1
   0  -9   2 22.6178 1.50538   1
   0  -9   3 73.9263 5.36978   1
   0  -9   4 105.017 7.30245   1
   0  -9   5 184.389 27.2091   1
   0  -9   6 301.297 14.9222   1
   0  -9   7 118.411 8.99511   1
   0  -9   8 200.832 11.3555   1
   0  -9   9 30.0174 2.10636   1
   0  -9  10  97.568 6.11123   1
   0  -9  11 10.1818 1.42447   1
   0  -9  12 197.788 20.7227   1
   0  -8   1 151.709 6.51003   1
   0  -8   2 5.79499 1.57796   1
   0  -8   3 39.0425 2.62656   1
   0  -8   4 3.00007 1.22942   1
   0  -8   5 448.658 18.4776   1
   0  -8   6 1.34718 0.59741   1
   0  -8   7 948.762 42.8005   1
   0  -8   8 5.78405 0.75248   1
   0  -8   9 367.807 18.2557   1
   0  -8  10 49.2863 3.56559   1
   0  -8  11 67.3396 5.28616   1
   0  -8  12 87.7916 6.61906   1
   0  -8  13 70.0199 6.87869   1
   0  -7   1 13.7736 0.87527   1
   0  -7   2 777.413 40.2606   1
   0  -7   3  75.727 3.78562   1
   0  -7   4 540.257 21.7158   1
   0  -7   5 133.084 5.40623   1
   0  -7   6 117.348 6.82454   1
   0  -7   7 252.742 10.7008   1
   0  -7   8 235.382 10.7513   1
   0  -7   9 633.095 28.4721   1
   0  -7  10 453.688 24.9979   1
   0  -7  11 425.852 26.7563   1
   0  -7  12 23.7433 2.23003   1
   0  -7  13 44.3926  5.2349   1
   0  -7  14 42.2949 3.12946   1
   0  -6   1 320.181 13.9239   1
   0  -6   2 743.812 30.8522   1
   0  -6   3 300.495 12.2594   1
   0  -6   4 568.192 25.3517   1
   0  -6   5 165.715 6.64059   1
   0  -6   6 675.634 28.3657   1
   0  -6   7 11.3544 0.69661   1
   0  -6   8 1093.21 42.8833   1
   0  -6   9 40.9227 1.90924   1
   0  -6  10 729.474 38.1624   1
   0  -6  11 42.6255 2.26852   1
   0  -6  12  165.87 9.03456   1
   0  -6  13 1.27018 0.80125   1
   0  -6  14 22.4184 1.94108   1
   0  -6  15 27.2158 2.27719   1
   0  -5   1 1304.82 57.6257   1
   0  -5   2  3.1952 0.34671   1
   0  -5   3 283.424  14.995   1
   0  -5   4 15.2559 1.16089   1
   0  -5   5 1420.35 54.3923   1
   0  -5   6 95.3116 3.81004   1
   0  -5   7 1752.83 63.2306   1
   0  -5   8  605.16 22.5769   1
   0  -5   9  530.33 24.6786   1
   0  -5  10 518.329 25.1455   1
   0  -5  11 22.6399 1.28852   1
   0  -5  12 91.7881 6.60381   1
   0  -5  13  4.0486 0.73774   1
   0  -5  14 110.782  6.1692   1
   0  -5  15 16.3801 2.83251   1
   0  -5  16 133.606 12.0787   1
   0  -4   1 1871.02 85.7915   1
   0  -4   2 2839.55 120.977   1
   0  -4   3 1415.90 86.1159   1
   0  -4   4 358.878 16.3535   1
   0  -4   5 1513.40 60.0883   1
   0  -4   6 80.7146  3.3973   1
   0  -4   7 1472.97 57.5586   1
   0  -4   8 398.598 15.1706   1
   0  -4   9 292.968 11.2529   1
   0  -4  10 29.3396 1.51554   1
   0  -4  11 212.027 9.22205   1
   0  -4  12 47.3756 2.56548   1
   0  -4  13 430.408 22.0897   1
   0  -4  14 80.4581 5.11797   1
   0  -4  15  179.42 12.6652   1
   0  -4  16 55.7435 3.40358   1
   0  -3   1 5.00379 0.45098   1
   0  -3   2 1239.71   55.91   1
   0  -3   3 461.072 26.6898   1
   0  -3   4 9069.52 496.734   1
   0  -3   5 133.564 6.36457   1
   0  -3   6 3488.19 146.948   1
   0  -3   7 347.179 18.5224   1
   0  -3   8 68.3335 2.91269   1
   0  -3   9 189.908 7.42454   1
   0  -3  10 82.9547  3.6552   1
   0  -3  11 69.5977 3.00933   1
   0  -3  12 454.688  19.421   1
   0  -3  13 296.381 12.2728   1
   0  -3  14 102.296 4.86828   1
   0  -3  15 245.818 12.8566   1
   0  -3  16 0.57938 1.15861   1
   0  -2   1 4203.54  201.46   1
   0  -2   2 1200.37 55.4415   1
   0  -2   3 3964.50 258.264   1
   0  -2   4 3182.04 230.151   1
   0  -2   5 812.402 46.8241   1
   0  -2   6 1395.16 64.1192   1
   0  -2   7 602.695 28.2098   1
   0  -2   8 4.86737 0.53686   1
   0  -2   9 127.073 5.43725   1
   0  -2  10 348.788 20.2877   1
   0  -2  11 4.31254 0.47118   1
   0  -2  12 856.093 34.1981   1
   0  -2  13 14.6348 0.97843   1
   0  -2  14  273.58 12.2124   1
   0  -2  15 11.4719  1.1422   1
   0  -2  16 97.6277 7.73603   1
   0  -1   1 624.341 30.1796   1
   0  -1   2 307.076 19.8418   1
   0  -1   3 3390.20 189.479   1
   0  -1   4 2556.41 120.804   1
   0  -1   5 1828.07  97.933   1
   0  -1   6 37.4425 2.54905   1
   0  -1   7 1096.74 59.3021   1
   0  -1   8 743.021 28.4683   1
   0  -1   9 929.068 34.7588   1
   0  -1  10  99.176 4.38107   1
   0  -1  11 246.746 10.0213   1
   0  -1  12 17.8582 1.12652   1
   0  -1  13 85.3147 5.29534   1
   0  -1  14 209.661 10.8912   1
   0  -1  15 125.173 6.67912   1
   0   0   1  133.72 8.07721   1
   0   0   2 3094.20 212.116   1
   0   0   3 587.204 30.5677   1
   0   0   4 7266.35 403.946   1
   0   0   5 78.1929 3.98216   1
   0   0   6 710.748 33.5496   1
   0   0   7 81.9835 4.64754   1
   0   0   8 3356.09 137.086   1
   0   0   9 1078.75 47.3993   1
   0   0  10 110.322 5.17148   1
   0   0  11 821.775 31.1178   1
   0   0  12 55.7744 2.72387   1
   0   0  13 179.237 12.1069   1
   0   0  14 10.8448 1.23408   1
   0   0  15 86.2216 5.66046   1
   0   1   0 867.537  49.771   1
   0   1   1 2038.81 382.548   1
   0   1   2 3502.98 281.172   1
   0   1   3 6183.55  366.50   1
   0   1   4  819.15 44.3092   1
   0   1   5 30.7731 1.58663   1
   0   1   6 292.275 13.0155   1
   0   1   7 988.174 55.9137   1
   0   1   8 1043.40 40.1507   1
   0   1   9 2.01948 0.60761   1
   0   1  10 860.891 32.4624   1
   0   1  11 34.5484 4.01435   1
   0   1  12 341.216 20.8746   1
   0   1  13 134.134  8.8807   1
   0   1  14 134.199 9.50114   1
   0   2   0 334.371 19.0842   1
   0   2   1  114.09 5.81665   1
   0   2   2 354.167 23.6174   1
   0   2   3 1292.83 60.8934   1
   0   2   4  442.07 20.0288   1
   0   2   5 2821.50  136.07   1
   0   2   6 45.4272 2.36072   1
   0   2   7 391.219 15.3597   1
   0   2   8 164.202 7.06772   1
   0   2   9 55.3405 2.86504   1
   0   2  10 887.821 37.2567   1
   0   2  11 237.921 11.1484   1
   0   2  12 411.859 20.5689   1
   0   2  13 83.5608 7.30105   1
   0   2  14 20.3819 2.19715   1
   0   3   0 1247.35 59.1729   1
   0   3   1 7.12785 0.74748   1
   0   3   2 2274.46 137.084   1
   0   3   3 647.425 30.3362   1
   0   3   4 2106.13 119.219   1
   0   3   5 1551.19 65.5472   1
   0   3   6 52.5507 5.26508   1
   0   3   7 782.604 32.9435   1
   0   3   8-0.21178  1.1325   1
   0   3   9 292.482 11.7266   1
   0   3  10 5.87172 0.66213   1
   0   3  11 304.876 17.9142   1
   0   3  12 5.37847 1.31023   1
   0   3  13 163.153 23.3052   1
   0   4   0 1986.84 96.3167   1
   0   4   1 4.56895 0.93389   1
   0   4   2 171.483 8.24271   1
   0   4   3 197.613 8.91265   1
   0   4   4 577.583 32.0062   1
   0   4   5 20.0393 1.61564   1
   0   4   6 1163.07   50.86   1
   0   4   7 28.9388 2.35601   1
   0   4   8 808.593 44.5363   1
   0   4   9 268.674 14.8024   1
   0   4  10 140.118   9.163   1
   0   4  11 52.3644 5.14312   1
   0   4  12  3.5535 1.81591   1
   0   5   0 16.0722 1.48134   1
   0   5   1 1603.81 90.4574   1
   0   5   3 220.999 10.3373   1
   0   5   4 293.497 13.3914   1
   0   5   5 117.379  6.1201   1
   0   5   6  753.06 46.3212   1
   0   5   7 292.955 17.1384   1
   0   5   8 367.001 26.0315   1
   0   5   9  61.303 3.59435   1
   0   5  10 62.0818 5.36068   1
   0   5  11 0.72918    1.69   1
   0   6   0 259.127  10.687   1
   0   6   1 308.207 17.0898   1
   0   6   2 88.8989 5.05571   1
   0   6   3  529.17 22.8496   1
   0   6   4 40.3153 2.78345   1
   0   6   5  547.65 26.5973   1
   0   6   6 10.2594 0.94223   1
   0   6   7 365.756 17.8428   1
   0   6   8 7.71837  1.4464   1
   0   6   9 89.9109 5.76779   1
   0   7   0 202.875 8.50243   1
   0   7   1 7.28847 0.79496   1
   0   7   2 416.649 18.3339   1
   0   7   3 106.073 5.09887   1
   0   7   4 667.058  32.032   1
   0   7   5 113.212 6.82706   1
   0   7   6  152.85 10.0246   1
   0   7   7 36.5247  3.9803   1
   0   7   8 1.71657  1.2119   1
   0   8   0 198.131 11.2057   1
   0   8   1 456.544 19.6929   1
   0   8   2 495.627 26.2767   1
   0   8   3  106.30 8.45381   1
   0   8   4 215.827  12.295   1
   0   8   5-0.00241 1.74561   1
   0   8   6 37.7175 3.06215   1
   0   9   0 2.01357 0.82685   1
   0   9   1 449.999 24.2554   1
   0   9   2 0.82152 0.89079   1
   0   9   3 310.543 15.2598   1
   0  10   0 216.685 10.9936   1
   1 -10   1  165.43 11.6318   1
   1 -10   2 38.4396 3.77647   1
   1 -10   3 389.881  18.633   1
   1 -10   4 138.945 6.71897   1
   1 -10   5 110.841 6.11063   1
   1 -10   6 58.3163 3.54274   1
   1 -10   7 21.0285 2.62796   1
   1 -10   8 100.516 6.35667   1
   1 -10   9 77.3064 6.75538   1
   1 -10  10 164.468 8.84776   1
   1  -9   1 147.742 6.90053   1
   1  -9   2  25.188 1.59973   1
   1  -9   3 23.7708 3.09985   1
   1  -9   4 39.6885  5.8547   1
   1  -9   5 455.466 18.6564   1
   1  -9   6 96.4418 4.77418   1
   1  -9   7 887.267 62.8732   1
   1  -9   8 11.2549 1.20982   1
   1  -9   9 173.418 13.0641   1
   1  -9  10 36.3367 2.48647   1
   1  -9  11 9.11547 2.19184   1
   1  -9  12 35.4222 2.51477   1
   1  -8   1 2.54268 0.55399   1
   1  -8   2 170.071 7.22896   1
   1  -8   3 2.94891 0.61462   1
   1  -8   4 1335.79 63.0811   1
   1  -8   5 163.392 6.65209   1
   1  -8   6  743.98  31.019   1
   1  -8   7 334.093 15.0134   1
   1  -8   8 53.6092 2.82743   1
   1  -8   9 37.6283 2.38847   1
   1  -8  10   45.16 4.75027   1
   1  -8  11 8.08301 1.06127   1
   1  -8  12 62.7909 4.06709   1
   1  -8  13 201.686 10.4875   1
   1  -7   1 227.692 9.47216   1
   1  -7   2 3.52559 0.56098   1
   1  -7   3 27.6068 1.43241   1
   1  -7   4  224.98 11.4238   1
   1  -7   5 603.126 22.9014   1
   1  -7   6 1307.55 52.4766   1
   1  -7   7 519.832 21.7559   1
   1  -7   8 717.796 30.8543   1
   1  -7   9 31.3726 2.33373   1
   1  -7  10 124.651 5.95013   1
   1  -7  11 135.535 7.45221   1
   1  -7  12 97.6614 5.31154   1
   1  -7  13 1.11862 1.16316   1
   1  -7  14 128.991 6.96876   1
   1  -6   1 4296.59 141.231   1
   1  -6   2 300.706 12.3107   1
   1  -6   3 3595.69 205.555   1
   1  -6   4 8.07359 0.61464   1
   1  -6   5 16.9316 2.19462   1
   1  -6   6 144.083 6.08359   1
   1  -6   7 8.22724 0.54869   1
   1  -6   8 38.5773 1.75335   1
   1  -6   9 1292.37 50.8584   1
   1  -6  10 131.978 9.53432   1
   1  -6  11 517.318 25.2784   1
   1  -6  12 265.953  13.278   1
   1  -6  13 0.48867 0.73948   1
   1  -6  14  180.20 9.44825   1
   1  -6  15-0.36361 1.61701   1
   1  -5   1 308.249 12.6708   1
   1  -5   2 3028.51 147.566   1
   1  -5   3 1157.71  51.955   1
   1  -5   4 1483.32 57.7826   1
   1  -5   5 198.248 7.69961   1
   1  -5   6 95.8014 3.96239   1
   1  -5   7 101.923 4.05429   1
   1  -5   8 8.83454   0.748   1
   1  -5   9 796.112 28.9473   1
   1  -5  10 8.86447 0.97994   1
   1  -5  11 683.367 28.5195   1
   1  -5  12 30.2103 2.34753   1
   1  -5  13 215.428 10.6796   1
   1  -5  14 1.35536 0.75152   1
   1  -5  15 119.722 6.67066   1
   1  -4   1 933.164 47.5509   1
   1  -4   2 2325.48 113.995   1
   1  -4   3 201.262 11.6599   1
   1  -4   4 1960.93 85.3503   1
   1  -4   5 2.92357 0.50755   1
   1  -4   6 996.244 52.3833   1
   1  -4   7 3.73035 0.87778   1
   1  -4   8 192.458  8.2417   1
   1  -4   9  20.443 1.04068   1
   1  -4  10 278.551 11.6978   1
   1  -4  11 244.302 10.2836   1
   1  -4  12 528.246 26.1675   1
   1  -4  13 340.904  15.821   1
   1  -4  14 213.945 10.3226   1
   1  -4  15 115.164   6.226   1
   1  -3   1 8.69586 1.20308   1
   1  -3   2 21.2748 3.58839   1
   1  -3   3 642.397 31.1813   1
   1  -3   4 522.014  32.739   1
   1  -3   5 3761.43 212.458   1
   1  -3   6 1340.06 55.3307   1
   1  -3   7 798.661 44.2539   1
   1  -3   8 432.676 19.0357   1
   1  -3   9 8.27305 0.91772   1
   1  -3  10 177.429 7.10488   1
   1  -3  11 8.24196  0.6863   1
   1  -3  12 641.304 34.8743   1
   1  -3  13 28.4188 2.59084   1
   1  -3  14 509.654 24.4343   1
   1  -3  15 0.17844 0.76904   1
   1  -2   1 249.059 12.5635   1
   1  -2   2 149.402 18.8607   1
   1  -2   3 181.253 15.6497   1
   1  -2   4 2.33815 0.62526   1
   1  -2   5 1479.53 80.7922   1
   1  -2   6 478.858 25.9188   1
   1  -2   7 1655.80 62.7449   1
   1  -2   8  3.5903 0.41297   1
   1  -2   9 1164.99 50.0044   1
   1  -2  10 128.075 5.20126   1
   1  -2  11 660.429 34.1691   1
   1  -2  12 98.7515 4.42692   1
   1  -2  13 119.869 6.30994   1
   1  -2  14 44.9977 3.08125   1
   1  -2  15 52.4721 4.00467   1
   1  -1   1 394.724 26.9268   1
   1  -1   2 6040.78 335.908   1
   1  -1   3 56.2228 3.48583   1
   1  -1   4 64.5257 3.34526   1
   1  -1   5 550.765 29.9616   1
   1  -1   6 31.2524 2.21262   1
   1  -1   7 756.182 31.6835   1
   1  -1   8 1779.93  121.83   1
   1  -1   9 678.211 26.7181   1
   1  -1  10 835.674 30.9823   1
   1  -1  11 425.876 20.7786   1
   1  -1  12 6.52223 0.71862   1
   1  -1  13 96.3338 5.76385   1
   1  -1  14 0.82852 0.89554   1
   1  -1  15 33.9254  2.5331   1
   1   0   0 407.057 21.0039   1
   1   0   1 7.05351 0.53571   1
   1   0   2 661.531 33.0333   1
   1   0   3 712.705 34.9115   1
   1   0   4 344.735 16.9837   1
   1   0   5 1691.85 82.9853   1
   1   0   6 818.937 39.5187   1
   1   0   7 0.98717 0.55478   1
   1   0   8 2328.24 150.042   1
   1   0   9 31.6798 1.58614   1
   1   0  10 1027.13 42.9912   1
   1   0  11 46.3139 2.50576   1
   1   0  12 32.6664  2.4218   1
   1   0  13 1.88789 0.91577   1
   1   0  14 52.4912 3.40141   1
   1   1   0 2292.39 112.681   1
   1   1   1 3135.69 152.765   1
   1   1   2 260.099 13.0995   1
   1   1   3 54.8352 5.88696   1
   1   1   4 912.646 43.1735   1
   1   1   5 2149.59 89.8606   1
   1   1   6 183.635 7.65822   1
   1   1   7 2682.81 92.8487   1
   1   1   8 8.26503 0.62004   1
   1   1   9 289.157  11.772   1
   1   1  10 218.051 9.49747   1
   1   1  11 47.1748 3.81511   1
   1   1  12 188.401 14.9125   1
   1   1  13 96.1184 6.63067   1
   1   1  14 38.2966 3.67521   1
   1   2   0 1191.78  58.818   1
   1   2   1 156.711 7.96003   1
   1   2   2 1478.67 77.0721   1
   1   2   3 1052.57 49.3551   1
   1   2   4 3835.58 209.975   1
   1   2   5 1324.01 54.0328   1
   1   2   6 306.406 12.5288   1
   1   2   7 1089.51 43.6978   1
   1   2   8  2.9507 0.65943   1
   1   2   9 156.522 8.54557   1
   1   2  10  78.569 6.08172   1
   1   2  11 79.1589 4.00377   1
   1   2  12 6.22183 2.48447   1
   1   2  13 270.189 17.8725   1
   1   3   0 290.855 16.6723   1
   1   3   1 1277.79  80.686   1
   1   3   2 2530.97  107.30   1
   1   3   3 27.8423 1.99838   1
   1   3   4 3253.92 162.423   1
   1   3   5 6.00251  0.6882   1
   1   3   6 859.419 47.6571   1
   1   3   7 45.3589 2.26496   1
   1   3   8  51.886 2.58075   1
   1   3   9 28.3163 1.62962   1
   1   3  10 163.663 7.71697   1
   1   3  11 125.316 6.71775   1
   1   3  12 174.543 10.7545   1
   1   4   0 184.189  24.607   1
   1   4   1 890.231 48.9517   1
   1   4   2 151.784 11.9544   1
   1   4   3 3161.72 194.142   1
   1   4   4 89.6219 4.45653   1
   1   4   5 513.308 23.4145   1
   1   4   6 284.848 15.5901   1
   1   4   7 52.3417 2.84331   1
   1   4   8 178.338 8.30424   1
   1   4   9 119.514 6.35572   1
   1   4  10 61.0619 4.19195   1
   1   4  11 12.8817 1.73276   1
   1   5   0 2508.26 107.579   1
   1   5   1 1221.88 57.9169   1
   1   5   2 40.6247 2.07733   1
   1   5   3 383.295 22.4267   1
   1   5   4 1.38119 0.60133   1
   1   5   5 277.946  14.279   1
   1   5   6 135.574  7.4529   1
   1   5   7 306.602 13.7976   1
   1   5   8 2.70656 1.09698   1
   1   5   9 209.465 12.1083   1
   1   5  10 22.3052 4.04822   1
   1   6   0 2257.39 140.105   1
   1   6   1 1.75356 0.66341   1
   1   6   2 439.216 22.4426   1
   1   6   3 2.14911 0.72754   1
   1   6   4 55.7674 2.88481   1
   1   6   5 24.0673 2.13122   1
   1   6   6 226.559 12.8306   1
   1   6   7 58.6351 3.95722   1
   1   6   8  187.02 14.0442   1
   1   7   0 115.698 5.36126   1
   1   7   1 659.494 29.5264   1
   1   7   2 204.138 10.1188   1
   1   7   3 182.915 9.30046   1
   1   7   4 197.223 11.2917   1
   1   7   5 13.6637 2.15573   1
   1   7   6 57.5263 3.99207   1
   1   7   7-0.17399  1.9498   1
   1   8   0 17.2428 1.82606   1
   1   8   1 124.495 6.38507   1
   1   8   2 39.1968 2.84099   1
   1   8   3 299.486 20.4867   1
   1   8   4  37.064 2.91784   1
   1   8   5 131.719 8.05024   1
   1   9   0  187.83  16.466   1
   1   9   1 13.2827 2.38375   1
   1   9   2 128.549 6.81345   1
   2 -10   1 123.251 6.52065   1
   2 -10   2 200.664 13.9857   1
   2 -10   3 227.651 11.3539   1
   2 -10   4 126.016 7.31683   1
   2 -10   5  190.16  8.9307   1
   2 -10   6  24.409  2.3023   1
   2 -10   7 125.628 8.28105   1
   2 -10   8 8.84699 1.25631   1
   2 -10   9 77.5452 4.82204   1
   2  -9   1 83.5225  4.6652   1
   2  -9   2 119.381 5.66963   1
   2  -9   3 9.00764 1.34791   1
   2  -9   4 470.017 20.2469   1
   2  -9   5 11.0187 1.05296   1
   2  -9   6 557.121  22.508   1
   2  -9   7 107.429 4.88671   1
   2  -9   8 110.242 5.37645   1
   2  -9   9 83.9981 7.08284   1
   2  -9  10  8.7134  2.8742   1
   2  -9  11 8.73044 1.26003   1
   2  -9  12 48.8644 3.23387   1
   2  -8   1 1199.54  46.728   1
   2  -8   2 103.957  4.5825   1
   2  -8   3 7.41127  0.7239   1
   2  -8   4 6.84178 0.78134   1
   2  -8   5 2.19386  0.6638   1
   2  -8   6 341.217 13.4497   1
   2  -8   7 402.966 16.5854   1
   2  -8   8  490.69 23.7779   1
   2  -8   9 129.263 5.74941   1
   2  -8  10 165.309 8.62273   1
   2  -8  11  45.457 3.10141   1
   2  -8  12 163.989 8.69976   1
   2  -8  13 22.2308 3.47117   1
   2  -7   1 141.753 6.14252   1
   2  -7   2 235.597 9.44931   1
   2  -7   3 1723.88 69.3674   1
   2  -7   4 172.218 7.26549   1
   2  -7   5 662.199 25.9557   1
   2  -7   6 104.935 4.88674   1
   2  -7   7 3.41881 0.85284   1
   2  -7   8 247.468 12.2475   1
   2  -7   9 325.667 12.8516   1
   2  -7  10 13.1767 1.36873   1
   2  -7  11 768.402 35.2733   1
   2  -7  12 39.9646 3.47242   1
   2  -7  13  89.744 5.05316   1
   2  -7  14 167.634 8.97204   1
   2  -6   1 116.575 5.31619   1
   2  -6   2  433.38 18.3142   1
   2  -6   3 157.216 6.62797   1
   2  -6   4 38.9202 2.57049   1
   2  -6   5 92.0277 3.98716   1
   2  -6   6 638.313 25.2057   1
   2  -6   7  46.206 2.44849   1
   2  -6   8 339.434 13.3106   1
   2  -6   9 741.895 29.6975   1
   2  -6  10 3.73587 0.61383   1
   2  -6  11 1107.13 48.2559   1
   2  -6  12 17.0042 1.42037   1
   2  -6  13 123.649 6.61758   1
   2  -6  14 23.4918 1.84731   1
   2  -5   1 965.187  37.581   1
   2  -5   2 2382.28 102.009   1
   2  -5   3 953.911 40.4148   1
   2  -5   4  812.49  32.955   1
   2  -5   5 8.95292 0.78406   1
   2  -5   6 86.6951 3.59687   1
   2  -5   7 157.038 6.34359   1
   2  -5   8 979.461 35.9098   1
   2  -5   9 6.34875  0.6172   1
   2  -5  10 1103.77 41.4868   1
   2  -5  11  12.431 1.11949   1
   2  -5  12 187.759 10.6906   1
   2  -5  13 139.867  7.3859   1
   2  -5  14 42.2151 2.69988   1
   2  -5  15 41.9877 3.16003   1
   2  -4   1 1405.30  74.046   1
   2  -4   2 108.529 4.47372   1
   2  -4   3 50.5622  2.4634   1
   2  -4   4 208.648 8.84723   1
   2  -4   5 1262.64 61.9886   1
   2  -4   6 98.7849 4.02195   1
   2  -4   7 2017.36 95.2928   1
   2  -4   8  596.25 27.0752   1
   2  -4   9 263.926 10.4302   1
   2  -4  10 601.573 23.7736   1
   2  -4  11  21.332  1.1639   1
   2  -4  12  108.69 5.25774   1
   2  -4  13 33.9049 4.40271   1
   2  -4  14 84.9456 7.30896   1
   2  -4  15 1.67154 1.04146   1
   2  -3   1 26.9591  1.3929   1
   2  -3   2 1082.92 66.1864   1
   2  -3   3 845.333 53.4227   1
   2  -3   4 1607.26 76.5929   1
   2  -3   5 3335.49 157.206   1
   2  -3   6 32.2545  1.5297   1
   2  -3   7 2272.58 108.448   1
   2  -3   8 22.9359 1.11918   1
   2  -3   9 257.668 10.1675   1
   2  -3  10 26.3155 1.34449   1
   2  -3  11 90.6618 3.82869   1
   2  -3  12 25.7518 2.12825   1
   2  -3  13 282.946 15.6109   1
   2  -3  14  64.573 4.65054   1
   2  -3  15 121.016 7.42167   1
   2  -2   1 739.513  40.566   1
   2  -2   2 466.387 22.8826   1
   2  -2   3 74.9786 3.86732   1
   2  -2   4 5016.33 262.091   1
   2  -2   5 16.2763  1.0423   1
   2  -2   6 4776.11 163.155   1
   2  -2   7 185.434 7.72455   1
   2  -2   8 374.333 16.8258   1
   2  -2   9 300.037 13.1762   1
   2  -2  10 57.3776  2.6251   1
   2  -2  11 86.4709 3.83238   1
   2  -2  12 90.6651 6.16581   1
   2  -2  13 127.458 7.49629   1
   2  -2  14 27.8157 7.57832   1
   2  -1   1 2900.60 152.282   1
   2  -1   2 869.086  41.908   1
   2  -1   3 2281.36 185.053   1
   2  -1   4 1519.89 62.9853   1
   2  -1   5 629.228 25.7776   1
   2  -1   6 1165.11 52.1555   1
   2  -1   7  313.21 12.8064   1
   2  -1   8 541.112 29.3157   1
   2  -1   9 68.0064 3.02308   1
   2  -1  10  388.78 15.8071   1
   2  -1  11 10.3661 2.02223   1
   2  -1  12 155.609 7.18864   1
   2  -1  13  2.7441 1.45976   1
   2  -1  14 59.2169 5.95887   1
   2   0   0 4359.18 280.816   1
   2   0   1 7204.98 468.391   1
   2   0   2 1445.63 76.0403   1
   2   0   3 2770.28 146.415   1
   2   0   4 114.599 6.24923   1
   2   0   5 15.0622 1.45177   1
   2   0   6 18.0185 0.95829   1
   2   0   7 726.901 37.3367   1
   2   0   8 1.68815 0.48484   1
   2   0   9 1080.01 49.5666   1
   2   0  10  65.292 3.75199   1
   2   0  11 132.911 6.18699   1
   2   0  12 143.618 6.72695   1
   2   0  13  12.308 1.53837   1
   2   0  14 96.2821 9.62261   1
   2   1   0 3450.09 177.057   1
   2   1   1 150.758 8.53016   1
   2   1   2 5179.42 258.261   1
   2   1   3 384.815 18.4041   1
   2   1   4 2079.77 98.1986   1
   2   1   5 381.959 16.4948   1
   2   1   6 30.9302 1.48683   1
   2   1   7 331.717 12.8211   1
   2   1   8 7.51334 0.86794   1
   2   1   9 262.953  10.911   1
   2   1  10 118.835 5.20408   1
   2   1  11 137.096 6.41235   1
   2   1  12 41.7725 3.37967   1
   2   1  13 177.924 10.4752   1
   2   2   0 1007.86 57.9847   1
   2   2   1 176.071 8.58042   1
   2   2   2 1022.83 46.5461   1
   2   2   3 296.546 12.1097   1
   2   2   4 1533.33   54.46   1
   2   2   5 293.226 11.3949   1
   2   2   6 803.398   29.63   1
   2   2   7 63.8855 3.26064   1
   2   2   8 102.568 4.51784   1
   2   2   9 21.8367   2.343   1
   2   2  10 107.095 5.52983   1
   2   2  11 142.734 8.76698   1
   2   2  12 317.773 17.1352   1
   2   3   0 11.3963 0.71539   1
   2   3   1  263.71 11.6272   1
   2   3   2 13.5684 0.75843   1
   2   3   3 1579.33 65.9376   1
   2   3   4 33.0733 3.11614   1
   2   3   5 990.209 55.2587   1
   2   3   6 122.487 5.56717   1
   2   3   7 66.3431 4.46909   1
   2   3   8 101.463 4.43201   1
   2   3   9 37.1191 2.33084   1
   2   3  10 90.1415 5.95119   1
   2   3  11 85.5168 7.53611   1
   2   4   0 1770.24 68.8019   1
   2   4   1 626.542 28.2964   1
   2   4   2 144.054 11.1159   1
   2   4   3 196.816 11.1204   1
   2   4   4  9.8421 0.86135   1
   2   4   5 107.907 7.93135   1
   2   4   6 162.826 9.94304   1
   2   4   7 252.739  14.534   1
   2   4   8 43.4776 6.54526   1
   2   4   9 371.311 22.7211   1
   2   4  10 35.5168 4.60945   1
   2   5   0 1255.30 102.417   1
   2   5   1 239.156 11.3365   1
   2   5   2  789.37 36.0083   1
   2   5   3 4.50494 0.70984   1
   2   5   4 53.1062 2.89106   1
   2   5   5 46.4713 3.57818   1
   2   5   6 80.8542 4.44756   1
   2   5   7 92.9334 5.82582   1
   2   5   8 345.504 22.6294   1
   2   5   9 53.5955 3.46593   1
   2   6   0  68.356  3.6696   1
   2   6   1 278.544 13.0787   1
   2   6   2 5.97874 1.02133   1
   2   6   3 93.0516 4.53427   1
   2   6   4  34.585 2.27832   1
   2   6   5 131.521 6.94416   1
   2   6   6 205.325 16.5814   1
   2   6   7 60.1561 4.25713   1
   2   7   0 58.3634 6.42114   1
   2   7   1 71.8111 6.82224   1
   2   7   2 8.51177 1.98736   1
   2   7   3 172.296 9.99108   1
   2   7   4 7.98037 1.28932   1
   2   7   5  277.70 15.8161   1
   2   8   0 68.3959 4.33026   1
   2   8   1 5.26372 1.74787   1
   2   8   2 223.628 19.5707   1
   2   8   3 40.0421 4.91203   1
   2   9   0  45.935 3.00116   1
   3 -10   1 66.4643 5.14239   1
   3 -10   2 383.118 18.4129   1
   3 -10   3 89.1006 7.18127   1
   3 -10   4  186.84 9.49408   1
   3 -10   5 14.2222 1.43243   1
   3 -10   6 43.3167 3.00679   1
   3 -10   7  2.6438 0.88219   1
   3 -10   8 134.797  7.3021   1
   3  -9   1 288.203 13.9469   1
   3  -9   2  33.739 3.70133   1
   3  -9   3 157.302 11.2194   1
   3  -9   4  69.305 3.83432   1
   3  -9   5 91.2349 4.87336   1
   3  -9   6 156.606 9.62223   1
   3  -9   7 106.994 5.26147   1
   3  -9   8 294.181 13.3368   1
   3  -9   9 81.5967 5.08715   1
   3  -9  10 152.273 7.36605   1
   3  -9  11 14.9966 1.53733   1
   3  -8   1 52.1492 2.42407   1
   3  -8   2 4.87232 0.60075   1
   3  -8   3 6.17442 0.92084   1
   3  -8   4 29.0152 1.59982   1
   3  -8   5 530.881 21.2726   1
   3  -8   6 67.6301 3.16944   1
   3  -8   7 1042.55 45.0876   1
   3  -8   8 18.1398 1.24333   1
   3  -8   9 331.666 15.1106   1
   3  -8  10  40.443 2.38193   1
   3  -8  11 67.0402 3.55769   1
   3  -8  12 2.64104 0.95942   1
   3  -7   1 23.7577 1.77769   1
   3  -7   2 181.085 7.29664   1
   3  -7   3  21.839 1.63151   1
   3  -7   4 23.0968 1.41894   1
   3  -7   5 102.894 4.31792   1
   3  -7   6 665.529 26.6795   1
   3  -7   7 230.142 9.24603   1
   3  -7   8 828.713 32.1232   1
   3  -7   9 232.506 10.4572   1
   3  -7  10  46.445 4.90468   1
   3  -7  11 178.554 13.5876   1
   3  -7  12 3.29817 0.94239   1
   3  -7  13 83.1555 4.81366   1
   3  -6   1 279.067 16.0031   1
   3  -6   2  881.42 32.8602   1
   3  -6   3 1132.40 43.3894   1
   3  -6   4 1157.61 42.0864   1
   3  -6   5  201.76 8.12798   1
   3  -6   6 196.884 8.69085   1
   3  -6   7 42.1942 2.59342   1
   3  -6   8 339.914 16.1751   1
   3  -6   9 4.52428 0.91516   1
   3  -6  10 687.814 27.1987   1
   3  -6  11  20.963 1.42523   1
   3  -6  12 178.811 8.39936   1
   3  -6  13 41.8472 3.13089   1
   3  -5   1 1654.64 61.0107   1
   3  -5   2 50.9043 2.69291   1
   3  -5   3 2424.20 80.4833   1
   3  -5   4  67.155 2.83935   1
   3  -5   5 1227.79  57.339   1
   3  -5   6 30.9559 1.70125   1
   3  -5   7  316.37 12.4296   1
   3  -5   8 23.8987 2.09804   1
   3  -5   9 102.058 5.55788   1
   3  -5  10 298.316 11.8314   1
   3  -5  11 111.141 5.27616   1
   3  -5  12 163.157 11.6074   1
   3  -5  13 65.9577 4.87705   1
   3  -5  14 24.0167 2.23075   1
   3  -4   1 126.906 4.81935   1
   3  -4   2 1375.74 47.4883   1
   3  -4   3 911.421 36.1982   1
   3  -4   4 3013.11 159.663   1
   3  -4   5 997.172 37.6144   1
   3  -4   6 225.239 8.94308   1
   3  -4   7 683.139 28.5298   1
   3  -4   8 0.65538 0.35807   1
   3  -4   9 179.647 7.59325   1
   3  -4  10 22.3954 2.12705   1
   3  -4  11 53.9091 2.79985   1
   3  -4  12 3.17636 0.72876   1
   3  -4  13  254.24 12.5252   1
   3  -4  14 44.1372 3.32205   1
   3  -3   1 1281.49  77.552   1
   3  -3   2 202.219 11.4355   1
   3  -3   3 133.977 5.20716   1
   3  -3   4 783.645 39.9569   1
   3  -3   5 1.17967  0.3375   1
   3  -3   6 3029.74 107.368   1
   3  -3   7  33.977 1.64836   1
   3  -3   8 444.502 19.2734   1
   3  -3   9 82.0303 4.01861   1
   3  -3  10 3.05446 0.68317   1
   3  -3  11  106.92 5.05831   1
   3  -3  12 98.5082 5.34076   1
   3  -3  13 104.587 10.8883   1
   3  -3  14 176.077 15.8376   1
   3  -2   1 1753.05 115.794   1
   3  -2   2 130.062 6.40854   1
   3  -2   3 1793.98 65.7405   1
   3  -2   4 219.267 9.08445   1
   3  -2   5 400.217 16.2369   1
   3  -2   6 599.418 25.6554   1
   3  -2   7 181.093  8.8891   1
   3  -2   8 286.513 17.4307   1
   3  -2   9 174.217  7.3207   1
   3  -2  10 127.834 5.52063   1
   3  -2  11 8.21841 2.02132   1
   3  -2  12 370.366 24.5198   1
   3  -2  13 10.9553 1.33165   1
   3  -1   1 3033.44 142.825   1
   3  -1   2 1594.62 66.6983   1
   3  -1   3 2052.27 95.6122   1
   3  -1   4  1.4079  0.3447   1
   3  -1   5 248.417 11.7507   1
   3  -1   6 1.85953 0.48851   1
   3  -1   7  46.478 2.71553   1
   3  -1   8 1.16397 0.43699   1
   3  -1   9 603.689 27.8063   1
   3  -1  10  50.234 2.44678   1
   3  -1  11 593.879 25.0929   1
   3  -1  12 66.4844 4.58783   1
   3  -1  13 62.9992 3.71415   1
   3   0   0 1339.53 68.9375   1
   3   0   1 93.3755  4.8973   1
   3   0   2 2797.71  116.44   1
   3   0   3 21.5269 1.06769   1
   3   0   4 827.091 34.8272   1
   3   0   5 3.53776 0.44143   1
   3   0   6 52.6707 2.38921   1
   3   0   7 263.294 12.3947   1
   3   0   8 278.401  15.907   1
   3   0   9 491.977 23.1075   1
   3   0  10  205.18 8.78569   1
   3   0  11 330.362 15.8423   1
   3   0  12 27.5853 2.22742   1
   3   0  13  56.123 3.79292   1
   3   1   0 1328.23 54.5934   1
   3   1   1 2455.11  95.012   1
   3   1   2 573.767 23.1007   1
   3   1   3 73.0035 2.99391   1
   3   1   4 196.143  7.7111   1
   3   1   5 8.20461 0.88571   1
   3   1   6  332.50 12.8474   1
   3   1   7 174.667 7.48814   1
   3   1   8 601.165 23.7004   1
   3   1   9 1.81692 0.57745   1
   3   1  10 415.373 19.5378   1
   3   1  11 32.1357 4.38278   1
   3   1  12 141.929 7.46198   1
   3   2   0 64.8048 3.36538   1
   3   2   1 185.759 7.75309   1
   3   2   2 136.313 5.47547   1
   3   2   3 540.598 20.4811   1
   3   2   4 113.549 4.76499   1
   3   2   5  994.18  47.854   1
   3   2   6 232.789 9.16201   1
   3   2   7 568.306 21.3833   1
   3   2   8 301.844 12.8546   1
   3   2   9 82.7779 8.86574   1
   3   2  10 49.4113 3.01504   1
   3   2  11 31.2164 2.49585   1
   3   3   0 519.111 23.9972   1
   3   3   1 15.9704 0.99394   1
   3   3   2 38.8818 2.36702   1
   3   3   3 489.918 19.4828   1
   3   3   4 233.195 10.8367   1
   3   3   5 538.642 26.5667   1
   3   3   6 342.829 13.9356   1
   3   3   7  206.92 9.27488   1
   3   3   8  51.278 2.95184   1
   3   3   9 131.194 7.51827   1
   3   3  10 0.92385 1.02023   1
   3   4   0 7.13686  1.9262   1
   3   4   1   35.52 2.59992   1
   3   4   2 307.336 14.5132   1
   3   4   3 330.081 18.0083   1
   3   4   4 838.943 50.9065   1
   3   4   5 6.37644 0.75401   1
   3   4   6 497.372 28.5695   1
   3   4   7 120.115 6.13331   1
   3   4   8 110.332 6.78586   1
   3   4   9 12.2758 1.76954   1
   3   5   0 1.04776 0.90937   1
   3   5   1 452.821 23.6397   1
   3   5   2 299.155 17.9891   1
   3   5   3 81.2788 4.29256   1
   3   5   4 107.976 5.49975   1
   3   5   5 126.694 6.42041   1
   3   5   6 26.7464 2.15548   1
   3   5   7 173.978 9.72258   1
   3   6   0 568.039 66.9517   1
   3   6   1 353.254 26.0103   1
   3   6   2 315.582 26.3741   1
   3   6   3 216.926 22.7775   1
   3   6   4 3.03639 2.45407   1
   3   6   5 165.748 17.2721   1
   3   6   6 11.9883 1.74244   1
   3   7   0 299.935 31.5734   1
   3   7   1 17.6423 2.10777   1
   3   7   2 286.862 33.1337   1
   3   7   3 11.7025 2.67475   1
   3   7   4 151.437  10.748   1
   3   8   0 17.7877 3.37032   1
   3   8   1 78.8954 7.65158   1
   4 -10   1 36.6687 4.91559   1
   4 -10   2 18.6153 2.30696   1
   4 -10   3 94.6803 9.26525   1
   4 -10   4 27.7055 2.29416   1
   4 -10   5 469.247 24.5699   1
   4 -10   6 58.9117 4.41111   1
   4  -9   1 141.915 6.83521   1
   4  -9   2 134.447 6.52705   1
   4  -9   3 111.955 5.89335   1
   4  -9   4 34.4103 2.89384   1
   4  -9   5 150.303 7.71838   1
   4  -9   6 15.4882 2.27026   1
   4  -9   7 407.757 21.9029   1
   4  -9   8 19.8425 1.99858   1
   4  -9   9 247.101 13.0386   1
   4  -8   1 20.9156 1.35046   1
   4  -8   2 303.576 17.3895   1
   4  -8   3 0.38482 0.51676   1
   4  -8   4 106.578 4.84487   1
   4  -8   5  7.0959 1.08014   1
   4  -8   6 387.925 18.5369   1
   4  -8   7 85.3488 4.27473   1
   4  -8   8 356.232 17.0411   1
   4  -8   9 132.263 6.43153   1
   4  -8  10 59.3055 3.25731   1
   4  -8  11 34.6141 2.36978   1
   4  -7   1 374.331 19.2439   1
   4  -7   2 199.516 8.12932   1
   4  -7   3 776.756 29.1257   1
   4  -7   4 363.294 14.3067   1
   4  -7   5 191.167 9.03369   1
   4  -7   6 269.151 13.6761   1
   4  -7   7 2.92619 0.85442   1
   4  -7   8 135.032 6.41972   1
   4  -7   9  0.8176 0.69827   1
   4  -7  10 122.469 5.98026   1
   4  -7  11 12.7083 1.36016   1
   4  -7  12 191.321 9.81297   1
   4  -6   1  420.56 16.4159   1
   4  -6   2 31.8992 1.84655   1
   4  -6   3 703.486 31.1637   1
   4  -6   4  4.9501  0.5612   1
   4  -6   5 855.956 32.8853   1
   4  -6   6 13.4717 0.85834   1
   4  -6   7 159.803  6.5456   1
   4  -6   8 7.51099 0.80277   1
   4  -6   9 44.0118 2.65591   1
   4  -6  10 176.883 8.88842   1
   4  -6  11 174.148 8.82396   1
   4  -6  12 212.883  12.331   1
   4  -5   1 55.9979 2.47539   1
   4  -5   2 2494.46   90.48   1
   4  -5   3 409.909 16.0314   1
   4  -5   4 968.309 51.1319   1
   4  -5   5 233.253 9.35933   1
   4  -5   6 4.85792 0.52409   1
   4  -5   7 54.2175 2.42391   1
   4  -5   8 5.83881 0.71062   1
   4  -5   9 159.578  6.8553   1
   4  -5  10 124.626 8.97517   1
   4  -5  11  349.83 27.4964   1
   4  -5  12 8.27392 1.88642   1
   4  -4   1 573.446  36.458   1
   4  -4   2 703.092  26.645   1
   4  -4   3 16.2249 1.96146   1
   4  -4   4 253.074 9.60297   1
   4  -4   5 26.4155 1.29962   1
   4  -4   6 363.632 15.9752   1
   4  -4   7 24.6799 1.36168   1
   4  -4   8 532.239 22.8868   1
   4  -4   9 77.5265  3.5354   1
   4  -4  10 275.872 16.8232   1
   4  -4  11 125.408 6.54835   1
   4  -4  12 113.264  7.0936   1
   4  -4  13 22.1347 2.16926   1
   4  -3   1 1445.10 52.4047   1
   4  -3   2 0.31752  0.2797   1
   4  -3   3 370.248 13.8492   1
   4  -3   4 64.5632  2.6067   1
   4  -3   5 155.327 6.54084   1
   4  -3   6 398.894 16.1527   1
   4  -3   7 330.461 13.5364   1
   4  -3   8 364.372 15.8244   1
   4  -3   9 299.931 12.9071   1
   4  -3  10 108.539 5.62949   1
   4  -3  11 43.3153 3.45539   1
   4  -3  12 133.081 12.1516   1
   4  -2   1  21.269 1.08389   1
   4  -2   2 170.348 6.87482   1
   4  -2   3 14.9986 0.79736   1
   4  -2   4 268.394 10.4515   1
   4  -2   5 898.311 37.6967   1
   4  -2   6 415.238 19.4163   1
   4  -2   7 1163.27 45.6592   1
   4  -2   8 5.86807 0.65464   1
   4  -2   9 363.854 14.9309   1
   4  -2  10 68.8988  4.2411   1
   4  -2  11 132.752 7.61723   1
   4  -2  12 1.88866 0.87643   1
   4  -1   1 27.7058 1.44488   1
   4  -1   2  396.75 14.9061   1
   4  -1   3 90.2371 3.68409   1
   4  -1   4 364.176 14.7191   1
   4  -1   5 103.814 4.21273   1
   4  -1   6 503.972 20.2717   1
   4  -1   7 71.0445 3.23155   1
   4  -1   8 566.623 23.8518   1
   4  -1   9 115.829  5.4669   1
   4  -1  10  196.30 9.76193   1
   4  -1  11 160.066 8.16078   1
   4  -1  12 16.2203 1.59849   1
   4   0   0  89.459 3.89553   1
   4   0   1 1662.32 65.4042   1
   4   0   2  421.69 16.2989   1
   4   0   3 1099.56 39.6269   1
   4   0   4 506.112 20.3361   1
   4   0   5 41.7159 1.84534   1
   4   0   6 350.187 14.3486   1
   4   0   7 16.7075 1.63363   1
   4   0   8 362.277 16.9058   1
   4   0   9 34.4993 2.03837   1
   4   0  10 289.044 14.0653   1
   4   0  11 6.66998 1.11904   1
   4   1   0 24.6182 1.26324   1
   4   1   1  824.10 30.6079   1
   4   1   2   61.25 2.55867   1
   4   1   3 1456.08 53.5527   1
   4   1   4 153.354 42.9086   1
   4   1   5 559.025 21.0586   1
   4   1   6 8.98472 0.68466   1
   4   1   7 256.942  10.724   1
   4   1   8 72.9822  3.6226   1
   4   1   9 198.857 9.91327   1
   4   1  10 36.2345  2.4285   1
   4   2   0 590.329 24.9654   1
   4   2   1 2.05583 0.37039   1
   4   2   2 759.838  31.537   1
   4   2   3 178.933 7.53867   1
   4   2   4 545.954 23.2354   1
   4   2   5 534.517 23.5328   1
   4   2   6 336.292 15.2864   1
   4   2   7 176.419 9.17659   1
   4   2   8 31.0697 2.10089   1
   4   2   9 15.0433   1.424   1
   4   3   0 268.535 12.7982   1
   4   3   1 60.9444 5.02828   1
   4   3   2 263.744 11.6623   1
   4   3   3 112.192 5.20868   1
   4   3   4 501.373 21.4982   1
   4   3   5 144.773 7.31355   1
   4   3   6 458.485 19.6807   1
   4   3   7 2.77153 0.84737   1
   4   3   8 93.4892 7.60914   1
   4   4   0 168.533 19.1493   1
   4   4   1 959.968  46.121   1
   4   4   2   50.48 4.36292   1
   4   4   3 279.079 17.4888   1
   4   4   4  277.34  18.642   1
   4   4   5  134.38 9.04664   1
   4   4   6 10.9452 1.86415   1
   4   4   7 64.7483  5.0263   1
   4   5   0 154.389 8.57596   1
   4   5   1 358.787 22.1509   1
   4   5   2 463.813 28.1031   1
   4   5   3 120.116 9.33598   1
   4   5   4 72.2535 5.39914   1
   4   5   5 27.3665 2.68735   1
   4   6   0 596.562 35.3789   1
   4   6   1 14.5516 1.87532   1
   4   6   2 254.785 18.4289   1
   4   6   3 19.4167 2.57646   1
   4   7   0 80.1434 10.5852   1
   4   7   1 105.803 10.8337   1
   5  -9   1 54.4623 3.45293   1
   5  -9   2 216.172 11.7562   1
   5  -9   3  7.4673 1.03177   1
   5  -9   4 189.904 9.07715   1
   5  -9   5 1.26176 0.97818   1
   5  -9   6 119.155 7.16322   1
   5  -9   7 19.1668 2.62324   1
   5  -8   1 346.365 24.0766   1
   5  -8   2 36.7304 2.46882   1
   5  -8   3 62.8074  3.2674   1
   5  -8   4 16.9806 1.75936   1
   5  -8   5 35.5697 3.12585   1
   5  -8   6 92.8044 4.41642   1
   5  -8   7 82.0287 4.23162   1
   5  -8   8 277.957 12.8324   1
   5  -8   9 59.1524 6.91514   1
   5  -7   1 638.094  30.236   1
   5  -7   2 31.5581 4.44677   1
   5  -7   3 45.6328  2.4402   1
   5  -7   4 40.2286 2.11198   1
   5  -7   5 38.7398 2.09783   1
   5  -7   6 2.54707 1.13736   1
   5  -7   7 303.115 19.2627   1
   5  -7   8 3.02041 0.94954   1
   5  -7   9 336.333  17.517   1
   5  -7  10 32.7602  3.8632   1
   5  -6   1 5.80611 0.97267   1
   5  -6   2 590.581 24.0982   1
   5  -6   3 27.1888 2.24702   1
   5  -6   4 681.016  30.281   1
   5  -6   5 96.5495 5.36285   1
   5  -6   6 39.9519 3.32551   1
   5  -6   7 146.888 6.84842   1
   5  -6   8 22.7557 3.43694   1
   5  -6   9 143.534 9.71499   1
   5  -6  10 120.421 9.84104   1
   5  -5   1 115.348 5.09915   1
   5  -5   2 265.478 10.6589   1
   5  -5   3 94.6303 9.23199   1
   5  -5   4 552.231 20.2319   1
   5  -5   5 83.6322 3.60541   1
   5  -5   6 303.077 12.5542   1
   5  -5   7 62.8251 3.19901   1
   5  -5   8 150.953  7.7864   1
   5  -5   9  6.2519 1.02657   1
   5  -5  10 292.221 14.3006   1
   5  -5  11   48.09 3.25679   1
   5  -4   1  136.14 6.96289   1
   5  -4   2 22.8802 1.68821   1
   5  -4   3 1042.73 41.9512   1
   5  -4   4  9.0592 0.79469   1
   5  -4   5 659.119 26.4258   1
   5  -4   6 245.712 10.2858   1
   5  -4   7 262.962 11.7247   1
   5  -4   8 210.664 9.57512   1
   5  -4   9 113.365 8.74263   1
   5  -4  10 22.4373 2.24762   1
   5  -4  11 35.1215 2.45589   1
   5  -3   1 186.819 7.56846   1
   5  -3   2 83.9031 3.54483   1
   5  -3   3 105.981 4.41844   1
   5  -3   4 9.17942 1.43098   1
   5  -3   5 310.633 13.5698   1
   5  -3   6 766.182 32.2628   1
   5  -3   7 583.722 28.6347   1
   5  -3   8 121.172 7.25817   1
   5  -3   9 313.215 16.8303   1
   5  -3  10 46.9135 2.90253   1
   5  -3  11 24.0952 4.31685   1
   5  -2   1 394.734 16.3629   1
   5  -2   2 923.639 37.7149   1
   5  -2   3  163.03  6.8956   1
   5  -2   4  484.60  19.534   1
   5  -2   5 169.728  7.1612   1
   5  -2   6 490.045 19.6189   1
   5  -2   7 134.051 6.20707   1
   5  -2   8 313.079 13.8644   1
   5  -2   9 3.16023 0.85148   1
   5  -2  10 35.6009 4.62961   1
   5  -2  11   4.864  1.1086   1
   5  -1   1 219.138 8.81555   1
   5  -1   2 295.201 17.4367   1
   5  -1   3  705.85  31.914   1
   5  -1   4 218.418 9.15598   1
   5  -1   5 562.808 22.6018   1
   5  -1   6 78.1632 3.51896   1
   5  -1   7 85.1222 5.09065   1
   5  -1   8 114.886 5.48211   1
   5  -1   9  0.1102 0.74536   1
   5  -1  10 135.113 7.11483   1
   5   0   0 439.944 18.1168   1
   5   0   1 774.182 32.0364   1
   5   0   2 694.252 27.3033   1
   5   0   3 1017.11   49.20   1
   5   0   4 12.2304  1.7889   1
   5   0   5 363.358   16.94   1
   5   0   6  18.708 1.85714   1
   5   0   7 19.3276 4.14892   1
   5   0   8 0.87324  0.7734   1
   5   0   9 58.2925 3.42738   1
   5   1   0 750.482 31.2006   1
   5   1   1 87.4313 4.39676   1
   5   1   2 884.784 46.8666   1
   5   1   3 77.9397 7.82533   1
   5   1   4 304.684 13.5114   1
   5   1   5 4.33197 1.37785   1
   5   1   6  55.686 3.16931   1
   5   1   7 46.8941 3.22273   1
   5   1   8 42.4536 4.72174   1
   5   1   9 116.122 10.0111   1
   5   2   0 317.439  15.273   1
   5   2   1 614.091 28.1813   1
   5   2   2  255.95 13.6209   1
   5   2   3 25.4462 1.52937   1
   5   2   4 143.804   7.269   1
   5   2   5 15.1552 1.41285   1
   5   2   6 106.219 5.62868   1
   5   2   7 16.0116 2.77558   1
   5   2   8 120.877 9.09039   1
   5   3   0 5.20306 0.80687   1
   5   3   1 202.995 11.0604   1
   5   3   2 8.11541 2.65154   1
   5   3   3 66.4463 4.05451   1
   5   3   4 2.31093 2.91056   1
   5   3   5 159.766  10.604   1
   5   3   6 46.8297 3.29182   1
   5   4   0 97.9267 6.67746   1
   5   4   1 37.5545 3.10245   1
   5   4   2 17.4853 1.94254   1
   5   4   3 46.0742 3.73252   1
   5   4   4 100.265 7.72509   1
   5   4   5 71.8811 6.70251   1
   5   5   0 183.409 19.5975   1
   5   5   1 61.9035 4.71817   1
   5   5   2 95.5967 6.84404   1
   5   5   3 2.43767 1.33484   1
   5   6   0  2.2401 1.34315   1
   6  -8   1 123.691 9.49549   1
   6  -8   2 59.7599 3.71485   1
   6  -8   3 92.9989 5.29853   1
   6  -8   4  26.273 3.05914   1
   6  -8   5 62.0452 6.53243   1
   6  -8   6 6.85596   1.578   1
   6  -7   1 0.39245 0.76905   1
   6  -7   2 174.602 9.23887   1
   6  -7   3 3.57053 1.75404   1
   6  -7   4 130.182 16.0831   1
   6  -7   5 14.8635 1.48464   1
   6  -7   6 209.476  15.319   1
   6  -7   7 49.4117 3.63931   1
   6  -6   1 96.5296 4.80176   1
   6  -6   2 84.4727 4.48773   1
   6  -6   3 220.136 12.4314   1
   6  -6   4 263.361 20.3602   1
   6  -6   5 168.058  8.9277   1
   6  -6   6 323.223 17.8636   1
   6  -6   7 21.0028 1.96937   1
   6  -6   8 62.7526 3.71577   1
   6  -5   1 75.8845 3.54769   1
   6  -5   2 9.05115    1.41   1
   6  -5   3 665.701 28.6314   1
   6  -5   4 19.3291 1.57159   1
   6  -5   5 624.856 49.6981   1
   6  -5   6 5.03951  1.4296   1
   6  -5   7 82.7431  5.2243   1
   6  -5   8  35.509 3.54087   1
   6  -5   9 12.1559 2.51478   1
   6  -4   1 24.7772 1.64483   1
   6  -4   2 725.723 30.2309   1
   6  -4   3  193.71 10.3031   1
   6  -4   4 133.347 6.95602   1
   6  -4   5  214.42 15.0592   1
   6  -4   6 55.0496 7.75973   1
   6  -4   7 41.1489 3.02155   1
   6  -4   8 39.2582 2.99182   1
   6  -4   9  45.839 5.21837   1
   6  -3   1 88.8375 4.03198   1
   6  -3   2 453.506 24.0613   1
   6  -3   3 207.844 9.05124   1
   6  -3   4 222.356 10.9121   1
   6  -3   5 9.58119 1.75117   1
   6  -3   6 126.258 7.42755   1
   6  -3   7 56.6407 3.80433   1
   6  -3   8 187.087 10.8604   1
   6  -3   9 10.5776 2.44934   1
   6  -2   1 690.231 27.6227   1
   6  -2   2 69.9402 3.25589   1
   6  -2   3 3.96427  0.8119   1
   6  -2   4 82.9849 4.37831   1
   6  -2   5 101.744 6.01441   1
   6  -2   6 14.5592 2.63763   1
   6  -2   7  215.55 12.2513   1
   6  -2   8   63.94 10.0727   1
   6  -1   1  283.23 12.5619   1
   6  -1   2 293.214  12.996   1
   6  -1   3  98.975 4.69309   1
   6  -1   4 27.9816 2.42265   1
   6  -1   5 84.8069 8.28174   1
   6  -1   6 13.7115 2.44953   1
   6  -1   7 142.614 8.42817   1
   6  -1   8 0.98552 1.07065   1
   6   0   0 397.873 20.7394   1
   6   0   1   4.598 0.66097   1
   6   0   2  330.45 15.2154   1
   6   0   3 52.2066 2.91445   1
   6   0   4 222.183 10.9883   1
   6   0   5 4.01379 0.82756   1
   6   0   6   44.53 3.46663   1
   6   0   7 14.1195 1.63873   1
   6   1   0 40.5154 3.44398   1
   6   1   1  233.53 13.1979   1
   6   1   2  48.774 3.34822   1
   6   1   3 250.132 14.0219   1
   6   1   4 117.086 6.11839   1
   6   1   5 16.7794 1.65558   1
   6   1   6 149.885 9.57425   1
   6   2   0 11.7823 1.17153   1
   6   2   1 79.4319  4.7494   1
   6   2   2 12.5689 1.32405   1
   6   2   3 100.849 5.38109   1
   6   2   4  3.5384 1.25989   1
   6   2   5 182.015 9.39305   1
   6   3   0 163.883 10.8297   1
   6   3   1 6.94091 1.38433   1
   6   3   2 10.1696 1.85893   1
   6   3   3 19.7169 2.21226   1
   6   4   0  75.713 5.60271   1
   6   4   1 38.4196 5.25235   1
   7  -7   1 249.883 17.8796   1
   7  -7   2  61.394 3.85222   1
   7  -7   3 112.862 6.45146   1
   7  -6   1  247.04 14.8192   1
   7  -6   2 139.661  8.8959   1
   7  -6   3 224.797 12.2999   1
   7  -6   4 0.50164 0.93068   1
   7  -6   5 120.283 7.38697   1
   7  -5   1 9.13359 1.20426   1
   7  -5   2  128.14 6.95601   1
   7  -5   3 21.8487 1.84511   1
   7  -5   4 252.136 14.2598   1
   7  -5   5 46.4667 3.37471   1
   7  -5   6 60.5225  7.9979   1
   7  -4   1 38.8932 3.80728   1
   7  -4   2  83.421 6.44631   1
   7  -4   3  13.972 1.22988   1
   7  -4   4  124.64 8.76103   1
   7  -4   5 12.1453 2.10338   1
   7  -4   6 100.442  6.8409   1
   7  -3   1 301.474 16.6045   1
   7  -3   2 8.93083 1.13531   1
   7  -3   3  13.595 1.27761   1
   7  -3   4 18.7922 2.50606   1
   7  -3   5  24.569 2.76564   1
   7  -3   6 17.5155 2.60803   1
   7  -2   1 85.0345 9.81316   1
   7  -2   2  94.309 5.62837   1
   7  -2   3 39.7338 2.47404   1
   7  -2   4 12.6164 1.77469   1
   7  -2   5 66.2044 4.34707   1
   7  -1   1 5.51535 1.69009   1
   7  -1   2 77.3645 5.51181   1
   7  -1   3-0.75257 1.40179   1
   7  -1   4 193.018 9.82423   1
   7  -1   5 1.99985 1.18582   1
   7   0   0  10.636 1.45459   1
   7   0   1 62.3522 4.63037   1
   7   0   2 41.9521 5.27145   1
   7   0   3 279.776 26.3364   1
   7   0   4 130.801  8.8891   1
   7   1   0 28.6441 2.64562   1
   7   1   1 103.086 7.21683   1
   7   1   2 19.1535 2.12999   1
   7   1   3 286.313 16.3839   1
   7   2   0 181.876 12.5203   1
   7   2   1  11.597 1.96084   1
   0   0   0    0.00    0.00   1
;
#END Tags that were not found in dictionaries
loop_
_symmetry_equiv_pos_as_xyz
'x, y, z'
'-x, -y, -z'
loop_
_atom_site_label
_atom_site_type_symbol
_atom_site_fract_x
_atom_site_fract_y
_atom_site_fract_z
_atom_site_U_iso_or_equiv
_atom_site_adp_type
_atom_site_occupancy
_atom_site_calc_flag
Ni1 Ni 0.67198(4) 0.14279(3) 0.23252(2) 0.01920(12) Uani 1 d
O1 O 0.5956(3) 0.3513(2) 0.36545(15) 0.0295(3) Uani 1 d
O2 O 0.3112(3) 0.0334(2) 0.14399(14) 0.0254(3) Uani 1 d
O3 O 0.7514(3) -0.0644(2) 0.10494(14) 0.0269(3) Uani 1 d
O4 O 0.6337(3) -0.0111(2) 0.34917(15) 0.0294(3) Uani 1 d
O5 O 1.0394(3) 0.2370(2) 0.31464(15) 0.0293(3) Uani 1 d
O6 O 0.7223(3) 0.3086(2) 0.12634(16) 0.0302(3) Uani 1 d
H11 H 0.669(6) 0.451(3) 0.368(3) 0.044(9) Uiso 1 d
H12 H 0.638(6) 0.348(5) 0.4318(18) 0.044(9) Uiso 1 d
H21 H 0.260(6) -0.072(2) 0.139(3) 0.046(9) Uiso 1 d
H22 H 0.215(5) 0.072(5) 0.177(3) 0.047(9) Uiso 1 d
H31 H 0.698(6) -0.167(3) 0.107(3) 0.045(9) Uiso 1 d
H32 H 0.725(6) -0.072(5) 0.0359(15) 0.036(8) Uiso 1 d
H41 H 0.502(3) -0.050(4) 0.355(3) 0.037(8) Uiso 1 d
H42 H 0.699(7) -0.084(5) 0.362(4) 0.060(11) Uiso 1 d
H51 H 1.106(7) 0.342(3) 0.327(4) 0.061(12) Uiso 1 d
H52 H 1.071(7) 0.217(6) 0.376(2) 0.062(11) Uiso 1 d
H61 H 0.856(3) 0.340(5) 0.121(3) 0.043(9) Uiso 1 d
H62 H 0.667(7) 0.394(4) 0.132(4) 0.055(10) Uiso 1 d
O11 O 0.2081(3) 0.3844(2) 0.12394(19) 0.0380(4) Uani 1 d
O12 O 0.5195(3) 0.6047(2) 0.1354(2) 0.0413(4) Uani 1 d
O13 O 0.1637(3) 0.6558(2) 0.12322(16) 0.0341(4) Uani 1 d
N1 N 0.2957(3) 0.5496(2) 0.12718(15) 0.0257(3) Uani 1 d
O21 O 0.2137(4) 0.6549(3) 0.39635(16) 0.0392(4) Uani 1 d
O22 O 0.1528(4) 0.9104(3) 0.37056(18) 0.0415(4) Uani 1 d
O23 O -0.1306(4) 0.7201(3) 0.4096(2) 0.0486(5) Uani 1 d
N2 N 0.0785(4) 0.7613(3) 0.39121(16) 0.0291(4) Uani 1 d
loop_
_atom_site_aniso_label
_atom_site_aniso_U_11
_atom_site_aniso_U_22
_atom_site_aniso_U_33
_atom_site_aniso_U_23
_atom_site_aniso_U_13
_atom_site_aniso_U_12
Ni1 0.01903(16) 0.01734(15) 0.02156(16) 0.00712(10) 0.00412(9) 0.00437(9)
O1 0.0354(8) 0.0239(7) 0.0289(7) 0.0066(6) 0.0069(6) 0.0093(6)
O2 0.0210(7) 0.0237(7) 0.0319(7) 0.0098(6) 0.0056(5) 0.0057(5)
O3 0.0316(8) 0.0223(7) 0.0252(7) 0.0045(5) 0.0065(6) 0.0075(6)
O4 0.0327(8) 0.0281(7) 0.0334(8) 0.0166(6) 0.0094(6) 0.0100(6)
O5 0.0226(7) 0.0302(8) 0.0333(8) 0.0140(6) 0.0005(6) 0.0016(6)
O6 0.0284(8) 0.0298(7) 0.0414(8) 0.0215(7) 0.0123(6) 0.0101(6)
O11 0.0371(9) 0.0233(7) 0.0605(11) 0.0217(7) 0.0168(8) 0.0068(6)
O12 0.0309(8) 0.0298(8) 0.0658(12) 0.0189(8) 0.0141(8) 0.0059(7)
O13 0.0385(9) 0.0260(7) 0.0423(9) 0.0134(6) 0.0095(7) 0.0141(6)
N1 0.0314(8) 0.0214(7) 0.0249(7) 0.0086(6) 0.0080(6) 0.0054(6)
O21 0.0469(10) 0.0395(9) 0.0364(8) 0.0132(7) 0.0074(7) 0.0222(8)
O22 0.0522(11) 0.0365(9) 0.0472(10) 0.0229(8) 0.0215(8) 0.0158(8)
O23 0.0361(9) 0.0390(10) 0.0728(14) 0.0191(10) 0.0184(9) 0.0080(8)
N2 0.0346(9) 0.0289(8) 0.0251(8) 0.0087(6) 0.0064(7) 0.0105(7)
loop_
_atom_type_symbol
_atom_type_description
_atom_type_scat_dispersion_real
_atom_type_scat_dispersion_imag
_atom_type_scat_source
Ni Ni 0.3393 1.1124 'International Tables Vol C Tables 4.2.6.8 and 6.1.1.4'
O O 0.0106 0.006 'International Tables Vol C Tables 4.2.6.8 and 6.1.1.4'
N N 0.0061 0.0033 'International Tables Vol C Tables 4.2.6.8 and 6.1.1.4'
H H 0 0 'International Tables Vol C Tables 4.2.6.8 and 6.1.1.4'
loop_
_geom_angle_atom_site_label_1
_geom_angle_atom_site_label_2
_geom_angle_atom_site_label_3
_geom_angle
O6 Ni1 O4 176.40(6)
O6 Ni1 O3 89.33(7)
O4 Ni1 O3 93.18(6)
O6 Ni1 O2 90.68(6)
O4 Ni1 O2 91.97(6)
O3 Ni1 O2 88.45(6)
O6 Ni1 O1 91.79(7)
O4 Ni1 O1 85.66(7)
O3 Ni1 O1 178.60(6)
O2 Ni1 O1 92.37(6)
O6 Ni1 O5 90.04(6)
O4 Ni1 O5 87.47(7)
O3 Ni1 O5 87.87(7)
O2 Ni1 O5 176.24(6)
O1 Ni1 O5 91.30(7)
Ni1 O1 H11 111(3)
Ni1 O1 H12 113(3)
H11 O1 H12 103(4)
Ni1 O2 H21 114(3)
Ni1 O2 H22 118(3)
H21 O2 H22 97(4)
Ni1 O3 H31 114(3)
Ni1 O3 H32 121(2)
H31 O3 H32 106(4)
Ni1 O4 H41 116(2)
Ni1 O4 H42 131(3)
H41 O4 H42 104(4)
Ni1 O5 H51 119(3)
Ni1 O5 H52 114(3)
H51 O5 H52 105(4)
Ni1 O6 H61 114(3)
Ni1 O6 H62 123(3)
H61 O6 H62 108(4)
O13 N1 O11 120.26(18)
O13 N1 O12 121.09(17)
O11 N1 O12 118.65(17)
O22 N2 O23 119.38(19)
O22 N2 O21 120.2(2)
O23 N2 O21 120.4(2)
loop_
_geom_bond_atom_site_label_1
_geom_bond_atom_site_label_2
_geom_bond_distance
Ni1 O6 2.0173(15)
Ni1 O4 2.0429(15)
Ni1 O3 2.0483(15)
Ni1 O2 2.0756(15)
Ni1 O1 2.0810(16)
Ni1 O5 2.0883(15)
O1 H11 0.783(15)
O1 H12 0.787(15)
O2 H21 0.783(15)
O2 H22 0.783(15)
O3 H31 0.793(15)
O3 H32 0.783(15)
O4 H41 0.779(15)
O4 H42 0.780(15)
O5 H51 0.781(15)
O5 H52 0.781(15)
O6 H61 0.783(15)
O6 H62 0.783(15)
O11 N1 1.254(2)
O12 N1 1.259(3)
O13 N1 1.239(2)
O21 N2 1.256(2)
O22 N2 1.239(3)
O23 N2 1.254(3)
