#------------------------------------------------------------------------------
#$Date: 2016-02-18 17:37:37 +0200 (Thu, 18 Feb 2016) $
#$Revision: 176729 $
#$URL: svn://www.crystallography.net/cod/cif/1/51/83/1518390.cif $
#------------------------------------------------------------------------------
#
# This file is available in the Crystallography Open Database (COD),
# http://www.crystallography.net/
#
# All data on this site have been placed in the public domain by the
# contributors.
#
data_1518390
loop_
_publ_author_name
'Zhao, Liang'
'Wang, Jinlian'
'Zheng, Hongyan'
'Li, Yun'
'Yang, Ke'
'Cheng, Bin'
'Jin, Xiaojie'
'Yao, Xiaojun'
'Zhai, Hongbin'
_publ_section_title
;
 Silver(I)-catalyzed ring-contractive rearrangement: a new entry to
 5-alkylidene-2-cyclopentenones.
;
_journal_issue                   24
_journal_name_full               'Organic letters'
_journal_page_first              6378
_journal_page_last               6381
_journal_paper_doi               10.1021/ol503176y
_journal_volume                  16
_journal_year                    2014
_chemical_formula_moiety         'C10 H12 O'
_chemical_formula_sum            'C10 H12 O'
_chemical_formula_weight         148.20
_chemical_name_systematic
;
 ?
;
_space_group_crystal_system      triclinic
_space_group_IT_number           2
_space_group_name_Hall           '-P 1'
_space_group_name_H-M_alt        'P -1'
_symmetry_space_group_name_Hall  '-P 1'
_symmetry_space_group_name_H-M   'P -1'
_atom_sites_solution_hydrogens   mixed
_atom_sites_solution_primary     direct
_audit_creation_date             2013-12-09
_audit_creation_method
;
Olex2 1.2
(compiled 2013.11.15 svn.r2834 for OlexSys, GUI svn.r4720)
;
_cell_angle_alpha                94.92(2)
_cell_angle_beta                 98.689(15)
_cell_angle_gamma                110.41(2)
_cell_formula_units_Z            2
_cell_length_a                   6.4700(12)
_cell_length_b                   7.714(3)
_cell_length_c                   9.5819(17)
_cell_measurement_reflns_used    985
_cell_measurement_temperature    293(2)
_cell_measurement_theta_max      25.6300
_cell_measurement_theta_min      4.0260
_cell_volume                     438.1(2)
_computing_cell_refinement
;
CrysAlisPro, Agilent Technologies,
Version 1.171.36.28 (release 01-02-2013 CrysAlis171 .NET)
(compiled Feb  1 2013,16:14:44)
;
_computing_data_collection
;
CrysAlisPro, Agilent Technologies,
Version 1.171.36.28 (release 01-02-2013 CrysAlis171 .NET)
(compiled Feb  1 2013,16:14:44)
;
_computing_data_reduction
;
CrysAlisPro, Agilent Technologies,
Version 1.171.36.28 (release 01-02-2013 CrysAlis171 .NET)
(compiled Feb  1 2013,16:14:44)
;
_computing_molecular_graphics    'Olex2 (Dolomanov et al., 2009)'
_computing_publication_material  'Olex2 (Dolomanov et al., 2009)'
_computing_structure_refinement  'ShelXL (Sheldrick, 2008)'
_computing_structure_solution    'ShelXS (Sheldrick, 2008)'
_diffrn_ambient_temperature      293(2)
_diffrn_detector_area_resol_mean 16.0733
_diffrn_measured_fraction_theta_full 0.997
_diffrn_measured_fraction_theta_max 0.999
_diffrn_measurement_device_type  'SuperNova, Dual, Cu at zero, Eos'
_diffrn_measurement_method       '\w scans'
_diffrn_orient_matrix_UB_11      -0.0118379000
_diffrn_orient_matrix_UB_12      -0.0169826000
_diffrn_orient_matrix_UB_13      0.0705546000
_diffrn_orient_matrix_UB_21      -0.0895180000
_diffrn_orient_matrix_UB_22      -0.0863748000
_diffrn_orient_matrix_UB_23      -0.0276013000
_diffrn_orient_matrix_UB_31      0.0779333000
_diffrn_orient_matrix_UB_32      -0.0460282000
_diffrn_orient_matrix_UB_33      0.0014759000
_diffrn_radiation_monochromator  mirror
_diffrn_radiation_type           MoK\a
_diffrn_radiation_wavelength     0.710
_diffrn_reflns_av_R_equivalents  0.0232
_diffrn_reflns_av_unetI/netI     0.0376
_diffrn_reflns_Laue_measured_fraction_full 0.997
_diffrn_reflns_Laue_measured_fraction_max 0.999
_diffrn_reflns_limit_h_max       7
_diffrn_reflns_limit_h_min       -7
_diffrn_reflns_limit_k_max       9
_diffrn_reflns_limit_k_min       -9
_diffrn_reflns_limit_l_max       11
_diffrn_reflns_limit_l_min       -11
_diffrn_reflns_number            2648
_diffrn_reflns_point_group_measured_fraction_full 0.997
_diffrn_reflns_point_group_measured_fraction_max 0.999
_diffrn_reflns_theta_full        25.214
_diffrn_reflns_theta_max         25.974
_diffrn_reflns_theta_min         3.313
_diffrn_source                   'SuperNova (Mo) X-ray Source'
_exptl_absorpt_coefficient_mu    0.071
_exptl_absorpt_correction_T_max  1.00000
_exptl_absorpt_correction_T_min  0.63743
_exptl_absorpt_correction_type   multi-scan
_exptl_absorpt_process_details
;
CrysAlisPro, Agilent Technologies,
Version 1.171.36.28 (release 01-02-2013 CrysAlis171 .NET)
(compiled Feb  1 2013,16:14:44)
Empirical absorption correction using spherical harmonics,
 implemented in SCALE3 ABSPACK scaling algorithm.
;
_exptl_crystal_colour            'clear light colourless'
_exptl_crystal_density_diffrn    1.123
_exptl_crystal_description       block
_exptl_crystal_F_000             160
_exptl_crystal_size_max          0.32
_exptl_crystal_size_mid          0.22
_exptl_crystal_size_min          0.2
_refine_diff_density_max         0.155
_refine_diff_density_min         -0.173
_refine_diff_density_rms         0.040
_refine_ls_extinction_method     none
_refine_ls_goodness_of_fit_ref   1.081
_refine_ls_hydrogen_treatment    mixed
_refine_ls_matrix_type           full
_refine_ls_number_parameters     118
_refine_ls_number_reflns         1717
_refine_ls_number_restraints     0
_refine_ls_restrained_S_all      1.081
_refine_ls_R_factor_all          0.0811
_refine_ls_R_factor_gt           0.0587
_refine_ls_shift/su_max          0.001
_refine_ls_shift/su_mean         0.000
_refine_ls_structure_factor_coef Fsqd
_refine_ls_weighting_details
;
 w=1/[\s^2^(Fo^2^)+(0.0738P)^2^+0.0864P]
 where P=(Fo^2^+2Fc^2^)/3
;
_refine_ls_weighting_scheme      calc
_refine_ls_wR_factor_gt          0.1661
_refine_ls_wR_factor_ref         0.1863
_reflns_Friedel_coverage         0.000
_reflns_number_gt                1158
_reflns_number_total             1717
_reflns_threshold_expression     'I > 2\s(I)'
_cod_data_source_file            ol503176y_si_001.cif
_cod_data_source_block           zhaoliang1209
_cod_depositor_comments
'Adding full bibliography for 1518390--1518391.cif.'
_cod_database_code               1518390
#BEGIN Tags that were not found in dictionaries:
_shelxl_version_number           2013-2
_shelx_space_group_comment
;
The symmetry employed for this shelxl refinement is uniquely defined
by the following loop, which should always be used as a source of
symmetry information in preference to the above space-group names.
They are only intended as comments.
;
_reflns_odcompleteness_completeness 99.83
_reflns_odcompleteness_iscentric 1
_reflns_odcompleteness_theta     26.32
_olex2_refinement_description
;
1. Fixed Uiso
 At 1.2 times of:
  All C(H) groups
 At 1.5 times of:
  All C(H,H,H) groups
2.a Aromatic/amide H refined with riding coordinates:
 C3(H3), C6(H6)
2.b Idealised Me refined as rotating group:
 C9(H9A,H9B,H9C), C10(H10A,H10B,H10C)
;
_shelx_res_file
;
TITL zhaoliang1209 in P-1 #2
CELL 0.71 6.46997 7.714011 9.581852 94.9167 98.6885 110.4061
ZERR 2 0.00123 0.002769 0.001671 0.0206 0.0151 0.0243
LATT 1

SFAC C H O
UNIT 20 24 2

L.S. 20
PLAN  20
BOND $H
HTAb
MORE -1
CONF
fmap 2 53
acta
SHEL 999 0.81
REM <HKL>D:\olex2_zhaoliang1209\zhaoliang1209.hkl</HKL>

WGHT    0.073800    0.086400
FVAR      12.33994
O1    3    0.441135    0.844845    0.659703    11.00000    0.04753    0.14058 =
         0.09670    0.04059    0.01316    0.03433
C1    1    0.242279    0.775137    0.665976    11.00000    0.04889    0.06819 =
         0.06800    0.01134    0.01041    0.02595
C2    1    0.154582    0.699003    0.788955    11.00000    0.06691    0.06374 =
         0.05735    0.01054    0.00740    0.02546
C3    1   -0.067357    0.634210    0.755941    11.00000    0.06318    0.07970 =
         0.07016    0.02214    0.01935    0.01532
AFIX  43
H3    2   -0.157950    0.579444    0.818979    11.00000   -1.20000
AFIX   0
C4    1   -0.160375    0.656176    0.609379    11.00000    0.04700    0.06423 =
         0.06919    0.01381    0.01164    0.01484
H4A   2   -0.257914    0.729544    0.612397    11.00000    0.07461
H4B   2   -0.262532    0.528348    0.553981    11.00000    0.07757
C5    1    0.047396    0.750581    0.551354    11.00000    0.04547    0.05472 =
         0.05960    0.00815    0.01101    0.02176
C6    1    0.077753    0.810610    0.426549    11.00000    0.04903    0.06022 =
         0.06275    0.00956    0.01276    0.02225
AFIX  43
H6    2    0.227181    0.865944    0.418167    11.00000   -1.20000
AFIX   0
C7    1   -0.085420    0.803226    0.301874    11.00000    0.06529    0.05726 =
         0.05827    0.00767    0.00809    0.02314
C8    1   -0.010308    0.873780    0.189440    11.00000    0.08931    0.08394 =
         0.06205    0.01373    0.00954    0.02785
H8A   2   -0.110375    0.873799    0.103218    11.00000    0.09206
H8B   2    0.148011    0.929852    0.189058    11.00000    0.09194
C9    1   -0.332540    0.718911    0.302487    11.00000    0.05900    0.08674 =
         0.07858    0.01477   -0.00735    0.01970
AFIX 137
H9A   2   -0.371167    0.591135    0.318185    11.00000   -1.50000
H9B   2   -0.416559    0.723577    0.212235    11.00000   -1.50000
H9C   2   -0.367779    0.788150    0.377433    11.00000   -1.50000
AFIX   0
C10   1    0.306696    0.702669    0.924609    11.00000    0.09810    0.10270 =
         0.06514    0.01516   -0.00270    0.03719
AFIX 137
H10A  2    0.390612    0.624948    0.906593    11.00000   -1.50000
H10B  2    0.218327    0.656702    0.994864    11.00000   -1.50000
H10C  2    0.408572    0.828706    0.959253    11.00000   -1.50000
AFIX   0
HKLF 4

REM  zhaoliang1209 in P-1 #2
REM R1 =  0.0587 for    1158 Fo > 4sig(Fo)  and  0.0811 for all    1717 data
REM    118 parameters refined using      0 restraints

END

WGHT      0.0574      0.1088

REM No hydrogen bonds found for HTAB generation

REM Highest difference peak  0.155,  deepest hole -0.173,  1-sigma level  0.040
Q1    1   0.2846  0.5353  0.9308  11.00000  0.05    0.16
Q2    1   0.2988  0.8043  0.9958  11.00000  0.05    0.12
Q3    1   0.3435  0.8405  0.2100  11.00000  0.05    0.12
Q4    1   0.0000  0.5000  0.5000  10.50000  0.05    0.11
Q5    1   0.2255  0.8362  1.0231  11.00000  0.05    0.10
Q6    1  -0.0948  0.6564  0.0427  11.00000  0.05    0.10
Q7    1  -0.3949  0.8188  0.4542  11.00000  0.05    0.10
Q8    1   0.1267  0.6488  0.3994  11.00000  0.05    0.10
Q9    1  -0.3715  0.6460  0.7935  11.00000  0.05    0.09
Q10   1   0.5081  0.7582  0.9003  11.00000  0.05    0.09
Q11   1  -0.3261  0.7964  0.7979  11.00000  0.05    0.09
Q12   1  -0.1957  0.4806  0.3359  11.00000  0.05    0.09
Q13   1   0.5830  0.5257  0.8894  11.00000  0.05    0.09
Q14   1  -0.3203  0.5894  0.8285  11.00000  0.05    0.09
Q15   1   0.3126  0.8058  0.4407  11.00000  0.05    0.09
Q16   1   0.1172  0.9620  0.5516  11.00000  0.05    0.09
Q17   1   0.5074  0.6630  0.6934  11.00000  0.05    0.09
Q18   1  -0.2534  0.8196  0.5821  11.00000  0.05    0.09
Q19   1   0.5829  0.8000  0.7138  11.00000  0.05    0.09
Q20   1   0.0981  0.7981  0.1974  11.00000  0.05    0.09
;
_shelx_res_checksum              91615
_shelx_hkl_file
;
   0   0  -2 107796. 1499.98   4
   0   0   2 110942. 1423.95   3
   0   0   3 38975.2 668.001   3
   0   0  -3 39013.0 754.099   4
   0   0  -4 4034.22 232.526   4
   0   0   4 3435.77 178.562   3
   0   0  -5 1382.27 151.484   4
   0   0   5 1352.88 124.891   3
   0   0   6 965.386 122.640   3
   0   0  -6 1557.44 185.029   4
   0   0   7 1537.55 167.359   3
   0   0  -7 2184.05 240.035   4
   0   0  -8 9171.53 525.301   4
   0   0   8 8591.09 429.493   3
   0   0  -9 1593.08 233.994   4
   0   0   9 1435.88 185.786   3
   0   0 -10 526.861 136.887   4
   0   0  10 392.223 105.862   3
   0   0 -11 328.566 121.777   4
   0   1 -11 117.349 77.0601   4
   0   1 -10 74.1430 52.9043   4
   0  -1  10 1.50967 20.4077   3
   0   1  -9 2627.02 294.386   4
   0  -1   9 2714.68 253.402   3
   0  -1   8 15494.9 585.465   3
   0   1  -8 14821.7 669.311   4
   0  -1   7 190.949 58.1206   3
   0   1  -7 179.690 78.5917   4
   0   1  -6 33510.4 902.645   4
   0  -1   6 32977.2 781.238   3
   0  -1   5 20.7166 14.9407   3
   0   1  -5 16.5306 18.1089   4
   0   1  -4 1516.50 142.455   4
   0  -1   4 1574.26 120.833   3
   0   1  -3 32185.7 620.761   3
   0  -1   3 33472.6 592.159   2
   0   1  -3 34028.1 696.929   4
   0   1  -3 33318.6 562.084   2
   0  -1   3 34000.8 619.300   3
   0   1  -2 5774.89 216.193   4
   0  -1   2 5558.36 186.559   3
   0   1  -1 20070.5 388.132   4
   0  -1  -1 62011.7 892.964   4
   0  -1  -1 61923.8 910.842   5
   0  -1  -2 880.549 76.2638   5
   0  -1  -2 926.256 83.0627   4
   0  -1  -3 14937.9 390.045   5
   0  -1  -3 14169.6 408.609   4
   0  -1  -4 4593.09 250.969   4
   0  -1  -5 590.401 98.8140   4
   0   1   5 690.381 94.1264   3
   0  -1  -6 858.312 133.471   4
   0   1   6 775.318 106.214   3
   0   1   7 1277.60 148.158   3
   0  -1  -7 1223.99 172.353   4
   0   1   8 1896.85 196.138   3
   0  -1  -8 1986.13 241.361   4
   0  -1  -9 1007.12 185.858   4
   0   1   9 822.216 138.610   3
   0  -1 -10 19.2180 34.7451   4
   0   1  10-29.5682 36.2696   3
   0  -1 -11 490.213 145.508   4
   0   2 -11-4.83512 34.1063   4
   0  -2  10 56.8303 42.6650   3
   0   2 -10-23.8546 31.5670   4
   0  -2   9 41.1019 38.1629   3
   0   2  -9 4.65352 22.7313   4
   0  -2   8 2037.83 207.558   3
   0   2  -8 1845.22 232.851   4
   0   2  -7 2295.32 240.179   4
   0  -2   7 2614.70 219.743   3
   0  -2   6 1778.47 167.849   3
   0   2  -6 2049.15 210.430   4
   0   2  -5 8642.97 298.887   2
   0  -2   5 8699.77 354.411   3
   0   2  -5 8751.92 404.370   4
   0   2  -4 53764.1 1077.44   4
   0   2  -4 53972.5 909.239   2
   0  -2   4 54198.6 985.906   3
   0   2  -4 52637.6 851.369   1
   0  -2   3 33771.3 698.204   3
   0   2  -3 33168.2 744.610   4
   0   2  -3 35082.6 651.782   2
   0  -2   2 2096.02 141.494   3
   0  -2   1 3571.69 184.591   5
   0  -2   0 490175. 5988.48   5
   0  -2  -1 209821. 2811.74   5
   0  -2  -1 212075. 2754.16   4
   0  -2  -2 29848.2 630.922   4
   0  -2  -2 29604.5 648.479   5
   0  -2  -3 10845.6 378.794   5
   0  -2  -3 11228.4 386.961   4
   0  -2  -4 16355.8 519.754   4
   0  -2  -4 16741.3 502.669   5
   0  -2  -5 13372.0 476.238   5
   0  -2  -5 12780.1 497.917   4
   0  -2  -6 2492.36 230.159   4
   0  -2  -7 1254.75 176.914   4
   0   2   7 1386.88 169.132   3
   0  -2  -8 4061.73 349.017   4
   0   2   8 4371.59 317.431   3
   0  -2  -9 2308.69 281.851   4
   0   2   9 2662.11 261.452   3
   0   2  10 137.008 67.2911   3
   0  -2 -10 105.051 60.2335   4
   0  -2 -11 28.1619 37.3383   4
   0   3 -11 42.3675 57.4916   4
   0  -3  10 99.5786 57.1477   3
   0   3 -10 230.836 95.9457   4
   0   3  -9 613.835 145.245   4
   0  -3   9 353.374 96.8929   3
   0   3  -8 8988.00 524.730   4
   0  -3   8 7759.16 428.703   3
   0   3  -7 5055.05 366.517   4
   0  -3   7 5304.24 330.571   3
   0   3  -6 16499.9 638.304   4
   0  -3   6 16839.8 579.352   3
   0   3  -6 16661.4 486.506   2
   0  -3   5 1825.69 172.401   3
   0   3  -5 1494.44 134.422   2
   0   3  -5 1543.71 175.889   4
   0   3  -4 21479.1 547.468   2
   0  -3   4 21021.8 614.911   3
   0   3  -4 20629.3 638.921   4
   0  -3   3 26831.7 688.877   3
   0  -3   2 7334.39 333.029   5
   0  -3   1 11713.8 422.869   5
   0  -3   0 1747.07 153.502   5
   0  -3  -1 16704.6 524.122   5
   0  -3  -2 2161.21 169.157   4
   0  -3  -2 2070.96 177.205   5
   0  -3  -3 900.930 124.930   5
   0  -3  -3 900.776 117.637   4
   0  -3  -4 463.903 88.2907   4
   0  -3  -4 472.966 88.9668   5
   0  -3  -5 638.188 112.146   5
   0  -3  -5 705.501 117.866   4
   0  -3  -6 879.971 141.258   4
   0  -3  -6 726.640 125.016   5
   0  -3  -7 19.9958 16.4395   4
   0   3   8-12.8755 47.6151   3
   0  -3  -8 9.80289 36.2683   4
   0   3   9 127.423 69.9395   3
   0  -3  -9 238.556 92.0920   4
   0   3  10-60.4546 46.6283   3
   0  -3 -10-17.5731 42.1946   4
   0  -3 -11 50.3342 51.2524   4
   0   4 -11 53.6078 45.0654   4
   0   4 -10 79.8205 74.3546   4
   0  -4   9 186.828 74.5285   3
   0   4  -9 180.262 83.9334   4
   0  -4   8 556.494 119.699   3
   0   4  -8 713.108 150.005   4
   0  -4   7 11.8006 23.5774   3
   0   4  -7 13.7493 40.2685   4
   0  -4   6 582.896 110.363   3
   0   4  -6 667.478 127.802   4
   0  -4   5 83.4430 40.1749   3
   0  -4   4 3048.72 258.664   5
   0  -4   3 4283.88 293.124   5
   0  -4   2 4961.18 312.258   5
   0  -4   1 731.716 111.356   5
   0  -4   0 14.7954 22.8438   5
   0  -4  -1 13882.8 529.611   5
   0  -4  -2 1936.19 194.623   5
   0  -4  -2 1985.18 183.452   4
   0  -4  -3 96.6875 46.9516   5
   0  -4  -3 109.487 45.1994   4
   0  -4  -4 2747.22 256.034   5
   0  -4  -4 2565.39 230.176   4
   0  -4  -5 8434.21 445.071   4
   0  -4  -5 8279.22 452.043   5
   0  -4  -6 55.7728 44.9940   4
   0  -4  -6 25.5039 30.3364   5
   0  -4  -7 802.221 150.522   4
   0  -4  -7 673.150 135.722   5
   0  -4  -8 707.531 148.813   4
   0  -4  -9 969.341 190.045   4
   0   4   9 1494.03 238.432   3
   0  -4 -10 52.4482 51.9645   4
   0   4  10-60.7971 52.6558   3
   0   5 -10 127.937 68.0725   4
   0  -5   9-38.8872 36.9388   3
   0   5  -9 10.6935 32.5646   4
   0  -5   8 12.8717 24.4709   3
   0  -5   7 6231.02 429.275   3
   0   5  -7 6699.86 374.038   2
   0  -5   6 592.790 135.179   5
   0   5  -6 651.033 117.077   2
   0  -5   5 61.7175 33.8872   5
   0  -5   4 3215.78 287.330   5
   0  -5   3 10141.6 516.497   5
   0  -5   2 792.586 134.887   5
   0  -5   1 7698.82 430.260   5
   0  -5   0 278.121 89.7116   5
   0  -5  -1 2154.89 223.755   5
   0  -5  -2-9.93715 25.4808   4
   0  -5  -2-9.91031 37.4277   5
   0  -5  -3 238.120 69.1297   4
   0  -5  -3 303.488 86.5789   5
   0  -5  -4 522.434 107.997   4
   0  -5  -4 555.583 120.621   5
   0  -5  -5 772.341 138.090   4
   0  -5  -5 937.112 168.042   5
   0  -5  -6 279.624 88.4869   4
   0  -5  -6 389.121 109.600   5
   0  -5  -7-4.44326 44.6432   5
   0  -5  -7 8.31838 16.9621   4
   0  -5  -8 38.3923 23.0043   4
   0  -5  -8 60.4560 55.5944   5
   0  -5  -9-62.5195 51.5764   4
   0  -6  10 152.831 83.7049   5
   0  -6   9 189.397 91.9982   5
   0  -6   8 112.802 69.0156   5
   0  -6   7 172.417 83.5450   5
   0   6  -6 52.5122 33.8620   2
   0  -6   6 117.275 71.1472   5
   0  -6   5 87.1117 58.9958   5
   0  -6   4 174.310 72.1369   5
   0  -6   3 138.010 59.7307   5
   0  -6   2 438.104 110.792   5
   0  -6   1 18.2636 24.9159   5
   0  -6   0 4020.10 344.793   5
   0  -6  -1 44.9719 48.0266   5
   0  -6  -1 24.1488 30.6574   4
   0  -6  -2 34.8606 29.3683   4
   0  -6  -2-1.45796 30.3540   5
   0  -6  -3 1685.45 207.785   4
   0  -6  -3 2026.28 251.077   5
   0  -6  -4 80.9824 52.0368   5
   0  -6  -4 98.3835 50.2623   4
   0  -6  -5 833.258 173.073   5
   0  -6  -5 674.228 139.402   4
   0  -6  -6 449.690 130.696   5
   0  -6  -6 344.610 101.206   4
   0  -6  -7 13.1355 26.4784   4
   0  -6  -7 40.9762 46.9709   5
   0  -6  -8 14.4246 30.6539   4
   0  -6  -8 42.7650 43.7916   5
   0  -7  10 36.5716 44.2596   5
   0  -7   9-34.2232 42.8522   5
   0  -7   8 58.7320 53.1669   5
   0  -7   7 418.298 131.098   5
   0  -7   6 1774.34 265.946   5
   0  -7   5 405.146 120.752   5
   0  -7   4 52.4706 47.9136   5
   0  -7   3 1233.53 208.410   5
   0  -7   2 707.349 156.015   5
   0  -7   1 583.094 136.715   5
   0  -7   0 4539.89 390.923   5
   0  -7  -1 849.528 152.950   4
   0  -7  -1 1017.18 186.076   5
   0  -7  -2 795.185 153.737   4
   0  -7  -2 670.858 154.982   5
   0  -7  -3 23.4249 24.9546   5
   0  -7  -3 49.5591 37.0424   4
   0  -7  -4 100.616 63.1671   5
   0  -7  -4-24.7700 29.0420   4
   0  -7  -5 82.8254 58.0750   5
   0  -7  -5 111.840 56.7316   4
   0  -7  -6 310.112 103.920   5
   0  -8   8 5.46594 25.7663   5
   0  -8   7-17.0538 33.6054   5
   0  -8   6 15.8811 33.8690   5
   0  -8   5 255.807 108.511   5
   0  -8   4 26.0575 39.5189   5
   0  -8   3 165.685 81.2172   5
   0  -8   2 364.386 125.597   5
   0  -8   1 112.805 61.0318   5
   0  -8   0 1691.13 252.909   5
   0  -8  -1-62.4217 51.7163   5
   0  -8  -1 95.3676 56.5868   4
   0  -8  -2 52.9763 42.5763   5
   0  -8  -3 44.6038 48.9589   5
   0  -8  -4 767.764 184.628   5
   0  -9   3 195.575 103.334   5
   0  -9   2 366.364 129.488   5
   0  -9   1 44.6317 51.8503   5
   1  -9  -2 82.8009 61.3412   5
   1  -9  -1 14.2191 28.2532   5
   1  -9   0 60.0561 34.9354   5
   1  -9   1 130.612 82.8616   5
   1  -9   2 312.771 117.197   5
   1  -9   3 58.8452 60.3850   5
   1  -9   4 75.7644 68.9236   5
   1  -9   5 385.299 144.631   5
   1  -9   6 259.472 113.398   5
   1  -8  -5 53.3031 53.4125   5
   1  -8  -4 161.965 83.3770   5
   1  -8  -3 122.033 70.4196   5
   1  -8  -2 6.49773 19.9989   5
   1  -8  -1 1.03759 32.1341   5
   1  -8   0-27.7464 47.3520   5
   1  -8   1-53.3671 47.3653   5
   1  -8   2 56.8270 60.0065   5
   1  -8   3-45.5396 44.3114   5
   1  -8   4-2.40787 50.6557   5
   1  -8   5 106.461 71.4176   5
   1  -8   6 19.9023 24.2194   5
  -1   8  -6-3.02545 31.3038   2
   1  -8   7 166.053 89.2713   5
   1  -8   8-32.3436 41.1974   5
   1  -7  -7 25.4228 24.9700   5
   1  -7  -6 262.480 103.798   5
   1  -7  -5 85.5450 58.2079   5
   1  -7  -4 71.2988 64.9599   5
   1  -7  -3-56.0881 45.4611   5
   1  -7  -2 593.804 136.502   5
   1  -7  -2 579.446 109.785   4
   1  -7  -1 14.1632 20.8000   4
   1  -7  -1-70.1902 55.8593   5
   1  -7   0 741.374 148.082   5
   1  -7   1 77.4895 50.5628   5
   1  -7   2 2662.99 290.212   5
   1  -7   3 1076.70 190.754   5
   1  -7   4 256.754 91.7122   5
   1  -7   5 0.62087 35.6652   5
   1  -7   6 3768.30 382.469   5
  -1   7  -6 3455.37 327.867   2
   1  -7   7 485.165 139.293   5
   1  -7   8 21.4346 34.7094   5
   1  -7   9 59.2077 52.9262   5
   1  -6  -8 70.4879 56.6673   5
   1  -6  -7-28.9994 54.0756   5
   1  -6  -6 818.622 167.821   5
   1  -6  -6 886.468 147.633   4
   1  -6  -5 349.094 102.190   5
   1  -6  -5 288.127 82.7452   4
   1  -6  -4 161.432 68.0347   5
   1  -6  -4 39.9326 35.8222   4
   1  -6  -3 345.319 79.3156   4
   1  -6  -3 539.630 120.812   5
   1  -6  -2 7340.54 375.677   4
   1  -6  -2 7902.69 460.786   5
   1  -6  -1 2368.16 210.491   4
   1  -6  -1 1912.90 218.887   5
   1  -6   0 654.465 126.640   5
   1  -6   1 68.1933 52.4983   5
   1  -6   2 1293.03 182.848   5
   1  -6   3 1366.05 191.447   5
   1  -6   4 113.400 55.0899   5
  -1   6  -5 296.634 85.9173   2
   1  -6   5 193.322 85.7409   5
  -1   6  -6 102.417 45.8192   2
   1  -6   6 123.849 63.3621   5
  -1   6  -7 418.621 105.137   2
   1  -6   7 405.192 115.451   5
   1  -6   8 53.6314 39.2647   5
   1  -6   9 31.3225 37.2489   5
  -1   6 -10-27.3103 40.8232   4
  -1   5  10 154.385 102.798   3
  -1   5   9-131.022 81.1984   3
   1  -5  -9-21.8293 31.5145   4
   1  -5  -8 57.0280 48.1531   4
   1  -5  -8 151.641 75.7275   5
   1  -5  -7-12.9774 32.7861   5
   1  -5  -7 127.772 65.5830   4
   1  -5  -6 365.261 101.689   5
   1  -5  -6 208.656 73.2714   4
   1  -5  -5 228.432 66.6929   4
   1  -5  -5 336.397 97.1340   5
   1  -5  -4 49.7891 33.2781   5
   1  -5  -4 44.0973 25.9236   4
   1  -5  -3-34.7864 24.1178   4
   1  -5  -3 69.3687 43.5891   5
   1  -5  -2 5720.99 360.071   5
   1  -5  -2 5901.95 303.489   4
   1  -5  -1 873.874 135.708   5
   1  -5   0 29.8002 34.9218   5
   1  -5   1 39.3716 28.6791   5
   1  -5   2 6447.05 380.714   5
   1  -5   3 5839.29 367.275   5
   1  -5   4 1050.23 162.819   5
  -1   5  -5 12670.1 535.013   2
   1  -5   5 12776.7 583.699   5
  -1   5  -6 2495.44 264.469   4
  -1   5  -6 2440.95 234.212   2
   1  -5   6 2820.76 281.376   5
  -1   5  -7 11366.8 531.108   2
  -1   5  -7 10645.2 575.130   4
   1  -5   7 11811.0 608.166   5
  -1   5  -8 599.994 122.584   2
  -1   5  -8 598.856 140.786   4
   1  -5   8 440.145 119.621   5
  -1   5  -9-3.82518 28.0928   4
  -1   5 -10 134.968 85.1303   4
  -1   4  11-36.3568 42.8999   3
   1  -4 -11 8.75146 41.3614   4
   1  -4 -10 528.710 144.827   4
  -1   4  10 775.719 178.335   3
  -1   4   9 1102.34 203.700   3
   1  -4  -9 943.466 177.209   4
   1  -4  -8 34.1538 18.8072   4
  -1   4   8-0.14470 37.1533   3
   1  -4  -7 396.594 102.669   4
   1  -4  -7 437.577 115.652   5
   1  -4  -6 342.235 84.8794   4
   1  -4  -6 438.594 110.101   5
   1  -4  -5 973.772 149.884   5
   1  -4  -5 749.018 114.641   4
   1  -4  -4 2463.21 193.791   4
   1  -4  -4 2757.96 241.389   5
   1  -4  -3 5434.65 270.033   4
   1  -4  -3 6260.52 351.592   5
   1  -4  -2 51631.0 961.959   4
   1  -4  -2 51715.8 1119.02   5
   1  -4  -1 152508. 2363.46   5
   1  -4   0 47.9554 31.9304   5
   1  -4   1 4504.62 273.159   5
   1  -4   2 4825.42 288.091   5
   1  -4   3 9834.41 431.515   5
  -1   4  -4 2961.28 231.983   4
   1  -4   4 2952.50 239.525   5
  -1   4  -5 256.560 72.3514   4
   1  -4   5 364.832 93.2015   5
  -1   4  -6 1007.94 136.889   2
   1  -4   6 788.897 125.396   3
  -1   4  -6 789.139 136.160   4
   1  -4   7 2963.52 251.351   3
  -1   4  -7 3047.47 287.567   4
  -1   4  -7 3431.41 262.620   2
   1  -4   8-18.7963 23.0804   3
  -1   4  -8 48.8776 49.0270   4
  -1   4  -9-8.88245 23.9336   4
  -1   4 -10-9.28516 33.0016   4
  -1   4 -11 34.6966 39.1163   4
   1  -3 -11-72.5527 58.6318   4
  -1   3  11 85.7434 66.8757   3
   1  -3 -10 581.662 147.269   4
  -1   3  10 552.223 134.817   3
   1  -3  -9 976.376 181.163   4
  -1   3   9 1070.10 178.595   3
  -1   3   8 792.654 150.318   3
   1  -3  -8 798.684 149.287   4
   1  -3  -7 1276.18 178.905   4
  -1   3   7 1394.58 192.780   3
   1  -3  -6 42.7590 26.7141   5
   1  -3  -6 30.1932 23.3643   4
   1  -3  -5-15.4228 26.9080   4
   1  -3  -5 42.8611 34.1016   5
   1  -3  -4 1666.19 147.817   4
   1  -3  -4 1782.48 174.355   5
   1  -3  -3 594.025 95.8688   5
   1  -3  -3 586.780 79.1561   4
   1  -3  -2 16454.3 497.869   5
   1  -3  -2 15929.9 396.913   4
   1  -3  -1 4167.98 234.620   5
   1  -3  -1 4348.44 180.347   4
   1  -3   0 15666.3 467.334   5
   1  -3   1 11306.2 358.680   4
   1  -3   1 11334.6 386.840   5
   1  -3   2 9522.34 357.917   5
  -1   3  -2 9324.40 332.239   4
   1  -3   3 706.529 96.4660   5
  -1   3  -3 489.075 81.0699   2
  -1   3  -3 645.478 90.7501   4
   1  -3   4 77.6430 34.0244   3
  -1   3  -4 54.7339 29.3117   2
  -1   3  -4 34.1786 29.3146   4
  -1   3  -5 19252.5 634.943   4
   1  -3   5 18578.9 546.089   3
   1  -3   6 248.850 63.8622   3
  -1   3  -6 382.895 92.6251   4
  -1   3  -7 16644.8 681.048   4
   1  -3   7 15627.5 546.815   3
  -1   3  -8 2890.95 296.458   4
   1  -3   8 2663.61 224.384   3
  -1   3  -9 380.261 115.478   4
  -1   3 -10 856.849 182.360   4
  -1   3 -11 90.0211 64.6783   4
   1  -2 -12-1.83279 20.7935   4
   1  -2 -11-0.91406 23.8063   4
  -1   2  11 63.4360 59.4482   3
   1  -2 -10 358.607 117.686   4
  -1   2  10 258.183 90.9667   3
  -1   2   9 2352.20 249.528   3
   1  -2  -9 2596.30 294.806   4
  -1   2   8 397.273 96.5466   3
   1  -2  -8 311.927 97.2488   4
  -1   2   7 124.121 50.1374   3
   1  -2  -7 44.8940 37.6931   4
   1  -2  -6 2073.49 204.910   4
  -1   2   6 2244.91 207.217   3
   1  -2  -5 6846.13 339.482   4
   1  -2  -4 4808.87 259.847   5
   1  -2  -4 4931.64 252.480   4
   1  -2  -3 14163.4 393.386   4
   1  -2  -3 13526.4 426.299   5
   1  -2  -2 26045.7 490.230   4
   1  -2  -2 26344.5 591.552   5
  -1   2   2 26548.5 501.662   4
   1  -2  -1 999999. 11777.3   5
   1  -2   0 96083.0 1401.74   5
   1  -2   0 96251.2 1243.65   4
  -1   2  -1 122069. 1704.28   5
   1  -2   1 120781. 1644.48   4
   1  -2   1 121603. 1667.34   5
  -1   2  -1 120190. 1607.33   4
   1  -2   2 19210.8 481.025   4
  -1   2  -2 19367.6 452.269   4
   1  -2   2 18898.4 442.116   5
  -1   2  -2 19302.0 416.255   3
  -1   2  -3 13788.7 420.151   4
   1  -2   3 14335.1 358.141   3
  -1   2  -3 14397.1 418.360   2
  -1   2  -3 13590.2 344.864   3
  -1   2  -4 4465.77 256.337   4
  -1   2  -4 3683.32 180.167   3
  -1   2  -4 4369.90 228.771   2
   1  -2   4 4427.05 198.147   3
   1  -2   4 4283.25 204.542   1
   1  -2   5 3494.51 189.605   3
  -1   2  -5 3593.30 254.137   4
   1  -2   6 210.381 54.4159   3
   1  -2   6 158.822 40.7218   1
  -1   2  -6 229.525 67.8781   4
  -1   2  -7 18027.3 700.174   4
   1  -2   7 16986.7 538.132   3
  -1   2  -8 3212.79 307.557   4
   1  -2   8 2564.32 213.466   3
  -1   2  -9 582.217 140.138   4
  -1   2 -10 23.0590 46.0420   4
  -1   2 -11 55.8558 63.0790   4
   1  -1 -12-14.2292 30.8883   4
   1  -1 -11 36.9418 36.9587   4
  -1   1  11 27.4174 34.2701   3
  -1   1  10 860.018 161.451   3
   1  -1 -10 759.963 172.064   4
  -1   1   9 7765.12 459.395   3
   1  -1  -9 8098.38 521.277   4
  -1   1   8 42.2428 43.0456   3
   1  -1  -8 80.2344 51.1486   4
   1  -1  -7 15037.9 627.819   4
  -1   1   7 14926.8 558.224   3
   1  -1  -6 3.08558 20.1109   4
  -1   1   6-18.0118 23.2990   3
  -1   1   5 6270.11 299.469   3
   1  -1  -5 6570.46 332.247   4
   1  -1  -4 14235.3 452.084   4
  -1   1   4 13928.4 426.834   3
   1  -1  -3 689.813 80.2233   4
  -1   1   3 773.800 83.4216   3
   1  -1  -2 108.969 25.4160   4
  -1   1   2 62.6949 21.4200   3
  -1   1   2 67.3493 18.8015   4
   1  -1  -1 1403.37 85.5947   5
  -1   1   1 1229.58 75.8994   1
  -1   1  -1 1455.13 81.0637   4
   1  -1   1 1366.29 93.7718   2
  -1   1  -2 27365.5 545.103   4
   1  -1   2 27291.0 398.284   3
  -1   1  -2 26963.7 390.338   3
  -1   1  -3 13997.4 412.295   4
  -1   1  -3 12923.0 275.062   3
   1  -1   3 13496.3 276.791   3
   1  -1   4 7789.49 238.529   3
  -1   1  -4 7696.78 334.475   4
  -1   1  -5 1132.09 135.472   4
   1  -1   5 1082.70 98.4367   3
   1  -1   6 58.6023 27.7800   3
  -1   1  -6 163.439 58.7559   4
   1  -1   6 103.892 33.3248   1
   1  -1   7 1576.47 132.079   1
   1  -1   7 1769.99 159.681   3
  -1   1  -7 1913.91 219.478   4
  -1   1  -8 75.4321 51.1589   4
   1  -1   8 117.102 41.0962   3
  -1   1  -9 5.81466 18.4789   4
  -1   1 -10 1130.46 211.114   4
  -1   1 -11 98.9619 72.8403   4
   1   0 -12 45.8029 48.8310   4
   1   0 -11 26.9010 56.9228   4
  -1   0  11-87.7180 55.5741   3
  -1   0  10-23.8770 38.6062   3
   1   0 -10 44.8833 23.8883   4
   1   0  -9 1356.30 208.721   4
  -1   0   9 1370.08 190.747   3
   1   0  -8 499.467 121.265   4
  -1   0   8 410.886 92.8640   3
  -1   0   7 1570.80 175.301   3
   1   0  -7 1635.91 194.574   4
  -1   0   6 3114.41 229.508   3
   1   0  -6 2924.29 241.500   4
  -1   0   5 35531.8 808.537   3
   1   0  -5 36402.2 863.150   4
   1   0  -4 19411.3 548.172   4
  -1   0   4 20397.0 527.686   3
  -1   0   3 33940.7 670.912   3
   1   0  -3 33985.1 700.156   4
   1   0  -2 10880.2 304.895   4
  -1   0   2 10579.4 295.736   3
  -1   0   1 220785. 2716.67   3
  -1   0   0 159544. 1960.17   3
  -1   0  -1 28015.8 520.080   4
   1   0   2 1285.89 74.5183   5
  -1   0  -2 1340.18 68.4659   5
  -1   0  -2 1258.70 105.288   4
   1   0   3 93970.9 1349.17   5
  -1   0  -3 98193.0 1494.23   4
   1   0   4 108503. 1522.77   3
  -1   0  -4 106868. 1740.82   4
  -1   0  -5 8545.60 399.032   4
   1   0   5 8578.17 298.718   3
   1   0   6 8537.35 332.065   3
  -1   0  -6 8420.82 435.930   4
   1   0   7 12866.5 460.402   3
  -1   0  -7 12385.8 577.652   4
   1   0   8 5901.96 333.231   3
  -1   0  -8 5442.41 407.298   4
  -1   0  -9 190.967 81.6214   4
  -1   0 -10 68.5870 56.4198   4
  -1   0 -11-16.9448 32.3654   4
   1   1 -12-44.8140 48.1869   4
  -1  -1  11 311.831 102.315   3
   1   1 -11 102.655 67.1082   4
  -1  -1  10-10.6625 38.7795   3
   1   1 -10-29.0699 43.4994   4
   1   1  -9 2787.83 307.181   4
  -1  -1   9 2997.56 279.431   3
  -1  -1   8 8223.25 444.146   3
   1   1  -8 7988.36 483.247   4
   1   1  -7 4642.77 341.975   4
  -1  -1   7 4178.49 294.092   3
  -1  -1   6 196.007 56.5271   3
   1   1  -6 136.744 41.4714   4
   1   1  -5 21390.0 643.120   4
  -1  -1   5 19866.6 578.889   3
   1   1  -4 21449.0 600.252   4
  -1  -1   4 21483.6 559.887   3
  -1  -1   3 41362.7 795.757   3
   1   1  -3 41770.7 853.854   4
  -1  -1   2 63724.0 1039.88   3
  -1  -1   1 1217.59 95.7687   3
  -1  -1   0 13568.5 347.195   5
  -1  -1  -1 46932.6 843.947   4
   1   1   1 45842.6 813.120   5
  -1  -1  -1 46778.4 793.974   5
  -1  -1  -2 1705.63 116.894   5
  -1  -1  -2 1958.15 145.547   4
   1   1   2 1762.05 135.237   5
  -1  -1  -3 2105.64 168.995   4
  -1  -1  -3 1900.28 127.711   5
  -1  -1  -4 5290.91 293.548   4
  -1  -1  -4 5334.92 237.753   5
  -1  -1  -5 5416.43 319.519   4
   1   1   6 97.6982 36.0798   3
  -1  -1  -6 53.6041 35.7892   4
  -1  -1  -7 140.824 45.1264   4
   1   1   7 129.227 43.6323   3
  -1  -1  -8 1165.77 191.292   4
   1   1   8 1228.51 150.609   3
  -1  -1  -9 35.2607 33.3117   4
  -1  -1 -10 29.3482 23.0044   4
  -1  -1 -11-35.8268 45.2069   4
   1   2 -12 179.122 93.9621   4
  -1  -2  11 60.3179 49.2646   3
   1   2 -11 32.1395 48.9140   4
  -1  -2  10 131.132 68.7912   3
   1   2 -10 157.284 84.8860   4
  -1  -2   9 566.015 127.450   3
   1   2  -9 316.712 104.731   4
  -1  -2   8 118.640 59.2548   3
   1   2  -8 146.520 69.1715   4
  -1  -2   7 252.047 76.5592   3
   1   2  -7 276.062 83.6011   4
   1   2  -6 51.3670 39.7215   4
  -1  -2   6 86.6511 47.4206   3
   1   2  -6 49.8871 14.7099   1
   1   2  -5-0.39923 21.1004   4
   1   2  -5 32.0175 13.9828   2
  -1  -2   5 12.6498 19.3266   3
   1   2  -4 2484.19 120.235   2
  -1  -2   4 2199.16 179.455   3
  -1  -2   3 23443.4 607.336   3
  -1  -2   2 1018.10 111.410   3
  -1  -2   1 28676.3 669.344   5
  -1  -2   0 58.8586 26.7713   5
  -1  -2  -1 6466.02 288.935   5
  -1  -2  -1 6417.94 296.007   4
  -1  -2  -2 17559.0 536.840   4
  -1  -2  -2 17139.6 502.551   5
  -1  -2  -3 9284.40 386.483   4
  -1  -2  -3 8750.52 341.980   5
  -1  -2  -4 30118.6 823.638   4
  -1  -2  -4 28357.7 698.744   5
  -1  -2  -5 39.3678 32.9692   4
  -1  -2  -5-7.71488 23.9431   5
  -1  -2  -6 3039.53 228.068   5
  -1  -2  -6 2967.27 266.110   4
  -1  -2  -7 1129.47 179.063   4
   1   2   8 3036.41 263.809   3
  -1  -2  -8 3049.23 317.785   4
  -1  -2  -9 113.432 67.6994   4
  -1  -2 -10-34.7804 35.1076   4
   1   3 -11 65.4935 53.5344   4
  -1  -3  11 61.5257 49.2102   3
   1   3 -10 18.2718 24.9425   4
  -1  -3  10-89.4292 55.1043   3
   1   3  -9 391.792 115.424   4
  -1  -3   9 301.672 94.2908   3
  -1  -3   8 6610.22 418.787   3
   1   3  -8 6363.88 445.676   4
   1   3  -7 4713.32 363.834   4
  -1  -3   7 4704.76 333.240   3
   1   3  -6 648.246 73.1277   2
  -1  -3   6 633.225 114.750   3
   1   3  -5 2914.60 169.580   2
  -1  -3   5 2692.03 231.633   3
  -1  -3   4 11851.1 484.382   3
  -1  -3   3 2662.08 218.052   3
  -1  -3   2 28359.0 764.199   5
  -1  -3   1 537.353 92.9410   5
  -1  -3   0 6109.34 325.132   5
  -1  -3  -1 27.2303 29.3652   5
  -1  -3  -2 1553.53 166.453   5
  -1  -3  -2 1531.36 165.887   4
  -1  -3  -3 3156.69 245.512   4
  -1  -3  -3 3166.42 239.639   5
  -1  -3  -4 3720.65 285.866   4
  -1  -3  -4 3994.46 274.850   5
  -1  -3  -5 1627.68 179.580   5
  -1  -3  -5 1605.87 200.723   4
  -1  -3  -6-2.26999 35.9537   5
  -1  -3  -6 6.24918 34.5825   4
  -1  -3  -7 551.981 113.894   5
  -1  -3  -7 520.949 124.575   4
  -1  -3  -8 163.442 73.0613   4
  -1  -3  -9 318.155 115.196   4
  -1  -3 -10 2.07057 25.2065   4
   1   4 -11 116.925 74.4410   4
  -1  -4  11 125.753 68.4551   3
  -1  -4  10 77.1311 54.3158   3
   1   4 -10 30.9693 27.7327   4
  -1  -4   9 117.752 67.9782   3
  -1  -4   8 322.485 102.076   3
  -1  -4   7 6.07879 24.4380   3
   1   4  -6 9.88548 10.8682   2
  -1  -4   6-49.7363 37.1731   3
  -1  -4   5 2072.74 225.191   3
  -1  -4   4 2.52423 14.2103   3
  -1  -4   3 993.698 150.859   5
  -1  -4   2 343.487 85.8141   5
  -1  -4   1 1592.30 184.218   5
  -1  -4   0 811.461 129.628   5
  -1  -4  -1-8.42200 14.1606   5
  -1  -4  -2 3929.83 295.524   4
  -1  -4  -2 3453.07 279.343   5
  -1  -4  -3 363.848 91.2201   5
  -1  -4  -3 385.416 93.7732   4
  -1  -4  -4 1428.32 182.345   5
  -1  -4  -4 1329.44 181.677   4
  -1  -4  -5 790.385 139.514   5
  -1  -4  -5 708.755 144.984   4
  -1  -4  -6-4.67497 27.6414   5
  -1  -4  -6 59.3874 53.9537   4
  -1  -4  -7 20.1865 22.6371   4
  -1  -4  -7 24.1399 29.2201   5
  -1  -4  -8 498.928 121.185   5
  -1  -4  -8 408.673 119.666   4
  -1  -4  -9 278.774 108.050   4
  -1  -5  11 87.2955 53.4322   3
  -1  -5  10 46.1221 50.3499   3
  -1  -5   9 503.638 134.614   3
  -1  -5   8 147.145 67.4378   3
  -1  -5   7 3255.57 325.216   3
  -1  -5   6 1371.59 211.690   5
  -1  -5   6 1573.36 218.112   3
  -1  -5   5 24.0648 42.0510   5
  -1  -5   4 1784.10 227.164   5
  -1  -5   3 3941.98 325.466   5
  -1  -5   2 348.286 97.8830   5
  -1  -5   1 111.746 45.3534   5
  -1  -5   0 3715.01 315.336   5
  -1  -5  -1 5541.72 389.943   5
  -1  -5  -2 129.024 56.4381   5
  -1  -5  -2 62.5155 29.6771   4
  -1  -5  -3 202.195 72.1122   5
  -1  -5  -3 226.105 76.1493   4
  -1  -5  -4 369.538 104.190   4
  -1  -5  -4 416.440 108.677   5
  -1  -5  -5 1512.41 221.830   4
  -1  -5  -5 1523.44 218.168   5
  -1  -5  -6 17.0411 27.0519   5
  -1  -5  -6 12.9493 18.6646   4
  -1  -5  -7-7.34228 23.3317   4
  -1  -5  -7-59.0902 45.8359   5
  -1  -5  -8 3.53313 21.8838   5
  -1  -5  -8 52.1978 34.4734   4
  -1  -6  10-82.8107 65.5614   5
  -1  -6   9 74.1132 59.3317   5
  -1  -6   8-4.72869 36.0180   5
  -1  -6   7-52.6518 49.0305   5
  -1  -6   6 684.315 156.439   5
  -1  -6   5-14.8896 49.9186   5
  -1  -6   4 832.441 168.217   5
  -1  -6   3 1621.15 230.908   5
  -1  -6   2 394.192 112.369   5
  -1  -6   1 32.3584 50.5454   5
  -1  -6   0 41.8775 48.9790   5
  -1  -6  -1 584.677 134.777   5
  -1  -6  -1 641.241 135.627   4
  -1  -6  -2-2.76418 28.7131   5
  -1  -6  -2 64.4323 48.2236   4
  -1  -6  -3 63.0501 46.6720   4
  -1  -6  -3 22.0656 32.5188   5
  -1  -6  -4-6.93434 18.4276   4
  -1  -6  -4-51.4804 45.0891   5
  -1  -6  -5 41.6449 47.9267   4
  -1  -6  -5 37.8931 50.1627   5
  -1  -6  -6 16.3402 23.5780   5
  -1  -6  -6-67.6190 53.9200   4
  -1  -6  -7 102.625 55.3002   5
  -1  -6  -7 93.3313 54.7437   4
  -1  -7   8-29.1676 41.1372   5
  -1  -7   7 13.8346 34.9548   5
  -1  -7   6 230.768 86.0270   5
  -1  -7   5 163.895 88.2872   5
  -1  -7   4 307.024 106.799   5
  -1  -7   3 2457.87 306.027   5
  -1  -7   2 493.421 134.351   5
  -1  -7   1 1.26550 22.2724   5
  -1  -7   0 469.234 134.097   5
  -1  -7  -1 1470.75 222.612   4
  -1  -7  -1 1780.58 255.980   5
  -1  -7  -2 197.234 83.4272   4
  -1  -7  -2 198.367 88.6634   5
  -1  -7  -3-10.6798 54.2327   5
  -1  -7  -3 123.672 77.6018   4
  -1  -7  -4 71.7303 51.1060   4
  -1  -7  -4-11.6465 33.7809   5
  -1  -7  -5 776.754 182.569   5
  -1  -7  -5 574.575 152.943   4
  -1  -7  -6-31.0593 39.9826   4
  -1  -7  -6 60.3270 53.9594   5
  -1  -8   6 182.061 92.8848   5
  -1  -8   5 166.936 88.0609   5
  -1  -8   4 417.075 139.375   5
  -1  -8   3 1156.91 226.552   5
  -1  -8   2 142.074 80.3356   5
  -1  -8   1 152.106 94.0074   5
  -1  -8   0 204.544 104.297   5
  -1  -8   0-71.9712 53.4933   4
  -1  -8  -1 87.0115 60.4224   5
  -1  -8  -1 7.29086 35.8616   4
  -1  -8  -2 11.5722 25.6130   5
  -1  -8  -2-11.4845 26.6678   4
  -1  -8  -3 2.74781 34.6257   5
  -1  -8  -3 75.2764 55.5089   4
   2  -9  -3 126.800 78.3908   5
   2  -9  -2-21.0561 33.3740   5
   2  -9  -1 28.4581 31.9201   5
   2  -9   0-23.4972 23.9475   5
   2  -9   1 312.429 107.855   5
   2  -9   2 159.015 80.3097   5
   2  -9   3 67.2126 55.9063   5
   2  -9   4 82.8825 47.2698   5
  -2   9  -5 1182.94 235.443   2
   2  -9   5 1106.28 223.113   5
  -2   9  -6 496.108 146.280   2
   2  -9   6 661.806 176.646   5
   2  -8  -5 23.5483 26.2948   5
   2  -8  -4 55.3306 38.6908   5
   2  -8  -3 2336.86 293.482   5
   2  -8  -2 1119.20 192.295   5
   2  -8  -1 92.3406 60.8016   5
   2  -8   0-25.6044 51.8312   5
   2  -8   1 293.732 103.030   5
   2  -8   2 183.591 80.6237   5
   2  -8   3 65.6566 51.6614   5
   2  -8   4 31.4954 37.2751   5
  -2   8  -5-28.3254 39.2408   2
   2  -8   5 60.1610 56.0342   5
   2  -8   6 86.9231 52.7314   5
  -2   8  -6 153.142 75.4482   2
   2  -8   7-52.5011 57.5138   5
  -2   8  -7 74.9293 57.3894   2
   2  -7  -7 254.583 108.502   5
   2  -7  -6 76.3688 40.7690   5
   2  -7  -5-8.56847 33.8865   5
   2  -7  -4 17.5748 28.7383   5
   2  -7  -3 1041.58 181.996   5
   2  -7  -2 160.193 67.8875   5
   2  -7  -1 146.346 59.9546   5
   2  -7   0 43.4272 47.1765   5
   2  -7   1 533.977 121.555   5
   2  -7   2 569.889 129.354   5
   2  -7   3 136.741 67.0205   5
   2  -7   4 3534.69 338.293   5
  -2   7  -5 871.331 164.338   2
   2  -7   5 782.503 163.430   5
   2  -7   6 5497.70 443.040   5
  -2   7  -6 5797.80 440.179   2
  -2   7  -7 422.081 119.284   2
   2  -7   7 316.410 106.121   5
  -2   7  -8-1.67521 19.6101   2
  -2   6   9-46.3082 73.7876   3
   2  -6  -8 78.4615 66.3918   5
   2  -6  -7-3.90495 23.7010   5
   2  -6  -6 22.7050 32.6596   5
   2  -6  -5 422.071 114.122   5
   2  -6  -4 270.868 94.2416   5
   2  -6  -3 6670.07 307.673   4
   2  -6  -3 8772.49 497.155   5
   2  -6  -2 24348.3 608.551   4
   2  -6  -2 28616.4 878.717   5
   2  -6  -1 188.702 43.3153   4
   2  -6  -1 118.290 40.8932   5
   2  -6   0 2521.37 246.224   5
   2  -6   1 506.066 108.866   5
   2  -6   2 45.6039 38.0477   5
   2  -6   3 180.642 67.4699   5
   2  -6   4 210.850 74.3925   5
  -2   6  -4 128.245 56.1415   2
  -2   6  -5 35.7836 16.2294   2
   2  -6   5-2.04975 33.6073   5
   2  -6   6 2604.07 278.849   5
  -2   6  -6 2434.02 261.094   2
  -2   6  -6 2162.01 256.444   4
  -2   6  -7 82.5790 56.4923   4
   2  -6   7 96.1652 55.9116   5
  -2   6  -7 8.98737 25.1830   2
  -2   6  -8 88.0094 54.9416   4
  -2   6  -8 22.4821 25.8136   2
  -2   6  -9 66.1618 52.5469   4
  -2   6 -10 45.8462 49.4757   4
  -2   5  10 370.121 140.333   3
  -2   5   9 33.9939 48.1897   3
  -2   5   8 672.994 168.534   3
   2  -5  -7 61.7132 48.6354   5
   2  -5  -6 116.869 51.9628   4
   2  -5  -6 146.951 62.9116   5
   2  -5  -5 370.774 103.481   5
   2  -5  -5 299.924 70.0114   4
   2  -5  -4 43.5426 30.8995   4
   2  -5  -4 46.6775 37.9705   5
   2  -5  -3 1048.75 107.394   4
   2  -5  -3 1065.04 158.022   5
   2  -5  -2 877.008 86.8306   4
   2  -5  -2 979.395 143.712   5
   2  -5  -1 1918.06 130.887   4
   2  -5  -1 2061.86 202.168   5
   2  -5   0 2168.78 204.028   5
   2  -5   1 554.343 100.255   5
   2  -5   2 1396.86 166.588   5
   2  -5   3 15.2248 25.1117   5
  -2   5  -4 1772.66 193.201   2
   2  -5   4 1890.66 200.144   5
  -2   5  -4 2102.27 203.175   4
  -2   5  -5-3.57225 22.0264   4
   2  -5   5-14.8570 35.3684   5
  -2   5  -5-20.9015 25.8090   2
  -2   5  -6 7984.71 451.373   2
   2  -5   6 7940.81 450.707   5
  -2   5  -6 7139.42 434.100   4
  -2   5  -7 1062.76 164.777   2
  -2   5  -7 1010.28 169.045   4
   2  -5   7 1067.72 164.004   5
  -2   5  -8 242.673 84.7938   4
  -2   5  -8 428.239 112.441   2
  -2   5  -9 899.876 181.788   4
  -2   5 -10 298.805 120.303   4
  -2   4  11-1.89212 26.6286   3
  -2   4  10 782.555 179.862   3
   2  -4  -9 19.3869 28.4409   4
  -2   4   9 144.632 76.5439   3
  -2   4   8 272.802 92.4653   3
   2  -4  -8 93.9468 49.6394   4
  -2   4   7 813.312 158.214   3
   2  -4  -7 714.314 131.001   4
   2  -4  -6 2095.83 234.607   5
   2  -4  -6 2085.87 202.602   4
   2  -4  -5 261.463 64.2594   4
   2  -4  -5 228.787 71.0597   5
   2  -4  -4 273.087 57.6073   4
   2  -4  -4 192.598 66.3798   5
   2  -4  -3 1691.92 182.909   5
   2  -4  -3 1839.05 130.486   4
   2  -4  -2 108008. 1493.35   4
   2  -4  -2 113901. 1875.78   5
   2  -4  -1 21766.7 412.129   4
   2  -4  -1 23475.0 655.140   5
   2  -4   0 19083.3 572.434   5
   2  -4   0 18191.8 413.313   4
   2  -4   1 749.341 104.853   5
   2  -4   1 640.924 79.7337   4
   2  -4   2 16921.0 536.680   5
  -2   4  -2 17751.7 494.290   4
   2  -4   3 8294.89 366.656   5
  -2   4  -3 8437.04 391.565   2
  -2   4  -3 8080.68 348.983   4
  -2   4  -4 5412.45 324.450   2
   2  -4   4 5540.84 309.482   5
  -2   4  -4 5451.60 310.645   4
   2  -4   5 3383.55 247.682   5
  -2   4  -5 3481.87 268.175   2
  -2   4  -5 3212.61 259.351   4
  -2   4  -6 15919.9 619.164   2
   2  -4   6 15466.7 580.389   5
  -2   4  -6 14993.8 629.387   4
  -2   4  -7 3126.01 275.082   2
  -2   4  -7 2955.60 290.744   4
   2  -4   7 2666.28 242.527   5
  -2   4  -8 618.596 143.417   4
  -2   4  -9 62.7303 51.3902   4
  -2   4 -10-1.82314 45.4146   4
  -2   3  11 55.2145 57.5471   3
   2  -3 -11 118.599 75.3291   4
  -2   3  10 2270.29 281.790   3
   2  -3 -10 1559.21 239.061   4
   2  -3  -9 385.386 113.666   4
  -2   3   9 388.055 110.388   3
   2  -3  -8 1949.50 235.402   4
  -2   3   8 2617.41 269.111   3
   2  -3  -7 15.3463 32.8716   4
  -2   3   7 50.6859 33.5017   3
  -2   3   6 3297.40 275.056   3
   2  -3  -6 2631.84 229.293   4
   2  -3  -5 2457.15 196.478   4
   2  -3  -4 2133.28 156.546   4
   2  -3  -4 2523.96 211.158   5
   2  -3  -3 2958.75 153.720   4
  -2   3   3 2715.49 148.875   4
   2  -3  -3 3066.68 217.120   5
   2  -3  -2 390.040 39.1793   4
   2  -3  -2 377.010 71.8566   5
   2  -3  -1 4444.99 237.262   5
   2  -3   0 1395.80 66.9536   4
   2  -3   0 1207.62 114.821   5
   2  -3   1 2578.87 136.856   4
   2  -3   1 2504.86 165.648   5
  -2   3  -1 2669.77 134.553   4
  -2   3  -2 4763.59 217.784   4
   2  -3   2 4555.14 223.465   5
   2  -3   3 3152.74 189.827   5
  -2   3  -3 3044.93 160.297   3
  -2   3  -3 3046.01 196.783   4
   2  -3   4 6168.71 275.480   5
  -2   3  -4 6546.44 326.721   4
  -2   3  -5 353.117 81.3132   4
  -2   3  -5 352.795 80.1456   2
   2  -3   5 316.154 68.4618   5
  -2   3  -6 654.816 125.641   4
  -2   3  -7 351.830 90.4837   4
  -2   3  -8 147.152 73.5842   4
  -2   3  -9 1331.26 220.437   4
  -2   3 -10 167.015 84.2879   4
  -2   3 -11 719.749 183.868   4
   2  -2 -12 66.1072 62.2991   4
  -2   2  12-11.3748 28.8303   3
   2  -2 -11 29.1342 46.7760   4
  -2   2  11-36.3533 52.0027   3
   2  -2 -10 642.948 152.687   4
  -2   2  10 731.957 165.590   3
  -2   2   9-12.9675 34.6967   3
   2  -2  -9-4.86441 20.5863   4
   2  -2  -8 539.963 121.887   4
  -2   2   8 447.600 108.113   3
   2  -2  -7 185.666 73.3376   4
  -2   2   7 168.803 68.9196   3
  -2   2   6 6357.91 357.518   3
   2  -2  -6 6928.04 368.945   4
  -2   2   5 2645.41 213.254   3
   2  -2  -5 2433.27 191.385   4
  -2   2   4 13043.2 462.201   3
   2  -2  -4 12912.2 407.997   4
  -2   2   3 2006.93 120.026   4
  -2   2   3 2367.92 171.224   3
   2  -2  -3 2357.85 138.707   4
  -2   2   2 5231.21 150.661   4
   2  -2  -2 5743.09 172.383   4
   2  -2  -2 5721.99 249.529   5
   2  -2  -1 30596.7 615.501   5
  -2   2   0 222.830 24.5595   4
   2  -2   0 133.992 23.0919   4
   2  -2   0 185.933 34.6446   5
  -2   2   0 159.235 34.6167   5
  -2   2  -1 8906.43 246.288   4
   2  -2   1 8620.27 263.182   4
   2  -2   1 8970.77 237.551   5
  -2   2  -2 88410.1 1362.61   4
  -2   2  -2 89881.4 1172.28   3
   2  -2   2 90396.5 1227.32   5
  -2   2  -3 116384. 1783.18   4
   2  -2   3 116295. 1777.89   1
   2  -2   3 115891. 1557.10   5
  -2   2  -4 10244.8 411.767   4
   2  -2   4 9892.32 374.805   1
  -2   2  -5 16152.5 575.618   4
   2  -2   5 14782.4 352.785   3
  -2   2  -6 14682.0 597.578   4
   2  -2   6 13706.3 370.457   3
  -2   2  -7 6022.67 409.685   4
  -2   2  -8 195.735 84.7829   4
  -2   2  -9 78.5061 62.3106   4
  -2   2 -10 116.174 86.0632   4
  -2   2 -11 295.994 120.785   4
   2  -1 -12 26.1587 43.3667   4
  -2   1  12-11.9516 30.0635   3
   2  -1 -11-55.3687 50.4199   4
  -2   1  11-7.75360 31.6631   3
   2  -1 -10 293.761 108.004   4
  -2   1  10 458.692 125.105   3
   2  -1  -9 5230.68 416.121   4
  -2   1   9 4944.54 382.635   3
   2  -1  -8 29.4743 36.6737   4
  -2   1   8-10.4136 35.9549   3
   2  -1  -7 23.4232 25.2324   4
  -2   1   7 24.4093 43.3595   3
  -2   1   6 9253.40 424.956   3
   2  -1  -6 9144.20 433.152   4
  -2   1   5 10271.0 418.418   3
   2  -1  -5 10345.6 422.238   4
  -2   1   4 18342.9 531.841   3
   2  -1  -4 18689.8 527.263   4
  -2   1   3 42179.5 833.408   3
   2  -1  -3 43393.7 812.513   4
  -2   1   2 29.7087 14.1702   4
  -2   1   2 33.7348 17.4826   3
   2  -1  -2 45.7735 20.1021   1
  -2   1   1 11715.8 311.880   3
  -2   1   1 12048.7 315.361   2
   2  -1  -1 11805.5 331.980   1
   2  -1   0 40124.0 649.242   3
  -2   1   0 41286.4 643.241   5
  -2   1   0 42248.9 652.490   3
  -2   1   0 41203.9 680.633   4
  -2   1  -1 793.702 77.7256   4
   2  -1   1 603.582 77.0580   4
   2  -1   1 747.830 44.3103   3
  -2   1  -1 666.986 43.9246   3
  -2   1  -2 6210.19 260.470   4
  -2   1  -3 7536.23 320.744   4
   2  -1   4 4626.03 165.456   5
   2  -1   4 5039.25 142.039   3
   2  -1   5 28.5068 13.7018   3
  -2   1  -5 5.68113 30.3088   4
   2  -1   5 29.3997 16.4212   5
  -2   1  -6 951.654 148.475   4
   2  -1   6 1059.11 94.6538   3
  -2   1  -7 3129.82 293.391   4
  -2   1  -8 90.5796 58.9903   4
   2  -1   8 164.288 57.5239   1
  -2   1  -9-112.215 65.3275   4
  -2   1 -10 16.4011 24.7718   4
   2   0 -12 86.8465 71.1100   4
  -2   0  12 52.6260 46.6837   3
   2   0 -11 54.2647 71.4585   4
  -2   0  11 35.2523 41.8070   3
   2   0 -10 250.702 103.054   4
  -2   0  10 136.201 65.6069   3
   2   0  -9 303.001 97.2504   4
  -2   0   9 407.644 106.087   3
   2   0  -8-20.0462 20.4568   4
  -2   0   8-10.7440 22.4413   3
   2   0  -7 205.455 69.2486   4
  -2   0   7 247.624 71.6863   3
   2   0  -6 892.738 133.261   4
  -2   0   6 1004.57 139.107   3
   2   0  -5 467.516 90.3546   4
  -2   0   5 438.545 84.0170   3
   2   0  -4 15307.9 316.402   1
   2   0  -4 15284.5 506.667   4
  -2   0   4 15157.6 489.704   3
  -2   0   3 380.194 66.9157   3
  -2   0   2 50905.7 913.241   3
   2   0  -1 7494.01 217.686   2
  -2   0   1 8449.03 274.639   3
  -2   0   0 8858.83 260.350   3
   2   0   0 8103.86 254.263   3
  -2   0  -1 69874.5 1172.73   4
  -2   0  -1 70668.6 1003.69   5
   2   0   1 69834.7 1034.44   3
  -2   0  -2 8546.02 330.205   4
  -2   0  -2 8045.44 202.604   5
   2   0   2 8614.32 249.566   3
  -2   0  -3 34697.7 578.001   5
   2   0   3 35291.4 634.737   5
  -2   0  -3 36285.9 831.116   4
   2   0   4 100.625 30.9058   5
  -2   0  -4 145.969 52.6053   4
  -2   0  -5 1851.40 193.106   4
   2   0   5 1741.53 123.600   3
  -2   0  -6 320.464 81.7909   4
   2   0   6 298.894 57.9116   3
  -2   0  -7 3014.19 289.708   4
  -2   0  -8 614.920 138.542   4
  -2   0  -9 78.4940 50.0905   4
  -2   0 -10 17.0466 50.2188   4
   2   1 -12-70.4132 59.2114   4
  -2  -1  12 23.7450 50.1047   3
   2   1 -11 76.2923 59.4431   4
  -2  -1  11 17.4047 22.2887   3
   2   1 -10 549.480 147.204   4
  -2  -1  10 627.743 146.732   3
   2   1  -9 3410.78 336.585   4
  -2  -1   9 3217.93 315.192   3
  -2  -1   8 6505.39 418.282   3
   2   1  -8 5953.83 424.271   4
   2   1  -7 1604.07 205.053   4
  -2  -1   7 1743.55 201.386   3
  -2  -1   6 801.939 128.191   3
   2   1  -6 935.282 144.264   4
  -2  -1   5 8895.50 413.654   3
  -2  -1   4 58.4540 41.5423   3
  -2  -1   3 17739.6 533.015   3
  -2  -1   2 1336.30 125.781   3
  -2  -1   1 45920.3 877.643   3
  -2  -1   0 13265.2 401.548   5
  -2  -1   0 13058.5 400.325   3
  -2  -1  -1 1195.99 127.640   4
  -2  -1  -1 1151.95 108.371   5
  -2  -1  -2 4360.61 215.024   5
  -2  -1  -2 3957.22 247.294   4
  -2  -1  -3 5211.11 295.707   4
  -2  -1  -3 4528.07 206.986   5
  -2  -1  -4 1942.50 196.768   4
  -2  -1  -4 1738.02 132.785   5
  -2  -1  -5 1338.37 173.182   4
  -2  -1  -5 1130.32 118.548   5
  -2  -1  -6 1971.64 222.025   4
  -2  -1  -7-32.6600 32.4967   4
  -2  -1  -8 910.482 174.312   4
  -2  -1  -9 44.8388 45.5312   4
  -2  -1 -10-53.7553 48.9767   4
  -2  -2  12 68.7044 55.5613   3
   2   2 -11-52.4290 50.3368   4
  -2  -2  11-20.2674 38.0096   3
   2   2 -10 43.9176 62.9725   4
  -2  -2  10 9.29216 28.2361   3
   2   2  -9 148.218 74.7526   4
  -2  -2   9 185.371 78.2778   3
  -2  -2   8 34.8819 20.6306   3
   2   2  -8 25.4530 21.0844   4
  -2  -2   7 129.046 64.6251   3
  -2  -2   6 2348.70 232.481   3
  -2  -2   5 359.977 84.3497   3
  -2  -2   4 1411.55 156.237   3
  -2  -2   3 1072.31 133.916   3
  -2  -2   2 244.394 59.7346   3
  -2  -2   1 6.83341 11.1019   3
  -2  -2   1 8.88604 13.2994   5
  -2  -2   0 137.746 45.8574   5
  -2  -2  -1 6178.94 332.537   4
  -2  -2  -1 7178.92 337.071   5
  -2  -2  -2 21.7534 27.8434   4
  -2  -2  -2 64.6093 33.8553   5
  -2  -2  -3 163.254 47.4758   5
  -2  -2  -3 177.337 61.2000   4
  -2  -2  -4 1197.78 163.623   4
  -2  -2  -4 975.935 120.321   5
  -2  -2  -5 600.107 93.9386   5
  -2  -2  -5 626.701 128.548   4
  -2  -2  -6 1537.36 210.258   4
  -2  -2  -6 1541.15 159.662   5
  -2  -2  -7 847.147 166.423   4
  -2  -2  -8 1020.92 194.439   4
  -2  -2  -9 321.361 115.320   4
  -2  -3  12 114.113 71.6352   3
  -2  -3  11 29.6434 52.1128   3
  -2  -3  10 312.888 104.901   3
  -2  -3   9-26.3277 55.2875   3
  -2  -3   8 2003.20 245.900   3
  -2  -3   7 1514.94 200.520   3
  -2  -3   6 10.2898 23.4587   3
  -2  -3   5 3052.94 263.696   3
  -2  -3   4 18216.1 662.030   3
  -2  -3   3 955.749 140.607   3
  -2  -3   2 4.16132 16.2191   3
  -2  -3   2 43.9610 29.6469   5
  -2  -3   1 18708.5 635.587   5
  -2  -3   0 38791.2 981.383   5
  -2  -3  -1 52.4611 46.3824   4
  -2  -3  -1-12.6607 14.5209   5
  -2  -3  -2 2358.23 229.410   4
  -2  -3  -2 2260.17 214.677   5
  -2  -3  -3 540.791 102.459   5
  -2  -3  -3 495.026 109.148   4
  -2  -3  -4 5900.46 394.525   4
  -2  -3  -4 5479.72 327.862   5
  -2  -3  -5 275.740 88.3141   4
  -2  -3  -5 124.151 46.6388   5
  -2  -3  -6 132.188 72.0653   4
  -2  -3  -6 82.9666 47.7160   5
  -2  -3  -7 154.410 74.8935   4
  -2  -3  -8 88.3968 59.7284   4
  -2  -3  -9 55.2492 51.3098   4
  -2  -4  11 5.94024 23.6147   3
  -2  -4  10 345.620 119.705   3
  -2  -4   9 194.334 84.1058   3
  -2  -4   8 119.770 75.2964   3
  -2  -4   7 2072.34 254.578   3
  -2  -4   6 492.741 117.559   3
  -2  -4   5 915.881 162.843   3
  -2  -4   4 2867.89 271.922   3
  -2  -4   3 1211.01 180.194   5
  -2  -4   2 104.547 53.7565   5
  -2  -4   1 941.474 151.695   5
  -2  -4   0 1271.63 178.212   5
  -2  -4  -1 294.308 85.2247   4
  -2  -4  -1 371.795 98.6433   5
  -2  -4  -2-20.8986 39.2748   4
  -2  -4  -2-11.8723 36.1108   5
  -2  -4  -3 43.3822 30.1760   4
  -2  -4  -3-0.97989 20.8901   5
  -2  -4  -4-13.7785 28.4463   4
  -2  -4  -4 47.1043 36.9657   5
  -2  -4  -5-8.21191 40.5007   4
  -2  -4  -5-41.3503 43.0975   5
  -2  -4  -6 894.989 150.791   5
  -2  -4  -6 884.340 176.633   4
  -2  -4  -7 48.3263 45.8476   4
  -2  -4  -8 128.322 71.8373   4
  -2  -5  11-37.1795 46.5803   3
  -2  -5  10-14.2399 54.2549   3
  -2  -5   9-31.0406 37.4522   3
  -2  -5   8 29.2743 43.1840   3
  -2  -5   7 48.7616 41.5862   3
  -2  -5   6 338.981 109.983   3
  -2  -5   5 1162.02 196.694   5
  -2  -5   4 8055.51 508.444   5
  -2  -5   3 2324.94 266.137   5
  -2  -5   2-32.3148 54.9692   5
  -2  -5   1 1418.56 207.665   5
  -2  -5   0 6809.70 463.652   5
  -2  -5  -1 595.823 128.182   4
  -2  -5  -1 611.960 135.934   5
  -2  -5  -2 258.028 93.6080   5
  -2  -5  -2 403.251 108.369   4
  -2  -5  -3 54.7014 42.4723   4
  -2  -5  -3-10.4211 37.2300   5
  -2  -5  -4 4130.93 378.704   4
  -2  -5  -4 3945.65 352.601   5
  -2  -5  -5 461.083 137.285   4
  -2  -5  -5 353.981 112.864   5
  -2  -5  -6 682.211 169.862   4
  -2  -5  -6 557.369 133.873   5
  -2  -5  -7 23.9079 38.8222   4
  -2  -6   9 111.337 76.7178   5
  -2  -6   8 136.184 88.2879   5
  -2  -6   7 306.446 115.979   5
  -2  -6   6 979.956 199.585   5
  -2  -6   5 238.156 99.2973   5
  -2  -6   4 3586.07 371.674   5
  -2  -6   3 729.888 160.859   5
  -2  -6   2 825.935 167.785   5
  -2  -6   1 79.4915 56.6755   5
  -2  -6   0 473.369 133.203   5
  -2  -6  -1 45.6987 41.3096   4
  -2  -6  -1-60.3255 48.5492   5
  -2  -6  -2 63.5328 47.6330   5
  -2  -6  -2 7.97358 37.1277   4
  -2  -6  -3 23.1592 53.4489   5
  -2  -6  -3 78.8043 46.5250   4
  -2  -6  -4 72.3325 53.3019   5
  -2  -6  -4 313.172 120.841   4
  -2  -6  -5 190.655 98.7684   4
  -2  -6  -5 34.4387 29.8235   5
  -2  -6  -6 185.678 93.3439   4
  -2  -7   7 86.4046 55.3396   5
  -2  -7   6 47.7492 57.6112   5
  -2  -7   5 27.4102 46.2116   5
  -2  -7   4 777.305 179.098   5
  -2  -7   3 368.085 128.327   5
  -2  -7   2 28.3753 48.3056   5
  -2  -7   1 19.6680 31.6601   5
  -2  -7   0 80.6208 67.1351   5
  -2  -7   0 21.4882 40.9889   4
  -2  -7  -1 44.5770 43.5440   4
  -2  -7  -1 118.643 72.8757   5
  -2  -7  -2 79.3891 67.0721   4
  -2  -7  -2 14.8669 31.3883   5
  -2  -7  -3-19.4506 42.0059   4
  -2  -7  -3-65.4321 57.3690   5
  -2  -7  -4 458.278 141.892   4
  -2  -7  -4 471.438 139.060   5
  -2  -8   2 161.285 89.0462   5
  -2  -8   1 44.8650 56.5204   5
  -2  -8   0 394.585 131.628   4
  -2  -8  -1 157.672 90.4771   4
   3 -10   1 10.9882 22.4220   5
   3 -10   2-42.2433 46.3843   5
   3 -10   3 39.4565 39.0083   5
   3 -10   4 29.7732 47.6016   5
   3  -9  -3 92.6702 66.0068   5
   3  -9  -2 96.8182 58.3272   5
   3  -9  -1 15.5758 24.9354   5
   3  -9   0 57.5932 46.6052   5
   3  -9   1 88.1886 60.3293   5
   3  -9   2 30.3003 38.3539   5
   3  -9   3 387.994 126.110   5
  -3   9  -4 188.959 98.4569   2
   3  -9   4 232.248 98.2278   5
  -3   9  -5 1220.22 242.104   2
  -3   9  -6 133.474 82.7226   2
   3  -8  -5-42.8553 59.0066   5
   3  -8  -4 744.790 163.304   5
   3  -8  -3 3727.93 365.930   5
   3  -8  -2 172.591 78.9180   5
   3  -8  -1 228.116 80.8133   5
   3  -8   0 32.6458 38.7127   5
   3  -8   1 96.2289 39.8772   5
   3  -8   2-16.2253 46.1677   5
   3  -8   3 300.937 95.7080   5
  -3   8  -4 213.896 87.2120   2
   3  -8   4 83.8927 45.7321   5
  -3   8  -5 1104.79 210.240   2
   3  -8   5 744.932 162.052   5
  -3   8  -6-55.5876 52.0375   2
  -3   8  -7-12.2146 30.9849   2
  -3   8  -8-50.2365 51.0637   2
   3  -7  -7 20.7400 33.0672   5
   3  -7  -6-11.3757 34.1680   5
   3  -7  -5 59.2345 40.6237   5
   3  -7  -4 36.5095 26.5861   5
   3  -7  -3 505.135 124.689   5
   3  -7  -2 102.949 65.0345   5
   3  -7  -1 162.994 72.7913   5
   3  -7   0 164.048 67.1527   5
   3  -7   1 69.7862 38.3873   5
   3  -7   2 174.213 65.8545   5
   3  -7   3-12.1666 34.3878   5
  -3   7  -4-36.2749 44.6306   2
   3  -7   4-2.05849 28.3251   5
   3  -7   5 1663.39 222.412   5
  -3   7  -5 1830.70 249.250   2
  -3   7  -6 146.101 78.9760   2
  -3   7  -7 260.051 95.9389   2
  -3   7  -7 182.158 84.0413   4
  -3   7  -8 290.909 105.369   2
  -3   7  -8 275.011 107.121   4
  -3   7  -9 131.392 72.6787   4
  -3   7  -9 239.209 105.464   2
  -3   6   8 34.5191 29.0732   3
   3  -6  -7 548.885 148.780   5
   3  -6  -6 201.222 86.6720   5
   3  -6  -5-6.78064 25.5113   5
   3  -6  -4 88.3689 49.6612   5
   3  -6  -3 15270.9 671.057   5
   3  -6  -2 4688.42 346.938   5
   3  -6  -1 554.158 113.824   5
   3  -6   0 797.277 139.583   5
   3  -6   1 5091.47 341.433   5
   3  -6   2 2658.44 245.372   5
  -3   6  -3 3445.51 307.421   2
   3  -6   3 3075.49 264.969   5
  -3   6  -4 2808.28 282.490   2
   3  -6   4 2869.06 258.611   5
  -3   6  -4 2680.18 245.342   4
  -3   6  -5 6144.64 421.988   2
   3  -6   5 5367.33 364.489   5
  -3   6  -5 5297.84 362.271   4
  -3   6  -6 1629.15 223.311   2
  -3   6  -6 1851.63 225.687   4
  -3   6  -7 375.046 111.744   2
  -3   6  -7 262.964 91.5071   4
  -3   6  -8-5.94649 19.2618   4
  -3   6  -8 59.9347 51.5805   2
  -3   6  -9 45.3907 51.5369   4
  -3   6 -10 82.6099 70.3433   4
  -3   5   9 84.4429 61.4731   3
  -3   5   8 3.87326 26.6045   3
  -3   5   7 417.689 124.922   3
   3  -5  -6 445.305 113.533   5
   3  -5  -5 647.727 133.029   5
   3  -5  -4 929.833 153.974   5
   3  -5  -3-19.9029 29.9064   5
   3  -5  -2 221.065 74.0515   5
   3  -5  -1 578.708 109.097   5
   3  -5   0 153.697 24.0094   4
   3  -5   0 263.752 70.4481   5
   3  -5   1 0.67731 20.2482   5
  -3   5  -2 699.220 124.360   2
   3  -5   2 757.957 113.547   5
   3  -5   3 3106.16 233.807   5
  -3   5  -3 3196.71 273.735   2
  -3   5  -3 3270.60 227.731   4
  -3   5  -4 190.163 55.3744   4
  -3   5  -4 419.945 100.704   2
   3  -5   4 293.981 73.1919   5
  -3   5  -5 148.535 56.2801   4
   3  -5   5 103.894 45.6558   5
  -3   5  -5 111.169 55.3288   2
  -3   5  -6 918.140 156.603   2
  -3   5  -6 860.426 147.303   4
  -3   5  -7 165.081 71.2078   4
  -3   5  -7 194.747 79.9952   2
  -3   5  -8 206.903 84.4229   4
  -3   5  -9-0.34927 20.5673   4
  -3   5 -10 280.438 126.329   4
  -3   4  10 86.1337 60.6170   3
  -3   4   9 98.0722 52.8585   3
  -3   4   8 10.0688 43.9461   3
   3  -4  -7 682.435 116.596   4
  -3   4   7 875.429 169.063   3
  -3   4   6 582.367 129.752   3
   3  -4  -6 534.410 93.8052   4
   3  -4  -5 1312.62 129.355   4
  -3   4   5 1891.90 214.795   3
   3  -4  -4 262.888 47.5444   4
   3  -4  -4 145.015 53.7282   5
   3  -4  -3 58.2943 14.7470   4
   3  -4  -3 37.9600 27.4470   5
   3  -4  -2 6846.77 353.186   5
   3  -4  -1 1723.34 166.136   5
   3  -4   0 6011.75 304.870   5
   3  -4   1 17596.7 514.198   5
  -3   4  -1 17359.1 401.375   4
   3  -4   2 23729.1 609.569   5
  -3   4  -2 22983.2 566.140   4
  -3   4  -3 3043.57 249.568   2
   3  -4   3 3059.70 195.140   5
  -3   4  -3 2784.00 198.441   4
  -3   4  -4 6309.00 373.949   2
   3  -4   4 6174.78 286.783   5
  -3   4  -4 6427.24 339.993   4
   3  -4   5 4696.69 250.778   5
  -3   4  -5 4276.61 320.644   2
  -3   4  -5 4607.45 315.774   4
  -3   4  -6 4717.84 356.026   2
  -3   4  -6 4680.88 349.838   4
  -3   4  -7 7.96190 26.4386   4
  -3   4  -8 0.73339 34.4818   4
  -3   4  -9 184.100 81.3818   4
  -3   4 -10 554.709 158.584   4
  -3   3  11 83.6820 66.4232   3
  -3   3  10 1609.39 248.962   3
   3  -3 -10 1216.19 202.976   4
   3  -3  -9 149.357 63.3898   4
  -3   3   9 404.250 119.256   3
   3  -3  -8 26.9262 27.6226   4
  -3   3   8 54.3779 52.9401   3
  -3   3   7 1374.95 192.504   3
   3  -3  -7 1423.49 172.057   4
  -3   3   6 2754.43 250.050   3
   3  -3  -6 2372.56 201.727   4
  -3   3   5 1511.13 177.244   3
   3  -3  -5 1064.86 117.663   4
  -3   3   4 6920.70 367.597   3
   3  -3  -4 5867.49 247.870   4
  -3   3   3 181.840 54.1697   3
  -3   3   3 134.650 26.5148   4
  -3   3   2 4474.91 252.428   3
   3  -3  -2 4303.90 249.356   5
   3  -3  -1 3891.57 217.179   5
  -3   3   0 545.333 47.1635   4
  -3   3   0 631.447 100.523   2
   3  -3   0 743.513 88.9939   5
  -3   3  -1 8277.08 259.790   4
   3  -3   1 8280.81 282.739   5
  -3   3  -2 4692.47 228.973   4
   3  -3   2 5091.91 202.944   5
  -3   3  -2 4600.54 218.548   5
  -3   3  -3 1837.84 160.320   4
  -3   3  -3 1436.54 61.5099   3
   3  -3   3 1754.87 109.758   5
  -3   3  -3 1532.56 71.5624   3
   3  -3   3 1810.14 181.105   1
  -3   3  -4 76.0889 42.9688   2
  -3   3  -4 54.7194 32.1771   4
   3  -3   4 70.8082 39.6023   1
   3  -3   4 58.3801 21.3055   5
  -3   3  -5 1425.40 174.456   4
  -3   3  -5 1793.49 200.522   2
   3  -3   5 1593.50 179.586   1
  -3   3  -6 2058.51 233.263   4
   3  -3   6 2116.10 215.571   1
  -3   3  -7 244.521 85.0750   4
   3  -3   7 180.930 65.7851   1
  -3   3  -8 127.640 66.9070   4
   3  -3   8 78.1369 37.4031   1
  -3   3  -9 92.5413 60.0916   4
  -3   3 -10-24.8641 30.9723   4
   3  -2 -12 108.327 70.7259   4
   3  -2 -11 16.2284 32.0588   4
  -3   2  11-62.1314 54.5696   3
   3  -2 -10 101.940 69.5888   4
  -3   2  10 311.791 119.517   3
   3  -2  -9 91.1574 52.0151   4
  -3   2   9 57.7316 25.4584   3
   3  -2  -8 19.6626 14.6424   4
  -3   2   8-16.9789 53.1496   3
   3  -2  -7 360.796 87.4175   4
  -3   2   7 311.442 92.0540   3
   3  -2  -6 424.583 86.9616   4
  -3   2   6 652.911 118.691   3
  -3   2   5 1119.38 143.243   3
   3  -2  -5 1198.23 134.058   4
  -3   2   4-9.92673 28.7049   3
  -3   2   3 5969.62 289.034   3
  -3   2   3 5031.33 220.250   4
   3  -2  -2 13.3720 11.3585   1
  -3   2   2 12.2705 4.81235   4
  -3   2   1 5920.97 240.501   3
  -3   2   1 5870.21 197.764   4
  -3   2   1 5999.90 277.084   2
   3  -2  -1 5853.40 282.809   1
  -3   2   0 25119.1 510.520   3
  -3   2   0 25101.6 501.028   4
  -3   2   0 26057.5 641.491   2
  -3   2  -1 604.814 76.5621   4
  -3   2  -1 485.791 51.3770   5
  -3   2  -1 553.314 52.9839   3
  -3   2  -2 6887.83 293.334   4
  -3   2  -3 28.3166 21.1509   4
  -3   2  -4 76.4653 32.1279   4
   3  -2   4 82.3068 39.7548   1
  -3   2  -5 1391.77 175.166   4
   3  -2   5 935.198 136.829   1
  -3   2  -6 2131.48 233.238   4
   3  -2   6 2117.29 213.765   1
  -3   2  -7 1738.93 227.616   4
   3  -2   7 1509.82 187.528   1
  -3   2  -8 726.518 155.723   4
   3  -2   8 692.827 134.486   1
  -3   2  -9 67.1026 47.5212   4
  -3   2 -10 775.546 186.873   4
   3  -1 -12-88.6360 65.0779   4
  -3   1  12 24.2931 41.5961   3
   3  -1 -11 90.4214 51.0520   4
  -3   1  11 157.841 79.7225   3
   3  -1 -10 483.055 132.858   4
  -3   1  10 1054.88 201.351   3
   3  -1  -9 1929.54 246.763   4
  -3   1   9 2219.37 267.218   3
   3  -1  -8 574.204 124.339   4
  -3   1   8 525.495 120.311   3
  -3   1   7 170.105 63.0039   3
   3  -1  -7 330.434 84.4006   4
   3  -1  -6 4835.96 319.368   4
  -3   1   6 4960.53 331.882   3
  -3   1   5 4185.24 286.435   3
   3  -1  -4 1313.68 114.224   1
  -3   1   4 1286.26 145.463   3
  -3   1   3 190.532 51.9615   3
   3  -1  -3 207.127 46.2691   1
  -3   1   3 239.222 43.0092   2
  -3   1   2 46510.5 809.722   2
  -3   1   2 46430.6 917.516   3
  -3   1   1 39767.9 752.973   2
  -3   1   1 39203.5 767.535   3
   3  -1   0 624.607 70.1928   3
  -3   1   0 722.770 86.4431   4
  -3   1   0 858.001 97.1898   2
  -3   1   0 826.737 81.7315   3
   3  -1   1 278.562 40.0267   3
  -3   1  -1 215.435 32.9347   5
  -3   1  -1 289.702 40.4780   3
  -3   1  -1 318.375 59.7433   4
   3  -1   2 2474.84 94.0418   3
  -3   1  -2 2907.20 204.661   4
  -3   1  -3 2379.67 200.166   4
  -3   1  -4 4830.86 308.049   4
  -3   1  -5 2513.52 239.686   4
  -3   1  -6 144.936 48.5789   4
  -3   1  -7 841.753 159.080   4
  -3   1  -8 58.6948 44.1718   4
  -3   1  -9 12.2402 43.1859   4
  -3   1 -10 97.0834 59.4880   4
   3   0 -12 92.6208 60.3062   4
  -3   0  12 91.4529 71.0412   3
   3   0 -11 21.2575 34.9875   4
  -3   0  11 1.34741 37.2613   3
   3   0 -10-55.3376 61.4789   4
  -3   0  10-2.87907 25.8156   3
   3   0  -9 115.419 69.8398   4
  -3   0   9 36.4474 27.4192   3
   3   0  -8 811.202 154.974   4
  -3   0   8 906.779 166.335   3
  -3   0   7 516.704 115.222   3
   3   0  -7 312.352 89.7911   4
  -3   0   6 250.894 73.5948   3
   3   0  -5 398.902 56.0125   1
  -3   0   5 403.877 92.9818   3
  -3   0   4 1158.98 139.342   3
  -3   0   3 3423.32 237.266   3
   3   0  -2 6592.84 239.769   2
  -3   0   2 7657.20 330.502   3
  -3   0   1 48.3932 22.7352   3
  -3   0   0 2592.65 171.274   3
  -3   0  -1 6192.57 312.570   4
  -3   0  -1 6678.08 247.625   5
  -3   0  -2 685.635 104.787   4
  -3   0  -2 653.942 64.2452   5
   3   0   2 548.781 71.1349   3
  -3   0  -3 825.425 63.1456   5
   3   0   3 662.919 77.1224   3
  -3   0  -4 3153.93 261.809   4
  -3   0  -5 7000.15 414.438   4
  -3   0  -6 646.673 132.385   4
  -3   0  -7 2470.88 282.150   4
  -3   0  -8 1105.34 199.044   4
  -3   0  -9 570.475 159.206   4
  -3  -1  12 39.0644 40.6290   3
   3   1 -12 26.8169 40.2667   4
  -3  -1  11 99.2386 66.4102   3
   3   1 -11 138.965 85.4591   4
  -3  -1  10 59.7671 59.4074   3
   3   1 -10-20.5684 33.0561   4
  -3  -1   9 324.656 107.725   3
  -3  -1   8 317.167 100.493   3
  -3  -1   7 151.188 73.9535   3
  -3  -1   6 4235.45 322.712   3
  -3  -1   5 32016.3 901.314   3
  -3  -1   4 5915.32 341.790   3
  -3  -1   3 27.4785 28.9137   3
   3   1  -3 9.35136 8.12417   2
  -3  -1   2 35916.0 853.560   3
  -3  -1   1 83102.8 1465.03   3
  -3  -1   0 75.9418 29.7128   3
  -3  -1   0 83.8368 35.8190   5
  -3  -1  -1 9539.03 432.757   4
  -3  -1  -1 10160.4 383.462   5
  -3  -1  -2 286.041 72.8024   4
  -3  -1  -2 299.253 60.7970   5
  -3  -1  -3 20280.7 685.263   4
  -3  -1  -3 18253.4 490.412   5
  -3  -1  -4 2.67028 31.0475   4
  -3  -1  -4-7.05597 15.0293   5
  -3  -1  -5 1206.49 186.723   4
  -3  -1  -6 177.221 76.1513   4
  -3  -1  -7 192.269 81.6342   4
  -3  -1  -8 9.00613 34.1966   4
  -3  -1  -9 91.3956 63.9714   4
  -3  -2  12 2.71853 33.0297   3
  -3  -2  11 222.265 105.342   3
  -3  -2  10 216.685 97.6940   3
  -3  -2   9 142.048 65.2173   3
  -3  -2   8 2122.58 266.160   3
  -3  -2   7 1962.13 239.472   3
  -3  -2   6 785.632 144.904   3
  -3  -2   5 4563.59 330.331   3
  -3  -2   4 868.426 132.095   3
   3   2  -4 849.778 63.8473   2
  -3  -2   3 69.1328 40.1035   3
  -3  -2   2 5656.42 337.626   3
  -3  -2   1 161.554 61.6316   3
  -3  -2   1 209.475 64.2894   5
  -3  -2   0 1589.86 170.010   5
  -3  -2  -1 415.174 95.2897   4
  -3  -2  -1 597.416 106.005   5
  -3  -2  -2 41.6417 31.8186   4
  -3  -2  -2 53.8218 28.9302   5
  -3  -2  -3 182.169 69.5959   4
  -3  -2  -3 47.5419 19.4980   5
  -3  -2  -4 25.6089 26.2881   5
  -3  -2  -4 16.7579 30.6799   4
  -3  -2  -5 1554.66 219.293   4
  -3  -2  -6-15.8084 28.8198   4
  -3  -2  -7 107.896 73.4258   4
  -3  -2  -8 93.4670 62.5067   4
  -3  -3  11-102.217 71.3102   3
  -3  -3  10 40.5573 36.2979   3
  -3  -3   9 413.782 124.754   3
  -3  -3   8 329.917 108.010   3
  -3  -3   7 168.228 78.5964   3
  -3  -3   6 2516.23 273.415   3
  -3  -3   5 13657.8 625.083   3
  -3  -3   4 3125.81 288.092   3
  -3  -3   3 313.077 85.0344   3
  -3  -3   2 1906.82 220.093   5
  -3  -3   1 8039.75 442.529   5
  -3  -3   0 978.640 154.190   5
  -3  -3  -1 688.867 131.453   4
  -3  -3  -1 764.330 135.905   5
  -3  -3  -2 100.217 52.4200   4
  -3  -3  -2 104.028 49.7631   5
  -3  -3  -3 13719.7 649.023   4
  -3  -3  -3 14559.6 586.766   5
  -3  -3  -4 3219.70 317.596   4
  -3  -3  -4 2805.10 239.304   5
  -3  -3  -5 2743.69 310.165   4
  -3  -3  -6 740.487 171.259   4
  -3  -3  -7-41.0928 43.7131   4
  -3  -3  -8 120.338 74.4629   4
  -3  -4  10 43.5490 41.1156   3
  -3  -4   9 13.7386 21.4264   3
  -3  -4   8 79.9797 76.6216   3
  -3  -4   7 892.022 175.857   3
  -3  -4   6 226.673 93.5509   3
  -3  -4   5 7000.25 475.152   3
  -3  -4   4 1686.05 237.074   5
  -3  -4   4 1579.40 223.785   3
  -3  -4   3 4555.86 374.771   5
  -3  -4   2 47.4952 42.8040   5
  -3  -4   1 2156.98 253.735   5
  -3  -4   0 318.854 97.8247   5
  -3  -4  -1-63.9829 62.1856   4
  -3  -4  -1-6.87019 27.6253   5
  -3  -4  -2 231.849 86.1954   4
  -3  -4  -2 153.531 64.8279   5
  -3  -4  -3 288.923 102.004   4
  -3  -4  -3 464.455 117.297   5
  -3  -4  -4 975.935 160.846   5
  -3  -4  -4 1074.15 198.344   4
  -3  -4  -5 50.9858 46.9523   4
  -3  -4  -6 40.0772 47.0395   4
  -3  -4  -7 36.7924 49.2558   4
  -3  -5   9-94.9604 68.5264   3
  -3  -5   8 64.9425 59.6175   3
  -3  -5   7 38.9755 47.9544   3
  -3  -5   6 43.8460 49.8266   3
  -3  -5   6 127.872 68.6657   5
  -3  -5   5 1210.96 215.994   5
  -3  -5   4 296.082 109.056   5
  -3  -5   3 1.94954 28.2873   5
  -3  -5   2 620.951 146.009   5
  -3  -5   1 333.995 110.416   5
  -3  -5   0 10.4539 20.5952   5
  -3  -5  -1 344.010 101.897   4
  -3  -5  -1 583.037 143.417   5
  -3  -5  -2 232.894 91.5813   4
  -3  -5  -2 300.103 105.209   5
  -3  -5  -3 2156.82 281.389   4
  -3  -5  -3 1481.51 223.995   5
  -3  -5  -4 1911.78 271.946   4
  -3  -5  -4 1726.27 234.766   5
  -3  -5  -5 144.049 77.1969   4
  -3  -6   7 84.4712 67.1399   5
  -3  -6   6 95.8888 68.8782   5
  -3  -6   5 555.058 152.276   5
  -3  -6   4 766.318 184.015   5
  -3  -6   3 1133.44 219.621   5
  -3  -6   2 732.299 173.842   5
  -3  -6   1 1143.69 218.249   5
  -3  -6   0 958.597 182.734   4
  -3  -6   0 1246.58 227.091   5
  -3  -6  -1-12.4757 26.6806   5
  -3  -6  -1-37.6126 42.2595   4
  -3  -6  -2 179.569 85.0660   4
  -3  -6  -2 174.323 86.7205   5
  -3  -6  -3 80.0325 50.1672   4
  -3  -6  -3 86.0762 56.2755   5
  -3  -6  -4 274.883 111.577   4
  -3  -7   4 99.0968 80.2800   5
  -3  -7   3-2.50855 38.2816   5
  -3  -7   2 66.2417 61.7145   5
  -3  -7   1 243.973 114.366   5
  -3  -7   0-63.0043 53.4180   4
  -3  -7   0 155.519 88.3130   5
  -3  -7  -1 5.86706 38.7830   4
  -3  -7  -1 35.4666 43.1981   5
  -3  -7  -2 0.19812 32.9429   5
   4 -10   0 86.0068 70.4104   5
   4 -10   1 7.40251 22.0079   5
   4 -10   2 102.061 65.6896   5
   4  -9  -3 17.8973 38.9073   5
   4  -9  -2-46.1378 47.2910   5
   4  -9  -1 36.6298 35.6595   5
   4  -9   0-49.7663 45.7014   5
   4  -9   1 46.0968 42.6894   5
   4  -9   2 59.0071 52.7422   5
  -4   9  -3-90.1613 76.0177   2
  -4   9  -4 315.314 129.167   2
  -4   9  -5-64.0213 62.1451   2
   4  -8  -5-29.0785 39.8207   5
   4  -8  -4 3609.97 366.664   5
   4  -8  -3 693.829 156.624   5
   4  -8  -2-106.259 63.2522   5
   4  -8  -1 92.4363 54.5069   5
   4  -8   0 1698.45 235.337   5
   4  -8   1 444.593 118.070   5
   4  -8   2 265.775 90.1108   5
  -4   8  -3 669.584 174.776   2
   4  -8   3 560.955 127.585   5
  -4   8  -4 2395.87 322.024   2
  -4   8  -5 688.964 168.775   2
  -4   8  -6-4.09383 39.0322   2
  -4   8  -7 63.2155 54.3317   2
  -4   7   7 0.59743 34.4064   3
   4  -7  -6 10.9274 27.9654   5
   4  -7  -5 51.9348 34.5908   5
   4  -7  -4-7.12152 34.8016   5
   4  -7  -3 47.1084 43.6263   5
   4  -7  -2 136.715 72.8382   5
   4  -7  -1 41.5170 34.1537   5
   4  -7   0 25.1025 28.7544   5
   4  -7   1 75.4952 49.9267   5
  -4   7  -2 543.877 140.698   2
   4  -7   2 581.110 119.526   5
  -4   7  -3 158.373 65.9969   2
   4  -7   3 87.6307 46.9592   5
  -4   7  -4 152.446 73.3046   2
  -4   7  -5 191.139 83.3362   2
  -4   7  -6 27.3206 34.0938   2
  -4   7  -7-24.6515 38.5987   2
  -4   7  -8 91.8637 68.2484   2
  -4   6   8-13.7197 30.2467   3
  -4   6   7 67.7314 41.7523   3
  -4   6   6 209.813 78.2044   3
   4  -6  -5-39.5872 55.8802   5
   4  -6  -4 43.4308 34.1970   5
   4  -6  -3 1127.48 173.670   5
   4  -6  -2 268.331 85.2232   5
   4  -6  -1 784.775 140.050   5
   4  -6   0 2778.77 254.247   5
   4  -6   1 4653.93 326.862   5
  -4   6  -2 116.508 58.8394   2
   4  -6   2 79.3861 43.2807   5
  -4   6  -3 669.084 143.244   2
   4  -6   3 549.659 102.358   5
  -4   6  -4 737.077 149.718   2
  -4   6  -5 3120.72 312.007   2
  -4   6  -5 2957.45 263.953   4
  -4   6  -6 320.154 104.758   2
  -4   6  -6 99.4960 56.9494   4
  -4   6  -7 50.0391 46.9044   2
  -4   6  -7 7.97734 27.6970   4
  -4   6  -8 195.371 86.0915   4
  -4   6  -8 257.502 105.166   2
  -4   6  -9 260.329 107.029   4
  -4   5   9 90.9395 70.7046   3
  -4   5   8 264.286 106.972   3
  -4   5   7 1051.85 195.559   3
  -4   5   6 99.5331 55.4114   3
  -4   5   5 1099.65 177.289   3
  -4   5   4 580.645 127.608   3
   4  -5  -4 414.214 101.969   5
   4  -5  -3 3031.33 272.679   5
   4  -5  -2-36.0599 36.4866   5
   4  -5  -1 586.682 109.444   5
   4  -5   0 1370.70 159.042   5
  -4   5  -1 1612.37 201.367   2
   4  -5   1 1531.01 163.340   5
  -4   5  -1 1340.01 102.370   4
   4  -5   2 557.970 95.2348   5
  -4   5  -2 433.541 103.641   2
  -4   5  -2 520.266 76.0899   4
  -4   5  -3 153.697 49.6268   4
   4  -5   3 111.128 39.0526   5
  -4   5  -4 662.061 133.240   2
  -4   5  -4 712.460 117.858   4
  -4   5  -5 285.660 90.6542   2
  -4   5  -5 72.6875 43.4556   4
  -4   5  -6 83.8243 53.0496   2
  -4   5  -6 85.8040 43.3717   4
  -4   5  -7 33.2287 19.0664   4
  -4   5  -7 230.245 89.9612   2
  -4   5  -8 6.38948 23.1714   4
  -4   5  -9 59.7971 59.7206   4
  -4   4  10 93.0191 64.5975   3
  -4   4   9 27.4104 65.4396   3
  -4   4   8 26.1441 41.3925   3
  -4   4   7 48.4075 37.4258   3
  -4   4   6 163.246 75.0438   3
  -4   4   5 97.5486 44.2887   3
  -4   4   4 40.0227 44.0738   3
  -4   4   3 310.153 86.0631   3
  -4   4   2 211.519 58.8499   3
   4  -4  -2 342.792 81.9287   5
  -4   4   1 968.374 124.059   3
   4  -4  -1 912.753 122.741   5
  -4   4   0 122.702 44.4069   3
  -4   4   0 142.636 25.0465   4
  -4   4   0 221.024 73.5887   2
   4  -4   0 189.711 57.1099   5
  -4   4  -1 2137.63 137.101   4
  -4   4  -1 2234.76 153.703   3
   4  -4   1 2224.55 163.743   5
   4  -4   1 2147.90 220.438   1
  -4   4  -1 2281.72 223.018   2
  -4   4  -2 1022.42 112.535   4
  -4   4  -2 1199.06 96.5134   3
   4  -4   2 1028.79 154.814   1
  -4   4  -2 1057.47 150.414   2
   4  -4   2 1233.73 109.100   5
  -4   4  -3 1094.86 132.028   4
   4  -4   3 1204.84 173.316   1
  -4   4  -3 991.526 152.540   2
  -4   4  -4 2272.56 213.988   4
  -4   4  -4 2252.80 233.638   2
   4  -4   4 2339.90 248.850   1
  -4   4  -5 2283.15 237.923   4
   4  -4   5 2196.89 250.341   1
  -4   4  -5 2371.68 256.191   2
  -4   4  -6 2909.68 290.876   4
   4  -4   6 3333.65 315.127   1
   4  -4   7 893.811 167.117   1
  -4   4  -7 658.999 149.164   4
  -4   4  -8 115.582 81.5918   4
   4  -4   8 48.7137 42.5426   1
  -4   4  -9 783.795 185.289   4
  -4   3  10 519.380 151.062   3
  -4   3   9 41.5624 37.3810   3
  -4   3   8 295.216 99.2023   3
  -4   3   7 2999.56 300.132   3
   4  -3  -7 2474.24 219.137   4
  -4   3   6 3860.49 319.305   3
  -4   3   5-10.0644 19.9025   3
  -4   3   4 174.219 59.3492   3
  -4   3   3 12183.0 327.373   4
  -4   3   3 15779.4 538.601   3
  -4   3   2 18422.8 551.223   3
   4  -3  -2 18786.3 622.346   1
  -4   3   2 17569.7 567.793   2
  -4   3   2 16057.3 367.664   4
  -4   3   2 15650.4 368.082   4
  -4   3   1 737.542 94.8084   3
  -4   3   1 789.742 69.6985   4
  -4   3   1 882.131 122.989   2
   4  -3  -1 824.243 123.714   1
  -4   3   0 558.453 75.9637   3
  -4   3   0 475.860 62.1732   4
   4  -3   0 551.588 100.849   1
  -4   3   0 465.829 88.2689   2
  -4   3  -1 2121.99 130.778   3
  -4   3  -1 2087.34 151.703   4
  -4   3  -1 2146.73 199.481   2
  -4   3  -2 4119.31 288.694   2
  -4   3  -2 3595.12 156.984   5
   4  -3   2 4134.24 296.143   1
  -4   3  -2 3782.08 137.098   3
  -4   3  -3 2235.17 196.257   4
  -4   3  -3 2353.01 229.325   2
   4  -3   3 2686.91 247.566   1
  -4   3  -4 774.988 136.555   2
  -4   3  -4 450.167 98.7197   4
   4  -3   4 480.273 106.123   1
  -4   3  -5 661.813 128.422   4
   4  -3   5 628.705 130.659   1
  -4   3  -6 570.740 126.668   4
   4  -3   6 536.041 124.419   1
   4  -3   7 56.2233 43.6056   1
  -4   3  -7-43.8038 41.3845   4
   4  -3   8-52.0111 42.5267   1
  -4   3  -8-49.9088 47.4183   4
  -4   3  -9-7.48501 39.4785   4
  -4   2  11 31.1835 33.5550   3
   4  -2 -10-11.5779 36.2146   4
  -4   2  10-19.4796 28.3569   3
  -4   2   9 1003.23 187.937   3
   4  -2  -9 640.674 133.679   4
  -4   2   8 4.13053 23.8837   3
  -4   2   7 318.175 85.3159   3
  -4   2   6 440.508 96.1538   3
  -4   2   5 605.092 111.717   3
   4  -2  -4 772.210 107.860   1
  -4   2   4 714.902 92.0186   2
  -4   2   4 686.265 118.183   3
  -4   2   3 4075.58 268.036   3
  -4   2   3 4028.25 232.331   2
   4  -2  -3 3820.47 250.803   1
  -4   2   2 351.370 70.0906   3
   4  -2  -2 208.898 57.1500   1
  -4   2   2 237.701 53.7018   2
  -4   2   1 1382.22 124.163   4
  -4   2   1 1603.15 149.456   2
   4  -2  -1 1673.54 169.046   1
  -4   2   1 1499.32 137.417   3
  -4   2   0 4550.16 235.128   4
  -4   2   0 4262.47 258.634   2
   4  -2   0 4309.73 280.578   1
  -4   2   0 4216.16 211.842   3
  -4   2  -1 50.2854 38.4201   2
  -4   2  -1-1.94193 9.84171   3
  -4   2  -1 19.7465 22.3415   4
  -4   2  -1 21.0506 9.59634   5
  -4   2  -2 3258.67 233.006   4
  -4   2  -2 3178.64 244.196   2
  -4   2  -2 2596.08 109.204   3
  -4   2  -3 2251.50 204.373   4
  -4   2  -4 5593.18 354.690   4
  -4   2  -5 993.354 157.653   4
   4  -2   5 924.694 160.136   1
  -4   2  -6 2720.06 285.676   4
   4  -2   6 2964.46 300.928   1
   4  -2   7 944.303 173.073   1
  -4   2  -7 1209.70 205.053   4
  -4   2  -8 149.712 75.7347   4
   4  -2   8 260.425 92.3568   1
  -4   2  -9 49.2243 49.4475   4
  -4   1  11-21.8332 62.1622   3
  -4   1  10 22.7609 23.4934   3
  -4   1   9 2.80094 24.6126   3
  -4   1   8 207.479 84.2305   3
  -4   1   7 3936.70 334.975   3
  -4   1   6 17279.3 687.218   3
  -4   1   5 1882.97 109.253   2
   4  -1  -5 1850.80 159.604   1
  -4   1   5 2155.61 217.098   3
  -4   1   4 565.179 65.8478   2
  -4   1   4 555.039 106.958   3
   4  -1  -4 646.088 93.5020   1
  -4   1   3 14811.9 403.240   2
  -4   1   3 15453.8 549.419   3
  -4   1   2 37070.3 766.021   2
  -4   1   2 38745.3 879.533   3
  -4   1   1-0.17131 9.88490   3
  -4   1   0 8539.04 376.139   4
  -4   1   0 8914.51 335.535   3
  -4   1  -1 1118.97 134.116   4
  -4   1  -1 1168.04 108.845   3
  -4   1  -2 41897.2 995.592   4
  -4   1  -3 1472.61 178.222   4
  -4   1  -4 3915.43 309.007   4
  -4   1  -5 9.48678 25.7557   4
  -4   1  -6 148.731 73.7281   4
  -4   1  -7-24.5400 32.9356   4
  -4   1  -8-26.1741 36.7283   4
  -4   1  -9 1.53015 21.0294   4
  -4   0  11 240.479 105.334   3
  -4   0  10 90.6082 57.3417   3
  -4   0   9 856.940 174.409   3
  -4   0   8 1250.20 199.388   3
  -4   0   7 917.235 161.777   3
   4   0  -6 5612.32 264.832   1
  -4   0   6 6026.11 397.824   3
  -4   0   5 1022.05 158.772   3
  -4   0   4 1853.19 205.738   3
  -4   0   3 3013.26 246.819   3
  -4   0   2 13.8479 25.7234   3
  -4   0   1 921.144 117.773   3
  -4   0   0 1698.74 182.107   4
  -4   0   0 1515.07 154.684   3
  -4   0  -1 65.5419 27.0342   4
  -4   0  -1 72.2732 30.2324   5
  -4   0  -2 872.537 138.539   4
  -4   0  -2 909.360 89.6687   5
  -4   0  -3 697.742 127.923   4
  -4   0  -4 455.973 111.057   4
  -4   0  -5 6.09398 34.0861   4
  -4   0  -6 37.6731 17.6710   4
  -4   0  -7 75.2095 57.5657   4
  -4   0  -8 59.5933 48.8706   4
  -4  -1  11-12.4614 36.5553   3
  -4  -1  10 79.9927 73.5737   3
  -4  -1   9 340.131 114.349   3
  -4  -1   8 118.074 65.8971   3
  -4  -1   7 2350.89 274.687   3
  -4  -1   6 9447.19 533.223   3
  -4  -1   5 835.017 147.260   3
  -4  -1   4 1120.86 167.501   3
  -4  -1   3-19.6651 39.2031   3
  -4  -1   2 247.676 76.6625   3
  -4  -1   1 87.9938 37.5186   3
  -4  -1   0-24.1543 43.7454   4
  -4  -1   0 33.6385 25.4278   5
  -4  -1  -1 2852.45 257.192   4
  -4  -1  -1 2564.93 207.035   5
  -4  -1  -2 32629.8 969.570   4
  -4  -1  -2 32975.6 784.759   5
  -4  -1  -3 10147.3 522.522   4
  -4  -1  -4 5802.55 417.674   4
  -4  -1  -5 3259.07 329.303   4
  -4  -1  -6 10.9892 31.7455   4
  -4  -1  -7 352.737 120.685   4
  -4  -1  -8-26.2683 54.4384   4
  -4  -2  10 15.1834 33.1386   3
  -4  -2   9 58.9363 55.2547   3
  -4  -2   8 109.838 70.9637   3
  -4  -2   7 344.109 102.548   3
  -4  -2   6 6775.19 459.031   3
  -4  -2   5 2052.66 240.894   3
  -4  -2   4 9676.69 522.440   3
  -4  -2   3 1019.41 164.036   3
  -4  -2   2 3920.32 317.856   3
  -4  -2   1 1998.74 217.524   5
  -4  -2   0 141.632 54.1219   5
  -4  -2  -1 152.573 51.2099   4
  -4  -2  -1 357.407 85.3392   5
  -4  -2  -2 311.400 88.3290   4
  -4  -2  -2 291.872 75.7813   5
  -4  -2  -3 2905.32 296.895   4
  -4  -2  -4 249.039 96.4293   4
  -4  -2  -5 105.959 70.2591   4
  -4  -2  -6-12.6522 39.2676   4
  -4  -2  -7 32.0155 44.5577   4
  -4  -3  10 91.0758 78.0629   3
  -4  -3   9 36.9764 56.3297   3
  -4  -3   8-83.8241 60.0499   3
  -4  -3   7-0.77803 20.6444   3
  -4  -3   6 466.311 121.298   3
  -4  -3   5 9.00738 39.2626   3
  -4  -3   4 173.376 77.7660   3
  -4  -3   3 2216.99 259.212   3
  -4  -3   2 4105.12 350.079   5
  -4  -3   1 341.652 99.8406   5
  -4  -3   0 2385.08 257.262   5
  -4  -3  -1 2702.06 281.455   4
  -4  -3  -1 2564.52 261.490   5
  -4  -3  -2 4125.74 364.265   4
  -4  -3  -2 3948.96 320.148   5
  -4  -3  -3 4059.61 368.702   4
  -4  -3  -4 143.905 70.2339   4
  -4  -3  -5 562.570 152.710   4
  -4  -3  -6 0.55943 24.5313   4
  -4  -4   9 51.7431 59.2050   3
  -4  -4   8 993.141 210.004   3
  -4  -4   7 676.943 171.878   3
  -4  -4   6 533.496 146.326   3
  -4  -4   5 1365.51 228.090   3
  -4  -4   4 1233.84 210.982   3
  -4  -4   4 1076.04 200.456   5
  -4  -4   3 1826.61 253.558   5
  -4  -4   2 1814.15 250.815   5
  -4  -4   1 3662.79 354.902   5
  -4  -4   0 96.4725 39.6818   4
  -4  -4   0 224.593 90.8947   5
  -4  -4  -1 444.449 124.586   4
  -4  -4  -1 612.328 144.667   5
  -4  -4  -2 22.8319 37.0514   4
  -4  -4  -2 243.475 85.4819   5
  -4  -4  -3 330.685 117.296   4
  -4  -4  -4 230.898 95.5105   4
  -4  -4  -5-11.1454 40.1436   4
  -4  -5   7 198.694 96.9160   3
  -4  -5   7 388.768 144.954   5
  -4  -5   6-12.2316 58.5489   5
  -4  -5   5 6.88370 34.1215   5
  -4  -5   4-118.864 72.7331   5
  -4  -5   3 157.305 81.4274   5
  -4  -5   2 661.724 164.237   5
  -4  -5   1 542.120 148.019   5
  -4  -5   0 62.2163 55.5677   4
  -4  -5   0 132.095 73.0027   5
  -4  -5  -1 337.355 106.441   4
  -4  -5  -1 195.381 85.2512   5
  -4  -5  -2 76.4363 60.2792   4
  -4  -5  -2 141.684 71.3458   5
  -4  -5  -3 281.643 110.050   4
  -4  -6   5 131.763 90.3279   5
  -4  -6   4 44.0803 59.8903   5
  -4  -6   3 19.2221 57.1465   5
  -4  -6   2-53.2302 55.0100   5
  -4  -6   1 75.2047 60.9270   5
  -4  -6   0 80.3754 58.0026   4
  -4  -6   0 129.183 71.5606   5
  -4  -6  -1-17.1646 31.2006   5
   5  -9  -3 8.83814 29.4959   5
   5  -9  -2 19.2556 34.9659   5
   5  -9  -1-60.3428 50.6649   5
   5  -9   0 166.800 75.8659   5
  -5   9  -1 105.761 93.9675   2
  -5   9  -2-35.6980 49.9645   2
  -5   8   5-9.73100 22.4098   3
   5  -8  -5 44.5731 42.5850   5
   5  -8  -4 159.697 89.1734   5
   5  -8  -3 8.59217 32.4536   5
   5  -8  -2 1.50447 22.8479   5
   5  -8  -1 423.470 120.984   5
   5  -8   0 861.468 170.297   5
  -5   8  -1-43.0287 63.5141   2
   5  -8   1 37.8954 33.7871   5
  -5   8  -2-29.9824 43.2801   2
  -5   8  -3 89.6306 51.1126   2
  -5   8  -4 1190.45 234.181   2
  -5   8  -5 215.957 94.6912   2
  -5   7   6 88.1263 51.5534   3
  -5   7   5 88.4478 61.0819   3
  -5   7   4 1176.29 203.504   3
   5  -7  -4 874.356 177.516   5
   5  -7  -3 60.7181 48.6556   5
   5  -7  -2 51.7644 48.4095   5
   5  -7  -1-23.6523 31.4278   5
  -5   7   0 435.477 127.689   2
   5  -7   0 418.471 108.160   5
  -5   7  -1 179.952 87.9526   2
   5  -7   1 228.134 75.4832   5
  -5   7  -2 55.3174 56.2954   2
  -5   7  -3 122.690 65.4087   2
  -5   7  -4-65.1729 53.6146   2
  -5   7  -5 48.9922 42.4130   2
  -5   7  -6 30.7623 33.2642   2
  -5   6   8-50.3635 64.9307   3
  -5   6   7 47.3880 52.8299   3
  -5   6   6 47.7720 57.0560   3
  -5   6   5 56.9717 70.0026   3
  -5   6   4 142.425 69.3202   3
  -5   6   3-47.0597 50.1693   3
   5  -6  -3-43.4562 35.9640   5
  -5   6   2 29.9029 27.7603   3
   5  -6  -2 16.1231 29.2784   5
   5  -6  -1-7.20959 25.8633   5
   5  -6   0 1231.12 166.404   5
  -5   6   0 789.824 158.199   2
   5  -6   1 791.655 132.576   5
  -5   6  -1 859.049 167.979   2
  -5   6  -2 237.361 89.7191   2
  -5   6  -3 481.754 114.089   2
  -5   6  -4 1153.96 195.973   2
  -5   6  -5 1709.70 242.176   2
  -5   6  -6 429.792 128.155   2
  -5   6  -7-16.0776 39.8205   2
  -5   5   8 1477.71 246.830   3
  -5   5   7 1326.89 224.954   3
  -5   5   6-77.2462 55.5117   3
  -5   5   5 255.708 92.7769   3
  -5   5   4 3186.21 300.523   3
  -5   5   3 4943.76 355.085   3
  -5   5   2 62.1005 46.1437   2
  -5   5   2 147.757 63.8283   3
  -5   5   1 300.436 86.5315   2
  -5   5   1 392.234 85.3878   3
  -5   5   0 1585.14 161.638   3
  -5   5   0 1443.06 202.616   2
  -5   5  -1 3838.71 230.717   3
  -5   5  -1 3971.34 332.876   2
   5  -5   1 4312.96 259.699   5
  -5   5  -2 306.643 94.1537   2
  -5   5  -3 51.5214 46.0829   2
  -5   5  -4 179.317 73.1230   2
  -5   5  -5 286.305 102.856   2
  -5   5  -5 194.189 70.2169   4
  -5   5  -6 12.5558 33.6870   4
  -5   5  -6-66.5823 56.1634   2
  -5   5  -7 8.09413 17.2147   4
  -5   5  -8-18.4208 20.9755   4
  -5   4   9 96.2224 70.2221   3
  -5   4   8 159.382 75.5651   3
  -5   4   7 413.772 120.708   3
  -5   4   6 126.365 74.5065   3
  -5   4   5-20.2335 40.3467   3
  -5   4   4 895.311 149.053   3
  -5   4   3 23.1618 19.3661   2
  -5   4   3 98.2982 46.9078   3
  -5   4   2 599.639 117.270   2
  -5   4   2 627.456 107.878   3
  -5   4   1 601.748 99.3235   3
   5  -4  -1 400.527 102.068   1
  -5   4   1 435.627 96.5658   2
  -5   4   0 413.621 76.2477   3
   5  -4   0 340.861 90.1733   1
  -5   4   0 425.759 91.6945   2
  -5   4  -1 1795.20 140.216   3
  -5   4  -1 1838.14 149.668   4
  -5   4  -1 2008.88 223.035   2
   5  -4   1 2055.92 233.315   1
  -5   4  -2 66.6436 54.2026   2
  -5   4  -2 68.2932 33.0207   4
   5  -4   2 81.6415 50.2767   1
  -5   4  -3 633.039 134.041   2
  -5   4  -3 698.143 118.599   4
   5  -4   3 696.710 142.967   1
  -5   4  -4 331.670 95.3412   2
  -5   4  -4 514.579 109.581   4
   5  -4   4 507.151 127.970   1
  -5   4  -5 676.910 142.226   4
   5  -4   5 977.709 183.057   1
  -5   4  -6 73.7231 41.3775   4
   5  -4   6 135.113 73.9238   1
   5  -4   7 265.513 109.201   1
  -5   4  -7 336.163 113.105   4
  -5   4  -8 30.0325 22.5476   4
   5  -4   8-44.4606 46.6903   1
  -5   4  -9 1607.89 283.136   4
  -5   3  10 72.7353 55.3734   3
  -5   3   9 87.2624 68.8092   3
  -5   3   8 2011.98 279.245   3
  -5   3   7 4885.65 407.292   3
  -5   3   6 407.404 111.393   3
  -5   3   5 299.454 72.9064   2
  -5   3   5 441.219 108.514   3
  -5   3   4 1533.97 190.966   3
  -5   3   4 1363.74 155.718   2
  -5   3   3 5502.14 342.398   3
   5  -3  -3 5314.75 355.152   1
  -5   3   3 4941.13 305.859   2
  -5   3   2 57.6016 24.4851   4
   5  -3  -2 8.81142 15.2173   1
  -5   3   2 18.6927 27.9930   3
  -5   3   2 27.7958 13.0548   2
  -5   3   1 1079.47 112.501   4
  -5   3   1 1135.29 150.724   2
   5  -3  -1 1189.43 167.724   1
  -5   3   1 1098.30 132.398   3
  -5   3   0 2775.78 195.539   4
  -5   3   0 2496.58 227.252   2
   5  -3   0 2539.71 247.067   1
  -5   3   0 2363.26 177.810   3
  -5   3  -1 30732.8 773.033   4
  -5   3  -1 30519.0 884.824   2
   5  -3   1 29260.6 912.605   1
  -5   3  -1 27786.6 614.582   3
  -5   3  -2 2632.19 218.654   4
  -5   3  -2 2277.19 234.049   2
   5  -3   2 2299.79 249.000   1
  -5   3  -3 6695.58 388.374   4
   5  -3   3 6452.75 437.123   1
  -5   3  -4 1203.21 176.263   4
   5  -3   4 1001.44 178.330   1
  -5   3  -5 16.4350 30.8499   4
   5  -3   5 85.2869 56.1524   1
  -5   3  -6 47.9777 43.8295   4
   5  -3   6 16.7856 24.1489   1
  -5   3  -7 3.93105 21.3691   4
   5  -3   7 24.3215 34.7364   1
  -5   3  -8 28.6829 50.8077   4
   5  -3   8 60.2805 45.3989   1
  -5   2  10 57.2164 43.0885   3
  -5   2   9 262.234 100.266   3
  -5   2   8 394.968 121.416   3
  -5   2   7 2876.37 303.175   3
  -5   2   6 222.114 76.7929   3
   5  -2  -5 2052.85 204.973   1
  -5   2   5 2049.15 233.794   3
   5  -2  -4 68.3632 32.7074   1
  -5   2   4 88.5333 34.0728   2
  -5   2   3 569.174 90.0097   2
  -5   2   3 476.639 102.411   3
   5  -2  -3 507.716 100.743   1
  -5   2   2 7.74684 19.5045   2
   5  -2  -2 0.61937 21.8829   1
  -5   2   2 10.8323 15.6699   3
   5  -2  -1 58.0909 34.2475   1
  -5   2   1 55.1664 27.5663   3
  -5   2   1 37.6641 22.5763   4
  -5   2   0 184.661 50.3152   3
  -5   2   0 218.213 72.5145   2
   5  -2   0 225.386 70.2206   1
  -5   2   0 243.676 63.7490   4
  -5   2  -1 293.326 53.3375   3
  -5   2  -1 393.247 84.9862   4
  -5   2  -2 2572.14 238.418   4
  -5   2  -3 495.254 107.312   4
  -5   2  -4 46.7431 21.5100   4
  -5   2  -5 40.6523 34.9323   4
  -5   2  -6 328.962 105.701   4
   5  -2   6 399.640 123.828   1
   5  -2   7 152.548 91.8060   1
  -5   2  -7 86.2574 59.1286   4
   5  -2   8 50.8022 49.6639   1
  -5   2  -8-49.9322 51.7476   4
  -5   1  10 6.38395 23.0384   3
  -5   1   9-24.3550 36.4624   3
  -5   1   8 576.990 142.393   3
  -5   1   7 2729.78 297.244   3
  -5   1   6 153.900 85.6010   3
   5  -1  -6 170.744 56.5735   1
  -5   1   5 817.924 146.472   3
   5  -1  -5 1060.46 140.566   1
   5  -1  -4 989.952 137.151   1
  -5   1   4 1158.75 170.997   3
  -5   1   3 2147.96 221.394   3
  -5   1   2 369.595 90.1741   3
  -5   1   1 1358.89 162.571   4
  -5   1   1 1948.69 183.505   3
  -5   1   0 7311.33 399.194   4
  -5   1   0 6958.69 339.620   3
  -5   1  -1 29726.4 862.493   4
  -5   1  -1 27937.3 708.322   3
  -5   1  -2 9987.92 494.939   4
  -5   1  -3 7416.04 452.532   4
  -5   1  -4 5130.15 393.268   4
  -5   1  -5 6.87602 32.0029   4
  -5   1  -6 1018.40 190.629   4
  -5   1  -7 23.5939 30.4583   4
  -5   1  -8 40.7792 41.2245   4
  -5   0  10 77.5979 80.2454   3
  -5   0   9 83.1579 53.5536   3
  -5   0   8 287.716 105.563   3
  -5   0   7 2965.06 320.584   3
  -5   0   6 1562.19 222.203   3
  -5   0   5 6887.36 458.428   3
  -5   0   4 2614.70 265.349   3
  -5   0   3 3758.43 307.457   3
  -5   0   2 4546.49 318.891   3
  -5   0   1 660.086 116.244   3
  -5   0   0 568.054 104.009   3
  -5   0   0 383.295 90.8587   4
  -5   0  -1 595.989 122.939   4
  -5   0  -2 4013.48 324.928   4
  -5   0  -3 797.170 155.233   4
  -5   0  -4 49.5675 37.3924   4
  -5   0  -5 24.0176 36.8958   4
  -5   0  -6 313.031 107.262   4
  -5   0  -7 1.24980 21.0567   4
  -5  -1  10 54.7130 44.8190   3
  -5  -1   9-19.3071 29.5990   3
  -5  -1   8 80.0795 56.1310   3
  -5  -1   7-44.0416 70.5553   3
  -5  -1   6-11.7652 42.4154   3
  -5  -1   5 178.034 76.0931   3
  -5  -1   4 3011.39 295.099   3
  -5  -1   3 8444.52 486.137   3
  -5  -1   2 1146.89 175.222   3
  -5  -1   1 4579.93 339.520   3
  -5  -1   0 5536.68 391.668   4
  -5  -1   0 5301.10 337.812   5
  -5  -1  -1 2668.40 278.510   4
  -5  -1  -2 2924.60 294.047   4
  -5  -1  -3 160.838 75.7851   4
  -5  -1  -4 252.074 95.9164   4
  -5  -1  -5 114.837 70.0753   4
  -5  -1  -6 523.939 148.253   4
  -5  -2   9 826.079 196.545   3
  -5  -2   8 840.961 189.549   3
  -5  -2   7 276.089 97.5517   3
  -5  -2   6 1210.99 210.083   3
  -5  -2   5 216.136 87.0323   3
  -5  -2   4 1310.63 205.570   3
  -5  -2   3 1080.23 181.973   3
  -5  -2   2 3622.01 330.297   5
  -5  -2   2 3928.06 352.539   3
  -5  -2   1 119.867 53.0479   5
  -5  -2   0 1366.90 208.628   4
  -5  -2   0 1728.66 210.890   5
  -5  -2  -1 301.209 104.550   4
  -5  -2  -2 230.959 87.2347   4
  -5  -2  -3 169.969 76.8300   4
  -5  -2  -4-51.2083 47.0606   4
  -5  -2  -5 112.535 60.6675   4
  -5  -3   8 292.176 120.046   3
  -5  -3   7 161.491 93.2645   3
  -5  -3   6 74.9110 63.0679   3
  -5  -3   5 63.6140 48.6432   3
  -5  -3   4 345.944 116.192   3
  -5  -3   3 748.665 169.467   3
  -5  -3   3 540.276 147.810   5
  -5  -3   2 289.026 98.6996   5
  -5  -3   1 113.919 70.3384   5
  -5  -3   0 510.756 130.756   4
  -5  -3   0 631.524 138.868   5
  -5  -3  -1-36.8146 39.7163   4
  -5  -3  -2 101.305 57.3237   4
  -5  -3  -3 310.051 106.427   4
  -5  -3  -4 496.910 143.965   4
  -5  -4   7-34.0122 42.7380   3
  -5  -4   6 119.990 74.6720   3
  -5  -4   5 1567.09 264.983   3
  -5  -4   5 1161.25 234.436   5
  -5  -4   4 68.2361 58.0569   5
  -5  -4   3 61.2831 53.5054   5
  -5  -4   2 56.3086 77.1650   5
  -5  -4   1 85.1549 57.7157   5
  -5  -4   0 153.467 76.2998   4
  -5  -4   0 101.594 59.4596   5
  -5  -4  -1-7.06500 18.4400   4
  -5  -4  -2 21.7510 43.3880   4
  -5  -5   5-11.1240 33.9006   5
  -5  -5   4-15.7391 26.9109   5
  -5  -5   3 32.0775 41.5433   5
  -5  -5   2 53.6298 52.4376   5
  -5  -5   1-55.2521 50.1730   5
  -6   9   3-50.1204 46.6895   3
   6  -9  -3 38.2565 57.4510   5
   6  -9  -2 74.2923 58.3982   5
  -6   8   5 17.3406 36.9081   3
  -6   8   4-28.3179 61.5431   3
  -6   8   3-71.5970 53.6080   3
   6  -8  -3 22.8084 35.0520   5
  -6   8   2 2.07469 21.8719   3
   6  -8  -2-56.7871 49.3307   5
  -6   8   1 261.739 104.117   2
  -6   8   0 89.3006 68.1188   2
  -6   8  -1-104.693 74.3301   2
  -6   8  -2 193.000 109.759   2
  -6   8  -3 101.535 83.1731   2
  -6   7   6 3.01802 30.9015   3
  -6   7   5 183.697 86.4706   3
  -6   7   4 438.580 126.990   3
  -6   7   3 64.3540 55.4743   3
  -6   7   2-102.731 66.7082   2
  -6   7   2 16.6720 33.2851   3
  -6   7   1 1049.49 206.144   2
  -6   7   0 2070.80 292.482   2
  -6   7  -1-25.4494 37.8912   2
  -6   7  -2 597.968 154.416   2
  -6   7  -3 16.1722 32.8045   2
  -6   7  -4 48.0773 55.6730   2
  -6   6   7 70.4253 68.8495   3
  -6   6   6 46.9191 61.2549   3
  -6   6   5 101.135 64.4204   3
  -6   6   4 88.0631 64.7599   3
  -6   6   3 162.726 77.0603   2
  -6   6   3 103.275 52.0696   3
  -6   6   2 61.3902 54.4508   2
  -6   6   2-0.10817 26.3872   3
  -6   6   1 88.5290 53.2412   2
  -6   6   1 87.0017 44.9123   3
  -6   6   0 239.823 100.898   2
  -6   6  -1 127.572 49.3975   2
  -6   6  -2 72.3114 46.7197   2
  -6   6  -3 106.762 63.7979   2
  -6   6  -4 39.4793 47.3492   2
  -6   6  -5-11.6234 37.5459   2
  -6   5   8 1195.96 236.554   3
  -6   5   7 121.616 74.4663   3
  -6   5   6 64.7469 43.2246   3
  -6   5   5 15.9539 26.5635   2
  -6   5   5 35.8459 53.7495   3
  -6   5   4 74.3402 49.3053   2
  -6   5   4 39.8772 39.8962   3
  -6   5   3 24.5560 21.3750   2
  -6   5   3 64.5388 43.5514   3
  -6   5   2 154.064 70.0376   2
  -6   5   2 172.027 69.6495   3
  -6   5   1 2584.01 229.491   3
  -6   5   1 2433.52 268.900   2
  -6   5   0 10924.4 583.634   2
  -6   5  -1 1027.37 177.846   2
   6  -5   1 1177.22 206.340   1
   6  -5   2 3636.59 368.826   1
  -6   5  -2 3897.37 351.269   2
   6  -5   3 1262.45 223.214   1
  -6   5  -3 1099.13 189.820   2
   6  -5   4-6.07043 43.2500   1
  -6   5  -4 17.4723 24.3327   2
   6  -5   5 14.0357 32.6416   1
   6  -5   6-20.7340 52.3553   1
   6  -5   7-67.1827 62.8187   1
  -6   4   8 629.962 166.617   3
  -6   4   7 38.8066 54.0109   3
  -6   4   6 862.173 177.673   3
  -6   4   5-13.0428 39.6690   3
  -6   4   4 962.060 151.500   2
  -6   4   4 934.195 161.615   3
  -6   4   3 556.088 119.407   3
  -6   4   3 493.956 109.194   2
   6  -4  -2-2.46221 55.1940   1
  -6   4   2 106.773 54.7799   3
  -6   4   2 49.9477 23.3330   2
   6  -4  -1-34.4345 50.5723   1
  -6   4   1 19.5250 18.0983   3
  -6   4   1 6.63200 34.6974   2
   6  -4   0 4.18327 33.0233   1
  -6   4   0 5.63114 24.5163   2
  -6   4  -1 2232.49 250.142   2
   6  -4   1 2576.99 290.958   1
  -6   4  -2 833.906 156.644   2
   6  -4   2 990.819 185.410   1
   6  -4   3-81.7412 49.8921   1
  -6   4  -3-6.09187 36.7094   2
   6  -4   4 391.179 128.779   1
   6  -4   5 570.142 155.228   1
  -6   4  -6 57.1053 42.3890   4
   6  -4   6-27.8525 50.7743   1
  -6   4  -7 4.48094 33.2736   4
   6  -4   7-45.7137 53.9713   1
  -6   3   9 78.1627 40.1691   3
  -6   3   8 674.380 159.013   3
  -6   3   7 27.1392 43.6241   3
  -6   3   6 143.403 82.5950   3
  -6   3   5 1079.62 180.857   3
   6  -3  -4 2543.57 265.602   1
  -6   3   4 2355.36 210.267   2
  -6   3   4 2747.63 275.340   3
  -6   3   3 75.3159 38.4833   2
   6  -3  -3 33.2600 20.8021   1
  -6   3   2 2912.17 248.875   2
   6  -3  -2 2737.89 281.486   1
  -6   3   2 2978.35 253.945   3
  -6   3   1 5550.94 360.385   2
   6  -3  -1 6105.10 418.651   1
  -6   3   1 5534.89 322.603   3
  -6   3   0 10841.3 533.103   2
   6  -3   0 11585.9 597.483   1
  -6   3  -1 5353.41 344.778   4
   6  -3   1 4629.66 388.165   1
  -6   3  -2 3181.11 276.432   4
   6  -3   2 3305.82 331.399   1
  -6   3  -3 2101.10 239.290   4
   6  -3   3 2098.15 275.305   1
  -6   3  -4 118.237 60.9857   4
   6  -3   4 156.052 74.4239   1
  -6   3  -5 1074.26 193.383   4
   6  -3   5 1176.29 225.266   1
  -6   3  -6 91.5081 62.5848   4
   6  -3   6 20.8051 36.7190   1
  -6   3  -7 416.155 137.980   4
   6  -3   7 503.040 156.435   1
  -6   2   9 197.139 90.7216   3
  -6   2   8 696.603 166.264   3
  -6   2   7 488.056 134.010   3
  -6   2   6 1481.54 221.951   3
  -6   2   5 905.728 165.424   3
   6  -2  -5 979.228 155.938   1
   6  -2  -4 2115.63 229.813   1
  -6   2   4 1889.18 229.151   3
   6  -2  -3 3527.38 306.135   1
  -6   2   3 3969.30 317.507   3
   6  -2  -2 419.570 109.070   1
  -6   2   2 354.831 89.8824   3
  -6   2   2 372.537 90.1148   4
  -6   2   1 941.643 141.792   4
   6  -2  -1 1074.31 178.053   1
  -6   2   1 942.043 137.275   3
  -6   2   0 1050.38 152.570   4
   6  -2   0 981.574 174.774   1
  -6   2  -1 2445.61 246.431   4
  -6   2  -2 398.608 102.850   4
  -6   2  -3 6.39508 39.2334   4
  -6   2  -4-9.34824 22.6458   4
  -6   2  -5 143.208 85.1895   4
   6  -2   5 199.988 105.361   1
   6  -2   6 115.770 86.7372   1
  -6   2  -6 132.596 70.6106   4
   6  -2   7 49.5048 56.8279   1
  -6   2  -7 13.9435 17.2777   4
  -6   1   9 182.208 105.696   3
  -6   1   8-34.0133 39.6723   3
  -6   1   7 108.661 68.8283   3
  -6   1   6 45.8011 53.6616   3
  -6   1   5 1036.89 183.118   3
   6  -1  -5 1221.33 171.494   1
   6  -1  -4 3731.56 311.260   1
  -6   1   4 3934.13 341.586   3
  -6   1   3 556.162 120.955   3
  -6   1   2 3472.48 300.348   4
  -6   1   2 3808.46 305.175   3
  -6   1   1 4162.94 329.020   4
  -6   1   1 4136.44 300.122   3
  -6   1   0 460.833 112.278   4
  -6   1  -1 586.232 126.316   4
  -6   1  -2-12.9888 28.4033   4
  -6   1  -3 75.4787 49.1378   4
  -6   1  -4 603.836 148.221   4
  -6   1  -5 814.210 175.588   4
  -6   1  -6 131.532 72.7704   4
  -6   0   9 525.748 150.492   3
  -6   0   8 25.6746 43.1918   3
  -6   0   7 605.653 156.655   3
  -6   0   6 275.674 110.898   3
  -6   0   5 267.064 99.9565   3
  -6   0   4 416.738 112.871   3
  -6   0   3 1749.90 224.698   3
  -6   0   2 29.4951 23.9423   3
  -6   0   1 2123.43 249.882   4
  -6   0   1 1934.18 219.029   3
  -6   0   0 712.410 153.874   4
  -6   0  -1 179.723 73.4366   4
  -6   0  -2 19.3245 14.9162   4
  -6   0  -3 343.876 116.580   4
  -6   0  -4 193.781 90.9946   4
  -6   0  -5 277.955 102.553   4
  -6  -1   8 463.909 145.583   3
  -6  -1   7 98.3619 55.3129   3
  -6  -1   6-16.2595 22.7719   3
  -6  -1   5 20.8985 29.7725   3
  -6  -1   4-14.7153 40.5401   3
  -6  -1   3-8.52669 32.3424   3
  -6  -1   2 86.6013 49.1315   3
  -6  -1   1-4.89822 40.6389   4
  -6  -1   0 501.961 130.554   4
  -6  -1  -1 79.7581 67.6167   4
  -6  -1  -2 389.345 117.019   4
  -6  -1  -3 1747.43 258.127   4
  -6  -1  -4 640.709 164.246   4
  -6  -2   7 271.247 109.970   3
  -6  -2   6 1938.42 291.591   3
  -6  -2   5 664.004 165.596   3
  -6  -2   4 6.75397 24.6674   3
  -6  -2   3 82.2524 57.9025   3
  -6  -2   2-57.0384 45.5095   5
  -6  -2   1 180.823 81.3189   4
  -6  -2   0 34.7057 39.8820   4
  -6  -2  -1-16.5978 38.7018   4
  -6  -2  -2 143.828 79.2366   4
  -6  -2  -3 4.05987 30.0100   4
  -6  -3   6 129.151 80.5849   3
  -6  -3   5 74.1413 56.9232   3
  -6  -3   4 177.509 98.3145   3
  -6  -3   4 278.819 114.208   5
  -6  -3   3 731.412 168.969   5
  -6  -3   2-68.9563 51.0903   5
  -6  -3   1-11.7484 43.2039   4
  -6  -3   0 204.922 101.143   4
  -6  -3  -1-66.9148 56.0221   4
  -6  -4   5 342.232 138.097   5
  -6  -4   4 38.5519 44.3603   5
  -6  -4   3-45.4009 47.6409   5
  -7   8   3 7.65005 25.1441   2
  -7   8   2 84.5244 67.7595   2
  -7   7   5 74.2802 58.9962   3
  -7   7   4-41.5672 43.0536   2
  -7   7   4 74.9706 49.2087   3
  -7   7   3 169.407 86.7769   2
  -7   7   2 802.877 186.265   2
  -7   7   1 2332.40 318.384   2
  -7   7   0 169.257 84.1997   2
  -7   7  -1 746.550 184.250   2
  -7   7  -2 296.347 117.968   2
  -7   6   6 78.2737 60.6956   3
  -7   6   5 366.186 123.591   3
  -7   6   4 251.812 97.7022   2
  -7   6   4 301.823 108.174   3
  -7   6   3-8.94549 29.1440   2
  -7   6   3 13.0493 26.4367   3
  -7   6   2-4.06618 33.1155   2
  -7   6   1 42.7751 49.5930   2
  -7   6   0 724.654 165.471   2
  -7   6  -1 156.954 85.4062   2
  -7   6  -2 14.6858 27.4882   2
  -7   6  -3 208.464 87.0348   2
  -7   5   7-75.9396 48.6373   3
  -7   5   6 293.962 110.117   3
  -7   5   5 622.396 155.542   3
  -7   5   4 194.075 88.0589   3
  -7   5   3 1019.19 174.060   3
  -7   5   3 888.279 167.110   2
  -7   5   2 1500.31 216.807   2
  -7   5   1 2126.31 263.186   2
  -7   5   0 1059.84 188.405   2
   7  -5   0 1323.71 231.981   1
   7  -5   1 301.856 111.557   1
  -7   5  -1 225.955 95.2794   2
  -7   5  -2 77.2117 58.4842   2
   7  -5   2 123.473 50.8510   1
  -7   5  -3 154.746 79.3874   2
   7  -5   3 100.744 74.5295   1
   7  -5   4 508.649 161.100   1
  -7   4   7-9.45316 35.4937   3
  -7   4   6 148.497 88.0126   3
  -7   4   5 385.036 115.977   3
  -7   4   4 1149.27 190.807   3
   7  -4  -3 76.3452 32.4813   1
  -7   4   3 99.8510 53.9448   2
  -7   4   3 40.0888 24.6438   3
  -7   4   2 491.671 116.557   2
   7  -4  -2 672.777 154.152   1
   7  -4  -1 239.643 96.8797   1
  -7   4   1 513.962 121.150   2
  -7   4   0 489.432 122.457   2
   7  -4   0 284.591 101.208   1
   7  -4   1-99.3460 64.2068   1
  -7   4  -1 44.1420 56.0633   2
   7  -4   2 33.4222 44.5789   1
   7  -4   3-7.46690 57.0165   1
   7  -4   4-26.2271 52.7069   1
  -7   3   7 28.5738 44.9896   3
  -7   3   6 114.892 64.4624   3
  -7   3   5 525.400 133.820   3
   7  -3  -5 532.433 128.544   1
   7  -3  -4 130.933 74.5730   1
  -7   3   4 75.2596 43.5491   3
   7  -3  -3 631.710 145.834   1
  -7   3   3 611.755 136.245   3
   7  -3  -2 666.734 148.195   1
   7  -3  -1 21.4996 37.6016   1
   7  -3   0 153.163 76.8037   1
   7  -3   1 479.910 135.875   1
   7  -3   2 1116.23 219.543   1
   7  -3   3 1149.76 223.649   1
   7  -3   4 314.722 117.778   1
  -7   2   8 379.412 137.175   3
  -7   2   7 519.835 148.411   3
  -7   2   6 30.8345 48.1452   3
   7  -2  -5 73.0964 40.5127   1
  -7   2   5 111.590 68.8853   3
  -7   2   4 281.222 98.1427   3
   7  -2  -4 176.060 71.9276   1
  -7   2   3-19.4500 27.5587   3
   7  -2  -3-10.8016 28.2198   1
   7  -2  -2 833.290 173.868   1
   7  -2  -1 271.984 103.276   1
   7  -2   0 17.5640 28.6981   1
   7  -2   1-15.8303 20.9046   1
  -7   2  -1 10.5235 15.5241   4
   7  -2   2-23.2642 41.9358   1
  -7   2  -2 104.343 58.3180   4
   7  -2   3 347.008 132.414   1
  -7   2  -3 329.935 107.109   4
  -7   2  -4 471.822 129.896   4
   7  -2   4 813.900 201.688   1
  -7   2  -5 365.241 125.146   4
  -7   1   7-21.8325 36.7112   3
  -7   1   6-7.09285 63.8533   3
  -7   1   5 98.6426 60.0178   3
   7  -1  -4 146.946 65.9067   1
  -7   1   4 129.718 73.3589   3
  -7   1   3-39.1555 47.4707   3
  -7   1   3-35.0087 36.6409   4
  -7   1   2-29.1071 34.5978   4
  -7   1   1 563.262 134.710   4
  -7   1   0-9.17612 27.3239   4
  -7   1  -1 682.089 151.012   4
  -7   1  -2 1895.96 265.346   4
  -7   1  -3 803.177 178.387   4
  -7   1  -4-9.52912 26.1912   4
  -7   0   7 1483.43 257.763   3
  -7   0   6 704.558 174.333   3
  -7   0   5 33.2993 47.9734   3
  -7   0   4 73.9697 37.4358   3
  -7   0   3 45.8662 36.5688   3
  -7   0   2 35.6847 41.7505   4
  -7   0   1 28.9162 33.5386   4
  -7   0   0 26.8308 38.0086   4
  -7   0  -1 351.388 116.583   4
  -7   0  -2-22.5222 34.4791   4
  -7   0  -3-22.2565 31.1195   4
  -7  -1   6 48.6670 39.9592   3
  -7  -1   5 64.7191 57.0254   3
  -7  -1   4 497.056 144.680   3
  -7  -1   3 31.2828 47.0746   3
  -7  -1   2 109.876 63.1163   4
  -7  -1   1 215.105 92.2293   4
  -7  -1   0-91.4536 65.3417   4
  -7  -1  -1-20.1676 32.9081   4
  -7  -1  -2 66.2815 37.9106   4
  -7  -2   5 96.3741 62.2815   3
  -7  -2   4 11.4225 22.9792   3
  -7  -2   2-93.3001 67.7811   4
  -7  -2   1 32.7476 50.7008   4
  -8   7   2 261.854 108.586   2
  -8   6   2 37.5673 43.0705   2
  -8   6   1 49.4092 56.0619   2
  -8   6   0 29.4580 40.1636   2
  -8   5   1 7.27942 34.7026   2
   8  -5  -1-84.9288 65.7904   1
  -8   5   0 221.130 94.1632   2
  -8   4   6 8.25853 25.8754   3
  -8   4   5-58.6063 51.1524   3
   8  -4  -3 189.928 100.618   1
   8  -4  -2 38.0233 53.1716   1
   8  -4  -1-24.5269 39.3209   1
   8  -4   0 67.4052 61.5122   1
  -8   3   6 101.194 44.4040   3
  -8   3   5 61.0548 57.9590   3
   8  -3  -4-5.79586 22.2488   1
   8  -3  -3 133.740 71.4291   1
   8  -3  -2 166.036 78.8091   1
   8  -3  -1-30.7054 42.4431   1
   8  -3   0 258.067 108.527   1
  -8   2   6 68.8003 66.3741   3
  -8   2   5-15.8778 46.5637   3
   8  -2  -4-66.6640 54.7361   1
   8  -2  -3-43.5390 46.6729   1
   8  -2  -2 69.2282 58.6646   1
   8  -2  -1 180.224 96.0857   1
   8  -2   0 301.482 127.222   1
  -8   1   6 12.5229 36.6516   3
  -8   1   5 316.770 119.142   3
   8  -1  -4 111.801 72.5182   1
   8  -1  -3 78.0813 66.2385   1
   8  -1  -2 369.223 133.723   1
   0   0   0    0.00    0.00   0
TITL zhaoliang1209 in P-1
REM P-1 (#2 in standard setting)
CELL 0.71073   6.466605   7.703192   9.575759  94.8694  98.7035 110.3907
ZERR    2.00   0.001066   0.001729   0.001487   0.0153   0.0133   0.0177
LATT  1
SFAC C H N O
UNIT 22.00 20.00 2.00 2.00
TREF
HKLF 4
END
;
_shelx_hkl_checksum              30465
#END Tags that were not found in dictionaries
loop_
_space_group_symop_operation_xyz
'x, y, z'
'-x, -y, -z'
loop_
_atom_site_label
_atom_site_type_symbol
_atom_site_fract_x
_atom_site_fract_y
_atom_site_fract_z
_atom_site_U_iso_or_equiv
_atom_site_adp_type
_atom_site_occupancy
_atom_site_site_symmetry_order
_atom_site_calc_flag
_atom_site_refinement_flags_posn
O1 O 0.4411(3) 0.8448(3) 0.6597(2) 0.0936(7) Uani 1 1 d .
C1 C 0.2423(4) 0.7751(3) 0.6660(2) 0.0605(6) Uani 1 1 d .
C2 C 0.1546(4) 0.6990(3) 0.7890(2) 0.0627(6) Uani 1 1 d .
C3 C -0.0674(4) 0.6342(4) 0.7559(3) 0.0726(7) Uani 1 1 d .
H3 H -0.1579 0.5794 0.8190 0.087 Uiso 1 1 calc R
C4 C -0.1604(4) 0.6562(4) 0.6094(3) 0.0614(6) Uani 1 1 d .
H4A H -0.258(4) 0.730(3) 0.612(2) 0.075(7) Uiso 1 1 d .
H4B H -0.263(4) 0.528(4) 0.554(3) 0.078(7) Uiso 1 1 d .
C5 C 0.0474(3) 0.7506(3) 0.5514(2) 0.0523(5) Uani 1 1 d .
C6 C 0.0778(4) 0.8106(3) 0.4265(2) 0.0565(6) Uani 1 1 d .
H6 H 0.2272 0.8659 0.4182 0.068 Uiso 1 1 calc R
C7 C -0.0854(4) 0.8032(3) 0.3019(2) 0.0606(6) Uani 1 1 d .
C8 C -0.0103(6) 0.8738(4) 0.1894(3) 0.0799(8) Uani 1 1 d .
H8A H -0.110(5) 0.874(4) 0.103(3) 0.092(9) Uiso 1 1 d .
H8B H 0.148(5) 0.930(4) 0.189(3) 0.092(9) Uiso 1 1 d .
C9 C -0.3325(4) 0.7189(4) 0.3025(3) 0.0789(8) Uani 1 1 d .
H9A H -0.3712 0.5911 0.3182 0.118 Uiso 1 1 calc GR
H9B H -0.4166 0.7236 0.2122 0.118 Uiso 1 1 calc GR
H9C H -0.3678 0.7882 0.3774 0.118 Uiso 1 1 calc GR
C10 C 0.3067(5) 0.7027(5) 0.9246(3) 0.0905(9) Uani 1 1 d .
H10A H 0.3906 0.6249 0.9066 0.136 Uiso 1 1 calc GR
H10B H 0.2183 0.6567 0.9949 0.136 Uiso 1 1 calc GR
H10C H 0.4086 0.8287 0.9593 0.136 Uiso 1 1 calc GR
loop_
_atom_site_aniso_label
_atom_site_aniso_U_11
_atom_site_aniso_U_22
_atom_site_aniso_U_33
_atom_site_aniso_U_23
_atom_site_aniso_U_13
_atom_site_aniso_U_12
O1 0.0475(10) 0.1406(18) 0.0967(14) 0.0406(12) 0.0132(9) 0.0343(10)
C1 0.0489(12) 0.0682(14) 0.0680(14) 0.0113(11) 0.0104(10) 0.0260(10)
C2 0.0669(15) 0.0637(14) 0.0573(13) 0.0105(10) 0.0074(11) 0.0255(11)
C3 0.0632(15) 0.0797(17) 0.0702(16) 0.0221(12) 0.0194(12) 0.0153(12)
C4 0.0470(12) 0.0642(14) 0.0692(15) 0.0138(11) 0.0116(10) 0.0148(11)
C5 0.0455(11) 0.0547(12) 0.0596(13) 0.0081(9) 0.0110(9) 0.0218(9)
C6 0.0490(12) 0.0602(13) 0.0627(13) 0.0096(10) 0.0128(10) 0.0222(10)
C7 0.0653(14) 0.0573(13) 0.0583(13) 0.0077(10) 0.0081(10) 0.0231(11)
C8 0.089(2) 0.0839(19) 0.0621(16) 0.0137(13) 0.0095(15) 0.0278(16)
C9 0.0590(14) 0.0867(18) 0.0786(17) 0.0148(13) -0.0074(12) 0.0197(13)
C10 0.098(2) 0.103(2) 0.0651(16) 0.0152(14) -0.0027(14) 0.0372(17)
loop_
_atom_type_symbol
_atom_type_description
_atom_type_scat_dispersion_real
_atom_type_scat_dispersion_imag
_atom_type_scat_source
C C 0.0033 0.0016 'International Tables Vol C Tables 4.2.6.8 and 6.1.1.4'
H H 0.0000 0.0000 'International Tables Vol C Tables 4.2.6.8 and 6.1.1.4'
O O 0.0106 0.0060 'International Tables Vol C Tables 4.2.6.8 and 6.1.1.4'
loop_
_geom_angle_atom_site_label_1
_geom_angle_atom_site_label_2
_geom_angle_atom_site_label_3
_geom_angle
O1 C1 C2 125.5(2)
O1 C1 C5 126.6(2)
C2 C1 C5 107.90(19)
C1 C2 C10 122.0(2)
C3 C2 C1 108.2(2)
C3 C2 C10 129.8(2)
C2 C3 H3 122.8
C2 C3 C4 114.4(2)
C4 C3 H3 122.8
C3 C4 H4A 111.1(14)
C3 C4 H4B 109.6(14)
C3 C4 C5 102.87(18)
H4A C4 H4B 105.1(19)
C5 C4 H4A 113.5(14)
C5 C4 H4B 114.8(14)
C1 C5 C4 106.55(18)
C6 C5 C1 121.0(2)
C6 C5 C4 132.4(2)
C5 C6 H6 114.8
C5 C6 C7 130.3(2)
C7 C6 H6 114.8
C6 C7 C9 120.0(2)
C8 C7 C6 118.4(2)
C8 C7 C9 121.5(2)
C7 C8 H8A 122.5(17)
C7 C8 H8B 121.9(17)
H8A C8 H8B 116(2)
C7 C9 H9A 109.5
C7 C9 H9B 109.5
C7 C9 H9C 109.5
H9A C9 H9B 109.5
H9A C9 H9C 109.5
H9B C9 H9C 109.5
C2 C10 H10A 109.5
C2 C10 H10B 109.5
C2 C10 H10C 109.5
H10A C10 H10B 109.5
H10A C10 H10C 109.5
H10B C10 H10C 109.5
loop_
_geom_bond_atom_site_label_1
_geom_bond_atom_site_label_2
_geom_bond_distance
O1 C1 1.223(3)
C1 C2 1.464(3)
C1 C5 1.487(3)
C2 C3 1.322(3)
C2 C10 1.499(3)
C3 H3 0.9300
C3 C4 1.490(3)
C4 H4A 0.99(2)
C4 H4B 1.02(2)
C4 C5 1.503(3)
C5 C6 1.336(3)
C6 H6 0.9300
C6 C7 1.453(3)
C7 C8 1.329(4)
C7 C9 1.503(3)
C8 H8A 0.97(3)
C8 H8B 0.96(3)
C9 H9A 0.9600
C9 H9B 0.9600
C9 H9C 0.9600
C10 H10A 0.9600
C10 H10B 0.9600
C10 H10C 0.9600
loop_
_geom_torsion_atom_site_label_1
_geom_torsion_atom_site_label_2
_geom_torsion_atom_site_label_3
_geom_torsion_atom_site_label_4
_geom_torsion
O1 C1 C2 C3 -179.3(2)
O1 C1 C2 C10 1.1(4)
O1 C1 C5 C4 179.2(2)
O1 C1 C5 C6 -1.6(4)
C1 C2 C3 C4 0.1(3)
C1 C5 C6 C7 -179.3(2)
C2 C1 C5 C4 -0.3(3)
C2 C1 C5 C6 178.9(2)
C2 C3 C4 C5 -0.2(3)
C3 C4 C5 C1 0.3(2)
C3 C4 C5 C6 -178.8(2)
C4 C5 C6 C7 -0.3(4)
C5 C1 C2 C3 0.2(3)
C5 C1 C2 C10 -179.4(2)
C5 C6 C7 C8 -179.9(2)
C5 C6 C7 C9 0.6(4)
C10 C2 C3 C4 179.6(2)
