#------------------------------------------------------------------------------
#$Date: 2016-02-18 17:37:37 +0200 (Thu, 18 Feb 2016) $
#$Revision: 176729 $
#$URL: svn://www.crystallography.net/cod/cif/1/51/85/1518571.cif $
#------------------------------------------------------------------------------
#
# This file is available in the Crystallography Open Database (COD),
# http://www.crystallography.net/
#
# All data on this site have been placed in the public domain by the
# contributors.
#
data_1518571
loop_
_publ_author_name
'Scully, Stephen S.'
'Zheng, Shao-Liang'
'Wagner, Bridget K.'
'Schreiber, Stuart L.'
_publ_section_title
;
 Synthesis of Oxazocenones via Gold(I)-Catalyzed 8-Endo-Dig
 Hydroalkoxylation of Alkynamides.
;
_journal_issue                   3
_journal_name_full               'Organic letters'
_journal_page_first              418
_journal_page_last               421
_journal_paper_doi               10.1021/ol503273v
_journal_volume                  17
_journal_year                    2015
_chemical_formula_sum            'C8 H13 N O3'
_chemical_formula_weight         171.19
_chemical_name_systematic
;
 ?
;
_space_group_crystal_system      triclinic
_space_group_IT_number           2
_space_group_name_Hall           '-P 1'
_space_group_name_H-M_alt        'P -1'
_symmetry_space_group_name_Hall  '-P 1'
_symmetry_space_group_name_H-M   'P -1'
_atom_sites_solution_hydrogens   mixed
_audit_creation_method           SHELXL-2014
_cell_angle_alpha                64.8193(14)
_cell_angle_beta                 75.8585(15)
_cell_angle_gamma                86.3999(15)
_cell_formula_units_Z            2
_cell_length_a                   7.0255(7)
_cell_length_b                   8.3274(8)
_cell_length_c                   8.5054(8)
_cell_measurement_reflns_used    4506
_cell_measurement_temperature    100(2)
_cell_measurement_theta_max      27.1
_cell_measurement_theta_min      2.71
_cell_volume                     436.19(7)
_computing_cell_refinement       'SAINT 8.30C (Bruker-AXS, 2014)'
_computing_data_collection       'APEX2 v2014.3.0 (Bruker-AXS, 2014)'
_computing_data_reduction        'SAINT 8.30C (Bruker-AXS, 2014)'
_computing_molecular_graphics    'Bruker SHELXTL (Sheldrick, 2008)'
_computing_publication_material  'Bruker SHELXTL (Sheldrick, 2008)'
_computing_structure_refinement  'SHELXL-2014 (Sheldrick, 2008)'
_computing_structure_solution    'SHELXS-2014 (Sheldrick, 2008)'
_diffrn_ambient_temperature      100(2)
_diffrn_measured_fraction_theta_full 1.000
_diffrn_measured_fraction_theta_max 1.000
_diffrn_measurement_device_type
;
Bruker D8 goniometer with CCD area detector  
;
_diffrn_measurement_method       'omega and phi scans'
_diffrn_radiation_monochromator  graphite
_diffrn_radiation_source         'fine-focus sealed tube'
_diffrn_radiation_type           MoK\a
_diffrn_radiation_wavelength     0.71073
_diffrn_reflns_av_R_equivalents  0.0181
_diffrn_reflns_av_unetI/netI     0.0172
_diffrn_reflns_Laue_measured_fraction_full 1.000
_diffrn_reflns_Laue_measured_fraction_max 1.000
_diffrn_reflns_limit_h_max       9
_diffrn_reflns_limit_h_min       -9
_diffrn_reflns_limit_k_max       10
_diffrn_reflns_limit_k_min       -10
_diffrn_reflns_limit_l_max       10
_diffrn_reflns_limit_l_min       -10
_diffrn_reflns_number            6693
_diffrn_reflns_point_group_measured_fraction_full 1.000
_diffrn_reflns_point_group_measured_fraction_max 1.000
_diffrn_reflns_theta_full        25.242
_diffrn_reflns_theta_max         27.122
_diffrn_reflns_theta_min         2.706
_exptl_absorpt_coefficient_mu    0.100
_exptl_absorpt_correction_T_max  0.7455
_exptl_absorpt_correction_T_min  0.6782
_exptl_absorpt_correction_type   multi-scan
_exptl_absorpt_process_details   SADABS
_exptl_crystal_colour            colorless
_exptl_crystal_density_diffrn    1.303
_exptl_crystal_description       block
_exptl_crystal_F_000             184
_exptl_crystal_size_max          0.200
_exptl_crystal_size_mid          0.180
_exptl_crystal_size_min          0.160
_refine_diff_density_max         0.307
_refine_diff_density_min         -0.170
_refine_diff_density_rms         0.038
_refine_ls_extinction_method     none
_refine_ls_goodness_of_fit_ref   1.066
_refine_ls_hydrogen_treatment    mixed
_refine_ls_matrix_type           full
_refine_ls_number_parameters     114
_refine_ls_number_reflns         1934
_refine_ls_number_restraints     0
_refine_ls_restrained_S_all      1.066
_refine_ls_R_factor_all          0.0375
_refine_ls_R_factor_gt           0.0335
_refine_ls_shift/su_max          0.000
_refine_ls_shift/su_mean         0.000
_refine_ls_structure_factor_coef Fsqd
_refine_ls_weighting_details
'w=1/[\s^2^(Fo^2^)+(0.0416P)^2^+0.1301P] where P=(Fo^2^+2Fc^2^)/3'
_refine_ls_weighting_scheme      calc
_refine_ls_wR_factor_gt          0.0852
_refine_ls_wR_factor_ref         0.0879
_reflns_Friedel_coverage         0.000
_reflns_number_gt                1722
_reflns_number_total             1934
_reflns_threshold_expression     'I > 2\s(I)'
_cod_data_source_file            ol503273v_si_002.cif
_cod_data_source_block           SSS-2-22B
_cod_depositor_comments
'Adding full bibliography for 1518568--1518572.cif.'
_cod_database_code               1518571
#BEGIN Tags that were not found in dictionaries:
_shelx_space_group_comment
;
The symmetry employed for this shelxl refinement is uniquely defined
by the following loop, which should always be used as a source of
symmetry information in preference to the above space-group names.
They are only intended as comments.
;
_shelx_estimated_absorpt_t_min   0.980
_shelx_estimated_absorpt_t_max   0.984
_shelxl_version_number           2014-3
_shelx_res_file
;
TITL zsl in P-1
CELL 0.71073 7.0255 8.3274 8.5054 64.8193 75.8585 86.3999
ZERR 2 0.0007 0.0008 0.0008 0.0014 0.0015 0.0015
LATT 1

SFAC C H N O
UNIT 16 26 2 6
EQIV $1 -X,1-Y,-Z

L.S. 10
PLAN  -1
SIZE 0.16 0.18 0.2
TEMP -173
HTAB  O3 O1_$1
conf
BOND $H
fmap 2
acta
REM <HKL>G:/zsl/Schreiber/SScully1401/work/zsl.hkl</HKL>

WGHT    0.041600    0.130100
FVAR       0.47278
C1    1   -0.042749    0.685582    0.242196    11.00000    0.01577    0.01804 =
         0.01802   -0.00867   -0.00912    0.00595
C2    1    0.077701    0.685495    0.073092    11.00000    0.02274    0.01557 =
         0.01583   -0.00815   -0.00855    0.00273
AFIX  43
H2    2    0.001776    0.670108    0.001715    11.00000   -1.20000
AFIX   0
C3    1    0.270454    0.702487   -0.000084    11.00000    0.02385    0.01244 =
         0.01507   -0.00577   -0.00596    0.00016
C4    1    0.385303    0.697638    0.247752    11.00000    0.01872    0.02300 =
         0.01589   -0.00858   -0.00549    0.00027
AFIX  23
H4A   2    0.503540    0.652904    0.294063    11.00000   -1.20000
H4B   2    0.275833    0.608163    0.322182    11.00000   -1.20000
AFIX   0
C5    1    0.333238    0.870785    0.261790    11.00000    0.02440    0.02039 =
         0.01578   -0.00825   -0.00344   -0.00576
AFIX  23
H5A   2    0.445272    0.958316    0.191161    11.00000   -1.20000
H5B   2    0.310558    0.851109    0.388334    11.00000   -1.20000
AFIX   0
C6    1    0.150397    0.946506    0.194404    11.00000    0.03127    0.01302 =
         0.01734   -0.00657   -0.00615   -0.00032
AFIX  23
H6A   2    0.117491    1.055405    0.213170    11.00000   -1.20000
H6B   2    0.178177    0.979697    0.064293    11.00000   -1.20000
AFIX   0
C7    1    0.353645    0.698726   -0.180396    11.00000    0.02760    0.02301 =
         0.01776   -0.01096   -0.00200   -0.00329
AFIX  23
H7A   2    0.456187    0.795425   -0.252402    11.00000   -1.20000
H7B   2    0.416866    0.584560   -0.162061    11.00000   -1.20000
AFIX   0
C8    1   -0.139762    0.817061    0.453902    11.00000    0.02550    0.02664 =
         0.02306   -0.01604   -0.00507    0.00547
AFIX 137
H8A   2   -0.265468    0.753049    0.484559    11.00000   -1.50000
H8B   2   -0.163630    0.939455    0.438645    11.00000   -1.50000
H8C   2   -0.071834    0.757742    0.550256    11.00000   -1.50000
AFIX   0
N1    3   -0.017840    0.818459    0.287018    11.00000    0.02130    0.01779 =
         0.01818   -0.01019   -0.00590    0.00421
O1    4   -0.177185    0.568808    0.334868    11.00000    0.01654    0.02621 =
         0.02314   -0.01450   -0.00370   -0.00071
O2    4    0.422851    0.721233    0.063661    11.00000    0.01867    0.02545 =
         0.01668   -0.01105   -0.00229   -0.00226
O3    4    0.209830    0.718532   -0.276332    11.00000    0.04201    0.02085 =
         0.01730   -0.00963   -0.01142    0.00189
H3    2    0.199085    0.618279   -0.286578    11.00000    0.04660
HKLF 4

REM  zsl in P-1
REM R1 =  0.0335 for    1722 Fo > 4sig(Fo)  and  0.0375 for all    1934 data
REM    114 parameters refined using      0 restraints

END

WGHT      0.0416      0.1301

REM Highest difference peak  0.307,  deepest hole -0.170,  1-sigma level  0.038
Q1    1   0.3026  0.6912 -0.0875  11.00000  0.05    0.31
;
_shelx_res_checksum              29803
_shelx_hkl_file
;
  -1   0   0   95.45    1.36
  -1   0   0   96.80    1.37
  -1   0   0   97.56    1.34
   1   0   0   95.27    1.32
   1   0   0   97.25    1.38
   1   0   0   92.25    1.36
   1   0   0   97.80    1.38
  -2   0   0    7.05    0.22
  -2   0   0    7.38    0.23
  -2   0   0    7.48    0.16
   2   0   0    7.30    0.26
   2   0   0    7.28    0.23
   2   0   0    7.34    0.24
  -3   0   0    0.02    0.06
  -3   0   0    0.03    0.06
  -3   0   0    0.08    0.06
  -3   0   0    0.05    0.03
   3   0   0    0.02    0.06
  -4   0   0   14.35    0.42
  -4   0   0   14.64    0.29
  -4   0   0   14.92    0.45
  -4   0   0   13.81    0.44
   4   0   0   13.35    0.44
  -5   0   0   35.75    0.86
  -5   0   0   37.11    0.71
  -5   0   0   35.24    0.85
   5   0   0   35.77    0.88
  -6   0   0    4.39    0.31
  -6   0   0    4.54    0.31
   6   0   0    4.50    0.33
  -7   0   0    1.28    0.22
  -7   0   0    0.73    0.18
   7   0   0    0.98    0.22
  -8   0   0    0.64    0.18
  -8   0   0    1.32    0.25
   8   0   0    1.01    0.24
   8  -1   0   13.11    0.65
  -8   1   0   13.89    0.65
  -8   1   0   12.99    0.60
   7  -1   0   23.50    0.79
  -7   1   0   22.49    0.74
  -7   1   0   21.69    0.75
   6  -1   0    1.81    0.23
  -6   1   0    1.38    0.21
  -6   1   0    1.86    0.21
   5  -1   0    7.60    0.36
  -5   1   0   10.19    0.60
  -5   1   0    7.82    0.37
  -5   1   0    7.98    0.23
  -5   1   0    7.93    0.35
   4  -1   0    1.30    0.15
  -4   1   0    1.41    0.15
  -4   1   0    1.47    0.10
  -4   1   0    1.37    0.16
  -4   1   0    1.62    0.17
   3  -1   0   -0.06    0.05
  -3   1   0   -0.04    0.05
  -3   1   0   -0.04    0.05
  -3   1   0    0.11    0.05
  -3   1   0    0.00    0.05
   2  -1   0  373.86    5.27
  -2   1   0  371.32    5.38
  -2   1   0  376.47    5.40
  -2   1   0  376.14    5.26
  -2   1   0  377.26    5.27
   1  -1   0  299.34    4.19
  -1   1   0  302.66    4.28
  -1   1   0  304.92    4.35
  -1   1   0  303.64    4.24
  -1   1   0  303.91    4.31
   0  -1   0   14.86    0.25
   0  -1   0   14.97    0.24
   0   1   0   15.05    0.26
   0   1   0   15.26    0.26
   0   1   0   15.09    0.28
   0   1   0   14.94    0.29
   0   1   0   15.28    0.24
  -1  -1   0  458.05    6.47
  -1  -1   0  457.25    6.36
   1   1   0  455.87    6.43
   1   1   0  461.83    6.99
   1   1   0  451.03    6.46
  -2  -1   0  242.90    3.46
  -2  -1   0  244.72    3.41
   2   1   0  245.94    3.40
   2   1   0  252.13    3.48
   2   1   0  236.36    3.49
  -3  -1   0    6.20    0.18
  -3  -1   0    6.23    0.25
   3   1   0    6.00    0.23
   3   1   0    6.07    0.26
   3   1   0    6.33    0.27
  -4  -1   0   14.71    0.32
  -4  -1   0   14.50    0.45
   4   1   0   14.50    0.47
   4   1   0   15.08    0.44
  -5  -1   0    4.84    0.29
  -6  -1   0    4.18    0.31
  -6  -1   0    3.49    0.28
   6   1   0    4.20    0.33
  -7  -1   0    1.66    0.25
  -7  -1   0    2.02    0.27
   7   1   0    1.69    0.28
  -8  -1   0    0.22    0.15
  -8  -1   0    0.34    0.17
   8   1   0    0.70    0.23
   8  -2   0    0.14    0.16
  -8   2   0    0.22    0.15
  -8   2   0    0.00    0.12
   7  -2   0    8.97    0.48
  -7   2   0    8.31    0.47
  -7   2   0    9.23    0.47
   6  -2   0   12.02    0.50
  -6   2   0   11.87    0.48
  -6   2   0   12.16    0.51
   5  -2   0   -0.02    0.08
  -5   2   0    0.00    0.07
  -5   2   0    0.04    0.05
  -5   2   0    0.02    0.08
  -5   2   0    0.08    0.10
   4  -2   0    1.37    0.15
  -4   2   0    1.61    0.17
  -4   2   0    1.43    0.17
  -4   2   0    1.41    0.15
  -4   2   0    1.66    0.13
   3  -2   0   28.09    0.60
  -3   2   0   30.06    0.67
  -3   2   0   29.25    0.59
  -3   2   0   29.34    0.61
   2  -2   0   44.78    0.74
  -2   2   0   44.93    0.83
  -2   2   0   44.20    0.83
  -2   2   0   45.14    0.76
  -2   2   0   44.06    0.79
   1  -2   0   30.47    0.47
  -1   2   0   30.75    0.53
  -1   2   0   30.75    0.57
  -1   2   0   30.24    0.59
  -1   2   0   30.72    0.58
   0   2   0  679.11    9.95
   0   2   0  670.68    9.46
   0   2   0  674.45    9.43
   0   2   0  687.52   11.09
   0   2   0  675.51   11.10
   0   2   0  660.27    9.55
  -1  -2   0    1.86    0.13
   1   2   0    2.01    0.13
   1   2   0    1.73    0.11
   1   2   0    1.91    0.07
   1   2   0    2.05    0.13
  -2  -2   0    5.32    0.20
   2   2   0    5.22    0.22
   2   2   0    5.15    0.16
  -3  -2   0  131.08    2.08
  -3  -2   0  130.39    1.98
   3   2   0  134.76    2.15
   3   2   0  134.54    1.99
   3   2   0  132.36    2.11
  -4  -2   0    4.84    0.27
  -4  -2   0    5.38    0.21
   4   2   0    4.31    0.27
   4   2   0    5.28    0.25
   4   2   0    4.64    0.28
  -5  -2   0   27.36    0.75
  -5  -2   0   28.59    0.65
   5   2   0   25.65    0.76
   5   2   0   26.59    0.78
  -6  -2   0   10.12    0.47
   6   2   0   10.90    0.51
  -7  -2   0   14.27    0.63
  -7  -2   0   11.76    0.56
   7   2   0   12.83    0.61
  -8  -2   0    0.58    0.20
  -8  -2   0    0.55    0.20
   8   2   0    0.53    0.20
   8  -3   0    0.62    0.21
  -8   3   0    0.65    0.22
   7  -3   0    9.41    0.48
  -7   3   0    8.90    0.51
  -7   3   0    9.96    0.48
   6  -3   0    5.43    0.34
  -6   3   0    6.20    0.40
  -6   3   0    6.11    0.35
   5  -3   0    3.51    0.25
  -5   3   0    3.21    0.23
  -5   3   0    3.34    0.28
  -5   3   0    3.41    0.28
  -5   3   0    3.57    0.22
   4  -3   0   42.15    0.86
  -4   3   0   43.47    0.88
  -4   3   0   42.31    0.87
  -4   3   0   42.62    0.97
  -4   3   0   44.12    0.97
   3  -3   0    0.05    0.05
  -3   3   0   -0.01    0.06
  -3   3   0    0.04    0.05
  -3   3   0    0.06    0.07
  -3   3   0    0.03    0.06
   2  -3   0    7.01    0.19
  -2   3   0    7.38    0.29
  -2   3   0    6.97    0.24
  -2   3   0    6.56    0.28
   1  -3   0   29.29    0.44
  -1   3   0   28.40    0.64
  -1   3   0   28.42    0.58
  -1   3   0   28.33    0.55
  -1   3   0   28.72    0.61
   0   3   0  144.06    2.07
   0   3   0  143.08    2.00
   0   3   0  145.78    2.07
   0   3   0  144.79    2.14
   0   3   0  139.74    2.17
  -1  -3   0  141.63    2.17
   1   3   0  140.00    1.98
   1   3   0  136.13    2.14
   1   3   0  141.24    1.98
   1   3   0  140.63    2.05
   1   3   0  143.17    2.15
  -2  -3   0    1.42    0.14
   2   3   0    1.61    0.14
   2   3   0    1.57    0.16
   2   3   0    1.49    0.09
   2   3   0    1.32    0.15
  -3  -3   0   -0.07    0.05
  -3  -3   0    0.02    0.07
   3   3   0    0.02    0.04
   3   3   0   -0.02    0.07
   3   3   0    0.05    0.07
  -4  -3   0   20.03    0.52
  -4  -3   0   21.05    0.61
   4   3   0   20.44    0.61
   4   3   0   21.19    0.52
  -5  -3   0    0.09    0.08
  -5  -3   0   -0.01    0.09
   5   3   0   -0.03    0.10
   5   3   0    0.06    0.11
  -6  -3   0   35.66    0.98
   6   3   0   36.27    1.02
   6   3   0   36.72    1.04
  -7  -3   0    0.52    0.18
   7   3   0    0.59    0.19
  -8  -3   0    0.55    0.20
  -8  -3   0    0.59    0.21
   8   3   0    1.09    0.27
  -8   4   0    2.08    0.33
   7  -4   0    1.83    0.26
  -7   4   0    1.71    0.28
   6  -4   0    8.15    0.40
  -6   4   0    7.40    0.44
  -6   4   0    8.46    0.40
   5  -4   0   22.57    0.62
  -5   4   0   21.72    0.73
  -5   4   0   23.85    0.75
  -5   4   0   22.97    0.64
  -5   4   0   23.24    0.64
   4  -4   0   18.55    0.48
  -4   4   0   18.07    0.61
  -4   4   0   19.09    0.57
  -4   4   0   17.62    0.59
  -4   4   0   18.29    0.51
   3  -4   0   26.64    0.53
  -3   4   0   26.01    0.70
  -3   4   0   26.35    0.60
  -3   4   0   27.07    0.71
  -3   4   0   26.08    0.68
   2  -4   0   14.89    0.29
  -2   4   0   14.58    0.46
  -2   4   0   13.72    0.39
  -2   4   0   13.86    0.47
  -2   4   0   14.40    0.45
   1  -4   0  325.34    4.30
   1  -4   0  324.10    4.28
  -1   4   0  311.71    4.62
  -1   4   0  318.35    4.55
  -1   4   0  314.46    4.67
  -1   4   0  318.52    4.52
   0  -4   0   16.86    0.31
   0   4   0   16.14    0.47
   0   4   0   16.63    0.45
   0   4   0   16.47    0.39
  -1  -4   0  180.83    2.84
   1   4   0  184.50    2.64
   1   4   0  182.12    2.79
   1   4   0  187.10    2.61
   1   4   0  181.55    2.80
   1   4   0  182.70    2.61
  -2  -4   0    4.58    0.26
   2   4   0    4.95    0.27
   2   4   0    4.97    0.23
   2   4   0    5.12    0.28
   2   4   0    4.86    0.17
  -3  -4   0    0.07    0.07
  -3  -4   0    0.01    0.07
   3   4   0   -0.04    0.07
   3   4   0   -0.02    0.04
   3   4   0    0.06    0.08
  -4  -4   0   15.17    0.49
  -4  -4   0   14.87    0.53
   4   4   0   14.68    0.53
  -5  -4   0   -0.12    0.09
  -5  -4   0   -0.03    0.09
   5   4   0    0.09    0.11
   5   4   0    0.00    0.10
  -6  -4   0    3.00    0.31
   6   4   0    3.02    0.34
   6   4   0    3.13    0.33
  -7  -4   0    0.21    0.15
   7   4   0    0.19    0.17
   7   4   0    0.09    0.16
  -7   5   0    7.97    0.53
  -6   5   0   13.58    0.63
  -5   5   0    2.76    0.30
  -5   5   0    2.33    0.29
  -5   5   0    3.00    0.27
  -5   5   0    2.72    0.25
  -4   5   0    8.35    0.43
  -4   5   0    7.50    0.41
  -4   5   0    8.12    0.41
  -4   5   0    8.15    0.34
  -3   5   0   31.54    0.84
  -3   5   0   32.56    0.85
  -3   5   0   31.76    0.72
  -3   5   0   33.45    0.85
  -2   5   0    0.19    0.10
  -2   5   0    0.15    0.10
  -2   5   0    0.41    0.12
  -2   5   0    0.22    0.08
  -1   5   0   13.89    0.48
  -1   5   0   12.77    0.41
  -1   5   0   13.27    0.42
   0  -5   0   82.62    1.58
   0  -5   0   84.43    1.21
   0   5   0   82.25    1.38
   0   5   0   82.82    1.46
   0   5   0   82.90    1.51
  -1  -5   0   24.49    0.70
   1   5   0   25.13    0.52
   1   5   0   23.55    0.64
   1   5   0   24.12    0.52
   1   5   0   25.27    0.68
   1   5   0   25.52    0.54
  -2  -5   0    5.25    0.32
   2   5   0    5.97    0.32
   2   5   0    5.61    0.32
   2   5   0    6.13    0.27
   2   5   0    6.56    0.23
  -3  -5   0    5.85    0.33
   3   5   0    4.63    0.32
   3   5   0    5.39    0.30
   3   5   0    5.24    0.22
  -4  -5   0    0.98    0.18
  -4  -5   0    0.88    0.18
   4   5   0    0.74    0.18
   4   5   0    0.94    0.18
  -5  -5   0    1.76    0.25
   5   5   0    1.98    0.28
   5   5   0    1.89    0.25
  -6  -5   0    6.66    0.44
   6   5   0    6.93    0.46
   6   5   0    6.74    0.47
  -7  -5   0    2.20    0.32
   7   5   0    2.00    0.35
   7   5   0    1.97    0.32
  -7   6   0    4.15    0.42
  -6   6   0    0.15    0.15
   5  -6   0    0.32    0.14
  -5   6   0    0.26    0.17
  -5   6   0    0.24    0.14
  -4   6   0    2.67    0.29
  -4   6   0    2.77    0.29
  -3   6   0   32.18    0.76
  -3   6   0   33.79    0.90
  -3   6   0   33.17    0.92
  -2   6   0    1.07    0.16
  -2   6   0    0.59    0.15
  -2   6   0    0.98    0.18
   1  -6   0   80.59    1.65
  -1   6   0   82.14    1.49
  -1   6   0   82.02    1.48
  -1   6   0   79.50    1.58
   0  -6   0    4.43    0.32
   0   6   0    4.83    0.25
   0   6   0    4.70    0.31
   0   6   0    4.73    0.28
  -1  -6   0   10.23    0.48
   1   6   0   10.45    0.46
   1   6   0   10.04    0.34
   1   6   0   11.23    0.45
  -2  -6   0   73.27    1.53
   2   6   0   74.57    1.31
   2   6   0   71.80    1.49
   2   6   0   73.05    1.50
  -3  -6   0   10.04    0.49
   3   6   0   10.08    0.41
   3   6   0   10.54    0.49
   3   6   0   10.16    0.50
  -4  -6   0    0.64    0.17
  -4  -6   0    1.05    0.21
   4   6   0    0.81    0.18
   4   6   0    0.39    0.16
  -5  -6   0    4.20    0.35
   5   6   0    3.71    0.38
   5   6   0    4.01    0.35
  -6  -6   0    0.95    0.23
   6   6   0    0.93    0.24
   6   6   0    1.29    0.26
  -6   7   0    0.02    0.14
   5  -7   0    7.99    0.49
  -5   7   0    8.44    0.54
  -5   7   0    8.11    0.52
   4  -7   0   -0.02    0.12
  -4   7   0    0.00    0.12
  -4   7   0    0.07    0.14
   3  -7   0    1.87    0.28
  -3   7   0    2.08    0.27
  -3   7   0    2.14    0.29
   2  -7   0    2.00    0.28
  -2   7   0    1.73    0.25
  -2   7   0    1.88    0.24
  -2   7   0    2.25    0.22
   1  -7   0    7.07    0.44
  -1   7   0    6.47    0.35
  -1   7   0    6.29    0.40
  -1   7   0    7.05    0.36
   0  -7   0   57.39    1.39
   0   7   0   60.10    1.34
   0   7   0   57.00    1.16
   0   7   0   60.81    1.27
  -1  -7   0    2.96    0.31
   1   7   0    3.26    0.22
   1   7   0    3.27    0.29
   1   7   0    3.20    0.30
  -2  -7   0   10.49    0.53
   2   7   0   11.12    0.52
   2   7   0   10.55    0.52
  -3  -7   0    1.59    0.26
   3   7   0    1.11    0.22
   3   7   0    1.39    0.26
  -4  -7   0    0.19    0.14
  -4  -7   0    0.20    0.16
   4   7   0    0.12    0.15
  -5  -7   0    1.01    0.23
   5   7   0    0.92    0.25
   5  -8   0    2.99    0.37
  -5   8   0    2.97    0.39
  -5   8   0    3.34    0.39
   4  -8   0    3.72    0.38
  -4   8   0    3.71    0.39
  -4   8   0    4.13    0.40
   3  -8   0   -0.04    0.13
  -3   8   0    0.13    0.14
  -3   8   0    0.09    0.13
   2  -8   0    0.25    0.16
  -2   8   0    0.30    0.14
  -2   8   0    0.31    0.17
   1  -8   0   54.16    1.42
  -1   8   0   54.85    1.24
  -1   8   0   54.64    1.36
   0  -8   0   52.86    1.41
   0   8   0   55.11    1.19
   0   8   0   56.56    1.27
   0   8   0   55.89    1.37
  -1  -8   0    0.06    0.14
   1   8   0    0.41    0.16
   1   8   0    0.32    0.15
  -2  -8   0    7.30    0.49
   2   8   0    7.16    0.45
   2   8   0    6.77    0.46
  -3  -8   0    0.44    0.19
   3   8   0    0.33    0.18
   3   8   0    0.19    0.17
  -4  -8   0    0.20    0.16
  -4  -8   0    0.35    0.18
   4   8   0    0.25    0.17
   3  -9   0    0.36    0.22
  -3   9   0    0.48    0.21
  -3   9   0    0.62    0.21
   2  -9   0    1.89    0.34
  -2   9   0    2.28    0.30
  -2   9   0    2.13    0.33
   1  -9   0    0.00    0.17
  -1   9   0    0.50    0.20
  -1   9   0    0.53    0.16
   0  -9   0    7.27    0.52
   0   9   0    7.78    0.42
   0   9   0    9.04    0.55
  -1  -9   0    0.27    0.18
   1   9   0    0.28    0.17
   1   9   0    0.08    0.13
  -2  -9   0    6.50    0.51
   2   9   0    6.85    0.50
   2   9   0    5.99    0.46
   1   9  -1    1.18    0.25
   1   9  -1    1.75    0.32
  -1  -9   1    1.53    0.31
   0   9  -1    0.50    0.23
   0   9  -1    0.22    0.23
   0  -9   1    0.30    0.20
  -1   9  -1   24.99    0.95
   1  -9   1   24.66    1.00
  -2   9  -1   13.23    0.65
  -2   9  -1   12.66    0.69
   2  -9   1   14.23    0.76
   3   8  -1    1.12    0.26
  -3  -8   1    1.35    0.29
   2   8  -1    4.13    0.40
   2   8  -1    4.58    0.41
  -2  -8   1    4.41    0.42
   1   8  -1    8.14    0.52
   1   8  -1    9.29    0.53
  -1  -8   1    8.14    0.55
   0   8  -1    1.97    0.30
   0   8  -1    1.66    0.26
   0  -8   1    1.20    0.26
  -1   8  -1    4.32    0.39
  -1   8  -1    5.11    0.37
  -1   8  -1    4.81    0.37
   1  -8   1    5.07    0.44
  -2   8  -1    0.05    0.12
  -2   8  -1   -0.01    0.14
   2  -8   1    0.19    0.16
  -3   8  -1    3.69    0.38
  -3   8  -1    3.74    0.38
   3  -8   1    3.57    0.40
  -4   8  -1    0.35    0.20
  -4   8  -1    0.54    0.21
   4  -8   1    0.39    0.20
   5   7  -1    1.85    0.35
  -5  -7   1    2.11    0.32
   4   7  -1    4.33    0.42
  -4  -7   1    6.30    0.47
  -4  -7   1    4.42    0.40
   3   7  -1   12.70    0.62
  -3  -7   1   13.05    0.64
   2   7  -1    9.88    0.53
   2   7  -1   10.02    0.53
  -2  -7   1    9.88    0.55
   1   7  -1   23.19    0.79
   1   7  -1   22.79    0.76
  -1  -7   1   20.18    0.79
   0   7  -1    3.36    0.30
   0   7  -1    2.51    0.29
   0  -7   1    3.08    0.32
  -1   7  -1   27.89    0.80
  -1   7  -1   29.27    0.83
  -1   7  -1   28.15    0.88
   1  -7   1   27.38    0.92
  -2   7  -1    0.26    0.13
  -2   7  -1    0.38    0.15
  -2   7  -1    0.04    0.11
   2  -7   1    0.37    0.16
  -3   7  -1    1.28    0.24
  -3   7  -1    1.21    0.21
  -3   7  -1    1.50    0.26
   3  -7   1    1.30    0.25
  -4   7  -1   10.24    0.56
  -4   7  -1    9.64    0.55
   4  -7   1   10.99    0.58
  -5   7  -1    5.00    0.44
  -5   7  -1    5.75    0.45
   5  -7   1    5.24    0.42
  -6   7  -1    0.28    0.19
   6   6  -1    0.49    0.24
   6   6  -1    0.87    0.23
   5   6  -1   10.62    0.54
   5   6  -1   10.56    0.62
  -5  -6   1   11.48    0.59
   4   6  -1    5.74    0.43
   4   6  -1    5.88    0.37
  -4  -6   1    5.10    0.38
  -4  -6   1    5.66    0.39
   3   6  -1    0.28    0.15
  -3  -6   1    0.12    0.13
   2   6  -1    7.69    0.44
   2   6  -1    7.53    0.42
  -2  -6   1    7.98    0.46
   1   6  -1    3.13    0.28
   1   6  -1    3.21    0.28
  -1  -6   1    3.19    0.31
   0   6  -1    0.19    0.09
   0   6  -1    0.24    0.12
   0   6  -1    0.22    0.13
   0  -6   1    0.30    0.15
  -1   6  -1   -0.05    0.07
  -1   6  -1    0.05    0.09
  -1   6  -1    0.01    0.09
   1  -6   1   -0.01    0.11
  -2   6  -1    1.24    0.19
  -2   6  -1    1.14    0.20
  -2   6  -1    1.21    0.21
   2  -6   1    1.58    0.24
  -3   6  -1   21.76    0.72
  -3   6  -1   19.70    0.62
  -3   6  -1   21.17    0.72
   3  -6   1   21.21    0.74
  -4   6  -1    3.18    0.26
  -4   6  -1    3.37    0.33
  -4   6  -1    3.30    0.32
   4  -6   1    2.80    0.29
  -5   6  -1    4.17    0.38
  -5   6  -1    5.59    0.42
   5  -6   1    5.23    0.38
  -6   6  -1    3.49    0.37
   6   5  -1    1.68    0.29
   6   5  -1    1.58    0.31
  -6  -5   1    1.96    0.30
   5   5  -1    0.09    0.12
   5   5  -1    0.38    0.17
  -5  -5   1    0.03    0.12
  -5  -5   1    0.10    0.20
   4   5  -1    1.39    0.21
   4   5  -1    1.49    0.25
  -4  -5   1    1.50    0.23
  -4  -5   1    1.41    0.23
   3   5  -1    1.70    0.20
   3   5  -1    1.64    0.24
  -3  -5   1    1.58    0.22
  -3  -5   1    1.44    0.21
   2   5  -1    1.06    0.14
   2   5  -1    0.93    0.18
   2   5  -1    0.90    0.18
  -2  -5   1    1.26    0.20
   1   5  -1    0.83    0.11
   1   5  -1    1.09    0.16
   1   5  -1    0.83    0.15
  -1  -5   1    1.24    0.20
   0   5  -1   38.55    0.82
   0   5  -1   36.86    0.89
   0   5  -1   38.06    0.89
   0  -5   1   38.17    0.96
  -1   5  -1    1.08    0.18
  -1   5  -1    0.80    0.14
  -1   5  -1    0.84    0.15
   1  -5   1    0.64    0.15
  -2   5  -1    2.40    0.20
  -2   5  -1    2.22    0.23
  -2   5  -1    2.26    0.21
   2  -5   1    2.22    0.22
  -3   5  -1   43.72    1.04
  -3   5  -1   44.12    1.04
  -3   5  -1   43.62    0.95
   3  -5   1   43.16    1.04
  -4   5  -1   17.68    0.63
  -4   5  -1   16.33    0.54
  -4   5  -1   16.25    0.62
   4  -5   1   17.17    0.60
  -5   5  -1    0.70    0.18
  -5   5  -1    0.86    0.21
   5  -5   1    0.75    0.17
  -6   5  -1    0.30    0.16
  -7   5  -1   14.73    0.71
   7   4  -1    2.26    0.36
   7   4  -1    1.92    0.32
  -7  -4   1    1.63    0.31
   6   4  -1    2.19    0.32
   6   4  -1    2.18    0.30
  -6  -4   1    1.97    0.29
   5   4  -1   23.21    0.82
   5   4  -1   22.21    0.75
  -5  -4   1   22.74    0.76
  -5  -4   1   23.49    0.69
   4   4  -1    1.79    0.21
   4   4  -1    2.10    0.25
  -4  -4   1    1.94    0.22
  -4  -4   1    1.89    0.23
   3   4  -1    9.89    0.44
   3   4  -1   10.25    0.40
  -3  -4   1    9.72    0.42
  -3  -4   1   10.08    0.43
   2   4  -1   43.13    0.85
   2   4  -1   41.73    0.94
   2   4  -1   41.27    0.96
   2   4  -1   42.72    0.82
  -2  -4   1   42.55    0.97
   1   4  -1    0.03    0.05
   1   4  -1    0.09    0.05
   1   4  -1    0.09    0.09
   1   4  -1    0.07    0.07
  -1  -4   1    0.13    0.09
   0   4  -1   32.63    0.52
   0   4  -1   31.49    0.68
   0   4  -1   31.81    0.75
   0   4  -1   32.79    0.68
   0   4  -1   32.37    0.75
   0  -4   1   33.04    0.80
  -1   4  -1    0.71    0.13
  -1   4  -1    0.35    0.10
  -1   4  -1    0.48    0.11
   1  -4   1    0.40    0.11
  -2   4  -1    3.57    0.22
  -2   4  -1    3.45    0.24
  -2   4  -1    3.25    0.22
   2  -4   1    3.25    0.20
   2  -4   1    3.09    0.23
  -3   4  -1   21.53    0.64
  -3   4  -1   21.59    0.63
  -3   4  -1   21.99    0.58
   3  -4   1   22.16    0.42
   3  -4   1   21.60    0.62
  -4   4  -1    0.84    0.17
  -4   4  -1    1.21    0.19
  -4   4  -1    1.05    0.16
   4  -4   1    0.95    0.12
   4  -4   1    0.91    0.16
  -5   4  -1    1.47    0.24
  -5   4  -1    0.84    0.18
  -5   4  -1    1.52    0.20
   5  -4   1    1.39    0.19
   5  -4   1    1.18    0.16
  -6   4  -1   14.47    0.62
  -6   4  -1   13.00    0.53
  -7   4  -1   10.55    0.57
  -7   4  -1    9.35    0.49
  -8   4  -1    2.25    0.34
   7   3  -1    3.14    0.37
   7   3  -1    3.24    0.36
  -7  -3   1    2.96    0.33
   6   3  -1   14.55    0.65
   6   3  -1   15.31    0.65
  -6  -3   1   15.41    0.64
   5   3  -1    7.75    0.45
   5   3  -1    7.72    0.43
  -5  -3   1    8.12    0.43
  -5  -3   1    8.68    0.38
   4   3  -1   18.05    0.62
   4   3  -1   17.61    0.58
  -4  -3   1   18.11    0.59
  -4  -3   1   18.32    0.54
   3   3  -1   35.21    0.72
   3   3  -1   35.28    0.85
   3   3  -1   34.35    0.79
  -3  -3   1   33.36    0.77
  -3  -3   1   33.10    0.81
   2   3  -1  231.53    3.28
   2   3  -1  225.41    3.34
   2   3  -1  225.67    3.45
   2   3  -1  226.80    3.42
  -2  -3   1  226.73    3.42
   1   3  -1    3.28    0.21
   1   3  -1    3.51    0.22
   1   3  -1    3.34    0.17
   1   3  -1    3.65    0.16
  -1  -3   1    4.04    0.24
   0   3  -1   28.19    0.58
   0   3  -1   28.71    0.47
   0   3  -1   27.97    0.63
   0   3  -1   29.36    0.64
   0   3  -1   28.05    0.58
   0  -3   1   29.61    0.68
  -1   3  -1   17.34    0.44
  -1   3  -1   16.94    0.46
  -1   3  -1   16.98    0.44
   1  -3   1   16.67    0.48
   1  -3   1   17.46    0.42
  -2   3  -1    6.10    0.28
  -2   3  -1    6.26    0.28
  -2   3  -1    5.96    0.25
   2  -3   1    6.19    0.28
   2  -3   1    6.11    0.14
  -3   3  -1   18.63    0.50
  -3   3  -1   18.62    0.53
  -3   3  -1   18.76    0.55
   3  -3   1   19.48    0.41
   3  -3   1   18.20    0.51
  -4   3  -1   11.71    0.41
  -4   3  -1   11.70    0.46
  -4   3  -1   12.49    0.46
   4  -3   1   11.78    0.39
   4  -3   1   11.52    0.36
  -5   3  -1    1.77    0.22
  -5   3  -1    1.95    0.23
  -5   3  -1    1.85    0.20
   5  -3   1    2.02    0.17
   5  -3   1    1.57    0.18
  -6   3  -1   17.40    0.61
  -6   3  -1   16.47    0.63
   6  -3   1   17.85    0.59
  -7   3  -1    5.35    0.37
  -7   3  -1    5.67    0.42
   7  -3   1    5.67    0.38
  -8   3  -1   -0.05    0.14
  -8   3  -1    0.22    0.15
   8  -3   1    0.21    0.16
   8   2  -1    0.17    0.18
  -8  -2   1    0.24    0.17
  -8  -2   1   -0.11    0.14
   7   2  -1    1.19    0.25
  -7  -2   1    1.07    0.22
   6   2  -1    0.14    0.14
   6   2  -1   -0.05    0.11
  -6  -2   1    0.03    0.12
   5   2  -1    0.44    0.14
   5   2  -1    0.45    0.15
  -5  -2   1    0.57    0.12
  -5  -2   1    0.39    0.13
   4   2  -1    0.62    0.13
   4   2  -1    0.41    0.11
  -4  -2   1    0.85    0.16
  -4  -2   1    0.72    0.13
   3   2  -1   58.81    1.04
   3   2  -1   57.33    1.10
   3   2  -1   54.39    1.13
  -3  -2   1   56.69    1.04
  -3  -2   1   59.48    1.11
   2   2  -1   85.34    1.42
   2   2  -1   88.81    1.37
   2   2  -1   85.76    1.47
  -2  -2   1   86.97    1.45
  -2  -2   1   84.82    1.43
   1   2  -1   32.77    0.66
   1   2  -1   32.69    0.68
   1   2  -1   33.01    0.60
   1   2  -1   32.77    0.59
  -1  -2   1   31.97    0.67
   0   2  -1  113.10    1.73
   0   2  -1  111.04    1.72
   0   2  -1  114.19    1.58
   0   2  -1  112.14    1.68
   0   2  -1  113.87    1.68
   0  -2   1  112.75    1.76
  -1   2  -1   14.96    0.22
  -1   2  -1   14.87    0.22
  -1   2  -1   14.99    0.37
  -1   2  -1   14.69    0.37
  -1   2  -1   14.27    0.36
   1  -2   1   14.66    0.39
   1  -2   1   14.53    0.35
  -2   2  -1   38.83    0.74
  -2   2  -1   38.05    0.77
  -2   2  -1   39.80    0.76
   2  -2   1   39.37    0.75
   2  -2   1   39.76    0.64
  -3   2  -1    7.50    0.30
  -3   2  -1    7.37    0.29
  -3   2  -1    6.91    0.30
   3  -2   1    7.72    0.25
   3  -2   1    7.59    0.27
  -4   2  -1    2.13    0.19
  -4   2  -1    2.01    0.19
  -4   2  -1    1.76    0.16
   4  -2   1    2.33    0.17
   4  -2   1    2.20    0.15
  -5   2  -1    0.65    0.15
  -5   2  -1    0.43    0.12
  -5   2  -1    0.81    0.16
   5  -2   1    0.53    0.09
   5  -2   1    0.76    0.14
  -6   2  -1    0.35    0.13
  -6   2  -1    0.22    0.12
   6  -2   1    0.42    0.14
  -7   2  -1    7.07    0.41
  -7   2  -1    7.45    0.44
   7  -2   1    7.20    0.43
  -8   2  -1    0.08    0.14
  -8   2  -1   -0.06    0.11
   8  -2   1   -0.10    0.13
   8   1  -1    1.91    0.33
  -8  -1   1    1.37    0.27
  -8  -1   1    2.49    0.34
   7   1  -1   -0.03    0.12
  -7  -1   1   -0.06    0.11
  -7  -1   1    0.17    0.14
   6   1  -1   -0.06    0.09
   6   1  -1   -0.06    0.10
  -6  -1   1   -0.09    0.09
   5   1  -1    3.86    0.29
   5   1  -1    3.04    0.27
  -5  -1   1    3.18    0.27
  -5  -1   1    3.51    0.20
   4   1  -1    4.68    0.28
   4   1  -1    4.16    0.27
  -4  -1   1    4.86    0.22
  -4  -1   1    4.30    0.26
   3   1  -1   14.87    0.41
   3   1  -1   15.16    0.45
   3   1  -1   14.24    0.44
  -3  -1   1   15.46    0.39
  -3  -1   1   14.49    0.43
   2   1  -1   53.20    0.95
   2   1  -1   54.37    0.91
  -2  -1   1   53.70    0.95
  -2  -1   1   53.01    0.91
   1   1  -1  345.96    4.83
   1   1  -1  351.65    5.00
   1   1  -1  343.87    4.93
  -1  -1   1  346.16    4.97
  -1  -1   1  349.98    4.88
  -1  -1   1  341.49    4.79
   0   1  -1  326.39    4.57
   0   1  -1  323.01    4.65
   0   1  -1  323.27    4.53
   0   1  -1  329.21    4.51
   0  -1   1  322.01    4.62
   0  -1   1  330.51    4.64
  -1   1  -1 1000.00   17.70
  -1   1  -1  935.14   17.09
  -1   1  -1  952.96   13.35
   1  -1   1  981.04   17.57
   1  -1   1  986.55   14.91
  -2   1  -1  394.50    5.61
  -2   1  -1  406.80    5.74
  -2   1  -1  399.74    5.55
   2  -1   1  402.68    5.64
   2  -1   1  391.50    5.55
  -3   1  -1  257.77    3.68
  -3   1  -1  255.09    3.69
  -3   1  -1  253.01    3.71
   3  -1   1  252.96    3.65
   3  -1   1  255.76    3.54
  -4   1  -1   24.15    0.61
  -4   1  -1   22.90    0.60
  -4   1  -1   23.36    0.59
   4  -1   1   22.86    0.58
   4  -1   1   24.20    0.44
  -5   1  -1    4.08    0.26
  -5   1  -1    4.23    0.26
  -5   1  -1    4.34    0.27
   5  -1   1    4.21    0.27
  -6   1  -1    3.16    0.27
  -6   1  -1    3.29    0.27
   6  -1   1    3.10    0.27
  -7   1  -1   15.47    0.61
  -7   1  -1   15.48    0.61
   7  -1   1   14.83    0.61
  -8   1  -1    4.31    0.36
  -8   1  -1    4.01    0.36
   8  -1   1    4.27    0.39
   8   0  -1    1.95    0.32
  -8   0   1    2.00    0.31
  -8   0   1    1.96    0.29
   7   0  -1   11.06    0.57
  -7   0   1   10.41    0.52
  -7   0   1    8.99    0.50
   6   0  -1   61.62    1.40
  -6   0   1   64.58    1.36
  -6   0   1   62.68    1.37
   5   0  -1    8.17    0.40
  -5   0   1    8.09    0.27
  -5   0   1    8.11    0.39
   4   0  -1    3.51    0.23
   4   0  -1    3.72    0.24
  -4   0   1    4.15    0.25
  -4   0   1    4.07    0.18
  -4   0   1    3.87    0.22
   3   0  -1   88.96    1.52
   3   0  -1   89.00    1.50
  -3   0   1   89.96    1.51
  -3   0   1   91.80    1.47
  -3   0   1   90.91    1.41
   2   0  -1   34.52    0.65
   2   0  -1   34.70    0.67
  -2   0   1   34.05    0.64
  -2   0   1   34.34    0.66
  -2   0   1   35.68    0.62
   1   0  -1  148.13    2.12
   1   0  -1  145.17    2.11
  -1   0   1  148.06    2.11
  -1   0   1  148.70    2.11
  -1   0   1  150.02    2.11
   0   0  -1   62.69    0.91
   0   0  -1   62.12    0.89
   0   0  -1   63.01    0.92
   0   0   1   61.41    0.94
  -1   0  -1   15.69    0.27
  -1   0  -1   15.21    0.31
  -1   0  -1   15.08    0.31
   1   0   1   15.16    0.30
   1   0   1   15.71    0.28
  -2   0  -1  282.02    3.90
  -2   0  -1  271.12    3.91
  -2   0  -1  276.07    3.98
   2   0   1  284.24    3.91
   2   0   1  281.35    3.80
  -3   0  -1    0.07    0.07
  -3   0  -1    0.12    0.06
   3   0   1    0.09    0.07
  -4   0  -1    5.23    0.27
  -4   0  -1    5.63    0.26
  -4   0  -1    5.31    0.25
   4   0   1    5.63    0.27
  -5   0  -1    3.92    0.25
  -5   0  -1    3.70    0.26
   5   0   1    3.68    0.26
  -6   0  -1    0.26    0.12
  -6   0  -1    0.25    0.11
   6   0   1    0.08    0.10
  -7   0  -1   17.57    0.65
  -7   0  -1   17.39    0.66
   7   0   1   18.30    0.69
  -8   0  -1   -0.01    0.11
  -8   0  -1   -0.15    0.10
   8   0   1    0.06    0.15
   8  -1  -1    4.87    0.43
  -8   1   1    4.14    0.36
  -8   1   1    4.60    0.41
   7  -1  -1   23.45    0.82
  -7   1   1   20.48    0.75
  -7   1   1   22.90    0.75
   6  -1  -1   13.34    0.56
  -6   1   1   14.73    0.54
  -6   1   1   14.68    0.58
   5  -1  -1    4.70    0.30
  -5   1   1    4.42    0.21
  -5   1   1    4.13    0.26
  -5   1   1    4.00    0.28
   4  -1  -1    8.29    0.35
  -4   1   1    8.38    0.34
  -4   1   1    7.84    0.34
  -4   1   1    8.29    0.27
  -4   1   1    7.60    0.31
   3  -1  -1   20.75    0.52
  -3   1   1   20.37    0.45
  -3   1   1   20.38    0.51
   2  -1  -1  137.13    2.00
   2  -1  -1  139.92    2.06
  -2   1   1  138.17    2.02
  -2   1   1  136.63    2.07
  -2   1   1  139.23    2.07
   1  -1  -1   20.26    0.34
   1  -1  -1   20.16    0.39
  -1   1   1   19.10    0.39
  -1   1   1   20.43    0.39
  -1   1   1   20.45    0.40
   0  -1  -1  205.79    2.81
   0  -1  -1  196.99    2.73
   0   1   1  196.59    2.81
   0   1   1  201.36    2.78
   0   1   1  203.08    2.74
   0   1   1  195.90    2.87
  -1  -1  -1   94.93    1.35
  -1  -1  -1   96.90    1.40
   1   1   1   96.09    1.37
   1   1   1   96.93    1.41
  -2  -1  -1   24.15    0.45
  -2  -1  -1   23.61    0.50
   2   1   1   24.29    0.37
   2   1   1   24.37    0.44
   2   1   1   23.59    0.50
  -3  -1  -1  100.32    1.66
  -3  -1  -1  102.29    1.61
   3   1   1  103.52    1.67
   3   1   1  106.23    1.60
  -4  -1  -1    0.25    0.09
  -4  -1  -1    0.11    0.07
   4   1   1    0.04    0.06
   4   1   1    0.08    0.08
  -5  -1  -1   58.70    1.22
  -5  -1  -1   59.90    1.17
   5   1   1   59.30    1.23
  -6  -1  -1    0.27    0.11
  -6  -1  -1    0.40    0.13
   6   1   1    0.30    0.13
  -7  -1  -1    2.57    0.28
  -7  -1  -1    2.74    0.27
   7   1   1    3.17    0.32
  -8  -1  -1    0.73    0.20
  -8  -1  -1    0.78    0.21
   8   1   1    0.31    0.19
   8  -2  -1    5.26    0.44
  -8   2   1    4.55    0.41
   7  -2  -1    4.32    0.36
  -7   2   1    3.56    0.34
  -7   2   1    4.09    0.32
   6  -2  -1   45.80    1.12
  -6   2   1   46.95    1.06
  -6   2   1   45.49    1.13
   5  -2  -1    1.38    0.19
  -5   2   1    1.21    0.19
  -5   2   1    1.33    0.17
  -5   2   1    1.25    0.19
  -5   2   1    1.30    0.14
   4  -2  -1    7.40    0.32
  -4   2   1    6.94    0.27
  -4   2   1    7.10    0.33
  -4   2   1    7.08    0.29
   3  -2  -1   -0.04    0.06
  -3   2   1    0.03    0.05
  -3   2   1   -0.03    0.05
  -3   2   1    0.00    0.06
  -3   2   1    0.00    0.05
   2  -2  -1    3.41    0.17
  -2   2   1    3.40    0.18
  -2   2   1    3.96    0.14
  -2   2   1    3.59    0.18
  -2   2   1    3.72    0.19
   1  -2  -1  217.23    3.03
  -1   2   1  214.69    3.07
  -1   2   1  215.95    3.07
  -1   2   1  217.80    2.97
  -1   2   1  218.21    3.10
   0  -2  -1   14.03    0.28
   0   2   1   13.83    0.31
   0   2   1   14.43    0.26
   0   2   1   14.16    0.26
   0   2   1   13.64    0.34
   1   2   1   15.72    0.33
   1   2   1   15.13    0.34
   1   2   1   15.11    0.34
   1   2   1   15.81    0.34
  -2  -2  -1   43.31    0.76
   2   2   1   42.89    0.80
   2   2   1   45.41    0.74
   2   2   1   43.03    0.65
  -3  -2  -1   13.10    0.29
  -3  -2  -1   12.75    0.36
   3   2   1   11.72    0.39
   3   2   1   12.67    0.41
   3   2   1   13.27    0.32
  -4  -2  -1    5.51    0.17
  -4  -2  -1    4.98    0.25
   4   2   1    5.62    0.24
   4   2   1    4.98    0.28
   4   2   1    4.81    0.28
  -5  -2  -1   15.03    0.54
  -5  -2  -1   16.54    0.52
   5   2   1   16.12    0.56
  -6  -2  -1   13.95    0.53
  -6  -2  -1   15.47    0.59
   6   2   1   13.59    0.57
  -7  -2  -1    2.97    0.32
  -7  -2  -1    2.61    0.28
   7   2   1    3.08    0.33
  -8  -2  -1    8.38    0.52
  -8  -2  -1    9.32    0.52
   8   2   1    9.17    0.55
   8  -3  -1    1.67    0.31
  -8   3   1    1.32    0.26
   7  -3  -1    5.67    0.40
  -7   3   1    5.62    0.41
   6  -3  -1    0.40    0.15
  -6   3   1    0.23    0.14
  -6   3   1    0.43    0.12
   5  -3  -1    4.57    0.30
  -5   3   1    4.27    0.25
  -5   3   1    4.69    0.26
  -5   3   1    4.80    0.31
  -5   3   1    4.75    0.33
   4  -3  -1   13.58    0.44
  -4   3   1   13.11    0.48
  -4   3   1   14.21    0.41
  -4   3   1   13.98    0.44
  -4   3   1   13.34    0.49
   3  -3  -1    2.15    0.16
  -3   3   1    2.07    0.17
  -3   3   1    2.09    0.19
  -3   3   1    2.10    0.19
  -3   3   1    2.06    0.13
   2  -3  -1  137.06    2.05
  -2   3   1  139.37    1.99
  -2   3   1  140.58    2.18
  -2   3   1  137.58    2.16
  -2   3   1  139.54    2.15
   1  -3  -1   42.20    0.70
  -1   3   1   42.27    0.79
  -1   3   1   43.31    0.67
  -1   3   1   42.66    0.83
  -1   3   1   41.62    0.76
   0  -3  -1  647.22    8.92
   0   3   1  645.18    8.91
   0   3   1  644.98    9.33
   0   3   1  650.91    9.08
   0   3   1  638.43    8.97
   1   3   1   11.63    0.32
   1   3   1   11.29    0.30
   1   3   1   11.27    0.34
   1   3   1   11.05    0.31
   2   3   1   59.94    1.09
   2   3   1   60.71    1.06
   2   3   1   60.53    1.06
   2   3   1   61.74    1.07
  -3  -3  -1  170.44    2.52
  -3  -3  -1  170.23    2.59
   3   3   1  166.82    2.66
   3   3   1  169.37    2.63
   3   3   1  172.26    2.41
  -4  -3  -1    1.32    0.12
  -4  -3  -1    1.21    0.15
   4   3   1    1.11    0.12
   4   3   1    1.48    0.19
   4   3   1    1.05    0.17
  -5  -3  -1    8.34    0.38
   5   3   1    8.25    0.42
   5   3   1    8.11    0.41
  -6  -3  -1   27.32    0.84
  -6  -3  -1   27.33    0.79
   6   3   1   26.48    0.84
  -7  -3  -1   11.55    0.54
  -7  -3  -1   11.38    0.57
   7   3   1    9.99    0.55
  -8  -3  -1   13.43    0.68
  -8  -3  -1   13.78    0.64
   8   3   1   14.65    0.72
   8  -4  -1    2.38    0.33
  -8   4   1    2.00    0.33
   7  -4  -1    3.41    0.33
  -7   4   1    3.49    0.35
   6  -4  -1   17.50    0.62
  -6   4   1   17.92    0.70
   5  -4  -1   11.27    0.44
  -5   4   1   11.04    0.40
  -5   4   1   10.92    0.50
  -5   4   1   11.70    0.45
  -5   4   1   10.95    0.51
   4  -4  -1   47.01    0.95
  -4   4   1   47.83    1.02
  -4   4   1   48.12    0.92
  -4   4   1   48.16    1.09
  -4   4   1   46.97    1.08
   3  -4  -1    4.54    0.22
  -3   4   1    4.50    0.20
  -3   4   1    4.47    0.27
  -3   4   1    4.75    0.27
  -3   4   1    4.30    0.27
   2  -4  -1  119.11    1.77
  -2   4   1  115.94    1.94
  -2   4   1  119.10    1.75
  -2   4   1  117.49    1.96
  -2   4   1  116.82    1.91
   1  -4  -1  145.06    2.03
  -1   4   1  141.60    2.27
  -1   4   1  141.97    2.06
  -1   4   1  136.66    2.21
  -1   4   1  141.92    2.15
   0  -4  -1    4.26    0.15
   0   4   1    4.29    0.16
   0   4   1    4.26    0.22
   0   4   1    4.37    0.19
   0   4   1    4.04    0.24
   1   4   1    0.07    0.08
   1   4   1    0.10    0.06
   1   4   1    0.08    0.03
   1   4   1    0.09    0.03
   1   4   1    0.08    0.07
   1   4   1   -0.02    0.06
   2   4   1    0.06    0.07
   2   4   1    0.06    0.06
   2   4   1    0.06    0.02
   2   4   1    0.14    0.02
   2   4   1    0.08    0.06
  -3  -4  -1    1.56    0.16
  -3  -4  -1    1.40    0.15
   3   4   1    1.34    0.17
   3   4   1    1.56    0.09
   3   4   1    1.38    0.17
  -4  -4  -1    1.13    0.14
  -4  -4  -1    1.08    0.16
   4   4   1    0.93    0.17
   4   4   1    0.83    0.16
   4   4   1    1.12    0.11
  -5  -4  -1    0.42    0.13
   5   4   1    0.77    0.18
   5   4   1    0.33    0.14
  -6  -4  -1   17.37    0.64
   6   4   1   17.07    0.68
   6   4   1   17.45    0.70
  -7  -4  -1    1.45    0.26
  -7  -4  -1    1.62    0.26
   7   4   1    1.81    0.29
  -8  -4  -1    4.38    0.43
  -8  -4  -1    4.98    0.43
   8   4   1    5.02    0.46
  -7   5   1    0.04    0.14
  -6   5   1    4.43    0.37
   5  -5  -1    5.60    0.31
  -5   5   1    5.16    0.38
  -5   5   1    5.22    0.34
  -5   5   1    4.67    0.35
   4  -5  -1    3.58    0.22
  -4   5   1    3.36    0.29
  -4   5   1    3.20    0.20
  -4   5   1    2.93    0.28
  -4   5   1    3.33    0.27
   3  -5  -1   70.34    1.17
  -3   5   1   66.49    1.37
  -3   5   1   68.27    1.37
  -3   5   1   69.45    1.16
  -3   5   1   68.83    1.39
   2  -5  -1    0.29    0.07
  -2   5   1    0.41    0.11
  -2   5   1    0.27    0.11
  -2   5   1    0.22    0.07
  -2   5   1    0.24    0.11
   1  -5  -1   22.50    0.43
  -1   5   1   21.95    0.50
  -1   5   1   21.26    0.59
  -1   5   1   21.37    0.54
  -1   5   1   21.50    0.64
   0  -5  -1  126.02    1.84
   0   5   1  127.03    1.91
   0   5   1  123.50    2.14
   0   5   1  128.29    1.97
   0   5   1  123.79    2.06
   1   5   1    2.13    0.15
   1   5   1    2.11    0.19
   1   5   1    2.08    0.11
   1   5   1    2.25    0.21
   1   5   1    2.16    0.11
   1   5   1    1.98    0.17
  -2  -5  -1   16.38    0.53
   2   5   1   15.24    0.49
   2   5   1   15.41    0.30
   2   5   1   15.17    0.30
   2   5   1   16.78    0.46
   2   5   1   14.56    0.49
  -3  -5  -1    3.67    0.26
   3   5   1    3.23    0.13
   3   5   1    3.02    0.25
   3   5   1    3.36    0.23
   3   5   1    3.51    0.26
  -4  -5  -1   20.59    0.64
  -4  -5  -1   21.78    0.62
   4   5   1   19.59    0.63
   4   5   1   20.52    0.69
   4   5   1   20.65    0.47
  -5  -5  -1    0.03    0.10
   5   5   1    0.04    0.11
   5   5   1    0.03    0.11
  -6  -5  -1    0.63    0.18
   6   5   1    0.51    0.18
   6   5   1    0.82    0.21
  -7  -5  -1    0.31    0.16
   7   5   1    0.10    0.15
  -7   6   1    6.53    0.52
  -6   6   1    0.55    0.20
  -5   6   1    0.43    0.17
  -5   6   1    0.48    0.17
  -5   6   1    0.20    0.15
  -4   6   1   -0.05    0.10
  -4   6   1    0.35    0.15
  -4   6   1    0.04    0.12
  -3   6   1    9.38    0.44
  -3   6   1    8.15    0.44
  -3   6   1    8.95    0.45
  -2   6   1   33.05    0.91
  -2   6   1   32.69    0.86
  -2   6   1   31.47    0.81
  -2   6   1   31.46    0.68
  -1   6   1   48.19    1.09
  -1   6   1   47.85    1.00
  -1   6   1   50.39    0.95
   0  -6  -1    0.05    0.05
   0   6   1    0.12    0.10
   0   6   1    0.02    0.08
   0   6   1    0.13    0.07
   0   6   1    0.27    0.09
  -1  -6  -1    0.06    0.05
   1   6   1   -0.01    0.09
   1   6   1    0.08    0.05
   1   6   1    0.20    0.09
  -2  -6  -1    0.32    0.13
   2   6   1    0.48    0.08
   2   6   1    0.49    0.12
   2   6   1    0.31    0.12
   2   6   1    0.22    0.11
   2   6   1    0.46    0.08
  -3  -6  -1    1.16    0.19
   3   6   1    1.06    0.17
   3   6   1    1.12    0.19
   3   6   1    0.75    0.17
   3   6   1    0.99    0.10
  -4  -6  -1   13.52    0.54
  -4  -6  -1   13.39    0.53
   4   6   1   12.90    0.52
   4   6   1   13.66    0.59
  -5  -6  -1    0.66    0.18
   5   6   1    0.85    0.19
   5   6   1    1.11    0.22
  -6  -6  -1    1.11    0.23
   6   6   1    0.54    0.19
   6   6   1    1.02    0.25
  -7  -6  -1   -0.09    0.12
   7   6   1   -0.18    0.14
   7   6   1    0.10    0.16
  -6   7   1    3.14    0.38
  -5   7   1    5.31    0.44
  -5   7   1    4.96    0.40
  -5   7   1    4.88    0.42
  -4   7   1    3.33    0.33
  -4   7   1    3.08    0.33
  -4   7   1    3.58    0.35
  -3   7   1    7.23    0.42
  -3   7   1    5.99    0.40
  -3   7   1    6.81    0.45
  -2   7   1    7.87    0.40
  -2   7   1    8.40    0.48
  -2   7   1    8.07    0.44
  -1   7   1    7.91    0.34
  -1   7   1    7.23    0.35
  -1   7   1    7.08    0.44
  -1   7   1    6.30    0.38
   0   7   1   44.02    0.97
   0   7   1   43.96    1.08
   0   7   1   45.82    0.93
  -1  -7  -1   57.62    1.33
   1   7   1   55.05    1.25
   1   7   1   55.18    1.02
   1   7   1   56.60    1.19
  -2  -7  -1   87.10    1.77
   2   7   1   85.22    1.40
   2   7   1   87.79    1.70
   2   7   1   85.24    1.71
  -3  -7  -1    0.02    0.11
   3   7   1    0.09    0.10
   3   7   1   -0.02    0.09
   3   7   1   -0.05    0.10
  -4  -7  -1   -0.02    0.10
  -4  -7  -1    0.03    0.11
   4   7   1   -0.01    0.11
   4   7   1   -0.06    0.09
  -5  -7  -1    0.05    0.13
   5   7   1   -0.06    0.12
   5   7   1    0.02    0.14
  -6  -7  -1    2.38    0.33
   6   7   1    2.86    0.38
   6   7   1    2.74    0.34
  -5   8   1    2.46    0.35
  -5   8   1    2.22    0.35
  -4   8   1    0.36    0.18
  -4   8   1    0.75    0.22
  -3   8   1    3.52    0.34
  -3   8   1    3.79    0.37
  -2   8   1    5.47    0.40
  -2   8   1    5.84    0.38
   1  -8  -1   -0.07    0.12
  -1   8   1    0.07    0.10
  -1   8   1    0.14    0.12
   0  -8  -1    0.36    0.19
   0   8   1    0.01    0.10
   0   8   1    0.20    0.14
   0   8   1    0.29    0.10
  -1  -8  -1   -0.03    0.11
   1   8   1    0.01    0.07
   1   8   1   -0.10    0.11
   1   8   1   -0.16    0.08
  -2  -8  -1    0.74    0.20
   2   8   1    0.51    0.17
   2   8   1    1.07    0.22
  -3  -8  -1    0.34    0.17
   3   8   1   -0.11    0.10
   3   8   1    0.18    0.14
  -4  -8  -1   14.20    0.66
  -4  -8  -1   14.22    0.64
   4   8   1   14.82    0.69
  -5  -8  -1    3.69    0.37
   5   8   1    4.09    0.42
   4  -9  -1    1.55    0.32
  -4   9   1    0.98    0.25
  -4   9   1    1.28    0.29
   3  -9  -1    0.22    0.18
  -3   9   1    0.53    0.21
  -3   9   1    0.63    0.21
   2  -9  -1    2.62    0.36
  -2   9   1    2.44    0.30
  -2   9   1    2.79    0.34
   1  -9  -1    2.26    0.33
  -1   9   1    2.43    0.27
  -1   9   1    2.38    0.32
   0  -9  -1    7.20    0.51
   0   9   1    7.01    0.38
   0   9   1    7.38    0.48
  -1  -9  -1   10.08    0.59
   1   9   1   10.15    0.42
   1   9   1   11.31    0.59
  -2  -9  -1    2.23    0.33
   2   9   1    2.20    0.31
   2   9   1    1.69    0.28
  -3  -9  -1    1.96    0.32
   3   9   1    1.43    0.27
   3   9   1    1.51    0.27
  -1  10   1    1.01    0.22
  -1  10   1    0.78    0.26
   0 -10  -1    9.02    0.62
   0  10   1    9.18    0.47
   0  10   1    8.40    0.56
   2   8  -2    1.80    0.33
   2   8  -2    2.21    0.35
  -2  -8   2    1.66    0.33
   1   8  -2    0.85    0.23
   1   8  -2    0.37    0.18
  -1  -8   2    0.70    0.23
   0   8  -2    0.96    0.23
   0   8  -2    0.74    0.21
   0  -8   2    0.85    0.26
  -1   8  -2   14.65    0.67
  -1   8  -2   15.66    0.71
   1  -8   2   15.97    0.78
  -2   8  -2   27.84    0.91
  -2   8  -2   26.90    0.97
   2  -8   2   26.15    1.01
  -3   8  -2    4.23    0.41
  -3   8  -2    3.52    0.38
   3  -8   2    4.21    0.43
   4   7  -2    4.22    0.45
  -4  -7   2    4.51    0.41
  -4  -7   2    4.01    0.43
   3   7  -2    0.44    0.21
  -3  -7   2    0.42    0.18
  -3  -7   2    0.34    0.20
   2   7  -2    4.66    0.40
   2   7  -2    4.71    0.40
  -2  -7   2    4.07    0.41
   1   7  -2    0.11    0.14
   1   7  -2    0.20    0.16
  -1  -7   2    0.13    0.15
   0   7  -2    1.19    0.23
   0   7  -2    1.53    0.26
   0  -7   2    1.68    0.29
  -1   7  -2    2.35    0.29
  -1   7  -2    1.86    0.28
   1  -7   2    2.57    0.34
  -2   7  -2    0.04    0.11
  -2   7  -2    0.18    0.14
  -2   7  -2    0.25    0.15
   2  -7   2    0.35    0.18
  -3   7  -2   -0.10    0.10
  -3   7  -2   -0.10    0.10
  -3   7  -2    0.00    0.12
   3  -7   2    0.17    0.15
  -4   7  -2   -0.03    0.12
  -4   7  -2    0.09    0.14
   4  -7   2    0.14    0.17
  -5   7  -2   20.88    0.87
  -5   7  -2   19.97    0.83
   5  -7   2   19.74    0.81
   5   6  -2    3.79    0.42
  -5  -6   2    3.69    0.39
   4   6  -2    5.50    0.46
  -4  -6   2    5.42    0.41
  -4  -6   2    5.52    0.43
   3   6  -2    7.28    0.49
  -3  -6   2    8.60    0.52
  -3  -6   2    7.97    0.47
   2   6  -2    9.58    0.50
   2   6  -2   10.47    0.54
  -2  -6   2   10.53    0.56
   1   6  -2   -0.06    0.11
   1   6  -2    0.18    0.12
  -1  -6   2   -0.11    0.09
   0   6  -2   -0.01    0.11
   0   6  -2    0.12    0.12
   0  -6   2    0.07    0.13
  -1   6  -2    4.50    0.33
  -1   6  -2    5.20    0.36
   1  -6   2    4.59    0.37
  -2   6  -2    1.03    0.19
  -2   6  -2    1.03    0.21
  -2   6  -2    1.29    0.21
   2  -6   2    0.86    0.20
  -3   6  -2   10.34    0.52
  -3   6  -2   10.36    0.50
  -3   6  -2   10.96    0.49
   3  -6   2   10.72    0.54
  -4   6  -2    5.24    0.40
  -4   6  -2    5.34    0.36
  -4   6  -2    5.54    0.40
   4  -6   2    6.14    0.42
  -5   6  -2    0.09    0.14
  -5   6  -2   -0.06    0.10
  -5   6  -2   -0.04    0.13
   5  -6   2    0.09    0.14
  -6   6  -2   16.41    0.75
   6   5  -2    1.80    0.33
   6   5  -2    1.90    0.30
  -6  -5   2    1.83    0.31
   5   5  -2    5.89    0.41
   5   5  -2    5.88    0.47
  -5  -5   2    5.24    0.42
  -5  -5   2    5.08    0.59
   4   5  -2    5.08    0.41
   4   5  -2    4.42    0.33
  -4  -5   2    4.84    0.37
  -4  -5   2    4.53    0.36
   3   5  -2    0.58    0.17
   3   5  -2    0.51    0.14
  -3  -5   2    0.67    0.17
  -3  -5   2    0.80    0.20
   2   5  -2   17.30    0.50
   2   5  -2   17.30    0.63
   2   5  -2   17.63    0.65
  -2  -5   2   16.95    0.66
   1   5  -2    1.31    0.21
   1   5  -2    1.30    0.21
  -1  -5   2    1.41    0.23
   0   5  -2    0.07    0.10
   0   5  -2    0.02    0.10
   0  -5   2    0.06    0.11
  -1   5  -2    0.14    0.09
  -1   5  -2    0.21    0.11
  -1   5  -2    0.08    0.10
   1  -5   2    0.22    0.13
  -2   5  -2    0.15    0.10
  -2   5  -2    0.13    0.10
  -2   5  -2    0.12    0.10
   2  -5   2    0.24    0.11
  -3   5  -2    0.25    0.13
  -3   5  -2    0.12    0.12
  -3   5  -2    0.11    0.10
   3  -5   2    0.24    0.13
  -4   5  -2    5.58    0.37
  -4   5  -2    5.60    0.38
  -4   5  -2    5.75    0.35
   4  -5   2    5.03    0.34
  -5   5  -2   22.47    0.72
  -5   5  -2   20.47    0.77
  -5   5  -2   20.90    0.75
   5  -5   2   21.22    0.71
  -6   5  -2    5.51    0.42
  -6   5  -2    4.98    0.36
  -7   5  -2   18.99    0.80
   6   4  -2    7.48    0.53
   6   4  -2    5.79    0.44
  -6  -4   2    7.00    0.48
   5   4  -2    2.01    0.27
   5   4  -2    2.46    0.31
  -5  -4   2    2.04    0.26
  -5  -4   2    2.60    0.29
   4   4  -2    4.71    0.38
   4   4  -2    4.90    0.34
  -4  -4   2    5.10    0.35
  -4  -4   2    4.58    0.34
   3   4  -2   41.44    1.07
   3   4  -2   42.37    0.96
  -3  -4   2   43.77    1.05
  -3  -4   2   42.27    1.03
   2   4  -2    0.59    0.15
   2   4  -2    0.59    0.12
   2   4  -2    0.36    0.13
  -2  -4   2    0.30    0.14
   1   4  -2   33.18    0.87
   1   4  -2   34.31    0.85
   1   4  -2   35.44    0.69
  -1  -4   2   37.72    0.93
   0   4  -2   36.80    0.88
   0   4  -2   38.70    0.63
   0   4  -2   37.12    0.87
  -1   4  -2   34.97    0.83
  -1   4  -2   35.46    0.81
  -1   4  -2   34.43    0.82
   1  -4   2   34.29    0.88
  -2   4  -2    0.60    0.14
  -2   4  -2    0.55    0.12
  -2   4  -2    0.57    0.12
   2  -4   2    0.69    0.15
  -3   4  -2   13.06    0.47
  -3   4  -2   14.07    0.52
  -3   4  -2   13.06    0.48
   3  -4   2   14.01    0.51
  -4   4  -2    2.62    0.25
  -4   4  -2    3.00    0.25
  -4   4  -2    3.36    0.29
   4  -4   2    2.58    0.24
  -5   4  -2   46.10    1.09
  -5   4  -2   45.15    1.17
  -5   4  -2   48.43    1.15
   5  -4   2   46.16    1.04
  -6   4  -2    6.82    0.43
  -6   4  -2    7.14    0.42
  -7   4  -2    0.02    0.14
  -7   4  -2    0.26    0.14
   7   3  -2    0.26    0.18
   7   3  -2    0.06    0.16
  -7  -3   2    0.00    0.13
   6   3  -2   -0.11    0.11
   6   3  -2    0.06    0.14
  -6  -3   2    0.05    0.13
   5   3  -2    0.07    0.12
   5   3  -2    0.11    0.12
  -5  -3   2   -0.02    0.10
  -5  -3   2   -0.08    0.10
   4   3  -2    0.13    0.10
   4   3  -2    0.15    0.12
  -4  -3   2    0.10    0.10
  -4  -3   2    0.07    0.11
   3   3  -2    0.10    0.09
   3   3  -2    0.14    0.10
  -3  -3   2    0.00    0.08
  -3  -3   2    0.11    0.09
   2   3  -2    7.03    0.36
   2   3  -2    8.00    0.31
   2   3  -2    7.45    0.31
  -2  -3   2    7.54    0.34
  -2  -3   2    7.25    0.35
   1   3  -2    0.12    0.07
   1   3  -2    0.13    0.09
   1   3  -2    0.21    0.07
   1   3  -2    0.19    0.09
  -1  -3   2    0.30    0.11
   0   3  -2   17.89    0.36
   0   3  -2   17.15    0.47
   0   3  -2   16.48    0.50
   0   3  -2   18.07    0.50
   0  -3   2   17.41    0.54
  -1   3  -2    2.98    0.20
  -1   3  -2    3.11    0.21
  -1   3  -2    3.32    0.20
  -1   3  -2    3.33    0.08
   1  -3   2    3.43    0.20
   1  -3   2    2.55    0.21
  -2   3  -2    3.75    0.24
  -2   3  -2    3.71    0.23
  -2   3  -2    3.49    0.23
  -2   3  -2    3.71    0.10
   2  -3   2    3.50    0.23
   2  -3   2    3.45    0.22
  -3   3  -2    4.74    0.27
  -3   3  -2    6.13    0.32
  -3   3  -2    5.11    0.28
   3  -3   2    5.54    0.28
   3  -3   2    5.79    0.18
  -4   3  -2   46.18    1.01
  -4   3  -2   44.36    1.05
  -4   3  -2   45.29    1.00
   4  -3   2   45.97    0.85
   4  -3   2   45.37    0.95
  -5   3  -2    0.88    0.16
  -5   3  -2    0.70    0.16
  -5   3  -2    0.95    0.19
   5  -3   2    0.72    0.13
   5  -3   2    0.79    0.14
  -6   3  -2    9.80    0.49
  -6   3  -2   10.95    0.50
   6  -3   2   10.94    0.44
  -7   3  -2    5.93    0.40
  -7   3  -2    6.38    0.43
   7  -3   2    5.34    0.41
  -8   3  -2    0.66    0.20
  -8   3  -2    0.74    0.22
   7   2  -2    8.58    0.55
   7   2  -2    8.53    0.54
  -7  -2   2    7.90    0.51
   6   2  -2    3.78    0.35
   6   2  -2    3.43    0.34
  -6  -2   2    2.97    0.32
   5   2  -2    0.35    0.14
   5   2  -2    0.59    0.17
  -5  -2   2    0.36    0.13
  -5  -2   2    0.42    0.14
   4   2  -2    1.64    0.21
   4   2  -2    1.52    0.21
  -4  -2   2    2.23    0.21
  -4  -2   2    2.08    0.21
   3   2  -2    7.07    0.36
   3   2  -2    7.14    0.33
   3   2  -2    8.85    0.43
  -3  -2   2    7.76    0.33
  -3  -2   2    7.49    0.34
   2   2  -2   12.07    0.38
   2   2  -2   12.38    0.43
   2   2  -2   12.89    0.39
  -2  -2   2   12.68    0.41
  -2  -2   2   11.81    0.41
   1   2  -2    1.12    0.14
   1   2  -2    0.85    0.11
   1   2  -2    0.76    0.13
   1   2  -2    0.87    0.11
  -1  -2   2    0.63    0.12
   0   2  -2    0.78    0.13
   0   2  -2    0.96    0.12
   0   2  -2    0.81    0.13
   0   2  -2    0.76    0.08
   0  -2   2    0.68    0.12
   0  -2   2    0.70    0.10
  -1   2  -2   51.69    0.99
  -1   2  -2   54.78    0.80
  -1   2  -2   54.45    0.96
   1  -2   2   53.22    1.01
   1  -2   2   53.66    0.96
  -2   2  -2   51.99    0.80
  -2   2  -2   50.80    0.99
  -2   2  -2   52.22    0.94
  -2   2  -2   52.06    0.98
   2  -2   2   51.44    0.98
   2  -2   2   50.47    0.97
  -3   2  -2  146.12    2.26
  -3   2  -2  144.54    2.30
  -3   2  -2  144.27    2.33
   3  -2   2  144.58    2.14
   3  -2   2  145.46    2.24
  -4   2  -2   23.67    0.65
  -4   2  -2   24.14    0.63
  -4   2  -2   24.09    0.67
   4  -2   2   23.70    0.56
   4  -2   2   24.09    0.56
  -5   2  -2   40.35    0.98
  -5   2  -2   40.65    0.96
  -5   2  -2   38.64    0.92
   5  -2   2   40.00    0.88
   5  -2   2   39.43    0.78
  -6   2  -2    6.44    0.38
  -6   2  -2    6.69    0.38
   6  -2   2    6.46    0.36
  -7   2  -2    8.54    0.47
  -7   2  -2    8.68    0.47
   7  -2   2    9.67    0.47
  -8   2  -2    2.18    0.30
  -8   2  -2    3.08    0.35
   8  -2   2    3.10    0.34
   7   1  -2    0.41    0.18
  -7  -1   2    0.17    0.15
   6   1  -2    4.73    0.37
   6   1  -2    3.99    0.36
  -6  -1   2    4.49    0.36
   5   1  -2   54.43    1.24
   5   1  -2   52.42    1.23
  -5  -1   2   55.13    1.09
  -5  -1   2   52.53    1.21
   4   1  -2   10.34    0.43
   4   1  -2    9.36    0.41
  -4  -1   2   10.24    0.37
  -4  -1   2    9.50    0.41
   3   1  -2    5.29    0.28
   3   1  -2    5.79    0.29
  -3  -1   2    6.24    0.28
  -3  -1   2    5.20    0.31
  -3  -1   2    6.05    0.29
   2   1  -2    8.87    0.32
   2   1  -2    9.06    0.33
  -2  -1   2    9.48    0.33
  -2  -1   2    9.32    0.29
  -2  -1   2    9.31    0.32
   1   1  -2   36.01    0.72
   1   1  -2   35.23    0.67
  -1  -1   2   35.95    0.69
  -1  -1   2   37.24    0.68
  -1  -1   2   35.88    0.73
   0   1  -2    1.03    0.09
   0   1  -2    0.97    0.10
   0   1  -2    0.96    0.12
   0  -1   2    1.02    0.13
   0  -1   2    1.16    0.11
  -1   1  -2   82.20    1.27
  -1   1  -2   82.62    1.20
  -1   1  -2   81.32    1.32
   1  -1   2   81.45    1.33
   1  -1   2   82.32    1.32
  -2   1  -2   40.84    0.78
  -2   1  -2   40.31    0.72
  -2   1  -2   40.35    0.79
   2  -1   2   39.99    0.69
   2  -1   2   40.16    0.74
  -3   1  -2   32.12    0.66
  -3   1  -2   32.57    0.71
  -3   1  -2   30.92    0.69
   3  -1   2   31.66    0.63
   3  -1   2   31.86    0.61
  -4   1  -2   35.44    0.80
  -4   1  -2   35.48    0.76
  -4   1  -2   34.64    0.81
   4  -1   2   34.44    0.75
   4  -1   2   35.62    0.64
  -5   1  -2   33.79    0.81
  -5   1  -2   35.47    0.86
  -5   1  -2   34.64    0.86
   5  -1   2   32.59    0.80
  -6   1  -2   34.76    0.93
  -6   1  -2   36.09    0.90
   6  -1   2   35.94    0.91
  -7   1  -2    1.59    0.24
  -7   1  -2    1.63    0.23
   7  -1   2    1.81    0.25
  -8   1  -2    3.53    0.36
  -8   1  -2    3.90    0.35
   8  -1   2    3.48    0.35
   8   0  -2    3.30    0.40
  -8   0   2    2.82    0.37
  -8   0   2    2.80    0.34
   7   0  -2   13.66    0.66
  -7   0   2   13.97    0.64
  -7   0   2   14.44    0.62
   6   0  -2   26.40    0.80
   6   0  -2   26.96    0.85
  -6   0   2   24.09    0.80
   5   0  -2   17.36    0.62
   5   0  -2   18.57    0.61
  -5   0   2   19.41    0.52
  -5   0   2   17.24    0.60
   4   0  -2   32.29    0.82
   4   0  -2   31.08    0.78
  -4   0   2   36.81    0.90
  -4   0   2   31.90    0.80
  -4   0   2   32.13    0.72
   3   0  -2    0.16    0.07
   3   0  -2    0.11    0.08
  -3   0   2    0.11    0.07
  -3   0   2    0.11    0.07
  -3   0   2    0.12    0.07
   2   0  -2  106.37    1.70
   2   0  -2  107.15    1.68
  -2   0   2  106.62    1.69
  -2   0   2  107.71    1.69
  -2   0   2  104.77    1.67
   1   0  -2   51.58    0.89
   1   0  -2   52.13    0.89
  -1   0   2   52.55    0.87
  -1   0   2   52.05    0.92
  -1   0   2   52.92    0.90
   0   0  -2  317.41    4.49
   0   0  -2  320.86    4.48
   0   0   2  310.59    4.42
   0   0   2  312.74    4.54
  -1   0  -2  218.91    3.15
  -1   0  -2  224.82    3.09
  -1   0  -2  224.94    3.09
   1   0   2  220.78    3.14
   1   0   2  220.51    3.15
  -2   0  -2  157.87    2.20
  -2   0  -2  148.77    2.29
   2   0   2  154.49    2.25
   2   0   2  157.15    2.21
  -3   0  -2   78.66    1.24
  -3   0  -2   76.58    1.33
  -3   0  -2   77.40    1.30
   3   0   2   75.90    1.29
   3   0   2   78.06    1.14
  -4   0  -2   53.11    1.00
  -4   0  -2   54.83    1.03
  -4   0  -2   55.13    1.09
   4   0   2   53.70    1.05
   4   0   2   54.02    0.78
  -5   0  -2   44.10    0.94
  -5   0  -2   45.33    1.01
   5   0   2   45.70    1.00
  -6   0  -2   37.67    0.96
  -6   0  -2   36.94    0.90
   6   0   2   36.90    0.94
  -7   0  -2    5.11    0.37
  -7   0  -2    6.04    0.37
   7   0   2    5.27    0.38
  -8   0  -2    4.43    0.39
  -8   0  -2    4.90    0.38
   8   0   2    4.29    0.39
   8  -1  -2   14.38    0.72
  -8   1   2   13.38    0.68
  -8   1   2   12.52    0.61
   7  -1  -2    6.92    0.48
  -7   1   2    7.75    0.48
  -7   1   2    7.28    0.43
   6  -1  -2   16.73    0.66
  -6   1   2   15.81    0.62
  -6   1   2   15.83    0.58
   5  -1  -2   26.63    0.78
  -5   1   2   25.32    0.75
  -5   1   2   28.58    0.66
   4  -1  -2    3.65    0.26
   4  -1  -2    3.82    0.23
  -4   1   2    3.50    0.24
  -4   1   2    3.53    0.21
  -4   1   2    2.96    0.22
   3  -1  -2   47.40    0.95
   3  -1  -2   46.18    0.88
  -3   1   2   45.84    0.88
  -3   1   2   47.38    0.94
  -3   1   2   46.33    0.93
   2  -1  -2    6.58    0.26
   2  -1  -2    6.38    0.22
  -2   1   2    6.63    0.25
  -2   1   2    6.58    0.26
  -2   1   2    6.57    0.25
   1  -1  -2   21.49    0.41
  -1   1   2   22.75    0.45
  -1   1   2   22.39    0.49
  -1   1   2   22.38    0.48
   0  -1  -2    1.15    0.11
   0  -1  -2    1.17    0.10
   0   1   2    1.30    0.08
   0   1   2    1.24    0.11
   0   1   2    1.30    0.13
  -1  -1  -2   64.97    1.02
   1   1   2   66.29    1.01
   1   1   2   66.30    1.03
  -2  -1  -2   29.47    0.59
  -2  -1  -2   30.36    0.50
   2   1   2   30.21    0.60
   2   1   2   30.53    0.56
   2   1   2   30.88    0.52
  -3  -1  -2   15.79    0.44
  -3  -1  -2   16.40    0.37
   3   1   2   15.71    0.40
   3   1   2   15.77    0.44
   3   1   2   15.81    0.27
  -4  -1  -2    4.16    0.21
   4   1   2    4.71    0.26
   4   1   2    4.20    0.23
  -5  -1  -2  114.74    2.02
  -5  -1  -2  115.35    1.91
   5   1   2  116.37    2.02
  -6  -1  -2   17.40    0.56
  -6  -1  -2   16.65    0.61
   6   1   2   16.47    0.61
  -7  -1  -2    0.87    0.20
  -7  -1  -2    0.71    0.16
   7   1   2    0.75    0.19
  -8  -1  -2    0.74    0.20
  -8  -1  -2    0.93    0.21
   8   1   2    0.91    0.23
   8  -2  -2    1.64    0.31
  -8   2   2    1.11    0.26
   7  -2  -2    0.28    0.17
  -7   2   2    0.40    0.16
  -7   2   2    0.55    0.15
   6  -2  -2    3.06    0.31
  -6   2   2    3.49    0.26
  -6   2   2    2.86    0.29
   5  -2  -2    0.09    0.10
  -5   2   2    0.01    0.07
  -5   2   2    0.01    0.10
  -5   2   2    0.06    0.07
   4  -2  -2    5.68    0.31
  -4   2   2    5.97    0.31
  -4   2   2    5.52    0.26
  -4   2   2    5.83    0.32
  -4   2   2    6.10    0.26
   3  -2  -2    1.93    0.17
  -3   2   2    1.74    0.17
  -3   2   2    1.70    0.17
  -3   2   2    2.16    0.17
  -3   2   2    2.03    0.13
   2  -2  -2   14.69    0.40
   2  -2  -2   15.17    0.32
  -2   2   2   14.36    0.40
  -2   2   2   14.91    0.41
  -2   2   2   14.10    0.41
   1  -2  -2   42.22    0.62
   1  -2  -2   41.39    0.75
  -1   2   2   42.10    0.79
  -1   2   2   41.53    0.76
  -1   2   2   42.57    0.74
   0  -2  -2    2.21    0.08
   0  -2  -2    2.29    0.13
   0   2   2    2.03    0.10
   0   2   2    2.09    0.11
  -1  -2  -2  120.24    1.73
  -1  -2  -2  118.96    1.77
   1   2   2  119.42    1.68
   1   2   2  119.69    1.78
   1   2   2  118.50    1.67
  -2  -2  -2   83.19    1.25
  -2  -2  -2   84.99    1.35
   2   2   2   84.26    1.37
   2   2   2   83.45    1.27
  -3  -2  -2   17.02    0.47
  -3  -2  -2   16.22    0.39
   3   2   2   15.70    0.46
   3   2   2   16.72    0.33
   3   2   2   16.70    0.38
  -4  -2  -2    0.07    0.08
  -4  -2  -2    0.14    0.07
  -4  -2  -2    0.10    0.03
   4   2   2    0.12    0.09
   4   2   2    0.21    0.07
  -5  -2  -2   97.30    1.66
  -5  -2  -2   94.44    1.76
   5   2   2   97.75    1.79
  -6  -2  -2   37.96    0.91
  -6  -2  -2   37.60    0.98
   6   2   2   38.01    1.00
  -7  -2  -2   47.42    1.12
  -7  -2  -2   46.00    1.20
   7   2   2   46.23    1.22
  -8  -2  -2   -0.07    0.10
  -8  -2  -2    0.06    0.12
   8   2   2    0.38    0.18
   8  -3  -2    2.24    0.35
  -8   3   2    2.39    0.34
   7  -3  -2    0.48    0.19
  -7   3   2    0.37    0.17
   6  -3  -2    4.01    0.34
  -6   3   2    4.21    0.34
  -6   3   2    3.91    0.29
   5  -3  -2    0.58    0.15
  -5   3   2    0.39    0.12
  -5   3   2    0.27    0.12
  -5   3   2    0.55    0.11
  -5   3   2    0.65    0.16
   4  -3  -2   33.46    0.81
  -4   3   2   33.18    0.84
  -4   3   2   33.00    0.78
  -4   3   2   35.24    0.71
  -4   3   2   36.11    0.88
   3  -3  -2  118.17    1.95
  -3   3   2  118.49    1.99
  -3   3   2  122.34    2.02
  -3   3   2  120.98    1.98
  -3   3   2  123.05    1.80
   2  -3  -2    0.32    0.09
  -2   3   2    0.02    0.07
  -2   3   2    0.07    0.03
  -2   3   2    0.11    0.07
  -2   3   2    0.05    0.07
   1  -3  -2    0.52    0.09
  -1   3   2    0.57    0.10
  -1   3   2    0.51    0.11
  -1   3   2    0.52    0.10
   0  -3  -2   71.07    1.12
   0   3   2   69.35    1.08
   0   3   2   69.80    1.21
   0   3   2   71.12    1.12
  -1  -3  -2    1.61    0.12
   1   3   2    1.61    0.11
   1   3   2    1.65    0.11
   1   3   2    1.58    0.05
   1   3   2    1.28    0.13
   2   3   2   36.08    0.70
   2   3   2   36.18    0.74
   2   3   2   35.89    0.73
   2   3   2   38.14    0.68
  -3  -3  -2   11.37    0.34
   3   3   2   11.91    0.40
   3   3   2   11.89    0.32
   3   3   2   11.66    0.26
  -4  -3  -2    2.24    0.13
  -4  -3  -2    1.96    0.19
  -4  -3  -2    2.02    0.16
   4   3   2    1.90    0.14
   4   3   2    2.20    0.21
  -5  -3  -2   71.29    1.43
  -5  -3  -2   70.68    1.34
   5   3   2   70.09    1.45
  -6  -3  -2   11.25    0.46
  -6  -3  -2   10.62    0.51
   6   3   2   11.08    0.53
  -7  -3  -2    2.53    0.30
  -7  -3  -2    2.92    0.28
   7   3   2    2.78    0.32
  -8  -3  -2    0.14    0.13
  -8  -3  -2    0.07    0.13
   8   3   2   -0.06    0.14
   7  -4  -2    7.56    0.48
  -7   4   2    7.08    0.50
   6  -4  -2    8.17    0.45
  -6   4   2    6.91    0.45
   5  -4  -2    5.32    0.33
  -5   4   2    5.32    0.37
  -5   4   2    5.00    0.31
  -5   4   2    5.52    0.37
   4  -4  -2   35.23    0.82
  -4   4   2   33.78    0.87
  -4   4   2   34.31    0.85
  -4   4   2   33.33    0.88
  -4   4   2   35.27    0.69
   3  -4  -2    7.43    0.31
  -3   4   2    7.40    0.35
  -3   4   2    7.50    0.22
  -3   4   2    7.88    0.35
  -3   4   2    7.77    0.35
   2  -4  -2    1.01    0.13
  -2   4   2    0.95    0.15
  -2   4   2    1.08    0.15
  -2   4   2    1.02    0.07
  -2   4   2    0.90    0.14
   1  -4  -2   50.88    0.89
  -1   4   2   52.95    0.76
  -1   4   2   51.80    0.97
  -1   4   2   51.75    1.04
  -1   4   2   51.19    0.94
   0  -4  -2  241.44    3.44
   0   4   2  246.14    3.52
   0   4   2  234.56    3.61
   0   4   2  246.36    3.41
   0   4   2  246.21    3.38
  -1  -4  -2    2.47    0.15
   1   4   2    2.01    0.15
   1   4   2    2.32    0.15
   1   4   2    2.26    0.07
   2   4   2   15.27    0.44
   2   4   2   16.09    0.45
   2   4   2   16.43    0.45
   2   4   2   16.02    0.43
  -3  -4  -2    1.28    0.14
   3   4   2    1.13    0.16
   3   4   2    1.23    0.14
   3   4   2    1.20    0.06
   3   4   2    1.44    0.16
  -4  -4  -2   21.16    0.57
  -4  -4  -2   22.19    0.53
   4   4   2   21.34    0.45
   4   4   2   21.49    0.64
   4   4   2   21.06    0.65
  -5  -4  -2   17.61    0.56
   5   4   2   18.05    0.63
  -6  -4  -2    6.59    0.41
  -6  -4  -2    6.42    0.37
   6   4   2    6.10    0.41
  -7  -4  -2    4.53    0.35
  -7  -4  -2    4.19    0.38
   7   4   2    5.00    0.41
  -8  -4  -2    3.56    0.36
  -8  -4  -2    4.00    0.40
   8   4   2    4.21    0.43
   7  -5  -2    0.24    0.16
  -7   5   2    0.20    0.18
   6  -5  -2    9.90    0.49
  -6   5   2    8.23    0.50
   5  -5  -2    0.06    0.11
  -5   5   2    0.11    0.11
  -5   5   2    0.16    0.11
  -5   5   2    0.13    0.13
   4  -5  -2    6.81    0.33
  -4   5   2    6.58    0.39
  -4   5   2    7.02    0.39
  -4   5   2    7.03    0.39
   3  -5  -2    0.88    0.14
  -3   5   2    0.75    0.15
  -3   5   2    1.14    0.18
  -3   5   2    0.69    0.15
   2  -5  -2    9.02    0.31
  -2   5   2    9.30    0.42
  -2   5   2    9.19    0.38
  -2   5   2    8.31    0.35
  -2   5   2    9.50    0.23
   1  -5  -2    1.90    0.14
  -1   5   2    1.94    0.18
  -1   5   2    2.33    0.17
  -1   5   2    1.85    0.20
  -1   5   2    2.07    0.11
   0  -5  -2   17.63    0.41
   0   5   2   16.20    0.48
   0   5   2   16.80    0.39
   0   5   2   16.77    0.40
  -1  -5  -2    8.40    0.28
   1   5   2    8.13    0.36
   1   5   2    8.21    0.20
   1   5   2    9.27    0.34
   1   5   2    7.99    0.29
   2   5   2   35.41    0.83
   2   5   2   33.67    0.75
   2   5   2   36.04    0.79
   2   5   2   33.67    0.76
   3   5   2    7.38    0.34
   3   5   2    7.75    0.34
   3   5   2    7.37    0.34
   3   5   2    7.52    0.35
  -4  -5  -2   24.39    0.67
  -4  -5  -2   24.25    0.64
   4   5   2   24.46    0.48
   4   5   2   23.89    0.71
   4   5   2   24.53    0.74
  -5  -5  -2    5.70    0.34
   5   5   2    6.15    0.38
   5   5   2    5.85    0.39
  -6  -5  -2   -0.01    0.10
  -6  -5  -2   -0.12    0.10
   6   5   2   -0.05    0.11
  -7  -5  -2    8.91    0.49
  -7  -5  -2    7.40    0.49
   7   5   2    7.83    0.51
  -7   6   2    1.27    0.28
  -6   6   2    0.73    0.21
  -5   6   2    2.12    0.29
  -5   6   2    1.68    0.26
  -5   6   2    2.35    0.30
   4  -6  -2    0.31    0.11
  -4   6   2    0.19    0.12
  -4   6   2    0.44    0.16
  -4   6   2    0.45    0.15
   3  -6  -2    7.02    0.30
  -3   6   2    6.64    0.38
  -3   6   2    6.98    0.40
  -3   6   2    6.66    0.38
   2  -6  -2    5.97    0.25
  -2   6   2    5.86    0.32
  -2   6   2    5.76    0.34
  -2   6   2    6.10    0.37
   1  -6  -2    1.27    0.12
  -1   6   2    1.23    0.11
  -1   6   2    1.11    0.18
  -1   6   2    1.18    0.18
  -1   6   2    1.17    0.15
   0  -6  -2    0.72    0.10
   0   6   2    1.05    0.12
   0   6   2    0.89    0.11
   0   6   2    0.66    0.15
   0   6   2    1.00    0.16
  -1  -6  -2    9.63    0.31
   1   6   2    8.24    0.41
   1   6   2    9.08    0.25
   1   6   2    8.05    0.33
   1   6   2    8.39    0.37
   2   6   2  120.76    2.05
   2   6   2  119.95    2.15
   2   6   2  121.58    2.00
   2   6   2  120.95    2.07
   2   6   2  125.02    1.71
   2   6   2  121.31    1.70
  -3  -6  -2   51.43    1.14
   3   6   2   52.47    1.16
   3   6   2   52.31    0.75
   3   6   2   50.60    1.11
   3   6   2   53.33    1.11
  -4  -6  -2   17.37    0.58
  -4  -6  -2   16.66    0.58
   4   6   2   18.79    0.38
   4   6   2   16.50    0.62
   4   6   2   17.95    0.62
  -5  -6  -2   30.16    0.84
   5   6   2   27.92    0.91
   5   6   2   29.98    0.89
  -6  -6  -2   36.56    1.01
   6   6   2   35.50    1.06
  -7  -6  -2    0.19    0.15
  -7  -6  -2    0.51    0.19
   7   6   2    0.37    0.19
  -6   7   2   15.28    0.74
  -5   7   2   27.98    0.97
  -5   7   2   28.28    0.96
  -5   7   2   27.90    0.94
  -4   7   2   22.04    0.79
  -4   7   2   21.93    0.80
  -4   7   2   20.75    0.78
  -3   7   2    0.16    0.14
  -3   7   2    0.14    0.13
  -3   7   2    0.02    0.11
  -2   7   2    1.98    0.25
  -2   7   2    1.64    0.21
  -2   7   2    2.00    0.25
  -1   7   2    1.35    0.21
  -1   7   2    0.90    0.19
  -1   7   2    1.06    0.16
   0   7   2    7.28    0.30
   0   7   2    7.55    0.31
   0   7   2    6.83    0.37
   0   7   2    5.94    0.39
  -1  -7  -2    0.16    0.07
   1   7   2    0.22    0.10
   1   7   2    0.24    0.12
   1   7   2    0.00    0.11
   1   7   2    0.19    0.07
  -2  -7  -2    4.34    0.24
   2   7   2    4.57    0.32
   2   7   2    4.02    0.16
   2   7   2    4.33    0.29
  -3  -7  -2    5.27    0.35
   3   7   2    5.37    0.35
   3   7   2    5.36    0.32
   3   7   2    5.46    0.17
   3   7   2    5.25    0.35
  -4  -7  -2   48.31    1.14
  -4  -7  -2   46.41    1.13
   4   7   2   47.01    1.18
   4   7   2   46.84    1.12
  -5  -7  -2    0.28    0.14
   5   7   2    0.38    0.16
   5   7   2    0.09    0.13
  -6  -7  -2    5.98    0.42
   6   7   2    6.34    0.49
   6   7   2    6.13    0.46
  -5   8   2    8.06    0.55
  -5   8   2    7.94    0.54
  -5   8   2    8.29    0.56
  -4   8   2    0.22    0.17
  -4   8   2    0.15    0.16
  -4   8   2    0.24    0.16
  -3   8   2    1.43    0.25
  -3   8   2    1.33    0.24
  -3   8   2    1.25    0.27
  -2   8   2    0.08    0.14
  -2   8   2    0.35    0.14
  -2   8   2   -0.07    0.10
  -1   8   2    0.23    0.14
  -1   8   2    0.36    0.13
  -1   8   2    0.36    0.18
   0   8   2    6.24    0.39
   0   8   2    5.71    0.42
   0   8   2    5.96    0.31
   1   8   2    2.08    0.26
   1   8   2    2.31    0.18
   1   8   2    1.94    0.28
   1   8   2    2.62    0.24
  -2  -8  -2   26.57    0.88
   2   8   2   27.46    0.80
   2   8   2   28.36    0.85
   2   8   2   27.04    0.57
  -3  -8  -2    0.18    0.13
   3   8   2    0.32    0.14
   3   8   2    0.18    0.13
  -4  -8  -2    0.10    0.13
  -4  -8  -2    0.22    0.13
   4   8   2    0.08    0.14
  -5  -8  -2   28.29    0.92
   5   8   2   26.94    0.97
  -4   9   2   11.34    0.67
  -4   9   2    9.11    0.58
  -4   9   2    9.74    0.60
  -3   9   2    3.60    0.38
  -3   9   2    4.31    0.44
  -3   9   2    3.75    0.37
  -2   9   2    0.24    0.19
  -2   9   2    0.15    0.13
  -2   9   2    0.25    0.17
  -1   9   2    3.40    0.39
  -1   9   2    2.85    0.32
  -1   9   2    3.07    0.29
   0   9   2    1.91    0.22
   0   9   2    2.35    0.31
  -1  -9  -2    1.68    0.30
   1   9   2    1.36    0.25
   1   9   2    1.89    0.19
  -2  -9  -2    4.84    0.41
   2   9   2    4.61    0.39
   2   9   2    5.17    0.25
  -3  -9  -2   -0.01    0.13
   3   9   2    0.21    0.14
   3   9   2   -0.03    0.11
  -4  -9  -2    9.71    0.55
  -4  -9  -2    9.26    0.55
   4   9   2   10.61    0.58
   2 -10  -2   10.77    0.68
  -2  10   2   10.62    0.57
  -2  10   2   11.11    0.63
   1 -10  -2    0.05    0.16
  -1  10   2    0.13    0.17
  -1  10   2    0.17    0.14
   0 -10  -2    0.08    0.17
   0  10   2   -0.06    0.08
   0  10   2    0.18    0.16
  -1 -10  -2   10.58    0.64
   1  10   2   10.98    0.62
   1  10   2   10.87    0.44
  -2 -10  -2    7.08    0.53
   2  10   2    7.80    0.53
  -1   8  -3    0.56    0.20
  -1   8  -3   -0.02    0.15
   1  -8   3    0.06    0.18
   2   7  -3    1.18    0.28
   2   7  -3    1.63    0.30
  -2  -7   3    1.81    0.34
   1   7  -3    2.58    0.34
   1   7  -3    2.70    0.32
  -1  -7   3    2.00    0.35
   0   7  -3   14.10    0.66
   0   7  -3   14.22    0.67
   0  -7   3   13.81    0.72
  -1   7  -3    0.03    0.13
  -1   7  -3    0.47    0.20
   1  -7   3    0.38    0.19
  -2   7  -3    6.24    0.45
  -2   7  -3    6.53    0.45
   2  -7   3    6.22    0.50
  -3   7  -3    0.73    0.20
  -3   7  -3    0.37    0.17
   3  -7   3    0.35    0.18
  -4   7  -3    6.36    0.48
  -4   7  -3    7.41    0.53
  -4   7  -3    6.64    0.46
   4  -7   3    7.42    0.53
   4   6  -3   12.62    0.69
  -4  -6   3   11.41    0.62
  -4  -6   3   12.28    0.67
   3   6  -3    0.24    0.16
  -3  -6   3    0.66    0.22
  -3  -6   3    0.44    0.19
   2   6  -3    4.69    0.40
   2   6  -3    4.93    0.41
  -2  -6   3    4.52    0.42
   1   6  -3    0.03    0.12
   1   6  -3    0.13    0.14
  -1  -6   3    0.08    0.15
   0   6  -3    0.11    0.13
   0   6  -3    0.09    0.13
   0  -6   3   -0.05    0.13
  -1   6  -3   10.19    0.52
  -1   6  -3    9.43    0.50
   1  -6   3   10.10    0.56
  -2   6  -3   -0.05    0.11
  -2   6  -3    0.14    0.14
   2  -6   3    0.13    0.15
  -3   6  -3    4.45    0.36
  -3   6  -3    4.89    0.38
   3  -6   3    4.66    0.39
  -4   6  -3   -0.03    0.12
  -4   6  -3    0.22    0.14
  -4   6  -3   -0.13    0.10
   4  -6   3    0.09    0.14
  -5   6  -3    0.11    0.12
  -5   6  -3    0.10    0.21
  -5   6  -3    0.31    0.18
   5  -6   3    0.26    0.17
  -6   6  -3    9.57    0.59
   5   5  -3   -0.04    0.13
   5   5  -3   -0.03    0.13
  -5  -5   3   -0.10    0.12
   4   5  -3    0.09    0.14
  -4  -5   3   -0.05    0.11
  -4  -5   3    0.09    0.16
   3   5  -3    4.17    0.38
  -3  -5   3    3.60    0.32
  -3  -5   3    3.71    0.36
   2   5  -3   12.16    0.58
  -2  -5   3   11.50    0.57
   1   5  -3    2.34    0.27
   1   5  -3    1.98    0.25
  -1  -5   3    2.45    0.30
   0   5  -3    7.35    0.41
   0   5  -3    7.11    0.42
   0  -5   3    7.17    0.45
  -1   5  -3   30.01    0.84
  -1   5  -3   29.49    0.85
   1  -5   3   28.58    0.90
  -2   5  -3   40.75    1.01
  -2   5  -3   40.03    1.02
   2  -5   3   39.45    1.08
  -3   5  -3    0.52    0.17
  -3   5  -3    0.82    0.18
  -3   5  -3    1.10    0.21
   3  -5   3    0.91    0.21
  -4   5  -3   13.11    0.57
  -4   5  -3   13.47    0.57
  -4   5  -3   13.20    0.61
   4  -5   3   13.83    0.59
  -5   5  -3    0.07    0.12
  -5   5  -3    0.13    0.14
  -5   5  -3    0.36    0.17
   5  -5   3   -0.06    0.12
  -6   5  -3    1.76    0.29
  -6   5  -3    2.42    0.31
  -7   5  -3    0.26    0.18
  -7   5  -3    0.33    0.18
   6   4  -3    0.01    0.15
   6   4  -3    0.57    0.21
  -6  -4   3    0.37    0.19
   5   4  -3    6.98    0.46
   5   4  -3    6.67    0.49
  -5  -4   3    7.05    0.47
  -5  -4   3    7.34    0.47
   4   4  -3    3.47    0.35
   4   4  -3    3.70    0.32
  -4  -4   3    3.96    0.35
  -4  -4   3    3.31    0.32
   3   4  -3    6.49    0.36
   3   4  -3    5.97    0.40
  -3  -4   3    6.42    0.40
  -3  -4   3    6.47    0.42
   2   4  -3    1.37    0.23
   2   4  -3    1.21    0.17
  -2  -4   3    1.55    0.21
  -2  -4   3    1.14    0.21
   1   4  -3   12.89    0.51
   1   4  -3   12.44    0.38
   1   4  -3   12.46    0.53
  -1  -4   3   11.93    0.53
   0   4  -3    1.50    0.22
   0   4  -3    1.89    0.20
   0  -4   3    1.37    0.21
  -1   4  -3   33.76    0.83
  -1   4  -3   32.34    0.85
   1  -4   3   31.81    0.89
  -2   4  -3    0.31    0.11
  -2   4  -3    0.26    0.12
   2  -4   3    0.28    0.12
  -3   4  -3    0.43    0.14
  -3   4  -3    0.41    0.13
  -3   4  -3    0.53    0.15
   3  -4   3    0.54    0.14
  -4   4  -3    0.22    0.12
  -4   4  -3    0.21    0.12
  -4   4  -3    0.24    0.12
   4  -4   3    0.15    0.11
  -5   4  -3   12.11    0.53
  -5   4  -3   11.23    0.52
  -5   4  -3   11.38    0.56
   5  -4   3   12.12    0.50
  -6   4  -3    2.11    0.29
  -6   4  -3    2.11    0.27
  -7   4  -3    0.09    0.14
  -7   4  -3    0.06    0.15
   6   3  -3    3.38    0.36
   6   3  -3    4.00    0.41
  -6  -3   3    3.86    0.39
   5   3  -3    0.10    0.12
   5   3  -3    0.09    0.13
  -5  -3   3    0.10    0.14
  -5  -3   3    0.13    0.13
   4   3  -3   18.60    0.70
   4   3  -3   18.37    0.64
  -4  -3   3   18.50    0.66
  -4  -3   3   18.47    0.67
   3   3  -3    1.32    0.19
   3   3  -3    1.13    0.21
  -3  -3   3    1.09    0.20
  -3  -3   3    1.52    0.21
   2   3  -3   21.85    0.59
  -2  -3   3   21.77    0.68
  -2  -3   3   22.71    0.66
   1   3  -3   13.43    0.47
   1   3  -3   12.92    0.39
   1   3  -3   12.41    0.49
  -1  -3   3   12.80    0.50
   0   3  -3   17.45    0.56
   0   3  -3   17.62    0.53
   0   3  -3   17.77    0.41
   0  -3   3   18.12    0.60
  -1   3  -3    1.96    0.19
  -1   3  -3    2.00    0.11
  -1   3  -3    1.81    0.19
   1  -3   3    2.10    0.22
   1  -3   3    1.93    0.18
  -2   3  -3    7.11    0.35
  -2   3  -3    7.34    0.33
  -2   3  -3    7.37    0.18
   2  -3   3    7.21    0.36
   2  -3   3    7.37    0.34
  -3   3  -3   49.74    0.80
  -3   3  -3   48.56    1.07
  -3   3  -3   48.36    1.10
  -3   3  -3   49.61    1.03
   3  -3   3   48.12    1.06
   3  -3   3   49.38    1.07
  -4   3  -3   24.32    0.74
  -4   3  -3   23.18    0.66
  -4   3  -3   23.58    0.70
   4  -3   3   23.01    0.66
  -5   3  -3    6.98    0.42
  -5   3  -3    5.80    0.37
  -5   3  -3    6.93    0.38
   5  -3   3    6.84    0.34
  -6   3  -3   15.06    0.62
  -6   3  -3   14.59    0.59
  -7   3  -3    0.06    0.12
  -7   3  -3    0.10    0.14
  -8   3  -3    1.82    0.30
  -8   3  -3    1.80    0.31
   7   2  -3    5.91    0.49
   7   2  -3    6.43    0.50
  -7  -2   3    5.91    0.48
   6   2  -3    2.82    0.33
   6   2  -3    2.79    0.34
  -6  -2   3    3.02    0.34
   5   2  -3   32.92    0.98
   5   2  -3   32.49    0.95
  -5  -2   3   31.12    0.94
  -5  -2   3   32.88    0.89
   4   2  -3    6.00    0.38
   4   2  -3    5.72    0.35
  -4  -2   3    5.81    0.35
   3   2  -3    0.18    0.11
   3   2  -3    0.21    0.11
  -3  -2   3    0.31    0.12
  -3  -2   3    0.34    0.13
   2   2  -3    8.48    0.34
   2   2  -3    8.38    0.38
  -2  -2   3    8.33    0.38
  -2  -2   3    8.38    0.36
   1   2  -3    9.22    0.31
   1   2  -3    9.56    0.36
   1   2  -3    9.69    0.39
  -1  -2   3   10.71    0.35
  -1  -2   3   10.29    0.41
   0   2  -3    1.45    0.16
   0   2  -3    1.40    0.15
   0   2  -3    1.43    0.12
   0  -2   3    1.38    0.14
   0  -2   3    1.15    0.17
  -1   2  -3   14.93    0.48
  -1   2  -3   15.74    0.44
  -1   2  -3   16.04    0.35
   1  -2   3   16.22    0.51
   1  -2   3   16.60    0.46
  -2   2  -3    1.65    0.15
  -2   2  -3    1.57    0.10
  -2   2  -3    1.52    0.17
   2  -2   3    1.98    0.19
   2  -2   3    1.53    0.17
  -3   2  -3    9.50    0.27
  -3   2  -3    8.65    0.33
  -3   2  -3   10.27    0.40
  -3   2  -3    9.20    0.39
   3  -2   3    9.14    0.36
   3  -2   3    9.00    0.38
  -4   2  -3    3.19    0.25
  -4   2  -3    2.48    0.21
   4  -2   3    2.80    0.21
   4  -2   3    2.91    0.19
  -5   2  -3   66.80    1.66
  -5   2  -3   61.05    1.32
  -5   2  -3   61.98    1.27
   5  -2   3   60.72    1.19
   5  -2   3   61.90    1.15
  -6   2  -3   13.61    0.53
  -6   2  -3   12.49    0.56
   6  -2   3   14.02    0.51
  -7   2  -3    1.59    0.24
  -7   2  -3    1.10    0.23
   7  -2   3    1.50    0.23
  -8   2  -3    0.02    0.12
  -8   2  -3    0.07    0.15
   8  -2   3    0.19    0.16
   7   1  -3   12.18    0.66
   7   1  -3   13.22    0.66
  -7  -1   3   13.19    0.66
   6   1  -3   -0.11    0.12
   6   1  -3    0.15    0.13
  -6  -1   3    0.12    0.13
   5   1  -3    5.75    0.39
   5   1  -3    6.32    0.41
  -5  -1   3    6.42    0.36
  -5  -1   3    4.99    0.36
   4   1  -3    2.29    0.24
   4   1  -3    3.06    0.27
  -4  -1   3    2.83    0.25
   3   1  -3   76.72    1.45
   3   1  -3   76.37    1.46
  -3  -1   3   77.19    1.44
  -3  -1   3   75.09    1.43
   2   1  -3   27.63    0.66
   2   1  -3   26.69    0.68
  -2  -1   3   26.67    0.65
  -2  -1   3   29.66    0.66
  -2  -1   3   27.20    0.69
   1   1  -3    3.86    0.23
   1   1  -3    4.03    0.21
  -1  -1   3    3.85    0.20
  -1  -1   3    3.93    0.24
  -1  -1   3    4.11    0.22
   0   1  -3  110.26    1.67
   0   1  -3  109.22    1.78
   0   1  -3  108.46    1.69
   0  -1   3  109.47    1.74
   0  -1   3  106.97    1.80
  -1   1  -3    0.24    0.07
  -1   1  -3    0.24    0.06
  -1   1  -3    0.19    0.08
   1  -1   3    0.20    0.08
   1  -1   3    0.29    0.09
  -2   1  -3  100.72    1.57
  -2   1  -3  100.91    1.69
  -2   1  -3  102.48    1.54
   2  -1   3  100.48    1.68
   2  -1   3  102.25    1.65
  -3   1  -3  404.99    5.83
  -3   1  -3  406.01    5.70
   3  -1   3  411.07    5.69
   3  -1   3  408.01    5.73
  -4   1  -3   15.39    0.52
  -4   1  -3   15.91    0.52
  -4   1  -3   14.89    0.44
   4  -1   3   15.50    0.45
   4  -1   3   15.13    0.40
  -5   1  -3   18.86    0.55
  -5   1  -3   18.01    0.61
   5  -1   3   18.95    0.49
   5  -1   3   17.32    0.54
  -6   1  -3   14.14    0.57
  -6   1  -3   12.80    0.50
   6  -1   3   14.07    0.53
  -7   1  -3    1.03    0.20
  -7   1  -3    0.82    0.18
   7  -1   3    0.87    0.20
  -8   1  -3    2.87    0.31
  -8   1  -3    2.43    0.31
   8  -1   3    2.20    0.29
   7   0  -3    3.79    0.40
  -7   0   3    3.55    0.38
   6   0  -3    3.95    0.37
   6   0  -3    3.29    0.32
  -6   0   3    2.91    0.31
   5   0  -3   73.19    1.57
   5   0  -3   76.58    1.55
  -5   0   3   76.31    1.46
  -5   0   3   74.39    1.55
   4   0  -3   19.83    0.64
   4   0  -3   20.27    0.61
  -4   0   3   20.88    0.64
  -4   0   3   20.77    0.61
   3   0  -3    4.64    0.26
   3   0  -3    4.36    0.27
  -3   0   3    4.68    0.26
  -3   0   3    4.50    0.27
  -3   0   3    5.13    0.27
   2   0  -3    0.18    0.08
   2   0  -3    0.07    0.06
  -2   0   3    0.19    0.08
  -2   0   3    0.09    0.07
  -2   0   3    0.18    0.09
   1   0  -3   17.31    0.45
   1   0  -3   17.61    0.45
  -1   0   3   17.89    0.49
  -1   0   3   17.39    0.46
  -1   0   3   17.29    0.42
   0   0  -3   62.46    1.08
   0   0  -3   62.58    1.04
   0   0   3   62.36    0.99
   0   0   3   62.14    1.08
   0   0   3   62.13    1.12
  -1   0  -3    0.15    0.05
  -1   0  -3    0.07    0.07
  -1   0  -3    0.22    0.07
   1   0   3    0.17    0.08
   1   0   3    0.19    0.08
  -2   0  -3   55.73    0.88
  -2   0  -3   54.54    0.94
  -2   0  -3   56.34    1.02
   2   0   3   55.59    1.01
   2   0   3   56.25    0.97
  -3   0  -3   15.32    0.46
  -3   0  -3   15.20    0.37
   3   0   3   15.16    0.42
   3   0   3   15.84    0.38
  -4   0  -3   54.27    0.98
  -4   0  -3   51.85    1.09
   4   0   3   54.22    1.05
   4   0   3   53.36    0.88
  -5   0  -3   34.68    0.77
  -5   0  -3   33.81    0.87
   5   0   3   33.82    0.83
  -6   0  -3   14.24    0.50
  -6   0  -3   13.86    0.56
   6   0   3   15.63    0.57
  -7   0  -3    1.32    0.20
  -7   0  -3    1.31    0.23
   7   0   3    1.19    0.23
  -8   0  -3    4.83    0.40
  -8   0  -3    4.08    0.33
   8   0   3    4.31    0.37
   7  -1  -3    0.03    0.15
  -7   1   3    0.07    0.12
  -7   1   3    0.00    0.14
   6  -1  -3    1.87    0.28
  -6   1   3    1.96    0.27
   5  -1  -3    7.10    0.42
   5  -1  -3    7.34    0.37
  -5   1   3    7.68    0.36
  -5   1   3    7.84    0.42
   4  -1  -3    0.30    0.12
   4  -1  -3    0.32    0.10
  -4   1   3    0.40    0.12
  -4   1   3    0.26    0.11
   3  -1  -3    0.58    0.12
   3  -1  -3    0.88    0.13
  -3   1   3    0.66    0.13
  -3   1   3    0.87    0.14
  -3   1   3    0.43    0.11
   2  -1  -3    8.11    0.28
   2  -1  -3    7.57    0.31
  -2   1   3    7.70    0.29
  -2   1   3    7.63    0.31
  -2   1   3    8.15    0.33
   1  -1  -3  229.96    3.40
   1  -1  -3  233.80    3.33
  -1   1   3  237.33    3.45
  -1   1   3  235.73    3.34
  -1   1   3  234.04    3.41
   0  -1  -3   23.03    0.50
   0  -1  -3   23.62    0.48
   0   1   3   23.27    0.51
   0   1   3   23.47    0.55
   0   1   3   23.49    0.43
  -1  -1  -3   17.90    0.41
  -1  -1  -3   17.02    0.40
   1   1   3   17.00    0.41
   1   1   3   17.40    0.43
   1   1   3   17.72    0.27
  -2  -1  -3   18.45    0.32
  -2  -1  -3   18.42    0.46
   2   1   3   17.87    0.42
  -3  -1  -3    8.85    0.24
  -3  -1  -3    8.50    0.33
   3   1   3    7.92    0.31
   3   1   3    8.32    0.24
   3   1   3    8.41    0.35
  -4  -1  -3   -0.02    0.05
  -4  -1  -3    0.02    0.06
   4   1   3    0.04    0.08
   4   1   3   -0.01    0.03
  -5  -1  -3    2.80    0.20
  -5  -1  -3    2.66    0.23
   5   1   3    3.02    0.25
  -6  -1  -3   56.98    1.15
  -6  -1  -3   54.95    1.28
   6   1   3   58.96    1.28
  -7  -1  -3    2.98    0.27
  -7  -1  -3    2.74    0.30
   7   1   3    3.15    0.31
  -8  -1  -3    0.51    0.18
  -8  -1  -3    0.56    0.17
   8   1   3    0.83    0.23
  -9  -1  -3    3.36    0.39
   9   1   3    2.17    0.35
   7  -2  -3   11.68    0.62
  -7   2   3   10.57    0.58
   6  -2  -3    0.32    0.16
  -6   2   3    0.30    0.12
  -6   2   3    0.21    0.14
   5  -2  -3    0.23    0.13
  -5   2   3    0.33    0.12
  -5   2   3    0.24    0.10
  -5   2   3    0.25    0.13
   4  -2  -3    1.85    0.16
   4  -2  -3    2.07    0.22
  -4   2   3    2.02    0.20
  -4   2   3    1.66    0.21
  -4   2   3    1.89    0.19
   3  -2  -3   37.34    0.74
   3  -2  -3   37.39    0.86
  -3   2   3   36.93    0.82
  -3   2   3   37.89    0.86
  -3   2   3   36.62    0.82
   2  -2  -3   11.82    0.30
   2  -2  -3   11.39    0.38
  -2   2   3   10.65    0.38
  -2   2   3   11.55    0.39
  -2   2   3   10.60    0.35
   1  -2  -3   85.06    1.43
   1  -2  -3   88.04    1.30
  -1   2   3   88.17    1.45
  -1   2   3   88.09    1.48
  -1   2   3   86.90    1.37
   0  -2  -3   98.05    1.43
   0   2   3   97.90    1.52
   0   2   3   95.98    1.58
   0   2   3   96.82    1.42
  -1  -2  -3   58.86    1.02
  -1  -2  -3   59.86    0.97
  -1  -2  -3   60.71    0.84
   1   2   3   60.20    0.84
   1   2   3   60.53    1.04
   1   2   3   58.66    0.98
  -2  -2  -3    9.09    0.18
   2   2   3    9.16    0.28
   2   2   3    8.88    0.31
  -3  -2  -3    5.96    0.27
  -3  -2  -3    6.00    0.19
   3   2   3    6.72    0.21
   3   2   3    6.01    0.28
   3   2   3    6.17    0.23
  -4  -2  -3   62.12    1.07
  -4  -2  -3   62.35    1.23
   4   2   3   63.59    0.95
   4   2   3   61.31    1.22
   4   2   3   63.71    1.13
  -5  -2  -3    0.06    0.07
  -5  -2  -3   -0.05    0.07
   5   2   3    0.12    0.11
  -6  -2  -3   16.70    0.62
  -6  -2  -3   16.47    0.52
   6   2   3   15.93    0.61
  -7  -2  -3    2.78    0.26
  -7  -2  -3    2.98    0.31
   7   2   3    3.28    0.32
  -8  -2  -3   -0.07    0.10
  -8  -2  -3    0.28    0.13
   8   2   3    0.02    0.14
   7  -3  -3    6.16    0.48
  -7   3   3    4.95    0.42
   6  -3  -3    7.13    0.45
  -6   3   3    7.35    0.45
   5  -3  -3    0.68    0.18
  -5   3   3    1.06    0.15
  -5   3   3    0.89    0.17
  -5   3   3    0.88    0.19
   4  -3  -3    1.02    0.18
  -4   3   3    1.30    0.13
  -4   3   3    1.15    0.17
  -4   3   3    1.49    0.20
  -4   3   3    1.19    0.20
   3  -3  -3    1.07    0.16
  -3   3   3    0.90    0.14
  -3   3   3    1.09    0.10
  -3   3   3    1.01    0.16
  -3   3   3    1.00    0.16
   2  -3  -3   67.15    1.21
  -2   3   3   68.41    1.27
  -2   3   3   64.48    1.19
  -2   3   3   66.86    1.24
   1  -3  -3  280.21    4.06
   1  -3  -3  282.62    3.80
  -1   3   3  275.91    4.14
  -1   3   3  300.86    3.81
  -1   3   3  278.28    4.01
  -1   3   3  277.13    4.06
   0  -3  -3   90.77    1.45
   0  -3  -3   91.52    1.28
   0   3   3   89.90    1.37
   0   3   3   87.73    1.52
   0   3   3   88.00    1.41
  -1  -3  -3  175.51    2.51
  -1  -3  -3  177.22    2.61
   1   3   3  173.90    2.51
   1   3   3  179.32    2.48
   1   3   3  174.80    2.65
  -2  -3  -3  109.24    1.72
   2   3   3  110.03    1.74
   2   3   3  110.56    1.78
  -3  -3  -3    1.43    0.15
  -3  -3  -3    1.36    0.11
   3   3   3    1.15    0.15
   3   3   3    1.23    0.12
  -4  -3  -3   58.36    1.04
  -4  -3  -3   58.44    1.17
   4   3   3   59.04    1.03
   4   3   3   58.99    0.96
   4   3   3   57.21    1.19
  -5  -3  -3   12.41    0.41
  -5  -3  -3   12.65    0.49
   5   3   3   12.39    0.51
  -6  -3  -3    5.07    0.30
  -6  -3  -3    4.47    0.34
   6   3   3    4.69    0.35
  -7  -3  -3    3.39    0.33
  -7  -3  -3    3.44    0.28
   7   3   3    3.25    0.34
  -8  -3  -3    0.51    0.16
  -8  -3  -3    0.39    0.18
   8   3   3    0.53    0.20
   7  -4  -3    0.62    0.23
  -7   4   3    0.32    0.18
   6  -4  -3   11.68    0.57
  -6   4   3   11.92    0.58
   5  -4  -3    6.14    0.39
  -5   4   3    6.41    0.36
  -5   4   3    5.45    0.37
   4  -4  -3    8.15    0.39
  -4   4   3    8.30    0.40
  -4   4   3    8.88    0.40
  -4   4   3    8.91    0.43
   3  -4  -3    6.77    0.33
  -3   4   3    7.82    0.36
  -3   4   3    6.92    0.35
  -3   4   3    6.87    0.35
  -3   4   3    6.78    0.20
   2  -4  -3   14.50    0.44
  -2   4   3   14.88    0.47
  -2   4   3   14.50    0.50
  -2   4   3   15.16    0.46
   1  -4  -3    4.12    0.21
  -1   4   3    4.07    0.21
  -1   4   3    3.92    0.21
  -1   4   3    4.52    0.27
   0  -4  -3    6.04    0.25
   0  -4  -3    6.49    0.15
   0   4   3    5.68    0.28
   0   4   3    5.77    0.22
   0   4   3    6.01    0.23
  -1  -4  -3    2.40    0.13
  -1  -4  -3    2.09    0.16
   1   4   3    1.95    0.17
   1   4   3    2.12    0.14
   1   4   3    2.28    0.11
  -2  -4  -3   27.56    0.60
   2   4   3   27.96    0.66
   2   4   3   28.59    0.57
   2   4   3   27.32    0.65
  -3  -4  -3   12.76    0.42
  -3  -4  -3   14.02    0.38
   3   4   3   12.85    0.45
   3   4   3   13.09    0.40
  -4  -4  -3   11.30    0.44
  -4  -4  -3   11.29    0.37
   4   4   3   11.52    0.31
   4   4   3   12.43    0.37
   4   4   3   11.37    0.46
  -5  -4  -3   29.04    0.82
  -5  -4  -3   29.36    0.72
   5   4   3   28.81    0.83
  -6  -4  -3    3.44    0.26
  -6  -4  -3    3.96    0.32
   6   4   3    3.34    0.32
  -7  -4  -3   -0.02    0.10
  -7  -4  -3   -0.12    0.09
   7   4   3   -0.07    0.12
  -8  -4  -3    0.15    0.13
  -8  -4  -3    0.33    0.15
   8   4   3    0.08    0.16
   7  -5  -3    0.33    0.19
  -7   5   3    0.57    0.20
   6  -5  -3    4.86    0.38
  -6   5   3    5.12    0.42
   5  -5  -3    1.45    0.23
  -5   5   3    1.48    0.25
  -5   5   3    1.66    0.24
  -5   5   3    1.66    0.26
   4  -5  -3    0.07    0.09
  -4   5   3   -0.03    0.11
  -4   5   3    0.09    0.11
  -4   5   3    0.22    0.13
   3  -5  -3    5.00    0.28
  -3   5   3    5.06    0.33
  -3   5   3    4.68    0.31
  -3   5   3    4.47    0.30
   2  -5  -3    3.25    0.21
  -2   5   3    3.65    0.25
  -2   5   3    3.48    0.24
  -2   5   3    3.10    0.26
   1  -5  -3    0.14    0.07
  -1   5   3    0.16    0.08
  -1   5   3    0.03    0.08
  -1   5   3    0.14    0.07
   0  -5  -3   20.69    0.51
   0  -5  -3   21.73    0.40
   0   5   3   20.90    0.53
   0   5   3   21.11    0.48
   0   5   3   21.26    0.63
  -1  -5  -3    0.02    0.05
   1   5   3    0.08    0.04
   1   5   3    0.05    0.05
   1   5   3    0.05    0.06
   1   5   3    0.04    0.07
   2   5   3   11.78    0.37
   2   5   3   11.82    0.39
   2   5   3   11.84    0.43
   3   5   3   32.74    0.77
   3   5   3   32.13    0.73
   3   5   3   34.00    0.81
  -4  -5  -3    0.85    0.14
  -4  -5  -3    0.81    0.15
   4   5   3    0.85    0.15
   4   5   3    0.98    0.18
   4   5   3    0.88    0.09
  -5  -5  -3   96.51    1.73
  -5  -5  -3   96.22    1.85
   5   5   3   95.75    1.87
  -6  -5  -3   15.77    0.65
  -6  -5  -3   15.97    0.58
   6   5   3   14.98    0.64
  -7  -5  -3    5.62    0.43
  -7  -5  -3    5.50    0.38
   7   5   3    6.24    0.46
  -8  -5  -3    2.97    0.36
  -8  -5  -3    2.60    0.31
   8   5   3    2.83    0.37
   6  -6  -3    1.11    0.24
  -6   6   3    1.18    0.27
   5  -6  -3    5.30    0.36
  -5   6   3    5.63    0.40
  -5   6   3    5.68    0.43
  -5   6   3    6.33    0.44
   4  -6  -3   12.51    0.48
  -4   6   3   13.10    0.56
  -4   6   3   12.77    0.57
  -4   6   3   12.47    0.57
   3  -6  -3   24.71    0.65
  -3   6   3   23.83    0.78
  -3   6   3   23.50    0.73
  -3   6   3   23.07    0.73
   2  -6  -3   18.93    0.52
  -2   6   3   18.79    0.60
  -2   6   3   19.96    0.61
  -2   6   3   19.60    0.68
   1  -6  -3    0.71    0.12
  -1   6   3    0.88    0.16
  -1   6   3    0.53    0.12
  -1   6   3    0.59    0.16
   0  -6  -3   11.92    0.38
   0   6   3   12.62    0.44
   0   6   3   13.10    0.32
   0   6   3   12.92    0.52
   0   6   3   11.88    0.36
  -1  -6  -3    1.47    0.15
   1   6   3    1.55    0.19
   1   6   3    1.52    0.14
   1   6   3    1.29    0.16
   1   6   3    1.35    0.11
  -2  -6  -3    1.06    0.14
   2   6   3    0.68    0.15
   2   6   3    0.97    0.06
   2   6   3    0.74    0.13
   2   6   3    1.14    0.15
   3   6   3   30.08    0.78
   3   6   3   30.52    0.80
   3   6   3   29.73    0.74
   3   6   3   29.63    0.78
  -4  -6  -3    9.41    0.40
   4   6   3    9.58    0.46
   4   6   3   10.57    0.47
   4   6   3    9.58    0.22
  -5  -6  -3   47.03    1.08
  -5  -6  -3   47.23    1.16
   5   6   3   48.05    1.19
  -6  -6  -3    1.02    0.19
  -6  -6  -3    0.72    0.18
   6   6   3    0.68    0.20
  -7  -6  -3    1.17    0.23
  -7  -6  -3    1.24    0.25
   7   6   3    1.55    0.29
  -6   7   3    0.73    0.24
  -5   7   3    2.26    0.30
  -5   7   3    2.32    0.32
  -5   7   3    1.97    0.32
  -4   7   3   15.10    0.66
  -4   7   3   15.30    0.66
  -4   7   3   14.49    0.64
  -3   7   3   13.20    0.56
  -3   7   3   12.75    0.60
  -3   7   3   12.61    0.55
   2  -7  -3   14.16    0.44
  -2   7   3   14.99    0.55
  -2   7   3   13.68    0.61
  -2   7   3   13.38    0.55
   1  -7  -3   14.48    0.43
  -1   7   3   15.02    0.55
  -1   7   3   14.22    0.48
   0  -7  -3   13.93    0.41
   0   7   3   12.25    0.56
   0   7   3   13.32    0.41
   0   7   3   14.23    0.52
  -1  -7  -3    3.32    0.21
   1   7   3    3.52    0.30
   1   7   3    3.25    0.26
   1   7   3    3.15    0.21
   1   7   3    2.87    0.16
  -2  -7  -3   44.99    0.95
   2   7   3   45.90    0.99
   2   7   3   44.98    1.02
   2   7   3   45.28    0.73
   2   7   3   44.36    1.12
   3   7   3   37.26    0.91
   3   7   3   35.02    0.89
   3   7   3   35.53    0.92
   3   7   3   37.02    0.98
  -4  -7  -3    1.75    0.22
  -4  -7  -3    1.65    0.21
   4   7   3    1.93    0.24
   4   7   3    2.30    0.27
   4   7   3    1.87    0.08
  -5  -7  -3   10.12    0.47
   5   7   3   10.14    0.52
  -6  -7  -3    0.89    0.20
  -6  -7  -3    1.06    0.23
   6   7   3    1.07    0.25
  -5   8   3   13.85    0.70
  -5   8   3   13.17    0.71
  -5   8   3   15.60    0.73
  -4   8   3   36.24    1.10
  -4   8   3   34.90    1.11
  -4   8   3   33.99    1.06
  -3   8   3    1.66    0.29
  -3   8   3    2.02    0.28
  -3   8   3    1.64    0.26
  -2   8   3    0.09    0.12
  -2   8   3    0.02    0.12
  -2   8   3    0.24    0.12
  -1   8   3    7.44    0.48
  -1   8   3    7.18    0.42
  -1   8   3    6.99    0.36
   0   8   3    3.57    0.35
   0   8   3    2.81    0.22
   0   8   3    3.38    0.29
   1   8   3    1.14    0.23
   1   8   3    1.31    0.21
   1   8   3    1.45    0.15
  -2  -8  -3    0.70    0.14
   2   8   3    0.62    0.10
   2   8   3    0.66    0.20
   2   8   3    0.59    0.16
   2   8   3    0.77    0.16
  -3  -8  -3    3.22    0.25
   3   8   3    3.24    0.29
   3   8   3    3.29    0.12
   3   8   3    3.51    0.30
  -4  -8  -3    2.12    0.26
  -4  -8  -3    1.75    0.24
   4   8   3    2.18    0.27
   4   8   3    2.20    0.27
   4   8   3    2.26    0.10
  -5  -8  -3   16.32    0.64
   5   8   3   16.43    0.71
   5   8   3   14.98    0.66
  -6  -8  -3    0.23    0.16
  -6  -8  -3    0.49    0.18
   6   8   3   -0.01    0.16
  -4   9   3    0.21    0.18
  -4   9   3    0.39    0.20
  -4   9   3    0.50    0.22
  -3   9   3    0.17    0.17
  -3   9   3    0.11    0.16
  -3   9   3    0.00    0.13
  -2   9   3   14.32    0.65
  -2   9   3   14.00    0.72
  -2   9   3   13.57    0.59
  -1   9   3   -0.09    0.10
  -1   9   3    0.00    0.09
  -1   9   3   -0.08    0.14
   0   9   3    0.14    0.15
   0   9   3    0.02    0.12
   0   9   3    0.12    0.10
   1   9   3    4.25    0.25
   1   9   3    4.12    0.40
   1   9   3    3.91    0.34
   2   9   3    4.34    0.21
   2   9   3    4.78    0.37
  -3  -9  -3    0.40    0.18
   3   9   3    0.54    0.19
   3   9   3    0.60    0.09
  -4  -9  -3    6.14    0.42
  -4  -9  -3    6.77    0.47
   4   9   3    6.25    0.45
  -2  10   3    6.16    0.44
  -2  10   3    5.61    0.47
  -2  10   3    5.80    0.53
  -1  10   3   21.11    0.94
  -1  10   3   20.63    0.73
  -1  10   3   19.39    0.80
   0  10   3    1.89    0.30
   0  10   3    1.99    0.35
   0  10   3    1.81    0.23
   1  10   3    0.06    0.09
   1  10   3   -0.06    0.14
  -2 -10  -3    2.22    0.34
   2  10   3    2.27    0.31
   2  10   3    2.12    0.18
  -3 -10  -3    0.22    0.17
   3  10   3   -0.09    0.13
   1   7  -4    0.83    0.24
   0   7  -4    3.15    0.39
   0   7  -4    2.90    0.37
   0  -7   4    2.96    0.41
  -1   7  -4    2.69    0.34
  -1   7  -4    2.77    0.37
   1  -7   4    3.01    0.41
  -2   7  -4   -0.07    0.14
  -2   7  -4   -0.18    0.12
   2  -7   4    0.20    0.19
  -3   7  -4    2.34    0.33
  -3   7  -4    2.29    0.33
   3  -7   4    2.30    0.38
   3   6  -4    2.09    0.35
  -3  -6   4    2.36    0.37
  -3  -6   4    2.04    0.32
   2   6  -4   14.67    0.72
  -2  -6   4   15.68    0.77
  -2  -6   4   14.21    0.67
   1   6  -4    0.71    0.22
   1   6  -4    0.66    0.21
  -1  -6   4    0.79    0.25
   0   6  -4   25.05    0.88
   0   6  -4   23.33    0.88
   0  -6   4   26.29    0.98
  -1   6  -4    2.59    0.31
  -1   6  -4    1.94    0.30
   1  -6   4    2.10    0.34
  -2   6  -4    8.08    0.50
  -2   6  -4    7.49    0.47
   2  -6   4    7.91    0.54
  -3   6  -4    2.44    0.31
  -3   6  -4    2.31    0.32
   3  -6   4    2.62    0.35
  -4   6  -4    9.11    0.52
  -4   6  -4    8.43    0.52
   4  -6   4    8.04    0.54
  -5   6  -4    0.66    0.22
  -5   6  -4    0.80    0.23
   5  -6   4    1.15    0.28
   4   5  -4    3.98    0.43
  -4  -5   4    3.85    0.41
  -4  -5   4    2.79    0.35
   3   5  -4    5.90    0.47
  -3  -5   4    5.78    0.47
  -3  -5   4    5.85    0.44
   2   5  -4   25.74    0.93
  -2  -5   4   29.65    1.00
  -2  -5   4   27.43    0.89
   1   5  -4    3.24    0.31
   1   5  -4    3.95    0.37
  -1  -5   4    4.14    0.39
   0   5  -4   10.13    0.54
   0   5  -4    9.19    0.49
   0  -5   4    9.89    0.56
  -1   5  -4    5.31    0.39
  -1   5  -4    5.38    0.38
   1  -5   4    5.47    0.43
  -2   5  -4    1.87    0.25
  -2   5  -4    1.98    0.28
   2  -5   4    2.08    0.28
  -3   5  -4    6.23    0.42
  -3   5  -4    6.49    0.40
   3  -5   4    5.44    0.42
  -4   5  -4    4.80    0.37
  -4   5  -4    3.67    0.35
   4  -5   4    4.88    0.40
  -5   5  -4    1.50    0.28
  -5   5  -4    0.97    0.22
   5  -5   4    1.36    0.25
  -6   5  -4    2.45    0.32
  -6   5  -4    2.53    0.33
   5   4  -4    8.47    0.52
   5   4  -4    8.86    0.59
  -5  -4   4    8.72    0.55
  -5  -4   4    8.98    0.77
   4   4  -4    2.06    0.32
   4   4  -4    1.69    0.25
  -4  -4   4    1.59    0.29
  -4  -4   4    1.75    0.28
   3   4  -4    7.59    0.40
   3   4  -4    6.71    0.46
  -3  -4   4    7.09    0.44
  -3  -4   4    7.44    0.48
   2   4  -4   21.65    0.78
  -2  -4   4   21.41    0.80
  -2  -4   4   20.75    0.71
   1   4  -4   20.58    0.74
   1   4  -4   20.76    0.70
  -1  -4   4   20.80    0.76
   0   4  -4    1.10    0.22
   0   4  -4    0.97    0.18
   0  -4   4    0.85    0.21
  -1   4  -4    1.81    0.24
  -1   4  -4    2.08    0.24
   1  -4   4    2.40    0.29
  -2   4  -4    0.45    0.15
  -2   4  -4    0.44    0.14
   2  -4   4    0.44    0.17
  -3   4  -4    8.54    0.41
  -3   4  -4    7.92    0.44
   3  -4   4    9.27    0.48
  -4   4  -4   26.47    0.84
  -4   4  -4   26.45    0.79
   4  -4   4   27.15    0.84
  -5   4  -4    9.18    0.50
  -5   4  -4    9.07    0.47
   5  -4   4    9.28    0.47
  -6   4  -4    5.13    0.41
  -6   4  -4    5.47    0.39
  -7   4  -4   12.60    0.62
  -7   4  -4   11.17    0.62
   5   3  -4    1.83    0.31
   5   3  -4    2.16    0.31
  -5  -3   4    1.71    0.30
  -5  -3   4    2.63    0.33
   4   3  -4    3.31    0.32
   4   3  -4    3.29    0.34
  -4  -3   4    3.78    0.36
  -4  -3   4    3.62    0.34
   3   3  -4   18.26    0.70
   3   3  -4   18.61    0.62
  -3  -3   4   17.56    0.65
  -3  -3   4   17.63    0.69
   2   3  -4    0.82    0.19
   2   3  -4    0.82    0.15
  -2  -3   4    0.71    0.17
  -2  -3   4    0.85    0.21
   1   3  -4    3.62    0.23
   1   3  -4    3.44    0.30
   1   3  -4    3.89    0.28
  -1  -3   4    3.32    0.31
   0   3  -4   11.81    0.46
   0   3  -4   11.51    0.49
   0   3  -4   11.93    0.35
   0  -3   4   10.65    0.49
  -1   3  -4    2.31    0.21
  -1   3  -4    2.04    0.23
  -1   3  -4    2.09    0.14
   1  -3   4    1.77    0.24
  -2   3  -4    6.43    0.33
  -2   3  -4    6.14    0.35
   2  -3   4    6.38    0.37
  -3   3  -4    9.79    0.46
  -3   3  -4    9.89    0.41
   3  -3   4   10.74    0.47
  -4   3  -4   11.65    0.52
  -4   3  -4   13.34    0.50
   4  -3   4   13.06    0.52
  -5   3  -4    0.21    0.12
  -5   3  -4    0.16    0.12
   5  -3   4    0.14    0.11
  -6   3  -4   24.28    0.78
  -6   3  -4   25.83    0.88
  -7   3  -4    3.93    0.39
  -7   3  -4    3.41    0.34
   6   2  -4    0.80    0.23
   6   2  -4    0.81    0.24
  -6  -2   4    0.45    0.18
   5   2  -4    0.30    0.16
   5   2  -4    0.41    0.17
  -5  -2   4    0.65    0.19
  -5  -2   4    0.36    0.18
   4   2  -4    0.50    0.18
   4   2  -4    0.20    0.14
  -4  -2   4    0.36    0.15
  -4  -2   4    0.09    0.12
   3   2  -4   34.41    0.89
   3   2  -4   35.28    0.96
  -3  -2   4   34.53    0.91
  -3  -2   4   34.47    0.94
   2   2  -4    0.54    0.13
   2   2  -4    0.45    0.14
  -2  -2   4    0.32    0.14
  -2  -2   4    0.17    0.10
   1   2  -4   45.84    1.06
   1   2  -4   48.07    0.95
  -1  -2   4   47.39    1.00
  -1  -2   4   46.73    1.09
   0   2  -4    9.28    0.36
   0   2  -4    9.76    0.32
   0   2  -4    9.53    0.41
   0  -2   4    9.72    0.38
   0  -2   4    9.87    0.44
  -1   2  -4   19.50    0.60
  -1   2  -4   19.19    0.45
  -1   2  -4   20.14    0.54
   1  -2   4   19.58    0.57
   1  -2   4   19.13    0.61
  -2   2  -4    3.06    0.20
  -2   2  -4    2.98    0.25
  -2   2  -4    3.31    0.16
   2  -2   4    2.86    0.23
   2  -2   4    2.54    0.23
  -3   2  -4    1.14    0.19
  -3   2  -4    1.17    0.12
  -3   2  -4    0.81    0.14
   3  -2   4    1.03    0.18
  -4   2  -4  111.14    1.89
  -4   2  -4  110.47    2.03
  -4   2  -4  113.68    1.78
   4  -2   4  110.52    2.03
   4  -2   4  112.98    1.93
  -5   2  -4   28.56    0.75
  -5   2  -4   27.59    0.84
   5  -2   4   29.26    0.70
   5  -2   4   27.90    0.71
  -6   2  -4    2.42    0.26
  -6   2  -4    3.47    0.33
   6  -2   4    2.75    0.25
  -7   2  -4    1.12    0.21
  -7   2  -4    0.91    0.21
  -8   2  -4    0.93    0.24
  -8   2  -4    0.69    0.21
   6   1  -4    6.38    0.46
   6   1  -4    5.60    0.45
  -6  -1   4    5.75    0.44
   5   1  -4   10.13    0.53
   5   1  -4   10.56    0.52
  -5  -1   4    9.45    0.48
  -5  -1   4    8.95    0.49
   4   1  -4   12.95    0.55
   4   1  -4   12.73    0.55
  -4  -1   4   13.60    0.56
  -4  -1   4   13.14    0.55
   3   1  -4   88.07    1.68
   3   1  -4   85.60    1.64
  -3  -1   4   85.94    1.69
  -3  -1   4   87.78    1.63
   2   1  -4   45.01    0.97
   2   1  -4   44.53    1.01
  -2  -1   4   45.86    1.05
  -2  -1   4   44.80    0.97
   1   1  -4   73.60    1.31
   1   1  -4   75.03    1.40
  -1  -1   4   72.97    1.32
  -1  -1   4   72.90    1.35
  -1  -1   4   74.91    1.44
   0   1  -4   16.96    0.45
   0   1  -4   16.86    0.45
   0   1  -4   16.16    0.51
   0  -1   4   18.49    0.51
   0  -1   4   16.22    0.54
  -1   1  -4   11.99    0.34
  -1   1  -4   11.60    0.42
  -1   1  -4   11.54    0.34
   1  -1   4   11.52    0.43
   1  -1   4   11.36    0.40
  -2   1  -4   17.13    0.53
  -2   1  -4   17.59    0.43
  -2   1  -4   17.14    0.43
   2  -1   4   17.12    0.52
   2  -1   4   17.89    0.53
  -3   1  -4    3.08    0.24
  -3   1  -4    2.37    0.17
  -3   1  -4    2.70    0.17
   3  -1   4    2.70    0.21
   3  -1   4    2.72    0.22
  -4   1  -4   23.18    0.68
  -4   1  -4   22.33    0.56
   4  -1   4   23.20    0.58
   4  -1   4   23.09    0.59
  -5   1  -4    3.81    0.30
  -5   1  -4    3.96    0.25
   5  -1   4    3.25    0.24
   5  -1   4    4.04    0.23
  -6   1  -4    6.45    0.41
  -6   1  -4    6.97    0.36
   6  -1   4    7.07    0.38
  -7   1  -4    1.94    0.28
  -7   1  -4    2.98    0.28
   7  -1   4    2.24    0.27
  -8   1  -4    3.77    0.35
  -8   1  -4    3.83    0.39
   8  -1   4    3.45    0.35
   7   0  -4    1.30    0.29
   7   0  -4    1.64    0.28
  -7   0   4    1.31    0.27
   6   0  -4    0.69    0.19
   6   0  -4    0.66    0.21
  -6   0   4    0.55    0.19
   5   0  -4    3.25    0.32
   5   0  -4    2.17    0.26
  -5   0   4    2.81    0.30
  -5   0   4    2.39    0.26
   4   0  -4   14.68    0.58
   4   0  -4   16.67    0.58
  -4   0   4   15.23    0.58
  -4   0   4   14.76    0.56
   3   0  -4   79.36    1.49
   3   0  -4   79.42    1.52
  -3   0   4   79.07    1.50
  -3   0   4   78.79    1.53
   2   0  -4   45.08    0.97
   2   0  -4   44.30    0.95
  -2   0   4   45.06    1.00
  -2   0   4   43.93    0.92
  -2   0   4   44.87    0.96
   1   0  -4    2.57    0.19
   1   0  -4    2.56    0.19
  -1   0   4    2.92    0.18
  -1   0   4    2.69    0.20
  -1   0   4    2.60    0.22
   0   0  -4  191.44    2.88
   0   0  -4  190.24    2.83
   0   0   4  191.16    2.76
   0   0   4  186.40    2.94
   0   0   4  189.67    2.89
  -1   0  -4    2.86    0.17
  -1   0  -4    3.03    0.14
  -1   0  -4    3.03    0.21
   1   0   4    2.99    0.20
   1   0   4    2.90    0.20
  -2   0  -4   54.03    1.06
  -2   0  -4   55.23    0.89
  -2   0  -4   53.64    0.97
   2   0   4   54.06    1.04
   2   0   4   54.67    1.06
  -3   0  -4    5.80    0.21
  -3   0  -4    6.57    0.31
  -3   0  -4    5.53    0.24
   3   0   4    5.94    0.30
   3   0   4    5.89    0.26
  -4   0  -4    0.87    0.12
  -4   0  -4    0.70    0.14
   4   0   4    0.83    0.12
   4   0   4    0.81    0.14
  -5   0  -4    0.48    0.13
  -5   0  -4    0.29    0.09
   5   0   4    0.32    0.12
  -6   0  -4    2.66    0.27
  -6   0  -4    3.31    0.25
   6   0   4    3.06    0.28
  -7   0  -4    5.35    0.39
  -7   0  -4    5.19    0.34
   7   0   4    6.09    0.40
  -8   0  -4    7.38    0.44
  -8   0  -4    7.43    0.49
   8   0   4    8.32    0.50
   7  -1  -4    2.51    0.37
  -7   1   4    2.68    0.35
   6  -1  -4    1.77    0.30
   6  -1  -4    2.38    0.27
  -6   1   4    1.70    0.28
   5  -1  -4    1.90    0.27
   5  -1  -4    2.18    0.25
  -5   1   4    2.13    0.25
  -5   1   4    2.20    0.27
   4  -1  -4    1.92    0.21
   4  -1  -4    1.56    0.22
  -4   1   4    1.91    0.23
  -4   1   4    1.62    0.21
   3  -1  -4   20.37    0.57
   3  -1  -4   19.38    0.62
  -3   1   4   20.66    0.63
  -3   1   4   21.23    0.62
  -3   1   4   20.44    0.60
   2  -1  -4  100.35    1.74
   2  -1  -4   97.99    1.66
  -2   1   4  101.20    1.74
  -2   1   4   99.80    1.68
  -2   1   4   99.92    1.77
   1  -1  -4   52.07    1.01
   1  -1  -4   52.67    0.97
  -1   1   4   51.72    1.07
  -1   1   4   51.71    1.02
  -1   1   4   52.11    0.94
   0  -1  -4  112.48    1.81
   0  -1  -4  115.21    1.80
   0   1   4  115.05    1.69
   0   1   4  111.91    1.84
   0   1   4  114.44    1.90
  -1  -1  -4   17.12    0.44
  -1  -1  -4   17.39    0.45
   1   1   4   16.43    0.48
   1   1   4   16.50    0.46
   1   1   4   17.44    0.32
  -2  -1  -4   -0.03    0.05
  -2  -1  -4    0.00    0.03
  -2  -1  -4   -0.04    0.05
   2   1   4    0.05    0.07
   2   1   4   -0.03    0.06
  -3  -1  -4   11.25    0.40
  -3  -1  -4   11.52    0.26
   3   1   4   11.48    0.35
  -4  -1  -4   19.80    0.45
  -4  -1  -4   19.37    0.59
   4   1   4   19.12    0.56
   4   1   4   19.31    0.45
  -5  -1  -4    1.08    0.17
  -5  -1  -4    0.83    0.12
   5   1   4    0.74    0.15
  -6  -1  -4    0.54    0.17
  -6  -1  -4    0.48    0.12
   6   1   4    0.59    0.17
  -7  -1  -4    6.88    0.45
  -7  -1  -4    7.24    0.37
   7   1   4    7.73    0.45
  -8  -1  -4    7.48    0.51
  -8  -1  -4    7.92    0.53
   8   1   4    6.89    0.47
   7  -2  -4    3.33    0.39
  -7   2   4    3.61    0.38
   6  -2  -4    0.76    0.21
  -6   2   4    0.56    0.18
   5  -2  -4    0.11    0.09
   5  -2  -4    0.06    0.12
  -5   2   4    0.01    0.09
  -5   2   4   -0.02    0.09
   4  -2  -4    1.31    0.21
   4  -2  -4    1.91    0.19
  -4   2   4    1.03    0.18
  -4   2   4    1.51    0.20
   3  -2  -4   10.09    0.35
   3  -2  -4    9.87    0.42
  -3   2   4    9.95    0.40
  -3   2   4   10.10    0.43
  -3   2   4   10.07    0.42
   2  -2  -4   26.31    0.68
   2  -2  -4   26.48    0.58
  -2   2   4   28.48    0.72
  -2   2   4   27.46    0.70
  -2   2   4   27.28    0.64
   1  -2  -4   23.87    0.60
   1  -2  -4   23.33    0.50
  -1   2   4   23.90    0.63
  -1   2   4   22.32    0.58
  -1   2   4   24.02    0.52
   0  -2  -4  417.08    5.93
   0  -2  -4  422.08    5.96
   0   2   4  415.49    6.03
   0   2   4  428.86    5.96
   0   2   4  432.49    5.83
  -1  -2  -4    3.11    0.19
  -1  -2  -4    2.79    0.16
   1   2   4    2.83    0.07
   1   2   4    2.49    0.19
   1   2   4    2.68    0.17
  -2  -2  -4    2.51    0.17
  -2  -2  -4    2.60    0.18
   2   2   4    2.46    0.18
   2   2   4    2.97    0.18
  -3  -2  -4  243.20    3.62
  -3  -2  -4  245.21    3.34
   3   2   4  241.01    3.63
   3   2   4  241.65    3.51
  -4  -2  -4   19.73    0.43
   4   2   4   19.37    0.53
   4   2   4   19.04    0.43
   4   2   4   17.75    0.57
  -5  -2  -4   22.46    0.54
  -5  -2  -4   21.43    0.68
   5   2   4   21.67    0.68
  -6  -2  -4    3.28    0.23
  -6  -2  -4    3.38    0.30
   6   2   4    3.64    0.31
  -7  -2  -4    1.02    0.21
  -7  -2  -4    1.23    0.19
   7   2   4    0.98    0.22
  -8  -2  -4    0.16    0.15
   8   2   4   -0.08    0.13
   7  -3  -4    6.48    0.51
  -7   3   4    7.00    0.50
   6  -3  -4    3.09    0.35
  -6   3   4    2.57    0.31
   5  -3  -4   25.99    0.83
  -5   3   4   23.76    0.74
  -5   3   4   24.84    0.79
   4  -3  -4   12.59    0.52
  -4   3   4   12.93    0.50
  -4   3   4   13.25    0.55
  -4   3   4   12.69    0.51
   3  -3  -4    2.33    0.23
   3  -3  -4    2.57    0.15
  -3   3   4    2.42    0.23
  -3   3   4    2.31    0.22
  -3   3   4    2.10    0.20
   2  -3  -4  126.53    2.07
   2  -3  -4  123.77    1.82
  -2   3   4  123.05    2.10
  -2   3   4  121.04    2.07
  -2   3   4  124.18    1.99
   1  -3  -4   13.33    0.42
   1  -3  -4   12.92    0.29
  -1   3   4   12.96    0.36
  -1   3   4   13.11    0.43
  -1   3   4   12.75    0.45
   0  -3  -4    4.35    0.22
   0  -3  -4    4.56    0.16
   0   3   4    4.18    0.21
   0   3   4    4.05    0.24
   0   3   4    4.02    0.16
  -1  -3  -4    2.56    0.18
  -1  -3  -4    2.60    0.14
   1   3   4    2.84    0.10
   1   3   4    2.62    0.16
   1   3   4    2.53    0.19
  -2  -3  -4   12.90    0.37
  -2  -3  -4   12.98    0.23
   2   3   4   12.87    0.35
   2   3   4   13.25    0.41
  -3  -3  -4   45.61    0.94
  -3  -3  -4   46.89    0.74
   3   3   4   46.31    0.88
   3   3   4   45.36    0.98
  -4  -3  -4    7.36    0.35
  -4  -3  -4    8.20    0.26
   4   3   4    7.79    0.27
   4   3   4    7.71    0.37
   4   3   4    8.13    0.31
  -5  -3  -4    6.32    0.27
  -5  -3  -4    5.87    0.35
   5   3   4    5.82    0.36
  -6  -3  -4    5.04    0.36
  -6  -3  -4    5.22    0.28
   6   3   4    5.01    0.37
  -7  -3  -4    0.00    0.09
  -7  -3  -4   -0.06    0.10
   7   3   4    0.11    0.14
  -8  -3  -4   -0.05    0.11
   8   3   4    0.01    0.14
  -7   4   4    1.13    0.26
   6  -4  -4    9.64    0.55
  -6   4   4   10.05    0.55
   5  -4  -4    0.94    0.21
  -5   4   4    1.01    0.20
  -5   4   4    0.84    0.19
   4  -4  -4    5.17    0.34
  -4   4   4    5.49    0.34
  -4   4   4    5.13    0.36
  -4   4   4    5.31    0.34
   3  -4  -4   13.55    0.50
  -3   4   4   13.29    0.51
  -3   4   4   13.72    0.52
  -3   4   4   12.81    0.47
   2  -4  -4    0.14    0.09
  -2   4   4    0.03    0.09
  -2   4   4    0.10    0.02
  -2   4   4    0.13    0.09
  -2   4   4    0.04    0.08
   1  -4  -4   64.77    1.20
  -1   4   4   64.31    1.29
  -1   4   4   63.03    1.13
  -1   4   4   64.16    1.20
   0  -4  -4    0.08    0.07
   0  -4  -4    0.03    0.03
   0   4   4    0.06    0.07
   0   4   4    0.13    0.06
   0   4   4    0.12    0.07
  -1  -4  -4    0.60    0.08
  -1  -4  -4    0.51    0.11
   1   4   4    0.58    0.08
   1   4   4    0.33    0.11
   1   4   4    0.70    0.10
  -2  -4  -4    0.43    0.11
  -2  -4  -4    0.31    0.08
   2   4   4    0.30    0.06
   2   4   4    0.37    0.10
   2   4   4    0.39    0.07
  -3  -4  -4   27.59    0.54
  -3  -4  -4   27.71    0.67
   3   4   4   27.46    0.72
   3   4   4   27.46    0.65
  -4  -4  -4    6.78    0.25
  -4  -4  -4    6.47    0.33
   4   4   4    6.41    0.27
   4   4   4    6.36    0.35
   4   4   4    6.47    0.25
  -5  -4  -4    9.97    0.46
  -5  -4  -4   10.19    0.36
   5   4   4    9.54    0.47
  -6  -4  -4   37.83    1.03
  -6  -4  -4   37.00    0.85
   6   4   4   35.39    1.03
  -7  -4  -4   12.02    0.52
  -7  -4  -4   12.78    0.61
   7   4   4   11.29    0.59
  -8  -4  -4    0.32    0.17
   8   4   4    0.31    0.19
   6  -5  -4    4.26    0.40
  -6   5   4    4.83    0.42
   5  -5  -4    3.91    0.35
  -5   5   4    3.81    0.32
  -5   5   4    3.64    0.34
   4  -5  -4    2.77    0.27
  -4   5   4    2.68    0.29
  -4   5   4    2.19    0.26
  -4   5   4    2.92    0.29
   3  -5  -4   36.08    0.88
  -3   5   4   34.84    0.88
  -3   5   4   35.88    0.95
  -3   5   4   35.73    0.93
   2  -5  -4    5.52    0.30
  -2   5   4    5.27    0.31
  -2   5   4    5.12    0.34
  -2   5   4    5.17    0.29
   1  -5  -4   22.52    0.59
  -1   5   4   22.51    0.69
  -1   5   4   22.28    0.60
  -1   5   4   22.74    0.58
   0  -5  -4   53.01    0.76
   0  -5  -4   49.62    1.00
   0   5   4   51.71    0.97
   0   5   4   51.32    1.13
   0   5   4   50.58    0.97
  -1  -5  -4    8.39    0.33
  -1  -5  -4    8.76    0.26
   1   5   4    9.11    0.30
   1   5   4    8.87    0.28
   1   5   4    8.63    0.39
  -2  -5  -4   27.08    0.68
  -2  -5  -4   27.84    0.62
   2   5   4   27.70    0.58
   2   5   4   26.69    0.52
   2   5   4   27.91    0.73
  -3  -5  -4    4.47    0.25
   3   5   4    5.11    0.28
   3   5   4    4.70    0.29
  -4  -5  -4    4.24    0.28
  -4  -5  -4    4.25    0.23
   4   5   4    4.36    0.31
   4   5   4    4.62    0.26
  -5  -5  -4    3.90    0.30
  -5  -5  -4    3.90    0.24
   5   5   4    4.40    0.34
  -6  -5  -4    7.27    0.36
  -6  -5  -4    6.33    0.41
   6   5   4    8.37    0.49
  -7  -5  -4   13.14    0.63
   7   5   4   13.51    0.67
  -8  -5  -4    0.20    0.16
   8   5   4    0.33    0.19
   6  -6  -4    0.74    0.21
  -6   6   4    0.59    0.22
   5  -6  -4    2.29    0.27
  -5   6   4    2.44    0.30
  -5   6   4    1.95    0.29
  -5   6   4    2.23    0.32
   4  -6  -4    9.89    0.46
  -4   6   4    8.39    0.46
  -4   6   4    9.30    0.50
  -4   6   4   10.51    0.53
   3  -6  -4    0.43    0.14
  -3   6   4    0.58    0.17
  -3   6   4    0.74    0.17
  -3   6   4    0.57    0.16
   2  -6  -4   19.26    0.58
  -2   6   4   19.18    0.62
  -2   6   4   18.59    0.60
  -2   6   4   20.11    0.70
   1  -6  -4  143.90    2.33
  -1   6   4  145.40    2.36
  -1   6   4  143.36    2.55
  -1   6   4  148.25    2.37
   0  -6  -4    4.16    0.24
   0   6   4    3.59    0.21
   0   6   4    3.44    0.23
   0   6   4    3.80    0.30
  -1  -6  -4   38.50    0.71
  -1  -6  -4   36.74    0.82
   1   6   4   36.85    0.71
   1   6   4   37.19    0.95
   1   6   4   38.64    0.81
  -2  -6  -4    2.33    0.17
  -2  -6  -4    2.10    0.19
   2   6   4    2.31    0.12
   2   6   4    2.47    0.24
   2   6   4    2.23    0.18
  -3  -6  -4   25.15    0.67
   3   6   4   24.98    0.71
   3   6   4   24.74    0.63
  -4  -6  -4   43.16    0.92
  -4  -6  -4   41.52    1.00
   4   6   4   43.32    0.99
   4   6   4   42.11    1.05
  -5  -6  -4   26.90    0.72
  -5  -6  -4   26.41    0.81
   5   6   4   27.57    0.87
  -6  -6  -4    0.02    0.11
  -6  -6  -4    0.19    0.13
   6   6   4    0.11    0.15
  -7  -6  -4    0.12    0.14
   7   6   4    0.24    0.16
  -5   7   4    1.94    0.32
  -5   7   4    1.96    0.32
  -5   7   4    1.60    0.30
   4  -7  -4   27.30    0.79
  -4   7   4   26.65    0.92
  -4   7   4   27.61    0.92
  -4   7   4   26.21    0.88
   3  -7  -4   84.08    1.58
  -3   7   4   82.76    1.80
  -3   7   4   81.52    1.69
  -3   7   4   81.56    1.69
   2  -7  -4    1.82    0.21
  -2   7   4    1.50    0.21
  -2   7   4    1.49    0.21
  -2   7   4    2.06    0.27
   1  -7  -4    0.87    0.15
  -1   7   4    0.79    0.15
  -1   7   4    0.83    0.16
  -1   7   4    0.61    0.17
   0  -7  -4   11.75    0.41
   0   7   4   10.89    0.38
   0   7   4   11.04    0.44
  -1  -7  -4    0.36    0.10
   1   7   4    0.28    0.08
   1   7   4    0.31    0.11
   1   7   4    0.30    0.13
  -2  -7  -4    0.57    0.11
  -2  -7  -4    0.65    0.13
   2   7   4    0.72    0.09
   2   7   4    0.46    0.13
   2   7   4    0.44    0.15
  -3  -7  -4    0.02    0.07
  -3  -7  -4   -0.06    0.08
   3   7   4    0.04    0.03
   3   7   4   -0.07    0.07
   3   7   4    0.11    0.10
  -4  -7  -4    0.58    0.14
  -4  -7  -4    0.33    0.12
   4   7   4    0.50    0.15
   4   7   4    0.71    0.18
  -5  -7  -4    0.20    0.12
  -5  -7  -4    0.40    0.13
   5   7   4    0.30    0.16
  -6  -7  -4    2.39    0.30
   6   7   4    1.95    0.32
  -7  -7  -4   16.58    0.74
   7   7   4   16.64    0.77
  -5   8   4    0.94    0.25
  -5   8   4    0.67    0.24
  -5   8   4    0.57    0.23
  -4   8   4    9.39    0.55
  -4   8   4    9.26    0.53
  -4   8   4    7.98    0.54
  -3   8   4    0.25    0.13
  -3   8   4    0.08    0.13
  -3   8   4   -0.07    0.13
  -2   8   4   -0.01    0.10
  -2   8   4   -0.06    0.09
  -2   8   4   -0.15    0.10
  -1   8   4   26.22    0.74
  -1   8   4   27.28    0.92
  -1   8   4   26.81    0.80
   0  -8  -4    1.26    0.17
   0   8   4    1.20    0.20
   0   8   4    1.03    0.16
   0   8   4    0.79    0.21
  -1  -8  -4    1.17    0.17
   1   8   4    1.16    0.20
   1   8   4    1.49    0.15
   1   8   4    1.15    0.24
  -2  -8  -4    0.46    0.13
   2   8   4    0.34    0.07
   2   8   4    0.45    0.16
   2   8   4    0.35    0.13
  -3  -8  -4    0.25    0.11
  -3  -8  -4    0.28    0.11
   3   8   4    0.21    0.12
   3   8   4    0.08    0.13
  -4  -8  -4   -0.01    0.09
  -4  -8  -4   -0.05    0.08
   4   8   4   -0.06    0.11
  -5  -8  -4    0.57    0.17
  -5  -8  -4    0.69    0.18
   5   8   4    0.50    0.18
  -6  -8  -4    2.16    0.32
   6   8   4    2.00    0.31
  -4   9   4    0.63    0.21
  -4   9   4    1.23    0.29
  -4   9   4    1.29    0.28
  -3   9   4    3.74    0.37
  -3   9   4    2.95    0.34
  -3   9   4    3.50    0.40
  -2   9   4    1.66    0.28
  -2   9   4    1.56    0.30
  -2   9   4    1.48    0.25
  -1   9   4    0.68    0.21
  -1   9   4    0.53    0.15
  -1   9   4    0.48    0.16
   0   9   4   15.90    0.63
   0   9   4   15.03    0.53
   0   9   4   15.85    0.73
   1   9   4    7.85    0.53
   1   9   4    7.80    0.33
   1   9   4    9.39    0.47
   2   9   4    0.27    0.08
   2   9   4    0.10    0.12
   2   9   4    0.11    0.14
   3   9   4    8.08    0.46
   3   9   4    8.66    0.24
   3   9   4    8.33    0.52
  -4  -9  -4    0.07    0.11
  -4  -9  -4    0.16    0.21
  -4  -9  -4   -0.05    0.13
  -5  -9  -4    3.08    0.32
  -2  10   4    0.62    0.25
  -2  10   4    1.17    0.25
  -2  10   4    0.80    0.23
  -1  10   4   11.52    0.60
  -1  10   4   12.57    0.56
  -1  10   4   11.23    0.70
   0  10   4   16.42    0.70
   0  10   4   16.03    0.80
   0  10   4   15.51    0.57
   1  10   4   -0.07    0.12
   1  10   4    0.07    0.09
   1  10   4    0.02    0.17
   2  10   4   21.85    0.92
   2  10   4   23.14    0.57
   2  10   4   23.12    0.83
  -3 -10  -4    6.88    0.52
   3  10   4    7.18    0.24
   3  10   4    7.32    0.48
   1   6  -5    7.53    0.55
  -1  -6   5    7.29    0.58
   0   6  -5    4.24    0.40
   0   6  -5    3.22    0.39
   0  -6   5    4.56    0.47
  -1   6  -5    9.29    0.55
  -1   6  -5    8.47    0.56
   1  -6   5    9.07    0.61
  -2   6  -5    0.16    0.17
  -2   6  -5    0.42    0.19
   2  -6   5    0.33    0.22
  -3   6  -5    2.02    0.32
  -3   6  -5    1.08    0.26
   3  -6   5    1.79    0.33
   3   5  -5   13.64    0.73
  -3  -5   5   13.77    0.74
  -3  -5   5   12.80    0.66
   2   5  -5    8.18    0.56
  -2  -5   5    7.26    0.49
  -2  -5   5    8.36    0.58
   1   5  -5    0.92    0.24
  -1  -5   5    0.86    0.24
   0   5  -5    1.86    0.28
   0   5  -5    2.01    0.32
   0  -5   5    1.60    0.31
  -1   5  -5    3.58    0.34
  -1   5  -5    3.20    0.36
   1  -5   5    3.60    0.38
  -2   5  -5   17.13    0.73
  -2   5  -5   18.29    0.70
   2  -5   5   17.34    0.77
  -3   5  -5    0.08    0.12
  -3   5  -5    0.06    0.14
   3  -5   5   -0.09    0.13
  -4   5  -5    0.72    0.19
  -4   5  -5    0.47    0.19
   4  -5   5    0.83    0.23
  -5   5  -5    0.21    0.16
  -5   5  -5    0.19    0.16
   5  -5   5    0.03    0.15
   4   4  -5    0.07    0.17
  -4  -4   5    0.33    0.18
  -4  -4   5    0.13    0.17
   3   4  -5    0.23    0.17
  -3  -4   5   -0.01    0.12
  -3  -4   5   -0.04    0.16
   2   4  -5   13.70    0.66
  -2  -4   5   14.30    0.69
  -2  -4   5   15.19    0.64
   1   4  -5    1.11    0.23
  -1  -4   5    0.75    0.23
  -1  -4   5    0.65    0.18
   0   4  -5    7.46    0.42
   0   4  -5    7.85    0.47
   0  -4   5    6.36    0.45
  -1   4  -5    1.94    0.28
  -1   4  -5    1.57    0.23
   1  -4   5    1.05    0.23
  -2   4  -5    0.29    0.16
  -2   4  -5    0.21    0.13
   2  -4   5    0.34    0.17
  -3   4  -5    0.95    0.19
  -3   4  -5    0.87    0.20
   3  -4   5    0.96    0.22
  -4   4  -5    2.19    0.26
  -4   4  -5    2.31    0.31
   4  -4   5    2.72    0.31
  -5   4  -5    0.71    0.21
  -5   4  -5    0.61    0.18
   5  -4   5    1.12    0.22
  -6   4  -5   19.45    0.81
  -6   4  -5   19.27    0.74
   5   3  -5    0.88    0.23
   5   3  -5    0.51    0.22
  -5  -3   5    0.92    0.24
  -5  -3   5    0.91    0.26
   4   3  -5   14.68    0.71
   4   3  -5   15.35    0.65
  -4  -3   5   15.80    0.72
  -4  -3   5   15.02    0.67
   3   3  -5   19.43    0.67
   3   3  -5   18.83    0.76
  -3  -3   5   19.46    0.78
  -3  -3   5   18.96    0.71
   2   3  -5    6.63    0.36
   2   3  -5    6.54    0.44
  -2  -3   5    6.93    0.41
  -2  -3   5    6.04    0.44
   1   3  -5    5.32    0.40
   1   3  -5    5.81    0.31
  -1  -3   5    4.76    0.38
  -1  -3   5    5.29    0.34
   0   3  -5   37.04    0.93
   0   3  -5   37.80    1.03
   0  -3   5   37.86    1.07
  -1   3  -5    1.07    0.20
  -1   3  -5    1.32    0.19
   1  -3   5    1.66    0.26
  -2   3  -5    0.15    0.12
  -2   3  -5    0.09    0.09
   2  -3   5   -0.04    0.10
  -3   3  -5    3.83    0.28
  -3   3  -5    3.98    0.34
   3  -3   5    4.38    0.34
  -4   3  -5    6.05    0.42
  -4   3  -5    6.09    0.35
   4  -3   5    7.01    0.41
  -5   3  -5   10.46    0.47
  -5   3  -5   10.89    0.56
   5  -3   5   10.18    0.49
  -6   3  -5    3.88    0.39
  -6   3  -5    4.64    0.34
  -7   3  -5   20.85    0.86
   5   2  -5    4.28    0.40
   5   2  -5    4.20    0.41
  -5  -2   5    4.46    0.40
  -5  -2   5    4.24    0.39
   4   2  -5    0.67    0.20
   4   2  -5    0.42    0.17
  -4  -2   5    0.52    0.18
  -4  -2   5    0.56    0.18
   3   2  -5    1.50    0.23
   3   2  -5    1.46    0.25
  -3  -2   5    2.05    0.25
  -3  -2   5    1.92    0.28
   2   2  -5  124.68    2.16
   2   2  -5  125.23    2.30
  -2  -2   5  123.36    2.19
  -2  -2   5  123.91    2.34
   1   2  -5    1.34    0.23
   1   2  -5    1.38    0.18
  -1  -2   5    1.86    0.26
  -1  -2   5    1.19    0.19
   0   2  -5    2.89    0.21
   0   2  -5    2.71    0.27
   0   2  -5    2.80    0.22
   0  -2   5    2.73    0.28
  -1   2  -5    0.14    0.11
  -1   2  -5    0.03    0.07
  -1   2  -5    0.10    0.09
   1  -2   5   -0.03    0.11
  -2   2  -5    6.47    0.26
  -2   2  -5    6.64    0.31
  -2   2  -5    6.22    0.37
   2  -2   5    6.61    0.39
  -3   2  -5    3.09    0.29
  -3   2  -5    3.47    0.23
  -3   2  -5    3.64    0.20
   3  -2   5    3.11    0.28
   3  -2   5    3.00    0.34
  -4   2  -5    0.04    0.11
  -4   2  -5    0.04    0.08
   4  -2   5    0.11    0.11
  -5   2  -5    0.02    0.09
  -5   2  -5   -0.08    0.09
   5  -2   5    0.22    0.12
  -6   2  -5   18.65    0.76
  -6   2  -5   19.47    0.65
  -7   2  -5   12.24    0.64
  -8   2  -5    2.40    0.36
   6   1  -5    0.08    0.15
   6   1  -5    0.18    0.18
  -6  -1   5    0.14    0.16
   5   1  -5   -0.04    0.12
   5   1  -5    0.13    0.15
  -5  -1   5   -0.10    0.10
  -5  -1   5   -0.05    0.12
   4   1  -5   23.47    0.79
   4   1  -5   23.72    0.80
  -4  -1   5   21.65    0.78
  -4  -1   5   21.23    0.75
   3   1  -5   75.43    1.57
   3   1  -5   76.00    1.54
  -3  -1   5   73.10    1.51
  -3  -1   5   74.64    1.60
   2   1  -5   52.08    1.15
   2   1  -5   54.01    1.21
  -2  -1   5   54.26    1.15
  -2  -1   5   53.75    1.25
   1   1  -5    1.06    0.16
   1   1  -5    1.08    0.18
  -1  -1   5    0.83    0.14
  -1  -1   5    0.88    0.18
   0   1  -5   37.55    0.81
   0   1  -5   38.72    0.92
   0  -1   5   37.08    0.80
   0  -1   5   36.23    0.95
  -1   1  -5   12.76    0.41
  -1   1  -5   13.25    0.40
  -1   1  -5   13.80    0.51
   1  -1   5   13.43    0.49
   1  -1   5   13.44    0.52
  -2   1  -5   11.79    0.48
  -2   1  -5   12.05    0.37
  -2   1  -5   12.71    0.38
   2  -1   5   12.30    0.47
   2  -1   5   11.80    0.48
  -3   1  -5   42.82    0.85
  -3   1  -5   43.74    0.87
  -3   1  -5   44.33    1.04
   3  -1   5   42.75    1.02
   3  -1   5   42.76    0.99
  -4   1  -5    6.91    0.29
  -4   1  -5    6.33    0.38
  -4   1  -5    5.99    0.28
   4  -1   5    6.33    0.34
   4  -1   5    6.17    0.37
  -5   1  -5   -0.07    0.07
  -5   1  -5    0.09    0.09
  -5   1  -5   -0.03    0.10
   5  -1   5    0.08    0.10
   5  -1   5   -0.02    0.11
  -6   1  -5    4.74    0.30
  -6   1  -5    4.03    0.35
   6  -1   5    5.06    0.33
  -7   1  -5    0.17    0.15
   7  -1   5    0.42    0.16
  -8   1  -5    3.37    0.39
   6   0  -5    0.30    0.19
   6   0  -5    0.43    0.19
  -6   0   5    0.46    0.19
   5   0  -5   12.63    0.62
   5   0  -5   12.89    0.59
  -5   0   5   12.98    0.59
  -5   0   5   11.10    0.57
   4   0  -5    6.03    0.37
   4   0  -5    4.98    0.37
  -4   0   5    4.35    0.36
  -4   0   5    4.79    0.35
   3   0  -5   14.43    0.55
   3   0  -5   14.57    0.56
  -3   0   5   15.11    0.55
  -3   0   5   14.32    0.58
   2   0  -5   58.07    1.22
   2   0  -5   59.60    1.24
  -2   0   5   59.01    1.30
  -2   0   5   57.71    1.17
   1   0  -5    1.29    0.17
   1   0  -5    1.00    0.16
  -1   0   5    1.11    0.14
  -1   0   5    0.85    0.18
  -1   0   5    1.03    0.17
   0   0  -5    8.94    0.38
   0   0  -5    8.52    0.35
   0   0   5    9.12    0.38
   0   0   5    9.29    0.42
   0   0   5    8.80    0.30
  -1   0  -5   41.05    0.85
  -1   0  -5   40.71    0.92
   1   0   5   40.24    0.92
   1   0   5   41.41    0.96
  -2   0  -5   26.17    0.53
  -2   0  -5   26.26    0.70
  -2   0  -5   26.51    0.62
   2   0   5   26.34    0.71
   2   0   5   26.63    0.71
  -3   0  -5   10.93    0.37
  -3   0  -5   11.31    0.46
  -3   0  -5   11.28    0.31
   3   0   5   10.79    0.44
   3   0   5   11.13    0.42
  -4   0  -5    0.32    0.12
  -4   0  -5    0.38    0.08
  -4   0  -5    0.36    0.11
   4   0   5    0.28    0.12
   4   0   5    0.31    0.11
  -5   0  -5    0.53    0.11
  -5   0  -5    0.72    0.17
   5   0   5    0.53    0.14
  -6   0  -5    0.31    0.13
  -6   0  -5    0.54    0.14
   6   0   5    0.49    0.15
  -7   0  -5    4.28    0.38
   7   0   5    4.72    0.37
  -8   0  -5    9.17    0.57
   8   0   5    8.90    0.52
   6  -1  -5    0.11    0.13
   6  -1  -5   -0.15    0.13
  -6   1   5    0.12    0.14
   5  -1  -5    7.33    0.48
   5  -1  -5    7.24    0.42
  -5   1   5    6.48    0.42
  -5   1   5    6.98    0.44
   4  -1  -5   11.05    0.52
   4  -1  -5   11.20    0.48
  -4   1   5   11.21    0.50
  -4   1   5   11.99    0.53
   3  -1  -5    0.10    0.12
   3  -1  -5    0.04    0.09
  -3   1   5   -0.04    0.11
  -3   1   5    0.10    0.10
   2  -1  -5    6.77    0.32
   2  -1  -5    6.67    0.35
  -2   1   5    7.03    0.32
  -2   1   5    7.52    0.37
  -2   1   5    6.90    0.38
   1  -1  -5   11.34    0.43
   1  -1  -5   12.05    0.41
  -1   1   5   12.06    0.38
  -1   1   5   11.58    0.47
  -1   1   5   11.48    0.44
   0  -1  -5  146.37    2.33
   0  -1  -5  146.11    2.32
   0   1   5  147.98    2.38
   0   1   5  142.85    2.43
   0   1   5  148.65    2.18
  -1  -1  -5    8.24    0.34
  -1  -1  -5    8.13    0.32
   1   1   5    7.67    0.36
   1   1   5    7.99    0.22
   1   1   5    7.84    0.35
  -2  -1  -5   30.05    0.73
  -2  -1  -5   30.58    0.69
   2   1   5   30.75    0.75
   2   1   5   30.71    0.75
  -3  -1  -5    1.23    0.17
  -3  -1  -5    1.29    0.09
  -3  -1  -5    1.32    0.15
   3   1   5    1.42    0.17
   3   1   5    1.37    0.16
  -4  -1  -5   61.97    1.20
  -4  -1  -5   61.81    1.30
  -4  -1  -5   63.93    1.02
   4   1   5   61.62    1.27
   4   1   5   61.10    1.14
  -5  -1  -5    5.35    0.24
  -5  -1  -5    5.13    0.33
   5   1   5    5.77    0.34
  -6  -1  -5    4.14    0.34
   6   1   5    4.18    0.33
  -7  -1  -5    0.71    0.19
   7   1   5    0.71    0.19
  -8  -1  -5    4.63    0.41
   8   1   5    5.12    0.43
   6  -2  -5    6.99    0.50
  -6   2   5    6.64    0.47
   5  -2  -5    0.19    0.17
   5  -2  -5    0.14    0.16
  -5   2   5    0.10    0.13
  -5   2   5    0.00    0.11
   4  -2  -5    0.05    0.11
   4  -2  -5    0.00    0.08
  -4   2   5   -0.18    0.09
  -4   2   5    0.10    0.10
   3  -2  -5   91.76    1.59
   3  -2  -5   86.32    1.73
  -3   2   5   91.32    1.76
  -3   2   5   93.45    1.74
  -3   2   5   89.99    1.66
   2  -2  -5    2.82    0.20
   2  -2  -5    3.17    0.26
  -2   2   5    3.15    0.25
  -2   2   5    2.85    0.22
  -2   2   5    2.85    0.26
   1  -2  -5   36.32    0.85
   1  -2  -5   37.29    0.76
  -1   2   5   37.91    0.92
  -1   2   5   37.44    0.87
  -1   2   5   37.76    0.76
   0  -2  -5   26.47    0.66
   0  -2  -5   26.32    0.60
   0   2   5   26.78    0.72
   0   2   5   25.97    0.67
   0   2   5   26.83    0.53
  -1  -2  -5   16.70    0.49
  -1  -2  -5   16.44    0.46
   1   2   5   16.62    0.52
   1   2   5   16.51    0.30
   1   2   5   16.23    0.49
  -2  -2  -5   65.43    1.22
  -2  -2  -5   65.75    1.23
   2   2   5   66.84    1.25
   2   2   5   68.99    1.25
  -3  -2  -5    2.86    0.21
  -3  -2  -5    2.54    0.21
   3   2   5    2.30    0.20
   3   2   5    3.00    0.20
  -4  -2  -5    1.20    0.09
  -4  -2  -5    0.81    0.15
   4   2   5    1.05    0.14
  -5  -2  -5   17.52    0.46
   5   2   5   17.10    0.61
  -6  -2  -5   13.22    0.58
   6   2   5   12.93    0.57
  -7  -2  -5    1.28    0.24
   7   2   5    0.84    0.22
  -8  -2  -5    0.41    0.19
   8   2   5    0.59    0.22
   6  -3  -5    2.13    0.34
  -6   3   5    1.88    0.31
   5  -3  -5    3.43    0.35
  -5   3   5    3.47    0.32
  -5   3   5    3.30    0.31
   4  -3  -5   20.98    0.73
  -4   3   5   22.53    0.73
  -4   3   5   22.54    0.71
   3  -3  -5   41.16    0.82
   3  -3  -5   41.43    1.02
  -3   3   5   41.78    1.04
  -3   3   5   40.85    0.96
  -3   3   5   41.13    1.02
   2  -3  -5   35.88    0.89
   2  -3  -5   37.04    0.72
  -2   3   5   36.37    0.90
  -2   3   5   37.96    0.82
  -2   3   5   36.69    0.94
   1  -3  -5    1.53    0.12
   1  -3  -5    1.70    0.19
  -1   3   5    1.45    0.18
  -1   3   5    1.32    0.19
  -1   3   5    1.63    0.14
   0  -3  -5    2.08    0.14
   0  -3  -5    1.86    0.19
   0   3   5    2.00    0.20
   0   3   5    1.96    0.12
   0   3   5    2.21    0.19
  -1  -3  -5   11.12    0.40
  -1  -3  -5   11.57    0.34
   1   3   5   11.64    0.44
   1   3   5   11.41    0.22
   1   3   5   11.43    0.39
  -2  -3  -5   16.62    0.46
  -2  -3  -5   15.78    0.49
   2   3   5   16.74    0.48
   2   3   5   16.73    0.51
  -3  -3  -5    2.20    0.20
  -3  -3  -5    2.92    0.21
   3   3   5    2.73    0.20
   3   3   5    2.26    0.18
  -4  -3  -5    0.19    0.10
  -4  -3  -5    0.14    0.05
   4   3   5    0.05    0.09
   4   3   5    0.07    0.07
  -5  -3  -5    1.53    0.22
   5   3   5    1.33    0.20
  -6  -3  -5   24.33    0.82
   6   3   5   26.08    0.84
  -7  -3  -5   16.87    0.72
   7   3   5   17.02    0.71
  -8  -3  -5    4.43    0.42
   8   3   5    5.34    0.45
   6  -4  -5    0.75    0.23
  -6   4   5    0.98    0.25
   5  -4  -5   10.88    0.57
  -5   4   5   11.59    0.54
  -5   4   5   11.53    0.56
   4  -4  -5   13.20    0.58
  -4   4   5   13.46    0.60
  -4   4   5   14.15    0.56
  -4   4   5   14.18    0.59
   3  -4  -5   46.57    1.11
  -3   4   5   47.54    1.15
  -3   4   5   47.58    1.06
  -3   4   5   47.01    1.13
   2  -4  -5   13.36    0.50
  -2   4   5   13.21    0.50
  -2   4   5   12.63    0.52
  -2   4   5   13.65    0.45
   1  -4  -5    8.19    0.37
   1  -4  -5    8.76    0.22
  -1   4   5    8.63    0.41
  -1   4   5    8.93    0.38
  -1   4   5    8.36    0.31
   0  -4  -5   41.91    0.91
   0  -4  -5   43.12    0.72
   0   4   5   42.87    0.99
   0   4   5   41.06    0.89
   0   4   5   43.07    0.77
  -1  -4  -5    0.18    0.08
  -1  -4  -5    0.27    0.07
   1   4   5    0.21    0.08
   1   4   5    0.15    0.09
   1   4   5    0.23    0.05
  -2  -4  -5    0.08    0.05
  -2  -4  -5    0.09    0.08
   2   4   5   -0.02    0.07
   2   4   5    0.10    0.06
  -3  -4  -5    4.60    0.28
  -3  -4  -5    4.62    0.26
  -3  -4  -5    4.88    0.14
   3   4   5    4.20    0.22
   3   4   5    4.80    0.27
  -4  -4  -5    0.58    0.08
  -4  -4  -5    0.26    0.10
   4   4   5    0.48    0.11
   4   4   5    0.35    0.14
  -5  -4  -5   12.33    0.51
   5   4   5   11.36    0.52
  -6  -4  -5    4.97    0.37
   6   4   5    5.77    0.41
  -7  -4  -5    2.83    0.33
   7   4   5    3.12    0.35
  -8  -4  -5    7.42    0.52
   8   4   5    7.72    0.54
   6  -5  -5    4.16    0.42
  -6   5   5    3.70    0.39
   5  -5  -5    6.91    0.45
  -5   5   5    5.87    0.42
  -5   5   5    6.82    0.45
   4  -5  -5    1.00    0.22
  -4   5   5    1.00    0.22
  -4   5   5    0.94    0.21
  -4   5   5    1.03    0.20
   3  -5  -5   35.62    0.94
  -3   5   5   35.77    0.91
  -3   5   5   36.67    1.00
  -3   5   5   36.44    0.98
   2  -5  -5   16.85    0.57
  -2   5   5   16.59    0.62
  -2   5   5   16.86    0.58
  -2   5   5   16.44    0.53
   1  -5  -5   73.79    1.41
  -1   5   5   75.11    1.53
  -1   5   5   74.16    1.42
  -1   5   5   74.17    1.32
   0  -5  -5   72.95    1.04
   0  -5  -5   70.12    1.34
   0   5   5   69.18    1.44
   0   5   5   69.52    1.30
   0   5   5   71.36    1.22
  -1  -5  -5    3.32    0.23
  -1  -5  -5    3.61    0.17
   1   5   5    2.73    0.19
   1   5   5    3.58    0.28
   1   5   5    3.65    0.18
  -2  -5  -5    0.82    0.14
  -2  -5  -5    1.09    0.12
   2   5   5    0.80    0.11
   2   5   5    1.32    0.19
   2   5   5    0.93    0.10
  -3  -5  -5   11.90    0.31
  -3  -5  -5   10.94    0.44
  -3  -5  -5   11.80    0.41
   3   5   5   11.17    0.44
   3   5   5   10.59    0.34
  -4  -5  -5    0.12    0.06
  -4  -5  -5    0.08    0.08
   4   5   5    0.09    0.11
   4   5   5    0.05    0.08
  -5  -5  -5   17.28    0.63
   5   5   5   17.59    0.67
  -6  -5  -5   47.38    1.21
   6   5   5   47.64    1.26
  -7  -5  -5    3.88    0.37
   7   5   5    3.08    0.36
  -8  -5  -5    0.84    0.23
   8   5   5    1.24    0.29
   6  -6  -5    0.47    0.21
  -6   6   5    0.64    0.21
   5  -6  -5    0.08    0.15
  -5   6   5    0.29    0.15
  -5   6   5    0.01    0.13
   4  -6  -5   17.68    0.67
  -4   6   5   17.31    0.71
  -4   6   5   17.08    0.66
  -4   6   5   17.95    0.71
   3  -6  -5   57.26    1.29
  -3   6   5   59.71    1.37
  -3   6   5   60.24    1.41
  -3   6   5   57.41    1.29
   2  -6  -5   87.31    1.66
  -2   6   5   88.28    1.81
  -2   6   5   87.41    1.64
  -2   6   5   87.06    1.70
   1  -6  -5    0.40    0.12
  -1   6   5    0.29    0.10
  -1   6   5    0.34    0.12
  -1   6   5    0.55    0.17
   0  -6  -5   12.75    0.46
   0   6   5   12.25    0.41
   0   6   5   13.21    0.55
   0   6   5   12.98    0.44
  -1  -6  -5   13.38    0.47
  -1  -6  -5   13.64    0.34
   1   6   5   11.97    0.52
   1   6   5   13.83    0.42
   1   6   5   14.00    0.41
  -2  -6  -5    1.23    0.17
  -2  -6  -5    1.38    0.14
   2   6   5    1.29    0.13
   2   6   5    1.25    0.20
   2   6   5    1.21    0.14
  -3  -6  -5    5.30    0.29
  -3  -6  -5    5.85    0.33
   3   6   5    5.28    0.22
   3   6   5    5.53    0.34
   3   6   5    6.24    0.26
  -4  -6  -5    0.48    0.13
   4   6   5    0.37    0.13
  -5  -6  -5    3.21    0.29
   5   6   5    2.33    0.29
  -6  -6  -5    3.19    0.32
   6   6   5    2.33    0.32
  -7  -6  -5    9.85    0.56
   7   6   5   10.68    0.62
   5  -7  -5    3.16    0.35
  -5   7   5    2.60    0.34
  -5   7   5    2.73    0.36
   4  -7  -5    0.09    0.14
  -4   7   5    0.12    0.15
  -4   7   5    0.02    0.15
  -4   7   5    0.21    0.15
   3  -7  -5   43.30    1.06
  -3   7   5   41.76    1.20
  -3   7   5   43.24    1.14
  -3   7   5   41.22    1.08
   2  -7  -5    0.39    0.14
  -2   7   5    0.59    0.16
  -2   7   5    0.58    0.15
  -2   7   5    0.83    0.22
   1  -7  -5    8.88    0.41
  -1   7   5    8.79    0.50
  -1   7   5    8.93    0.41
  -1   7   5    8.26    0.39
   0  -7  -5    3.93    0.27
   0   7   5    3.90    0.26
   0   7   5    3.72    0.33
   0   7   5    4.23    0.26
  -1  -7  -5    1.06    0.17
   1   7   5    1.24    0.15
   1   7   5    1.18    0.16
   1   7   5    1.61    0.24
  -2  -7  -5   15.04    0.45
  -2  -7  -5   15.95    0.54
   2   7   5   14.71    0.47
   2   7   5   14.88    0.40
  -3  -7  -5    0.20    0.09
  -3  -7  -5    0.22    0.11
   3   7   5    0.33    0.13
   3   7   5    0.11    0.09
   3   7   5    0.21    0.06
  -4  -7  -5    1.85    0.23
  -4  -7  -5    1.63    0.21
   4   7   5    1.65    0.12
   4   7   5    2.00    0.24
  -5  -7  -5    0.15    0.12
   5   7   5    0.05    0.12
  -6  -7  -5    1.29    0.24
   6   7   5    2.23    0.31
  -7  -7  -5    0.36    0.18
   7   7   5    0.19    0.18
  -4   8   5    0.03    0.14
  -4   8   5    0.37    0.19
  -4   8   5    0.05    0.14
  -3   8   5    1.81    0.27
  -3   8   5    1.86    0.27
  -3   8   5    2.17    0.32
   2  -8  -5   20.29    0.66
  -2   8   5   21.07    0.83
  -2   8   5   21.57    0.73
  -2   8   5   21.72    0.73
   1  -8  -5    0.39    0.13
  -1   8   5    0.46    0.15
  -1   8   5    0.51    0.14
  -1   8   5    0.27    0.15
   0  -8  -5    0.01    0.09
   0   8   5    0.01    0.11
   0   8   5   -0.05    0.07
   0   8   5    0.06    0.10
  -1  -8  -5    0.61    0.15
   1   8   5    0.74    0.13
   1   8   5    0.54    0.14
   1   8   5    0.62    0.18
  -2  -8  -5   15.69    0.56
   2   8   5   15.64    0.54
   2   8   5   14.38    0.40
   2   8   5   15.87    0.66
  -3  -8  -5    1.74    0.22
   3   8   5    1.61    0.33
   3   8   5    1.69    0.12
   3   8   5    2.20    0.27
  -4  -8  -5    0.25    0.11
  -4  -8  -5    0.21    0.12
   4   8   5    0.32    0.16
   4   8   5    0.35    0.07
  -5  -8  -5    0.08    0.11
  -6  -8  -5    0.38    0.16
   6   8   5    0.43    0.20
  -3   9   5    6.57    0.52
  -3   9   5    5.73    0.44
  -3   9   5    6.17    0.46
  -2   9   5    0.20    0.18
  -2   9   5    0.09    0.11
  -2   9   5   -0.08    0.11
  -1   9   5    4.83    0.34
  -1   9   5    5.28    0.46
  -1   9   5    5.89    0.39
   0   9   5    8.56    0.40
   0   9   5    8.21    0.54
   0   9   5    9.31    0.47
   1   9   5   25.51    0.94
   1   9   5   27.85    0.81
   1   9   5   24.78    0.66
  -2  -9  -5    3.98    0.30
   2   9   5    4.90    0.24
   2   9   5    4.49    0.40
   2   9   5    4.94    0.34
  -3  -9  -5    4.27    0.32
   3   9   5    4.26    0.18
   3   9   5    4.53    0.41
  -4  -9  -5    5.99    0.39
   4   9   5    5.87    0.45
   4   9   5    5.44    0.16
  -5  -9  -5   13.28    0.61
  -5  -9  -5   13.92    0.71
   5   9   5   13.16    0.26
  -2  10   5    7.16    0.57
  -2  10   5    6.69    0.47
  -2  10   5    6.86    0.46
  -1  10   5    2.05    0.27
  -1  10   5    2.12    0.30
  -1  10   5    2.11    0.36
   0  10   5   -0.10    0.11
   0  10   5    0.12    0.10
   0  10   5   -0.11    0.14
   1  10   5    1.22    0.28
   1  10   5    1.65    0.27
   1  10   5    1.06    0.17
   2  10   5    0.02    0.08
   2  10   5   -0.02    0.17
   3  10   5    3.48    0.42
   3  10   5    2.86    0.17
   1   5  -6   -0.10    0.14
  -1  -5   6   -0.04    0.13
  -1  -5   6    0.08    0.17
   0   5  -6    0.10    0.16
   0   5  -6    0.01    0.17
   0  -5   6    0.06    0.19
  -1   5  -6    0.10    0.14
  -1   5  -6    0.02    0.15
   1  -5   6    0.13    0.20
  -2   5  -6    5.06    0.45
  -2   5  -6    5.92    0.43
   2  -5   6    4.54    0.47
  -3   5  -6   -0.06    0.14
  -3   5  -6   -0.04    0.13
   3  -5   6   -0.12    0.16
  -4   5  -6   11.93    0.67
  -4   5  -6   11.95    0.59
   4  -5   6   11.45    0.66
   2   4  -6    0.94    0.26
  -2  -4   6    0.73    0.21
  -2  -4   6    1.23    0.30
   1   4  -6   -0.02    0.13
  -1  -4   6    0.22    0.14
  -1  -4   6    0.13    0.19
   0   4  -6   14.95    0.71
   0   4  -6   14.98    0.63
   0  -4   6   14.03    0.71
  -1   4  -6   22.99    0.87
  -1   4  -6   24.39    0.80
   1  -4   6   23.94    0.93
  -2   4  -6    4.55    0.35
  -2   4  -6    4.97    0.42
   2  -4   6    3.85    0.41
  -3   4  -6   18.81    0.79
  -3   4  -6   19.92    0.70
   3  -4   6   19.34    0.82
  -4   4  -6    0.22    0.17
  -4   4  -6    0.11    0.12
   4  -4   6   -0.11    0.14
  -5   4  -6    5.87    0.49
   5  -4   6    5.20    0.46
   3   3  -6    5.08    0.45
  -3  -3   6    5.07    0.47
  -3  -3   6    4.69    0.39
   2   3  -6    7.58    0.51
  -2  -3   6    9.12    0.49
  -2  -3   6    6.89    0.51
   1   3  -6    7.27    0.49
  -1  -3   6    6.67    0.49
  -1  -3   6    7.63    0.44
   0   3  -6    0.22    0.15
   0  -3   6    0.03    0.14
  -1   3  -6    6.41    0.44
  -1   3  -6    7.08    0.39
   1  -3   6    6.06    0.45
  -2   3  -6    4.51    0.32
  -2   3  -6    4.47    0.38
   2  -3   6    4.24    0.38
  -3   3  -6    0.06    0.10
  -3   3  -6   -0.03    0.12
   3  -3   6    0.19    0.15
  -4   3  -6   17.61    0.74
  -4   3  -6   17.47    0.61
   4  -3   6   17.04    0.70
  -5   3  -6    3.69    0.38
   5  -3   6    3.43    0.33
  -6   3  -6    0.34    0.19
   4   2  -6    6.13    0.49
   4   2  -6    6.11    0.45
  -4  -2   6    5.56    0.47
  -4  -2   6    5.63    0.43
   3   2  -6   -0.02    0.12
   3   2  -6    0.10    0.14
  -3  -2   6   -0.13    0.11
  -3  -2   6   -0.03    0.15
   2   2  -6   18.76    0.74
   2   2  -6   18.74    0.65
  -2  -2   6   20.66    0.81
  -2  -2   6   20.55    0.70
   1   2  -6    2.15    0.27
   1   2  -6    2.74    0.25
  -1  -2   6    2.24    0.24
  -1  -2   6    2.58    0.30
   0   2  -6   53.39    1.29
   0   2  -6   52.44    1.09
   0  -2   6   52.67    1.33
   0  -2   6   53.24    1.14
  -1   2  -6   16.40    0.50
  -1   2  -6   15.67    0.63
  -1   2  -6   15.78    0.53
   1  -2   6   15.49    0.66
  -2   2  -6    0.22    0.14
  -2   2  -6    0.40    0.12
   2  -2   6    0.40    0.17
  -3   2  -6    4.46    0.28
  -3   2  -6    4.72    0.37
   3  -2   6    4.40    0.36
  -4   2  -6    0.55    0.18
  -4   2  -6    1.38    0.19
   4  -2   6    1.17    0.22
  -5   2  -6   32.68    1.03
   5  -2   6   34.98    0.96
  -6   2  -6    0.04    0.14
  -7   2  -6    0.18    0.16
   5   1  -6    0.77    0.24
   5   1  -6    0.91    0.23
  -5  -1   6    0.76    0.22
  -5  -1   6    0.98    0.25
   4   1  -6    2.64    0.32
   4   1  -6    3.11    0.34
  -4  -1   6    2.46    0.35
  -4  -1   6    2.98    0.33
   3   1  -6    0.32    0.15
   3   1  -6    0.12    0.13
  -3  -1   6   -0.02    0.10
  -3  -1   6    0.45    0.19
   2   1  -6   27.05    0.84
   2   1  -6   27.70    0.80
  -2  -1   6   24.68    0.74
  -2  -1   6   24.33    0.86
   1   1  -6    0.76    0.18
   1   1  -6    0.74    0.16
  -1  -1   6    0.90    0.16
  -1  -1   6    1.00    0.21
   0   1  -6    4.72    0.34
   0   1  -6    4.50    0.28
   0  -1   6    4.13    0.33
   0  -1   6    4.37    0.26
  -1   1  -6    6.71    0.32
  -1   1  -6    6.26    0.38
   1  -1   6    6.82    0.42
  -2   1  -6    0.51    0.11
  -2   1  -6    0.70    0.13
  -2   1  -6    0.56    0.15
   2  -1   6    0.72    0.16
   2  -1   6    0.94    0.20
  -3   1  -6   18.63    0.50
  -3   1  -6   17.51    0.65
  -3   1  -6   18.20    0.53
   3  -1   6   18.18    0.65
   3  -1   6   18.32    0.66
  -4   1  -6    9.92    0.53
  -4   1  -6   10.20    0.39
  -4   1  -6    9.91    0.50
   4  -1   6    9.87    0.50
   4  -1   6   10.11    0.47
  -5   1  -6    1.40    0.19
  -5   1  -6    1.63    0.27
   5  -1   6    1.40    0.25
   5  -1   6    1.35    0.24
  -6   1  -6    5.54    0.44
   6  -1   6    6.08    0.65
  -7   1  -6    0.01    0.14
   5   0  -6   -0.14    0.14
   5   0  -6    0.04    0.13
  -5   0   6   -0.04    0.16
  -5   0   6    0.01    0.13
   4   0  -6    2.00    0.29
   4   0  -6    2.76    0.32
  -4   0   6    2.80    0.30
  -4   0   6    2.52    0.32
   3   0  -6    0.46    0.15
   3   0  -6    0.37    0.16
  -3   0   6    0.53    0.18
  -3   0   6    0.37    0.14
   2   0  -6    0.90    0.19
   2   0  -6    0.94    0.18
  -2   0   6    0.90    0.22
  -2   0   6    0.87    0.16
   1   0  -6   16.34    0.58
   1   0  -6   16.76    0.57
  -1   0   6   16.27    0.51
  -1   0   6   16.03    0.63
   0   0  -6   12.34    0.50
   0   0  -6   13.17    0.47
   0   0   6   12.84    0.51
   0   0   6   13.06    0.41
   0   0   6   12.68    0.54
  -1   0  -6   19.29    0.63
  -1   0  -6   18.33    0.55
   1   0   6   19.16    0.66
   1   0   6   20.28    0.65
   1   0   6   18.60    0.47
  -2   0  -6   80.75    1.47
  -2   0  -6   81.45    1.60
  -2   0  -6   82.39    1.33
   2   0   6   80.74    1.61
   2   0   6   83.09    1.59
  -3   0  -6   22.75    0.71
  -3   0  -6   22.64    0.51
  -3   0  -6   22.94    0.61
   3   0   6   22.75    0.71
   3   0   6   22.93    0.70
  -4   0  -6   24.64    0.66
  -4   0  -6   24.02    0.77
   4   0   6   25.28    0.72
   4   0   6   23.29    0.76
  -5   0  -6    3.25    0.32
  -5   0  -6    3.53    0.27
   5   0   6    2.44    0.28
  -6   0  -6    8.13    0.49
  -6   0  -6    8.06    0.41
   6   0   6    8.44    0.50
  -7   0  -6    3.85    0.39
   7   0   6    4.32    0.36
  -8   0  -6    0.28    0.20
   8   0   6    0.23    0.16
   5  -1  -6    0.68    0.23
   5  -1  -6    0.63    0.19
  -5   1   6    0.67    0.20
  -5   1   6    0.60    0.20
   4  -1  -6    7.51    0.42
   4  -1  -6    7.15    0.46
  -4   1   6    8.19    0.49
  -4   1   6    6.95    0.42
   3  -1  -6    0.61    0.18
   3  -1  -6    0.68    0.16
  -3   1   6    0.72    0.20
  -3   1   6    0.97    0.18
   2  -1  -6    5.40    0.32
   2  -1  -6    5.57    0.36
  -2   1   6    5.99    0.32
  -2   1   6    5.83    0.40
   1  -1  -6    4.18    0.28
   1  -1  -6    4.36    0.30
  -1   1   6    3.78    0.31
  -1   1   6    4.35    0.25
  -1   1   6    3.64    0.29
   0  -1  -6    0.48    0.12
   0  -1  -6    0.51    0.13
   0   1   6    0.36    0.13
   0   1   6    0.53    0.10
   0   1   6    0.37    0.14
  -1  -1  -6   24.24    0.67
  -1  -1  -6   24.31    0.66
   1   1   6   24.77    0.74
   1   1   6   23.94    0.70
   1   1   6   25.23    0.51
  -2  -1  -6    0.23    0.10
  -2  -1  -6    0.11    0.09
   2   1   6    0.20    0.05
   2   1   6    0.25    0.12
   2   1   6    0.30    0.11
  -3  -1  -6   38.35    0.87
  -3  -1  -6   39.80    0.96
   3   1   6   36.68    0.93
   3   1   6   39.68    0.92
  -4  -1  -6   18.29    0.64
  -4  -1  -6   18.69    0.57
   4   1   6   20.14    0.59
   4   1   6   20.02    0.66
  -5  -1  -6   10.28    0.44
  -5  -1  -6    9.85    0.49
   5   1   6   10.48    0.50
  -6  -1  -6   37.00    1.08
  -7  -1  -6    0.86    0.23
   7   1   6    0.87    0.22
  -8  -1  -6    2.13    0.33
   8   1   6    2.35    0.32
   6  -2  -6    2.12    0.37
  -6   2   6    1.85    0.31
   5  -2  -6    0.93    0.23
  -5   2   6    0.64    0.20
  -5   2   6    0.63    0.20
   4  -2  -6    7.57    0.47
   4  -2  -6    7.42    0.39
  -4   2   6    6.92    0.41
  -4   2   6    6.76    0.45
   3  -2  -6   19.31    0.71
   3  -2  -6   20.91    0.62
  -3   2   6   20.84    0.75
  -3   2   6   20.86    0.66
   2  -2  -6    5.81    0.30
   2  -2  -6    5.49    0.36
  -2   2   6    6.16    0.32
  -2   2   6    6.37    0.40
  -2   2   6    5.77    0.36
   1  -2  -6   14.99    0.54
   1  -2  -6   13.43    0.45
  -1   2   6   14.54    0.53
  -1   2   6   13.06    0.55
  -1   2   6   15.10    0.44
   0  -2  -6    6.19    0.30
   0  -2  -6    6.19    0.33
   0   2   6    6.71    0.39
   0   2   6    6.44    0.34
   0   2   6    6.67    0.24
  -1  -2  -6    5.18    0.28
   1   2   6    5.16    0.16
   1   2   6    5.05    0.30
   1   2   6    4.52    0.31
  -2  -2  -6   32.30    0.77
  -2  -2  -6   30.51    0.76
   2   2   6   31.31    0.79
   2   2   6   31.64    0.82
  -3  -2  -6    2.68    0.22
  -3  -2  -6    3.02    0.24
   3   2   6    2.76    0.23
   3   2   6    2.59    0.23
  -4  -2  -6   99.12    1.87
  -4  -2  -6   98.94    1.81
   4   2   6  100.18    1.75
   4   2   6  104.01    1.86
  -5  -2  -6   12.08    0.49
  -5  -2  -6   11.05    0.51
   5   2   6   11.38    0.50
  -6  -2  -6    0.15    0.13
   6   2   6    0.19    0.14
  -7  -2  -6    2.49    0.32
   7   2   6    2.94    0.33
  -8  -2  -6    1.21    0.26
   8   2   6    0.86    0.24
   6  -3  -6   11.46    0.68
  -6   3   6   12.37    0.64
   5  -3  -6    8.87    0.55
  -5   3   6    9.85    0.53
  -5   3   6    9.49    0.54
   4  -3  -6    0.11    0.14
  -4   3   6   -0.03    0.11
  -4   3   6   -0.02    0.12
   3  -3  -6    1.55    0.24
  -3   3   6    1.82    0.26
  -3   3   6    1.76    0.23
  -3   3   6    2.17    0.28
   2  -3  -6    4.00    0.31
   2  -3  -6    4.15    0.23
  -2   3   6    4.68    0.28
  -2   3   6    4.44    0.35
  -2   3   6    4.05    0.32
   1  -3  -6    4.34    0.30
   1  -3  -6    4.36    0.23
  -1   3   6    4.54    0.24
  -1   3   6    3.93    0.29
  -1   3   6    4.38    0.33
   0  -3  -6   11.01    0.36
   0  -3  -6   10.18    0.42
   0   3   6    9.63    0.45
   0   3   6   10.47    0.43
   0   3   6   11.14    0.30
  -1  -3  -6    7.80    0.36
  -1  -3  -6    7.57    0.31
   1   3   6    7.28    0.38
   1   3   6    7.08    0.34
   1   3   6    7.55    0.18
  -2  -3  -6   14.38    0.46
  -2  -3  -6   14.99    0.50
   2   3   6   14.23    0.52
   2   3   6   15.37    0.49
  -3  -3  -6   33.73    0.83
  -3  -3  -6   33.72    0.82
   3   3   6   34.79    0.82
   3   3   6   32.87    0.82
  -4  -3  -6    0.05    0.09
  -4  -3  -6    0.04    0.09
   4   3   6    0.05    0.08
   4   3   6    0.06    0.09
  -5  -3  -6    4.00    0.31
  -6  -3  -6   21.94    0.78
   6   3   6   20.68    0.76
  -7  -3  -6    0.48    0.18
   7   3   6    0.83    0.22
  -8  -3  -6   18.03    0.81
   8   3   6   19.38    0.83
   6  -4  -6    2.59    0.38
  -6   4   6    3.28    0.37
   5  -4  -6    0.53    0.20
  -5   4   6    0.59    0.20
  -5   4   6    1.04    0.22
   4  -4  -6    3.33    0.34
  -4   4   6    3.59    0.34
  -4   4   6    3.86    0.32
   3  -4  -6    9.11    0.48
  -3   4   6   10.73    0.51
  -3   4   6    9.58    0.43
  -3   4   6    9.22    0.50
   2  -4  -6    5.19    0.35
  -2   4   6    4.80    0.28
  -2   4   6    5.21    0.36
  -2   4   6    4.56    0.33
   1  -4  -6   18.30    0.61
   1  -4  -6   18.55    0.43
  -1   4   6   19.08    0.62
  -1   4   6   19.07    0.67
  -1   4   6   17.96    0.49
   0  -4  -6   52.41    0.92
   0  -4  -6   50.73    1.11
   0   4   6   52.48    1.12
   0   4   6   51.62    0.90
   0   4   6   50.20    1.18
  -1  -4  -6   21.87    0.65
  -1  -4  -6   22.45    0.54
   1   4   6   22.41    0.69
   1   4   6   21.41    0.61
   1   4   6   23.32    0.45
  -2  -4  -6    9.85    0.35
   2   4   6    9.84    0.43
   2   4   6   10.41    0.39
  -3  -4  -6    3.98    0.28
  -3  -4  -6    4.85    0.28
   3   4   6    5.02    0.28
   3   4   6    4.77    0.30
  -4  -4  -6    7.52    0.39
  -4  -4  -6    8.31    0.40
   4   4   6    8.24    0.36
   4   4   6    7.70    0.35
  -5  -4  -6    5.63    0.36
  -6  -4  -6    2.56    0.30
   6   4   6    3.28    0.34
  -7  -4  -6   18.60    0.77
   7   4   6   18.71    0.78
  -8  -4  -6    5.54    0.47
   8   4   6    5.21    0.47
   5  -5  -6    4.83    0.42
  -5   5   6    4.82    0.41
  -5   5   6    4.66    0.41
   4  -5  -6    6.46    0.45
  -4   5   6    5.86    0.39
  -4   5   6    5.66    0.42
   3  -5  -6    1.61    0.25
  -3   5   6    1.57    0.24
  -3   5   6    1.50    0.21
  -3   5   6    1.46    0.24
   2  -5  -6    9.75    0.47
  -2   5   6   10.18    0.48
  -2   5   6    9.77    0.40
  -2   5   6   10.06    0.52
   1  -5  -6    4.47    0.32
  -1   5   6    5.13    0.37
  -1   5   6    5.04    0.26
  -1   5   6    4.55    0.31
   0  -5  -6  105.29    1.93
   0   5   6  109.50    2.06
   0   5   6  109.69    1.72
   0   5   6  107.51    1.90
  -1  -5  -6    0.96    0.18
  -1  -5  -6    0.93    0.12
   1   5   6    0.83    0.12
   1   5   6    1.04    0.18
   1   5   6    0.87    0.15
  -2  -5  -6    0.03    0.06
  -2  -5  -6    0.06    0.09
   2   5   6    0.09    0.10
   2   5   6    0.11    0.08
  -3  -5  -6    9.38    0.38
  -3  -5  -6    9.60    0.43
   3   5   6   10.33    0.45
   3   5   6    9.33    0.36
  -4  -5  -6    3.79    0.30
  -4  -5  -6    4.51    0.30
   4   5   6    4.61    0.26
   4   5   6    4.46    0.29
  -5  -5  -6   24.41    0.78
  -6  -5  -6    0.44    0.17
   6   5   6    0.31    0.17
  -7  -5  -6    4.26    0.39
   7   5   6    3.47    0.38
  -8  -5  -6   18.19    0.82
   8   5   6   17.37    0.83
   5  -6  -6    0.06    0.16
  -5   6   6    0.15    0.17
  -5   6   6    0.32    0.17
   4  -6  -6    7.64    0.48
  -4   6   6    8.07    0.51
  -4   6   6    7.53    0.45
  -4   6   6    7.24    0.49
   3  -6  -6    0.13    0.14
  -3   6   6    0.36    0.16
  -3   6   6    0.37    0.14
  -3   6   6    0.16    0.14
   2  -6  -6    0.17    0.13
  -2   6   6    0.20    0.12
  -2   6   6    0.49    0.16
  -2   6   6    0.34    0.16
   1  -6  -6   53.31    1.18
  -1   6   6   50.63    1.16
  -1   6   6   50.81    1.29
  -1   6   6   53.12    1.07
   0  -6  -6   44.62    1.04
   0   6   6   45.15    0.90
   0   6   6   42.27    0.99
   0   6   6   42.40    1.13
  -1  -6  -6    1.17    0.19
   1   6   6    1.04    0.16
   1   6   6    1.04    0.21
   1   6   6    0.95    0.17
  -2  -6  -6    9.14    0.33
  -2  -6  -6    8.73    0.41
   2   6   6    8.48    0.34
   2   6   6    9.25    0.46
  -3  -6  -6   14.03    0.47
  -3  -6  -6   13.54    0.53
   3   6   6   12.73    0.41
   3   6   6   13.82    0.55
  -4  -6  -6   27.24    0.82
  -4  -6  -6   26.38    0.76
   4   6   6   27.10    0.65
   4   6   6   28.46    0.79
  -5  -6  -6   16.41    0.64
  -5  -6  -6   17.88    0.65
   5   6   6   16.11    0.50
  -6  -6  -6    3.50    0.33
   6   6   6    2.95    0.34
  -7  -6  -6    0.38    0.17
   7   6   6    0.06    0.17
   5  -7  -6    0.20    0.18
  -5   7   6   -0.06    0.14
  -5   7   6    0.15    0.18
   4  -7  -6    1.68    0.28
  -4   7   6    1.69    0.30
  -4   7   6    1.77    0.28
  -4   7   6    2.13    0.32
   3  -7  -6    1.01    0.22
  -3   7   6    0.64    0.20
  -3   7   6    0.47    0.16
  -3   7   6    0.66    0.21
   2  -7  -6    9.12    0.47
  -2   7   6    8.38    0.46
  -2   7   6    8.36    0.42
  -2   7   6    7.16    0.48
   1  -7  -6    1.77    0.24
  -1   7   6    1.12    0.24
  -1   7   6    1.60    0.22
  -1   7   6    1.69    0.20
   0  -7  -6    9.39    0.44
   0   7   6    8.93    0.37
   0   7   6    9.07    0.41
   0   7   6    8.06    0.48
  -1  -7  -6    2.50    0.25
   1   7   6    2.46    0.29
   1   7   6    2.36    0.21
  -2  -7  -6    9.08    0.43
   2   7   6    9.54    0.50
   2   7   6    9.40    0.35
  -3  -7  -6    4.66    0.33
  -3  -7  -6    3.96    0.26
   3   7   6    4.04    0.22
   3   7   6    4.34    0.34
  -4  -7  -6   11.09    0.47
  -4  -7  -6   10.72    0.51
   4   7   6   10.24    0.49
   4   7   6   10.83    0.36
  -5  -7  -6   18.65    0.71
  -5  -7  -6   19.60    0.70
   5   7   6   20.05    0.53
  -6  -7  -6    0.17    0.14
  -7  -7  -6    3.22    0.37
   7   7   6    3.44    0.42
   4  -8  -6    2.04    0.32
  -4   8   6    1.63    0.30
  -4   8   6    2.36    0.32
  -4   8   6    1.94    0.33
   3  -8  -6    0.34    0.16
  -3   8   6    0.20    0.15
  -3   8   6    0.26    0.16
  -3   8   6    0.42    0.21
   2  -8  -6    0.23    0.14
  -2   8   6    0.18    0.14
  -2   8   6    0.47    0.19
  -2   8   6    0.40    0.15
   1  -8  -6    0.05    0.12
  -1   8   6    0.07    0.10
  -1   8   6    0.09    0.15
  -1   8   6    0.01    0.10
   0  -8  -6    0.23    0.13
   0   8   6    0.21    0.15
   0   8   6    0.26    0.12
   0   8   6    0.25    0.11
  -1  -8  -6    4.44    0.32
   1   8   6    4.53    0.40
   1   8   6    4.82    0.28
  -2  -8  -6   34.14    0.91
   2   8   6   34.07    1.04
   2   8   6   34.39    0.76
  -3  -8  -6    0.61    0.17
   3   8   6    0.40    0.17
   3   8   6    0.62    0.11
  -4  -8  -6    8.20    0.46
   4   8   6    7.82    0.47
   4   8   6    8.61    0.30
  -5  -8  -6    0.20    0.14
  -5  -8  -6    0.07    0.11
   5   8   6    0.06    0.07
  -6  -8  -6   32.04    1.02
  -6  -8  -6   31.45    1.00
   6   8   6   32.29    0.72
  -3   9   6   10.90    0.57
  -3   9   6   11.28    0.68
  -3   9   6   10.60    0.59
  -2   9   6    6.10    0.42
  -2   9   6    5.65    0.48
  -2   9   6    6.40    0.44
   1  -9  -6    3.39    0.46
  -1   9   6    4.30    0.34
  -1   9   6    3.90    0.42
  -1   9   6    4.62    0.35
   0  -9  -6    1.23    0.21
   0   9   6    0.96    0.18
   0   9   6    1.00    0.24
  -1  -9  -6    4.53    0.33
   1   9   6    4.06    0.27
   1   9   6    4.06    0.40
  -2  -9  -6    9.15    0.47
   2   9   6   10.29    0.59
   2   9   6    9.53    0.36
  -3  -9  -6   -0.01    0.12
   3   9   6    0.08    0.07
   3   9   6    0.20    0.16
  -4  -9  -6   19.87    0.74
   4   9   6   20.39    0.81
   4   9   6   19.50    0.46
  -5  -9  -6    4.53    0.39
   5   9   6    5.66    0.22
  -1  10   6    3.54    0.43
  -1  10   6    3.89    0.48
  -1  10   6    3.52    0.33
   0  10   6    1.12    0.29
   0  10   6    1.10    0.21
   1  10   6    0.19    0.10
   1  10   6    0.29    0.19
   2  10   6    0.81    0.24
   2  10   6    0.70    0.13
   3  10   6    6.58    0.53
   3  10   6    5.61    0.26
   0   4  -7    4.91    0.47
   0  -4   7    4.32    0.48
   0  -4   7    3.65    0.35
  -1   4  -7   -0.05    0.11
  -1   4  -7   -0.19    0.13
   1  -4   7    0.12    0.19
  -2   4  -7   -0.12    0.16
  -2   4  -7    0.06    0.16
   2  -4   7    0.27    0.21
  -3   4  -7    8.86    0.59
   3  -4   7    9.27    0.61
  -4   4  -7    0.53    0.22
   4  -4   7    0.34    0.21
   2   3  -7    1.14    0.27
  -2  -3   7    1.81    0.28
  -2  -3   7    1.47    0.32
   1   3  -7    2.16    0.34
  -1  -3   7    2.44    0.37
  -1  -3   7    2.46    0.29
   0   3  -7   11.24    0.63
   0  -3   7   10.62    0.65
   0  -3   7   12.70    0.56
  -1   3  -7    8.89    0.55
   1  -3   7    9.04    0.58
  -2   3  -7   19.42    0.81
  -2   3  -7   20.63    0.95
   2  -3   7   20.82    0.86
  -3   3  -7   11.33    0.63
   3  -3   7   11.55    0.64
  -4   3  -7    5.00    0.45
   4  -3   7    5.01    0.44
  -5   3  -7    0.97    0.26
   3   2  -7    5.15    0.42
   3   2  -7    6.48    0.49
  -3  -2   7    6.23    0.44
  -3  -2   7    6.26    0.52
   2   2  -7    1.86    0.31
   2   2  -7    2.31    0.28
  -2  -2   7    2.53    0.37
  -2  -2   7    1.44    0.24
   1   2  -7    7.53    0.50
  -1  -2   7    7.96    0.43
  -1  -2   7    8.33    0.55
   0   2  -7    8.41    0.52
   0  -2   7    8.05    0.54
   0  -2   7    8.34    0.42
  -1   2  -7    4.48    0.38
   1  -2   7    4.58    0.42
  -2   2  -7   18.81    0.76
   2  -2   7   19.22    0.79
  -3   2  -7    2.92    0.34
   3  -2   7    3.53    0.37
  -4   2  -7    5.47    0.44
   4  -2   7    4.87    0.40
  -5   2  -7    1.83    0.31
  -6   2  -7    0.13    0.17
   4   1  -7    4.22    0.43
   4   1  -7    4.69    0.44
  -4  -1   7    5.27    0.49
  -4  -1   7    4.34    0.40
   3   1  -7    0.45    0.18
   3   1  -7    0.57    0.19
  -3  -1   7    0.46    0.17
  -3  -1   7    0.34    0.21
   2   1  -7    6.67    0.42
   2   1  -7    6.44    0.45
  -2  -1   7    6.96    0.40
  -2  -1   7    5.68    0.46
   1   1  -7    1.23    0.24
   1   1  -7    1.65    0.24
  -1  -1   7    1.22    0.25
  -1  -1   7    1.76    0.22
   0   1  -7    5.54    0.40
   0   1  -7    4.99    0.33
   0  -1   7    4.56    0.40
   0  -1   7    4.61    0.29
  -1   1  -7   10.10    0.52
  -1   1  -7    9.64    0.42
   1  -1   7    8.97    0.52
   1  -1   7    9.49    0.39
  -2   1  -7    2.76    0.24
  -2   1  -7    2.29    0.29
   2  -1   7    2.10    0.29
  -3   1  -7  121.21    2.35
  -3   1  -7  125.72    2.11
   3  -1   7  120.28    2.33
  -4   1  -7    1.38    0.24
   4  -1   7    1.38    0.24
  -5   1  -7    4.43    0.40
  -6   1  -7   -0.03    0.12
  -7   1  -7    8.00    0.57
   4   0  -7    8.04    0.53
   4   0  -7    7.03    0.48
  -4   0   7    6.63    0.51
  -4   0   7    7.34    0.48
   3   0  -7    1.83    0.29
   3   0  -7    1.69    0.27
  -3   0   7    1.65    0.25
  -3   0   7    1.79    0.31
   2   0  -7   -0.07    0.10
   2   0  -7    0.06    0.12
  -2   0   7    0.05    0.13
  -2   0   7   -0.10    0.09
   1   0  -7    3.34    0.30
   1   0  -7    2.91    0.30
  -1   0   7    3.15    0.25
  -1   0   7    2.83    0.33
   0   0  -7    0.14    0.11
   0   0  -7   -0.02    0.11
   0   0   7   -0.02    0.12
   0   0   7   -0.07    0.07
  -1   0  -7   13.37    0.56
  -1   0  -7   13.37    0.51
   1   0   7   13.53    0.60
  -2   0  -7   30.28    0.79
  -2   0  -7   30.42    0.89
   2   0   7   29.79    0.91
   2   0   7   30.37    0.90
  -3   0  -7    5.59    0.39
  -3   0  -7    6.94    0.36
   3   0   7    6.89    0.41
   3   0   7    5.94    0.40
  -4   0  -7   19.87    0.73
  -4   0  -7   19.06    0.60
   4   0   7   19.34    0.72
   4   0   7   18.85    0.66
  -5   0  -7   15.69    0.56
  -5   0  -7   15.19    0.67
   5   0   7   15.25    0.67
  -6   0  -7    5.45    0.45
  -6   0  -7    5.71    0.36
   6   0   7    5.61    0.44
  -7   0  -7   -0.09    0.15
   7   0   7    0.08    0.17
   4  -1  -7    1.72    0.31
   4  -1  -7    1.54    0.26
  -4   1   7    1.78    0.31
  -4   1   7    1.12    0.23
   3  -1  -7    1.02    0.20
   3  -1  -7    0.80    0.22
  -3   1   7    0.74    0.22
  -3   1   7    0.78    0.18
   2  -1  -7    0.56    0.15
   2  -1  -7    0.36    0.16
  -2   1   7    0.52    0.15
  -2   1   7    0.31    0.19
   1  -1  -7    3.90    0.32
   1  -1  -7    3.66    0.29
  -1   1   7    3.10    0.33
  -1   1   7    4.19    0.26
   0  -1  -7    0.19    0.12
   0  -1  -7    0.11    0.11
   0   1   7    0.12    0.07
   0   1   7    0.32    0.14
   0   1   7   -0.09    0.10
  -1  -1  -7    8.50    0.42
  -1  -1  -7    9.17    0.41
   1   1   7    8.64    0.44
   1   1   7    9.10    0.48
  -2  -1  -7    1.30    0.22
  -2  -1  -7    1.03    0.17
   2   1   7    1.02    0.21
   2   1   7    1.19    0.21
  -3  -1  -7  121.49    2.22
  -3  -1  -7  121.99    2.12
   3   1   7  123.93    2.22
   3   1   7  121.37    2.23
  -4  -1  -7    8.92    0.47
  -4  -1  -7    8.76    0.41
   4   1   7    8.47    0.43
   4   1   7    8.91    0.47
  -5  -1  -7    3.94    0.30
  -5  -1  -7    3.32    0.33
   5   1   7    3.49    0.33
  -6  -1  -7    0.57    0.17
  -6  -1  -7    0.55    0.17
   6   1   7    0.29    0.17
  -7  -1  -7    5.78    0.46
  -7  -1  -7    6.10    0.41
   7   1   7    6.46    0.48
   5  -2  -7    7.90    0.56
  -5   2   7    6.28    0.45
  -5   2   7    8.11    0.56
   4  -2  -7    9.17    0.56
  -4   2   7   10.81    0.60
  -4   2   7   10.17    0.52
   3  -2  -7    0.55    0.15
   3  -2  -7    0.45    0.18
  -3   2   7    0.53    0.16
  -3   2   7    0.86    0.23
   2  -2  -7   29.96    0.80
   2  -2  -7   29.29    0.89
  -2   2   7   29.34    0.94
  -2   2   7   28.96    0.77
   1  -2  -7    0.32    0.12
   1  -2  -7    0.27    0.14
  -1   2   7    0.16    0.11
  -1   2   7    0.18    0.09
  -1   2   7    0.43    0.17
   0  -2  -7    2.41    0.25
   0   2   7    2.70    0.27
   0   2   7    2.87    0.27
   0   2   7    2.56    0.28
  -1  -2  -7   26.09    0.75
  -1  -2  -7   27.15    0.74
   1   2   7   26.72    0.78
   1   2   7   25.95    0.82
  -2  -2  -7   32.64    0.85
  -2  -2  -7   32.95    0.85
   2   2   7   32.43    0.91
   2   2   7   36.00    0.92
  -3  -2  -7   10.94    0.47
  -3  -2  -7   10.84    0.45
   3   2   7   10.07    0.47
   3   2   7   10.61    0.48
  -4  -2  -7   11.34    0.51
  -4  -2  -7    9.92    0.44
   4   2   7    9.86    0.44
   4   2   7   10.37    0.49
  -5  -2  -7    5.94    0.39
  -5  -2  -7    5.09    0.34
   5   2   7    5.70    0.39
  -6  -2  -7   12.17    0.54
  -6  -2  -7   11.23    0.58
   6   2   7   11.47    0.57
  -7  -2  -7    0.47    0.18
  -7  -2  -7    0.47    0.19
   7   2   7    0.22    0.16
  -8  -2  -7    2.33    0.35
   5  -3  -7    0.95    0.25
  -5   3   7    0.89    0.24
  -5   3   7    1.07    0.24
   4  -3  -7    0.26    0.18
  -4   3   7    0.50    0.17
  -4   3   7    0.23    0.17
   3  -3  -7   23.36    0.82
  -3   3   7   21.15    0.70
  -3   3   7   22.53    0.84
   2  -3  -7    0.42    0.17
  -2   3   7    0.68    0.15
  -2   3   7    0.44    0.16
  -2   3   7    0.66    0.19
   1  -3  -7    1.77    0.25
   1  -3  -7    1.40    0.18
  -1   3   7    1.62    0.23
  -1   3   7    1.58    0.17
  -1   3   7    1.63    0.24
   0  -3  -7    2.43    0.25
   0  -3  -7    2.44    0.21
   0   3   7    1.96    0.26
   0   3   7    2.68    0.26
  -1  -3  -7   13.71    0.52
  -1  -3  -7   13.74    0.48
   1   3   7   13.06    0.55
   1   3   7   13.26    0.52
  -2  -3  -7  123.62    2.15
  -2  -3  -7  122.84    2.08
   2   3   7  119.72    2.20
   2   3   7  121.78    2.17
  -3  -3  -7    1.39    0.20
  -3  -3  -7    1.22    0.19
   3   3   7    1.71    0.22
   3   3   7    1.58    0.21
  -4  -3  -7   -0.02    0.08
  -4  -3  -7    0.13    0.11
   4   3   7    0.21    0.12
   4   3   7   -0.14    0.08
  -5  -3  -7   -0.01    0.10
  -5  -3  -7    0.37    0.13
   5   3   7    0.16    0.12
  -6  -3  -7    2.77    0.32
  -6  -3  -7    3.23    0.31
   6   3   7    2.90    0.30
  -7  -3  -7    6.49    0.48
  -8  -3  -7    0.20    0.17
   8   3   7    0.10    0.15
   5  -4  -7    6.52    0.51
  -5   4   7    7.45    0.54
  -5   4   7    6.93    0.48
   4  -4  -7    1.53    0.29
  -4   4   7    2.00    0.27
  -4   4   7    1.80    0.31
   3  -4  -7    1.04    0.23
  -3   4   7    0.89    0.22
  -3   4   7    0.95    0.19
   2  -4  -7    4.11    0.34
  -2   4   7    4.56    0.36
  -2   4   7    4.53    0.39
  -2   4   7    4.42    0.28
   1  -4  -7    5.66    0.38
  -1   4   7    6.72    0.30
  -1   4   7    6.77    0.40
  -1   4   7    6.78    0.43
   0  -4  -7   30.75    0.85
   0  -4  -7   32.57    0.71
   0   4   7   31.33    0.87
   0   4   7   30.72    0.93
  -1  -4  -7    0.75    0.13
  -1  -4  -7    1.03    0.19
   1   4   7    0.84    0.17
   1   4   7    0.70    0.19
  -2  -4  -7    8.16    0.41
  -2  -4  -7    8.83    0.37
   2   4   7    8.22    0.44
   2   4   7    9.14    0.41
  -3  -4  -7   43.93    1.05
  -3  -4  -7   41.99    0.97
   3   4   7   44.83    1.05
   3   4   7   42.66    1.00
  -4  -4  -7   37.47    0.96
  -4  -4  -7   35.32    0.95
   4   4   7   38.96    0.93
   4   4   7   36.78    0.93
  -5  -4  -7    0.78    0.18
  -5  -4  -7    0.79    0.18
   5   4   7    0.75    0.17
  -6  -4  -7    0.07    0.13
  -6  -4  -7    0.11    0.13
   6   4   7    0.17    0.13
  -7  -4  -7    0.67    0.22
   5  -5  -7    0.11    0.18
  -5   5   7    0.17    0.17
  -5   5   7    0.34    0.19
   4  -5  -7    0.33    0.20
  -4   5   7    0.51    0.17
  -4   5   7    0.61    0.21
   3  -5  -7    3.90    0.36
  -3   5   7    4.19    0.38
  -3   5   7    4.41    0.40
  -3   5   7    3.67    0.30
   2  -5  -7    6.33    0.42
  -2   5   7    6.70    0.46
  -2   5   7    6.49    0.35
  -2   5   7    7.10    0.44
   1  -5  -7    0.42    0.16
  -1   5   7    0.35    0.15
  -1   5   7    0.58    0.20
  -1   5   7    0.49    0.14
   0  -5  -7   31.66    0.87
   0   5   7   31.92    0.86
   0   5   7   30.37    0.93
  -1  -5  -7    7.18    0.39
  -1  -5  -7    7.63    0.31
   1   5   7    7.88    0.44
   1   5   7    7.61    0.38
  -2  -5  -7  178.96    2.74
  -2  -5  -7  171.99    2.91
   2   5   7  175.81    3.00
   2   5   7  175.04    2.84
  -3  -5  -7    0.53    0.13
  -3  -5  -7    0.49    0.16
   3   5   7    0.23    0.14
   3   5   7    0.76    0.15
  -4  -5  -7   19.29    0.68
  -4  -5  -7   20.33    0.65
   4   5   7   19.97    0.66
   4   5   7   19.26    0.61
  -5  -5  -7   17.65    0.68
  -5  -5  -7   18.95    0.68
   5   5   7   18.93    0.62
  -6  -5  -7    1.71    0.26
  -6  -5  -7    2.66    0.32
   6   5   7    2.06    0.25
  -7  -5  -7    6.36    0.47
   4  -6  -7    2.91    0.36
  -4   6   7    2.24    0.31
  -4   6   7    2.23    0.34
   3  -6  -7    1.80    0.28
  -3   6   7    1.67    0.28
  -3   6   7    2.30    0.32
  -3   6   7    1.37    0.22
   2  -6  -7   11.83    0.57
  -2   6   7   11.99    0.61
  -2   6   7   13.73    0.61
  -2   6   7   13.50    0.51
   1  -6  -7    3.68    0.32
  -1   6   7    2.96    0.33
  -1   6   7    3.75    0.32
   0  -6  -7   35.78    0.95
   0   6   7   35.07    0.93
   0   6   7   36.10    1.05
  -1  -6  -7    9.15    0.45
   1   6   7    9.90    0.44
   1   6   7    9.39    0.50
  -2  -6  -7    6.77    0.39
   2   6   7    6.97    0.35
   2   6   7    7.37    0.44
  -3  -6  -7   59.76    1.35
  -3  -6  -7   62.54    1.23
   3   6   7   59.75    1.22
   3   6   7   62.39    1.40
  -4  -6  -7    8.07    0.41
  -4  -6  -7    7.88    0.44
   4   6   7    7.89    0.37
   4   6   7    8.48    0.44
  -5  -6  -7    0.11    0.11
  -5  -6  -7   -0.11    0.11
   5   6   7    0.17    0.11
  -6  -6  -7    4.14    0.36
  -6  -6  -7    3.89    0.36
   6   6   7    3.64    0.29
  -7  -6  -7    0.90    0.23
   4  -7  -7    1.72    0.31
  -4   7   7    1.57    0.31
  -4   7   7    1.56    0.27
   3  -7  -7    1.71    0.28
  -3   7   7    1.17    0.25
  -3   7   7    1.29    0.23
  -3   7   7    1.40    0.29
   2  -7  -7    1.01    0.22
  -2   7   7    1.48    0.25
  -2   7   7    0.94    0.23
  -2   7   7    1.48    0.22
   1  -7  -7   -0.07    0.11
  -1   7   7    0.13    0.15
  -1   7   7   -0.05    0.10
   0  -7  -7    0.02    0.12
   0   7   7    0.15    0.16
   0   7   7    0.12    0.10
  -1  -7  -7    7.18    0.42
   1   7   7    7.36    0.37
   1   7   7    7.56    0.48
  -2  -7  -7   65.83    1.44
   2   7   7   64.64    1.30
   2   7   7   69.05    1.55
  -3  -7  -7   11.35    0.53
   3   7   7   11.67    0.56
   3   7   7   11.46    0.43
  -4  -7  -7    0.12    0.13
  -4  -7  -7    0.02    0.09
   4   7   7    0.02    0.08
   4   7   7    0.07    0.12
  -5  -7  -7   26.78    0.84
  -5  -7  -7   26.40    0.88
   5   7   7   24.09    0.67
  -6  -7  -7    4.34    0.39
  -6  -7  -7    4.12    0.38
   6   7   7    4.58    0.30
   3  -8  -7    0.12    0.16
  -3   8   7   -0.08    0.14
  -3   8   7   -0.04    0.15
  -3   8   7   -0.02    0.12
   2  -8  -7    3.45    0.34
  -2   8   7    3.58    0.40
  -2   8   7    4.15    0.37
   1  -8  -7    2.66    0.31
  -1   8   7    2.44    0.28
  -1   8   7    2.73    0.35
   0  -8  -7    2.67    0.29
   0   8   7    3.59    0.38
   0   8   7    3.04    0.28
  -1  -8  -7    2.65    0.28
   1   8   7    3.27    0.36
   1   8   7    2.75    0.25
  -2  -8  -7    0.98    0.21
   2   8   7    0.97    0.17
   2   8   7    0.98    0.23
  -3  -8  -7   49.66    1.22
   3   8   7   48.92    1.30
   3   8   7   47.51    1.01
  -4  -8  -7    0.92    0.20
   4   8   7    0.68    0.13
   4   8   7    1.05    0.23
  -5  -8  -7    2.55    0.31
   5   8   7    2.68    0.21
  -6  -8  -7    0.24    0.15
  -6  -8  -7    0.07    0.13
   6   8   7    0.02    0.08
   2  -9  -7    1.89    0.29
  -2   9   7    2.25    0.36
  -2   9   7    2.02    0.30
   1  -9  -7   19.97    0.74
  -1   9   7   19.88    0.88
  -1   9   7   18.98    0.73
   0  -9  -7    1.56    0.24
   0   9   7    1.17    0.27
   0   9   7    1.41    0.22
  -1  -9  -7    5.06    0.37
   1   9   7    4.62    0.31
   1   9   7    5.19    0.47
  -2  -9  -7   10.76    0.53
   2   9   7    9.62    0.59
   2   9   7    9.48    0.41
  -3  -9  -7   13.93    0.61
   3   9   7   15.03    0.72
   3   9   7   13.70    0.46
  -4  -9  -7    7.12    0.47
   4   9   7    8.52    0.54
   4   9   7    8.50    0.34
   0  10   7    1.34    0.22
   0  10   7    0.65    0.24
   1  10   7    3.72    0.30
   1  10   7    4.60    0.47
  -2 -10  -7   17.38    0.69
   2  10   7   16.53    0.81
   2  10   7   15.90    0.54
  -3 -10  -7    0.36    0.17
   3  10   7    0.44    0.11
   3  10   7    0.36    0.18
  -1   3  -8   11.02    0.66
   1  -3   8   11.18    0.70
  -2   3  -8    4.45    0.45
   2  -3   8    4.32    0.47
  -3   3  -8    3.19    0.41
   3  -3   8    2.32    0.38
   1   2  -8   -0.17    0.13
  -1  -2   8   -0.16    0.15
   0   2  -8   10.36    0.61
   0  -2   8    9.76    0.64
  -1   2  -8   12.03    0.65
   1  -2   8   11.41    0.67
  -2   2  -8    2.34    0.34
   2  -2   8    2.11    0.36
  -3   2  -8    3.73    0.40
   3  -2   8    5.28    0.47
  -4   2  -8    9.59    0.60
   4  -2   8    9.67    0.60
  -5   2  -8    6.71    0.54
   2   1  -8    7.81    0.53
   2   1  -8    8.07    0.49
  -2  -1   8    7.78    0.58
  -2  -1   8    7.38    0.54
   1   1  -8    0.05    0.13
   1   1  -8    0.20    0.15
  -1  -1   8   -0.06    0.14
   0   1  -8    2.41    0.33
   0   1  -8    3.07    0.30
   0  -1   8    2.07    0.34
  -1   1  -8    1.29    0.25
   1  -1   8    0.89    0.24
  -2   1  -8    0.23    0.16
   2  -1   8    0.15    0.17
  -3   1  -8    1.94    0.31
   3  -1   8    1.91    0.31
  -4   1  -8    2.02    0.32
   4  -1   8    2.26    0.34
  -5   1  -8    2.80    0.37
  -6   1  -8    0.11    0.16
   3   0  -8    5.43    0.43
   3   0  -8    5.11    0.43
  -3   0   8    5.54    0.41
  -3   0   8    6.19    0.52
   2   0  -8    1.34    0.26
   2   0  -8    1.41    0.26
  -2   0   8    2.22    0.34
  -2   0   8    1.05    0.31
   1   0  -8    0.51    0.18
   1   0  -8    0.99    0.22
  -1   0   8    0.82    0.23
   0   0  -8    1.91    0.28
   0   0  -8    2.19    0.27
   0   0   8    1.56    0.30
  -1   0  -8    0.35    0.15
  -1   0  -8    0.65    0.19
   1   0   8    0.80    0.23
  -2   0  -8    1.69    0.23
  -2   0  -8    1.58    0.27
   2   0   8    1.64    0.29
  -3   0  -8   12.18    0.50
  -3   0  -8   12.01    0.60
   3   0   8   11.31    0.58
  -4   0  -8    9.14    0.53
  -4   0  -8    8.49    0.43
   4   0   8    7.99    0.48
  -5   0  -8    2.57    0.34
  -6   0  -8    0.95    0.24
   3  -1  -8   33.30    1.01
   3  -1  -8   34.55    1.09
  -3   1   8   34.60    1.15
  -3   1   8   33.01    0.96
   2  -1  -8    0.23    0.17
   2  -1  -8    0.37    0.16
  -2   1   8    0.36    0.21
   1  -1  -8    9.36    0.49
   1  -1  -8    8.49    0.48
  -1   1   8    8.83    0.55
   0  -1  -8    9.10    0.48
   0  -1  -8    8.80    0.47
   0   1   8    8.53    0.52
  -1  -1  -8    0.25    0.14
  -1  -1  -8    0.45    0.16
   1   1   8    0.77    0.22
  -2  -1  -8   11.11    0.53
  -2  -1  -8   11.40    0.50
   2   1   8   10.71    0.54
   2   1   8   10.93    0.56
  -3  -1  -8    0.11    0.13
  -3  -1  -8    0.38    0.14
   3   1   8    0.13    0.15
   3   1   8    0.21    0.14
  -4  -1  -8    0.37    0.14
  -4  -1  -8    0.35    0.16
   4   1   8    0.04    0.13
   4   1   8    0.19    0.15
  -5  -1  -8    9.49    0.47
  -5  -1  -8    9.38    0.54
   5   1   8    9.61    0.55
  -6  -1  -8    0.27    0.14
  -6  -1  -8    0.11    0.16
   6   1   8    0.23    0.17
  -7  -1  -8    0.03    0.16
  -7  -1  -8    0.07    0.13
   7   1   8   -0.11    0.14
   4  -2  -8    9.99    0.61
  -4   2   8    7.72    0.48
  -4   2   8    9.60    0.62
   3  -2  -8    0.83    0.24
  -3   2   8    0.80    0.19
  -3   2   8    0.72    0.24
   2  -2  -8    7.89    0.43
   2  -2  -8    7.21    0.47
  -2   2   8    7.27    0.51
   1  -2  -8    0.77    0.18
   1  -2  -8    1.00    0.21
  -1   2   8    0.75    0.23
   0  -2  -8    7.01    0.40
   0  -2  -8    7.69    0.44
   0   2   8    7.68    0.46
   0   2   8    7.62    0.50
  -1  -2  -8    2.31    0.26
  -1  -2  -8    1.74    0.24
   1   2   8    2.11    0.30
   1   2   8    1.68    0.25
  -2  -2  -8    0.98    0.19
  -2  -2  -8    1.26    0.22
   2   2   8    1.65    0.26
   2   2   8    1.59    0.24
  -3  -2  -8   28.20    0.83
  -3  -2  -8   28.03    0.85
   3   2   8   28.21    0.88
   3   2   8   28.73    0.88
  -4  -2  -8   12.50    0.52
  -4  -2  -8   11.70    0.55
   4   2   8   10.94    0.52
   4   2   8   12.35    0.58
  -5  -2  -8    1.52    0.26
  -5  -2  -8    1.35    0.23
   5   2   8    1.53    0.27
  -6  -2  -8    1.80    0.30
  -6  -2  -8    1.62    0.27
   6   2   8    1.48    0.27
  -7  -2  -8    0.18    0.16
  -7  -2  -8    0.17    0.15
   7   2   8    0.29    0.20
   4  -3  -8    5.65    0.48
  -4   3   8    5.93    0.43
  -4   3   8    5.77    0.50
   3  -3  -8    0.58    0.21
  -3   3   8    1.09    0.27
   2  -3  -8    0.13    0.14
  -2   3   8   -0.08    0.11
   1  -3  -8    3.87    0.31
   1  -3  -8    3.71    0.34
  -1   3   8    3.78    0.35
  -1   3   8    4.03    0.39
   0  -3  -8    0.30    0.12
   0  -3  -8    0.55    0.18
   0   3   8    0.24    0.14
   0   3   8    0.15    0.12
  -1  -3  -8   18.31    0.61
  -1  -3  -8   17.71    0.65
   1   3   8   19.10    0.69
   1   3   8   18.05    0.71
  -2  -3  -8    2.78    0.27
  -2  -3  -8    2.93    0.27
   2   3   8    2.75    0.30
   2   3   8    2.21    0.27
  -3  -3  -8    8.78    0.46
  -3  -3  -8    9.18    0.45
   3   3   8    8.95    0.47
   3   3   8    8.86    0.47
  -4  -3  -8    2.90    0.29
  -4  -3  -8    2.93    0.30
   4   3   8    2.50    0.27
   4   3   8    3.00    0.31
  -5  -3  -8    0.47    0.16
  -5  -3  -8    0.48    0.16
   5   3   8    0.66    0.19
  -6  -3  -8    1.21    0.25
  -6  -3  -8    0.87    0.21
   6   3   8    1.12    0.24
  -7  -3  -8    0.60    0.21
  -7  -3  -8    0.51    0.19
   7   3   8    0.57    0.21
   4  -4  -8    0.02    0.17
  -4   4   8    0.01    0.13
  -4   4   8    0.24    0.19
   3  -4  -8    0.21    0.18
  -3   4   8    0.40    0.20
   2  -4  -8    0.02    0.14
  -2   4   8    0.08    0.15
   1  -4  -8    0.27    0.15
  -1   4   8    0.47    0.20
  -1   4   8    0.34    0.15
   0  -4  -8   12.49    0.57
   0   4   8   13.73    0.64
   0   4   8   12.36    0.56
  -1  -4  -8   -0.04    0.08
  -1  -4  -8    0.04    0.11
   1   4   8    0.09    0.12
   1   4   8    0.03    0.13
  -2  -4  -8   30.85    0.90
  -2  -4  -8   33.04    0.83
   2   4   8   31.79    0.90
   2   4   8   30.77    0.94
  -3  -4  -8   84.98    1.74
  -3  -4  -8   89.10    1.70
   3   4   8   89.54    1.80
   3   4   8   87.55    1.75
  -4  -4  -8    1.75    0.24
  -4  -4  -8    1.21    0.22
   4   4   8    1.74    0.23
   4   4   8    1.53    0.25
  -5  -4  -8    1.54    0.25
  -5  -4  -8    1.54    0.26
   5   4   8    1.20    0.22
  -6  -4  -8    0.56    0.18
  -6  -4  -8   -0.01    0.13
   6   4   8   -0.10    0.11
  -7  -4  -8    1.88    0.32
  -7  -4  -8    1.93    0.30
   7   4   8    1.76    0.30
   4  -5  -8   19.61    0.84
  -4   5   8   19.00    0.87
   3  -5  -8    0.30    0.18
  -3   5   8    0.24    0.18
   2  -5  -8    8.67    0.52
  -2   5   8    9.07    0.53
  -2   5   8    9.23    0.57
   1  -5  -8    1.45    0.25
  -1   5   8    2.39    0.30
  -1   5   8    1.66    0.26
   0  -5  -8   25.91    0.83
   0   5   8   24.44    0.87
   0   5   8   26.30    0.83
  -1  -5  -8   37.84    1.03
   1   5   8   39.89    1.03
   1   5   8   39.34    1.11
  -2  -5  -8    8.60    0.38
  -2  -5  -8    8.27    0.46
   2   5   8    9.03    0.45
   2   5   8    8.20    0.48
  -3  -5  -8    0.18    0.13
  -3  -5  -8    0.30    0.12
   3   5   8    0.19    0.14
   3   5   8    0.26    0.12
  -4  -5  -8    1.91    0.23
  -4  -5  -8    1.54    0.25
   4   5   8    1.85    0.23
   4   5   8    2.01    0.26
  -5  -5  -8    0.23    0.13
  -5  -5  -8    0.27    0.15
   5   5   8    0.29    0.14
  -6  -5  -8    3.54    0.36
  -6  -5  -8    3.14    0.34
   6   5   8    3.31    0.32
  -7  -5  -8    0.24    0.15
  -7  -5  -8    0.03    0.14
   7   5   8   -0.07    0.13
   3  -6  -8    9.12    0.55
  -3   6   8    8.00    0.56
   2  -6  -8    0.05    0.14
  -2   6   8    0.08    0.14
  -2   6   8    0.22    0.18
   1  -6  -8    3.76    0.35
  -1   6   8    3.79    0.39
  -1   6   8    4.13    0.36
   0  -6  -8   13.26    0.58
   0   6   8   12.37    0.64
   0   6   8   13.09    0.57
  -1  -6  -8    1.81    0.25
   1   6   8    2.17    0.26
   1   6   8    1.60    0.29
  -2  -6  -8   -0.04    0.12
   2   6   8    0.08    0.15
   2   6   8    0.19    0.12
  -3  -6  -8   11.14    0.53
   3   6   8   12.45    0.58
   3   6   8   11.55    0.49
  -4  -6  -8    5.23    0.39
  -4  -6  -8    5.59    0.36
   4   6   8    5.09    0.38
   4   6   8    5.15    0.33
  -5  -6  -8   34.83    1.00
  -5  -6  -8   34.82    1.05
   5   6   8   36.22    0.95
  -6  -6  -8    0.88    0.23
  -6  -6  -8    1.40    0.25
   6   6   8    1.43    0.23
   3  -7  -8    7.93    0.53
  -3   7   8    8.40    0.59
  -3   7   8    7.99    0.55
   2  -7  -8    0.92    0.24
  -2   7   8    0.36    0.17
  -2   7   8    0.45    0.20
   1  -7  -8    1.97    0.29
  -1   7   8    2.05    0.33
  -1   7   8    2.15    0.29
   0  -7  -8    0.10    0.13
   0   7   8   -0.01    0.11
   0   7   8    0.14    0.17
  -1  -7  -8    0.20    0.14
   1   7   8    0.35    0.17
   1   7   8    0.42    0.15
  -2  -7  -8    9.04    0.50
   2   7   8    8.31    0.42
   2   7   8    8.89    0.53
  -3  -7  -8   -0.04    0.11
   3   7   8   -0.04    0.09
   3   7   8   -0.13    0.12
  -4  -7  -8    0.26    0.15
   4   7   8    0.44    0.17
   4   7   8    0.18    0.11
  -5  -7  -8    2.85    0.33
  -5  -7  -8    2.97    0.30
   5   7   8    3.21    0.28
  -6  -7  -8    0.33    0.16
  -6  -7  -8    0.09    0.16
   6   7   8    0.14    0.12
   2  -8  -8    2.51    0.35
  -2   8   8    2.54    0.38
  -2   8   8    2.44    0.34
   1  -8  -8    0.55    0.20
  -1   8   8    0.38    0.18
  -1   8   8    0.25    0.16
   0  -8  -8    0.24    0.16
   0   8   8    0.31    0.19
   0   8   8    0.19    0.15
  -1  -8  -8    4.51    0.38
   1   8   8    4.30    0.34
   1   8   8    4.41    0.42
  -2  -8  -8   12.17    0.59
   2   8   8   12.21    0.64
   2   8   8   13.30    0.53
  -3  -8  -8    3.90    0.36
   3   8   8    4.42    0.42
   3   8   8    4.18    0.30
  -4  -8  -8   11.84    0.60
   4   8   8   11.75    0.47
   4   8   8   11.99    0.61
  -5  -8  -8    6.53    0.47
   5   8   8    6.01    0.34
   1  -9  -8    4.69    0.41
  -1   9   8    4.46    0.40
  -1   9   8    4.35    0.47
   0  -9  -8   18.71    0.74
   0   9   8   17.44    0.69
   0   9   8   18.34    0.86
  -1  -9  -8    7.56    0.48
   1   9   8    7.58    0.43
   1   9   8    7.51    0.56
  -2  -9  -8    0.82    0.23
   2   9   8    0.95    0.26
   2   9   8    0.74    0.17
  -3  -9  -8    2.37    0.32
   3   9   8    2.61    0.25
   3   9   8    2.74    0.36
  -4  -9  -8    0.56    0.20
   4   9   8    0.49    0.21
   4   9   8    0.23    0.11
   0   1  -9    4.13    0.43
   0  -1   9    4.14    0.47
  -1   1  -9   10.55    0.63
   1  -1   9   10.52    0.66
  -2   1  -9    4.03    0.42
   2  -1   9    3.78    0.43
  -3   1  -9    0.05    0.16
   3  -1   9    0.15    0.19
  -4   1  -9    6.24    0.51
   4  -1   9    5.17    0.47
   1   0  -9    0.19    0.17
   1   0  -9    0.84    0.23
  -1   0   9    0.44    0.23
   0   0  -9    3.25    0.34
   0   0  -9    2.59    0.36
   0   0   9    3.17    0.41
  -1   0  -9    1.80    0.31
  -1   0  -9    1.94    0.29
   1   0   9    2.18    0.36
  -2   0  -9    6.79    0.49
  -2   0  -9    7.12    0.50
   2   0   9    7.07    0.53
  -3   0  -9    0.22    0.18
   3   0   9    0.69    0.23
  -4   0  -9    0.31    0.19
   4   0   9    0.31    0.19
  -5   0  -9   -0.02    0.16
   2  -1  -9   -0.05    0.14
   2  -1  -9   -0.11    0.15
  -2   1   9    0.13    0.19
   1  -1  -9    0.32    0.16
   1  -1  -9    0.44    0.20
  -1   1   9    0.26    0.20
   0  -1  -9    0.34    0.17
   0  -1  -9    0.11    0.14
   0   1   9    0.08    0.18
  -1  -1  -9   20.21    0.77
  -1  -1  -9   19.65    0.73
   1   1   9   18.28    0.81
  -2  -1  -9    0.15    0.15
  -2  -1  -9    0.09    0.13
   2   1   9    0.00    0.15
  -3  -1  -9    0.33    0.16
  -3  -1  -9    0.60    0.20
   3   1   9    0.45    0.19
  -4  -1  -9    3.06    0.36
  -4  -1  -9    2.20    0.27
   4   1   9    2.21    0.31
  -5  -1  -9    0.17    0.14
  -5  -1  -9    0.01    0.16
  -6  -1  -9    5.36    0.47
   2  -2  -9    0.06    0.16
  -2   2   9   -0.02    0.16
   1  -2  -9    3.55    0.33
   1  -2  -9    3.74    0.37
  -1   2   9    2.71    0.36
   0  -2  -9    5.06    0.38
   0  -2  -9    5.44    0.41
   0   2   9    4.15    0.42
  -1  -2  -9    0.80    0.19
  -1  -2  -9    0.52    0.19
   1   2   9    0.37    0.19
  -2  -2  -9    0.31    0.15
  -2  -2  -9    0.70    0.19
   2   2   9    0.67    0.22
   2   2   9    0.26    0.15
  -3  -2  -9    0.33    0.14
  -3  -2  -9    0.10    0.13
   3   2   9    0.18    0.15
   3   2   9    0.02    0.12
  -4  -2  -9    6.70    0.42
  -4  -2  -9    6.96    0.46
   4   2   9    7.18    0.48
   4   2   9    6.25    0.44
  -5  -2  -9    0.10    0.15
  -5  -2  -9    0.29    0.15
   5   2   9    0.13    0.16
  -6  -2  -9    5.43    0.42
  -6  -2  -9    6.45    0.49
   6   2   9    4.86    0.45
   3  -3  -9    0.14    0.19
  -3   3   9    0.08    0.19
   2  -3  -9    0.02    0.17
  -2   3   9   -0.12    0.14
   1  -3  -9   -0.16    0.12
  -1   3   9    0.04    0.15
   0  -3  -9    3.41    0.30
   0  -3  -9    3.08    0.34
   0   3   9    3.33    0.38
  -1  -3  -9    0.41    0.17
  -1  -3  -9    0.41    0.15
   1   3   9    0.86    0.21
   1   3   9    0.62    0.19
  -2  -3  -9    7.07    0.42
  -2  -3  -9    6.73    0.43
   2   3   9    6.77    0.47
   2   3   9    6.73    0.45
  -3  -3  -9   42.29    1.11
  -3  -3  -9   42.01    1.12
   3   3   9   39.95    1.15
   3   3   9   40.32    1.15
  -4  -3  -9   23.08    0.80
  -4  -3  -9   22.34    0.80
   4   3   9   21.98    0.79
   4   3   9   24.09    0.84
  -5  -3  -9    6.29    0.45
  -5  -3  -9    5.72    0.41
   5   3   9    6.05    0.47
  -6  -3  -9    0.42    0.19
  -6  -3  -9    0.63    0.21
   6   3   9    0.79    0.24
   3  -4  -9   39.37    1.25
  -3   4   9   41.59    1.34
   2  -4  -9   -0.20    0.12
  -2   4   9   -0.04    0.17
   1  -4  -9    4.67    0.42
  -1   4   9    3.92    0.42
   0  -4  -9    0.77    0.23
   0   4   9    0.42    0.18
   0   4   9    0.76    0.19
  -1  -4  -9    0.33    0.16
   1   4   9    0.04    0.15
   1   4   9    0.24    0.15
  -2  -4  -9    5.15    0.35
  -2  -4  -9    4.82    0.37
   2   4   9    4.78    0.38
   2   4   9    4.35    0.39
  -3  -4  -9   12.49    0.58
  -3  -4  -9   12.72    0.55
   3   4   9   12.41    0.61
   3   4   9   13.99    0.62
  -4  -4  -9    0.29    0.15
  -4  -4  -9    0.16    0.13
   4   4   9    0.02    0.12
   4   4   9    0.08    0.13
  -5  -4  -9    6.92    0.46
  -5  -4  -9    5.63    0.42
   5   4   9    6.23    0.46
  -6  -4  -9    2.87    0.34
  -6  -4  -9    3.03    0.35
   6   4   9    3.04    0.36
   3  -5  -9    0.90    0.25
  -3   5   9    1.53    0.32
   2  -5  -9    5.65    0.47
  -2   5   9    5.60    0.49
   1  -5  -9    0.99    0.25
  -1   5   9    0.75    0.23
  -1   5   9    0.88    0.25
   0  -5  -9    0.78    0.22
   0   5   9    0.19    0.15
   0   5   9    0.36    0.18
  -1  -5  -9    0.28    0.14
   1   5   9    0.43    0.20
   1   5   9    0.33    0.15
  -2  -5  -9   16.87    0.68
   2   5   9   17.18    0.68
   2   5   9   16.90    0.72
  -3  -5  -9    7.39    0.41
  -3  -5  -9    5.84    0.42
   3   5   9    8.06    0.46
   3   5   9    8.05    0.50
  -4  -5  -9    0.14    0.12
  -4  -5  -9   -0.02    0.11
   4   5   9   -0.05    0.13
   4   5   9    0.10    0.13
  -5  -5  -9   10.46    0.57
  -5  -5  -9   10.03    0.54
   5   5   9   10.21    0.54
  -6  -5  -9    2.91    0.36
  -6  -5  -9    2.94    0.36
   6   5   9    3.17    0.35
   2  -6  -9    1.32    0.28
  -2   6   9    0.95    0.25
  -2   6   9    1.44    0.30
   1  -6  -9    5.82    0.46
  -1   6   9    5.99    0.45
  -1   6   9    5.28    0.48
   0  -6  -9   10.86    0.58
   0   6   9   11.63    0.64
   0   6   9   11.88    0.60
  -1  -6  -9    0.94    0.23
   1   6   9    0.96    0.21
   1   6   9    0.74    0.23
  -2  -6  -9    1.23    0.24
   2   6   9    1.66    0.26
   2   6   9    1.48    0.29
  -3  -6  -9    0.17    0.14
   3   6   9    0.39    0.15
   3   6   9    0.41    0.18
  -4  -6  -9    1.91    0.29
   4   6   9    2.16    0.27
   4   6   9    2.13    0.29
  -5  -6  -9   -0.09    0.11
  -5  -6  -9    0.07    0.14
   5   6   9    0.07    0.12
  -6  -6  -9    1.78    0.32
  -6  -6  -9    1.39    0.26
   6   6   9    1.78    0.28
   2  -7  -9   -0.11    0.15
  -2   7   9   -0.04    0.16
  -2   7   9   -0.03    0.14
   1  -7  -9    4.11    0.41
  -1   7   9    4.20    0.44
  -1   7   9    4.01    0.39
   0  -7  -9    1.77    0.30
   0   7   9    1.75    0.29
   0   7   9    1.29    0.28
  -1  -7  -9    2.13    0.30
   1   7   9    1.54    0.30
   1   7   9    1.85    0.27
  -2  -7  -9    1.00    0.24
   2   7   9    0.86    0.20
   2   7   9    0.78    0.22
  -3  -7  -9    2.39    0.32
   3   7   9    1.86    0.31
   3   7   9    2.22    0.27
  -4  -7  -9   -0.10    0.12
   4   7   9   -0.12    0.12
   4   7   9    0.02    0.10
  -5  -7  -9   16.99    0.75
   5   7   9   15.82    0.62
   1  -8  -9    6.81    0.51
  -1   8   9    5.17    0.50
  -1   8   9    6.29    0.48
   0  -8  -9    3.67    0.39
   0   8   9    3.90    0.38
   0   8   9    4.19    0.45
  -1  -8  -9   12.01    0.62
   1   8   9   10.23    0.64
   1   8   9   12.01    0.58
  -2  -8  -9    0.94    0.23
   2   8   9    1.00    0.21
   2   8   9    0.52    0.21
  -3  -8  -9    1.28    0.26
   3   8   9    1.24    0.22
   3   8   9    1.35    0.28
  -4  -8  -9    1.59    0.29
   4   8   9    1.79    0.24
   4   8   9    1.69    0.30
  -1  -9  -9    0.36    0.18
   1   9   9    0.23    0.20
   1   9   9    0.55    0.17
  -2  -9  -9    4.89    0.42
   2   9   9    4.09    0.35
   2   9   9    3.57    0.42
  -1  -1 -10    2.84    0.38
  -1  -1 -10    2.33    0.34
   1   1  10    2.36    0.38
  -2  -1 -10   -0.08    0.13
  -2  -1 -10    0.05    0.15
   2   1  10   -0.15    0.16
  -3  -1 -10   16.32    0.68
  -3  -1 -10   15.65    0.75
   3   1  10   16.29    0.79
  -4  -1 -10    0.92    0.25
   4   1  10    0.88    0.26
   0  -2 -10    1.16    0.28
   0  -2 -10    1.16    0.25
   0   2  10    0.87    0.27
  -1  -2 -10    0.30    0.16
  -1  -2 -10    0.48    0.19
   1   2  10    0.22    0.19
  -2  -2 -10   15.28    0.67
  -2  -2 -10   14.11    0.67
   2   2  10   15.63    0.77
  -3  -2 -10    4.98    0.42
  -3  -2 -10    4.72    0.39
   3   2  10    4.38    0.44
  -4  -2 -10   34.79    1.11
  -4  -2 -10   33.53    1.02
   4   2  10   32.47    1.07
  -5  -2 -10   14.48    0.73
   1  -3 -10    0.23    0.18
  -1   3  10    0.16    0.19
   0  -3 -10    0.12    0.17
   0   3  10   -0.28    0.14
  -1  -3 -10    0.71    0.22
  -1  -3 -10    0.40    0.17
   1   3  10    0.47    0.22
  -2  -3 -10    0.43    0.17
  -2  -3 -10    0.23    0.16
   2   3  10   -0.12    0.14
  -3  -3 -10    1.42    0.26
  -3  -3 -10    1.34    0.26
   3   3  10    1.56    0.30
   3   3  10    1.74    0.31
  -4  -3 -10    6.27    0.46
  -4  -3 -10    6.85    0.47
   4   3  10    6.70    0.49
   4   3  10    6.26    0.49
  -5  -3 -10    0.28    0.17
  -5  -3 -10    0.42    0.19
   5   3  10    0.28    0.19
   1  -4 -10    2.43    0.36
  -1   4  10    1.90    0.35
   0  -4 -10    1.32    0.28
   0   4  10    0.85    0.27
  -1  -4 -10    0.62    0.22
   1   4  10    0.90    0.25
   1   4  10    0.45    0.19
  -2  -4 -10    2.02    0.30
   2   4  10    1.72    0.32
   2   4  10    2.18    0.32
  -3  -4 -10    6.46    0.44
  -3  -4 -10    6.48    0.45
   3   4  10    7.39    0.51
   3   4  10    7.39    0.50
  -4  -4 -10   12.08    0.62
  -4  -4 -10   12.24    0.60
   4   4  10   12.17    0.62
   4   4  10   11.95    0.64
  -5  -4 -10    9.82    0.57
  -5  -4 -10    8.91    0.54
   5   4  10   10.26    0.60
   1  -5 -10    0.72    0.24
  -1   5  10    0.77    0.26
   0  -5 -10    5.99    0.47
   0   5  10    6.44    0.49
   0   5  10    5.90    0.52
  -1  -5 -10    9.74    0.56
   1   5  10   10.49    0.59
   1   5  10    7.50    0.56
  -2  -5 -10    5.52    0.44
   2   5  10    4.75    0.44
   2   5  10    5.41    0.43
  -3  -5 -10    0.95    0.23
   3   5  10    0.80    0.21
   3   5  10    1.13    0.26
  -4  -5 -10    4.64    0.38
  -4  -5 -10    4.39    0.40
   4   5  10    4.06    0.40
   4   5  10    3.89    0.38
  -5  -5 -10    1.40    0.26
  -5  -5 -10    1.69    0.30
   5   5  10    1.49    0.29
   1  -6 -10    3.91    0.43
  -1   6  10    3.45    0.42
  -1   6  10    4.12    0.43
   0  -6 -10    3.68    0.41
   0   6  10    3.97    0.41
   0   6  10    3.77    0.43
  -1  -6 -10    2.99    0.35
   1   6  10    3.13    0.36
   1   6  10    3.45    0.40
  -2  -6 -10    1.23    0.27
   2   6  10    1.34    0.25
   2   6  10    1.77    0.32
  -3  -6 -10   13.09    0.66
   3   6  10   12.54    0.67
   3   6  10   13.56    0.64
  -4  -6 -10    0.85    0.25
   4   6  10    0.51    0.18
   4   6  10    0.66    0.22
  -5  -6 -10    5.36    0.45
   0  -7 -10    7.45    0.53
   0   7  10    7.14    0.56
   0   7  10    7.30    0.53
  -1  -7 -10    0.09    0.15
   1   7  10   -0.02    0.14
   1   7  10    0.01    0.16
  -2  -7 -10    0.08    0.16
   2   7  10    0.29    0.20
   2   7  10    0.20    0.15
  -3  -7 -10    8.93    0.56
   3   7  10    8.28    0.56
   3   7  10    8.24    0.50
  -4  -7 -10    3.10    0.38
   4   7  10    2.86    0.37
   4   7  10    2.98    0.33
  -2  -8 -10    6.45    0.49
   2   8  10    5.70    0.44
   2   8  10    6.56    0.53
   0   0   0    0.00    0.00
;
_shelx_hkl_checksum              34716
#END Tags that were not found in dictionaries
loop_
_space_group_symop_operation_xyz
'x, y, z'
'-x, -y, -z'
loop_
_atom_site_label
_atom_site_type_symbol
_atom_site_fract_x
_atom_site_fract_y
_atom_site_fract_z
_atom_site_U_iso_or_equiv
_atom_site_adp_type
_atom_site_occupancy
_atom_site_site_symmetry_order
_atom_site_calc_flag
_atom_site_refinement_flags_posn
_atom_site_refinement_flags_adp
C1 C -0.04275(15) 0.68558(13) 0.24220(14) 0.0162(2) Uani 1 1 d . .
C2 C 0.07770(16) 0.68550(13) 0.07309(14) 0.0169(2) Uani 1 1 d . .
H2 H 0.0018 0.6701 0.0017 0.020 Uiso 1 1 calc R U
C3 C 0.27045(16) 0.70249(13) -0.00008(13) 0.0169(2) Uani 1 1 d . .
C4 C 0.38530(16) 0.69764(14) 0.24775(14) 0.0188(2) Uani 1 1 d . .
H4A H 0.5035 0.6529 0.2941 0.023 Uiso 1 1 calc R U
H4B H 0.2758 0.6082 0.3222 0.023 Uiso 1 1 calc R U
C5 C 0.33324(17) 0.87078(14) 0.26179(14) 0.0199(2) Uani 1 1 d . .
H5A H 0.4453 0.9583 0.1912 0.024 Uiso 1 1 calc R U
H5B H 0.3106 0.8511 0.3883 0.024 Uiso 1 1 calc R U
C6 C 0.15040(17) 0.94651(13) 0.19440(14) 0.0204(2) Uani 1 1 d . .
H6A H 0.1175 1.0554 0.2132 0.024 Uiso 1 1 calc R U
H6B H 0.1782 0.9797 0.0643 0.024 Uiso 1 1 calc R U
C7 C 0.35364(17) 0.69873(15) -0.18040(14) 0.0224(2) Uani 1 1 d . .
H7A H 0.4562 0.7954 -0.2524 0.027 Uiso 1 1 calc R U
H7B H 0.4169 0.5846 -0.1621 0.027 Uiso 1 1 calc R U
C8 C -0.13976(17) 0.81706(15) 0.45390(15) 0.0234(3) Uani 1 1 d . .
H8A H -0.2655 0.7530 0.4846 0.035 Uiso 1 1 calc R U
H8B H -0.1636 0.9395 0.4386 0.035 Uiso 1 1 calc R U
H8C H -0.0718 0.7577 0.5503 0.035 Uiso 1 1 calc R U
N1 N -0.01784(13) 0.81846(12) 0.28702(12) 0.0181(2) Uani 1 1 d . .
O1 O -0.17719(11) 0.56881(10) 0.33487(10) 0.02064(19) Uani 1 1 d . .
O2 O 0.42285(11) 0.72123(10) 0.06366(10) 0.01973(19) Uani 1 1 d . .
O3 O 0.20983(13) 0.71853(11) -0.27633(10) 0.0254(2) Uani 1 1 d . .
H3 H 0.199(3) 0.618(2) -0.287(2) 0.047(5) Uiso 1 1 d . .
loop_
_atom_site_aniso_label
_atom_site_aniso_U_11
_atom_site_aniso_U_22
_atom_site_aniso_U_33
_atom_site_aniso_U_23
_atom_site_aniso_U_13
_atom_site_aniso_U_12
C1 0.0158(5) 0.0180(5) 0.0180(5) -0.0087(4) -0.0091(4) 0.0060(4)
C2 0.0227(5) 0.0156(5) 0.0158(5) -0.0081(4) -0.0085(4) 0.0027(4)
C3 0.0238(5) 0.0124(5) 0.0151(5) -0.0058(4) -0.0060(4) 0.0002(4)
C4 0.0187(5) 0.0230(5) 0.0159(5) -0.0086(4) -0.0055(4) 0.0003(4)
C5 0.0244(6) 0.0204(5) 0.0158(5) -0.0083(4) -0.0034(4) -0.0058(4)
C6 0.0313(6) 0.0130(5) 0.0173(5) -0.0066(4) -0.0061(4) -0.0003(4)
C7 0.0276(6) 0.0230(5) 0.0178(5) -0.0110(4) -0.0020(4) -0.0033(4)
C8 0.0255(6) 0.0266(6) 0.0231(6) -0.0160(5) -0.0051(5) 0.0055(5)
N1 0.0213(5) 0.0178(4) 0.0182(4) -0.0102(4) -0.0059(4) 0.0042(3)
O1 0.0165(4) 0.0262(4) 0.0231(4) -0.0145(3) -0.0037(3) -0.0007(3)
O2 0.0187(4) 0.0254(4) 0.0167(4) -0.0111(3) -0.0023(3) -0.0023(3)
O3 0.0420(5) 0.0208(4) 0.0173(4) -0.0096(3) -0.0114(3) 0.0019(3)
loop_
_atom_type_symbol
_atom_type_description
_atom_type_scat_dispersion_real
_atom_type_scat_dispersion_imag
_atom_type_scat_source
C C 0.0033 0.0016 'International Tables Vol C Tables 4.2.6.8 and 6.1.1.4'
H H 0.0000 0.0000 'International Tables Vol C Tables 4.2.6.8 and 6.1.1.4'
N N 0.0061 0.0033 'International Tables Vol C Tables 4.2.6.8 and 6.1.1.4'
O O 0.0106 0.0060 'International Tables Vol C Tables 4.2.6.8 and 6.1.1.4'
loop_
_geom_angle_atom_site_label_1
_geom_angle_atom_site_label_2
_geom_angle_atom_site_label_3
_geom_angle
O1 C1 N1 120.67(9)
O1 C1 C2 118.94(9)
N1 C1 C2 120.16(9)
C3 C2 C1 133.45(10)
C3 C2 H2 113.3
C1 C2 H2 113.3
C2 C3 O2 130.08(9)
C2 C3 C7 121.77(10)
O2 C3 C7 108.13(9)
O2 C4 C5 110.94(9)
O2 C4 H4A 109.5
C5 C4 H4A 109.5
O2 C4 H4B 109.5
C5 C4 H4B 109.5
H4A C4 H4B 108.0
C4 C5 C6 112.27(9)
C4 C5 H5A 109.2
C6 C5 H5A 109.2
C4 C5 H5B 109.2
C6 C5 H5B 109.2
H5A C5 H5B 107.9
N1 C6 C5 111.64(9)
N1 C6 H6A 109.3
C5 C6 H6A 109.3
N1 C6 H6B 109.3
C5 C6 H6B 109.3
H6A C6 H6B 108.0
O3 C7 C3 112.88(9)
O3 C7 H7A 109.0
C3 C7 H7A 109.0
O3 C7 H7B 109.0
C3 C7 H7B 109.0
H7A C7 H7B 107.8
N1 C8 H8A 109.5
N1 C8 H8B 109.5
H8A C8 H8B 109.5
N1 C8 H8C 109.5
H8A C8 H8C 109.5
H8B C8 H8C 109.5
C1 N1 C8 119.33(9)
C1 N1 C6 122.46(9)
C8 N1 C6 117.18(9)
C3 O2 C4 118.98(8)
C7 O3 H3 107.9(11)
loop_
_geom_bond_atom_site_label_1
_geom_bond_atom_site_label_2
_geom_bond_distance
C1 O1 1.2483(13)
C1 N1 1.3477(13)
C1 C2 1.4802(14)
C2 C3 1.3336(15)
C2 H2 0.9500
C3 O2 1.3569(13)
C3 C7 1.5150(14)
C4 O2 1.4501(12)
C4 C5 1.5119(15)
C4 H4A 0.9900
C4 H4B 0.9900
C5 C6 1.5253(16)
C5 H5A 0.9900
C5 H5B 0.9900
C6 N1 1.4639(14)
C6 H6A 0.9900
C6 H6B 0.9900
C7 O3 1.4076(14)
C7 H7A 0.9900
C7 H7B 0.9900
C8 N1 1.4634(14)
C8 H8A 0.9800
C8 H8B 0.9800
C8 H8C 0.9800
O3 H3 0.885(18)
loop_
_geom_hbond_atom_site_label_D
_geom_hbond_atom_site_label_H
_geom_hbond_atom_site_label_A
_geom_hbond_distance_DH
_geom_hbond_distance_HA
_geom_hbond_distance_DA
_geom_hbond_angle_DHA
_geom_hbond_site_symmetry_A
O3 H3 O1 0.885(18) 1.796(18) 2.6766(11) 173.1(16) 2_565
loop_
_geom_torsion_atom_site_label_1
_geom_torsion_atom_site_label_2
_geom_torsion_atom_site_label_3
_geom_torsion_atom_site_label_4
_geom_torsion
O1 C1 C2 C3 -134.01(12)
N1 C1 C2 C3 51.49(17)
C1 C2 C3 O2 2.1(2)
C1 C2 C3 C7 -179.42(10)
O2 C4 C5 C6 59.74(11)
C4 C5 C6 N1 55.49(11)
C2 C3 C7 O3 14.20(14)
O2 C3 C7 O3 -167.01(8)
O1 C1 N1 C8 4.99(15)
C2 C1 N1 C8 179.38(9)
O1 C1 N1 C6 172.99(9)
C2 C1 N1 C6 -12.61(15)
C5 C6 N1 C1 -80.46(12)
C5 C6 N1 C8 87.78(11)
C2 C3 O2 C4 9.28(16)
C7 C3 O2 C4 -169.37(8)
C5 C4 O2 C3 -88.62(11)
