#------------------------------------------------------------------------------
#$Date: 2016-02-18 17:37:37 +0200 (Thu, 18 Feb 2016) $
#$Revision: 176729 $
#$URL: svn://www.crystallography.net/cod/cif/1/51/85/1518590.cif $
#------------------------------------------------------------------------------
#
# This file is available in the Crystallography Open Database (COD),
# http://www.crystallography.net/
#
# All data on this site have been placed in the public domain by the
# contributors.
#
data_1518590
loop_
_publ_author_name
'Seki, Tomohiro'
'Ozaki, Taichi'
'Okura, Takuma'
'Asakura, Kiyotaka'
'Sakon, Aya'
'Uekusa, Hidehiro'
'Ito, Hajime'
_publ_section_title
;
 Interconvertible multiple photoluminescence color of a gold(i) isocyanide
 complex in the solid state: solvent-induced blue-shifted and
 mechano-responsive red-shifted photoluminescence
;
_journal_issue                   4
_journal_name_full               'Chem. Sci.'
_journal_page_first              2187
_journal_paper_doi               10.1039/C4SC03960B
_journal_volume                  6
_journal_year                    2015
_chemical_formula_moiety         'C18 H4 Au2 F8 N4, C3 H6 O, C3 H6 O'
_chemical_formula_sum            'C24 H16 Au2 F8 N4 O2'
_chemical_formula_weight         938.34
_chemical_name_common            Au_B
_space_group_crystal_system      triclinic
_space_group_IT_number           2
_space_group_name_Hall           '-P 1'
_space_group_name_H-M_alt        'P -1'
_symmetry_cell_setting           triclinic
_symmetry_Int_Tables_number      2
_symmetry_space_group_name_Hall  '-P 1'
_symmetry_space_group_name_H-M   'P -1'
_atom_sites_solution_hydrogens   geom
_audit_creation_method           SHELXL-2014
_audit_update_record
;
2014-11-25 deposited with the CCDC.
2015-01-21 downloaded from the CCDC.
;
_cell_angle_alpha                109.292(3)
_cell_angle_beta                 91.673(3)
_cell_angle_gamma                91.322(2)
_cell_formula_units_Z            1
_cell_length_a                   3.5452(4)
_cell_length_b                   14.0087(15)
_cell_length_c                   14.2490(15)
_cell_measurement_reflns_used    6546
_cell_measurement_temperature    173(2)
_cell_measurement_theta_max      27.464
_cell_measurement_theta_min      3.032
_cell_volume                     667.23(13)
_computing_cell_refinement       RAPID-AUTO
_computing_data_collection       RAPID-AUTO
_computing_data_reduction        RAPID-AUTO
_computing_structure_refinement  'SHELXL-2014 (Sheldrick, 2014)'
_computing_structure_solution    'SHELXS-97 (Sheldrick, 1990)'
_diffrn_ambient_pressure         101.3
_diffrn_ambient_temperature      173(2)
_diffrn_detector_area_resol_mean 10.0
_diffrn_measured_fraction_theta_full 0.998
_diffrn_measured_fraction_theta_max 0.991
_diffrn_measurement_device_type  'RIGAKU R-AXIS RAPID'
_diffrn_measurement_method       \w-scan
_diffrn_radiation_probe          x-ray
_diffrn_radiation_type           MoK\a
_diffrn_radiation_wavelength     0.71073
_diffrn_reflns_av_R_equivalents  0.0514
_diffrn_reflns_av_unetI/netI     0.0679
_diffrn_reflns_Laue_measured_fraction_full 0.998
_diffrn_reflns_Laue_measured_fraction_max 0.991
_diffrn_reflns_limit_h_max       4
_diffrn_reflns_limit_h_min       -4
_diffrn_reflns_limit_k_max       17
_diffrn_reflns_limit_k_min       -18
_diffrn_reflns_limit_l_max       18
_diffrn_reflns_limit_l_min       -18
_diffrn_reflns_number            6546
_diffrn_reflns_point_group_measured_fraction_full 0.998
_diffrn_reflns_point_group_measured_fraction_max 0.991
_diffrn_reflns_theta_full        25.242
_diffrn_reflns_theta_max         27.464
_diffrn_reflns_theta_min         3.032
_diffrn_source                   'rotating anode x-ray'
_diffrn_source_type              RIGAKU
_exptl_absorpt_coefficient_mu    11.067
_exptl_absorpt_correction_T_max  0.897
_exptl_absorpt_correction_T_min  0.356
_exptl_absorpt_correction_type   multi-scan
_exptl_absorpt_process_details   'abscor T.Higashi RIGAKU'
_exptl_crystal_colour            colorless
_exptl_crystal_density_diffrn    2.335
_exptl_crystal_description       needle
_exptl_crystal_F_000             434
_exptl_crystal_preparation       Luminescent
_exptl_crystal_size_max          0.060
_exptl_crystal_size_mid          0.030
_exptl_crystal_size_min          0.010
_refine_diff_density_max         2.596
_refine_diff_density_min         -2.354
_refine_diff_density_rms         0.253
_refine_ls_extinction_method     none
_refine_ls_goodness_of_fit_ref   1.152
_refine_ls_hydrogen_treatment    constr
_refine_ls_matrix_type           full
_refine_ls_number_parameters     217
_refine_ls_number_reflns         3042
_refine_ls_number_restraints     0
_refine_ls_restrained_S_all      1.152
_refine_ls_R_factor_all          0.0590
_refine_ls_R_factor_gt           0.0473
_refine_ls_shift/su_max          0.000
_refine_ls_shift/su_mean         0.000
_refine_ls_structure_factor_coef Fsqd
_refine_ls_weighting_details
'w=1/[\s^2^(Fo^2^)+(0.0137P)^2^+6.4019P] where P=(Fo^2^+2Fc^2^)/3'
_refine_ls_weighting_scheme      calc
_refine_ls_wR_factor_gt          0.1055
_refine_ls_wR_factor_ref         0.1165
_reflns_Friedel_coverage         0.000
_reflns_number_gt                2573
_reflns_number_total             3042
_reflns_threshold_expression     'I > 2\s(I)'
_cod_data_source_file            c4sc03960b2.cif
_cod_data_source_block           shelx
_cod_depositor_comments
'Adding full bibliography for 1518590--1518592.cif.'
_cod_database_code               1518590
#BEGIN Tags that were not found in dictionaries:
_shelx_space_group_comment
;
The symmetry employed for this shelxl refinement is uniquely defined
by the following loop, which should always be used as a source of
symmetry information in preference to the above space-group names.
They are only intended as comments.
;
_shelx_estimated_absorpt_t_min   0.556
_shelx_estimated_absorpt_t_max   0.897
_shelxl_version_number           2014-1
_shelx_res_file
;
TITL Au_B
CELL  0.71073   3.5452  14.0087  14.2490  109.292   91.673   91.322
ZERR     1.00   0.0004   0.0015   0.0015    0.003    0.003    0.002
LATT   1
SFAC  C    H    N    O    F    AU
UNIT  24   16   4    2    8    2
MERG   2
OMIT     0.00 180.00
FMAP   2
PLAN   25
SIZE     0.01   0.03   0.06
ACTA
BOND   $H
CONF
L.S.  10
TEMP  -100.00
WGHT    0.013700    6.401900
FVAR       0.28153
MOLE    1
C1    1    0.014125    0.309506    0.618985    11.00000    0.04758    0.04355 =
         0.03460    0.00775   -0.00447   -0.00272
F2    5   -0.051247    0.369236    0.565004    11.00000    0.07499    0.04376 =
         0.06076    0.01492   -0.00559    0.01205
C3    1   -0.038011    0.347258    0.720192    11.00000    0.04083    0.04406 =
         0.05654   -0.00825    0.00730    0.00090
F4    5   -0.161452    0.441418    0.760265    11.00000    0.06950    0.05874 =
         0.07060   -0.02210    0.01097    0.01094
N5    3    0.008745    0.295508    0.780633    11.00000    0.05186    0.07364 =
         0.03310    0.00352    0.00455   -0.00091
C6    1    0.125930    0.203706    0.741455    11.00000    0.04474    0.06748 =
         0.03819    0.02009    0.00554   -0.00127
F7    5    0.175369    0.148886    0.802475    11.00000    0.07799    0.10694 =
         0.04797    0.04115    0.01006    0.00357
C8    1    0.185787    0.157885    0.640210    11.00000    0.03594    0.03446 =
         0.04521    0.01261    0.00501   -0.00087
F9    5    0.302970    0.063344    0.608616    11.00000    0.05524    0.04646 =
         0.05915    0.02206    0.00549    0.00231
C10   1    0.135625    0.212448    0.575620    11.00000    0.03041    0.03993 =
         0.03602    0.00289    0.00012   -0.00108
AU11  6    0.217134    0.150730    0.427064    11.00000    0.04665    0.03983 =
         0.02862    0.00537    0.00324   -0.00068
C12   1    0.296530    0.093492    0.282883    11.00000    0.03742    0.05139 =
         0.03739    0.01208   -0.00914   -0.00676
N13   3    0.354824    0.061888    0.199735    11.00000    0.03656    0.05292 =
         0.02884    0.01108    0.00172   -0.00129
C14   1    0.424911    0.029340    0.097738    11.00000    0.02144    0.05050 =
         0.03020    0.01453    0.00340    0.00553
C15   1    0.362051   -0.071676    0.040729    11.00000    0.03550    0.04352 =
         0.03469    0.01753    0.00471    0.00048
AFIX  43
H15   2    0.271542   -0.119134    0.070129    11.00000   -1.20000
AFIX   0
C16   1    0.433110   -0.101906   -0.059140    11.00000    0.03440    0.04214 =
         0.03651    0.00740   -0.00044   -0.00374
AFIX  43
H16   2    0.386949   -0.170102   -0.100578    11.00000   -1.20000
AFIX   0
MOLE    2
PART   -1
C21   1    0.288474    0.619891    0.659238    10.50000    0.08547    0.06182 =
         0.04845    0.01822    0.00568    0.00056
AFIX  33
H21A  2    0.503335    0.651906    0.704400    10.50000   -1.50000
H21B  2    0.303086    0.637309    0.598219    10.50000   -1.50000
H21C  2    0.294950    0.546270    0.642652    10.50000   -1.50000
AFIX   0
C22   1   -0.066022    0.656233    0.707979    10.50000    0.04897    0.04806 =
         0.04162    0.02141   -0.00715    0.00391
C23   1   -0.445742    0.614778    0.648812    10.50000    0.08233    0.06330 =
         0.05873   -0.01315   -0.00912    0.01169
AFIX  33
H23A  2   -0.657442    0.644969    0.689810    10.50000   -1.50000
H23B  2   -0.463270    0.541039    0.631804    10.50000   -1.50000
H23C  2   -0.455018    0.632287    0.587662    10.50000   -1.50000
AFIX   0
O24   4   -0.076129    0.719249    0.789378    10.50000    0.08958    0.05366 =
         0.06873   -0.00946   -0.01087    0.01585
PART   -2
C31   1    0.243922    0.598990    0.957616    10.50000    0.11729    0.10165 =
         0.04565   -0.00536   -0.01464    0.03403
AFIX  33
H31A  2    0.467287    0.623613    0.932446    10.50000   -1.50000
H31B  2    0.220269    0.525132    0.928302    10.50000   -1.50000
H31C  2    0.269962    0.618121    1.030209    10.50000   -1.50000
AFIX   0
C32   1   -0.111178    0.646342    0.929130    10.50000    0.05910    0.04247 =
         0.05484   -0.00537    0.00118    0.00758
C33   1   -0.479790    0.617603    0.959754    10.50000    0.06566    0.06292 =
         0.06781    0.02290   -0.00608   -0.01508
AFIX  33
H33A  2   -0.680552    0.652858    0.937284    10.50000   -1.50000
H33B  2   -0.477876    0.636564    1.032418    10.50000   -1.50000
H33C  2   -0.525306    0.544335    0.929863    10.50000   -1.50000
AFIX   0
O34   4   -0.067106    0.702356    0.881979    10.50000    0.05573    0.06518 =
         0.13345    0.05201    0.00841    0.00018
HKLF    4

REM  Au_B
REM R1 =  0.0473 for    2573 Fo > 4sig(Fo)  and  0.0590 for all    3042 data
REM    217 parameters refined using      0 restraints

END

WGHT      0.0148      6.4058

REM Highest difference peak  2.596,  deepest hole -2.354,  1-sigma level  0.253
Q1    1   0.2233  0.0943  0.3800  11.00000  0.05    2.60
Q2    1   0.2167  0.2173  0.4784  11.00000  0.05    2.11
Q3    1   0.3389  0.5471  0.7159  11.00000  0.05    2.04
Q4    1   0.1054  0.1833  0.4011  11.00000  0.05    1.81
Q5    1   0.3888  0.2014  0.4344  11.00000  0.05    1.52
Q6    1   0.5113  0.0973  0.4013  11.00000  0.05    1.50
Q7    1  -0.0488  0.2146  0.4602  11.00000  0.05    1.45
Q8    1   0.3771  0.0622  0.4176  11.00000  0.05    1.43
Q9    1  -0.1157  0.1781  0.4456  11.00000  0.05    1.41
Q10   1   0.5520  0.1362  0.4198  11.00000  0.05    1.33
Q11   1   0.0556  0.2410  0.4368  11.00000  0.05    1.22
Q12   1   0.0134  0.0999  0.4234  11.00000  0.05    1.20
Q13   1   0.2653  0.2340  0.4053  11.00000  0.05    1.11
Q14   1   0.3328  0.1646  0.4000  11.00000  0.05    1.08
Q15   1  -0.1128  0.2175  0.3796  11.00000  0.05    1.05
Q16   1   0.5690  0.0949  0.4820  11.00000  0.05    1.03
Q17   1   0.4649  0.1618  0.5069  11.00000  0.05    1.01
Q18   1   0.3459  0.1171  0.4493  11.00000  0.05    1.01
Q19   1   0.1033  0.1719  0.3435  11.00000  0.05    1.00
Q20   1   0.1709  0.0667  0.4508  11.00000  0.05    0.99
Q21   1   0.0037  0.1046  0.3415  11.00000  0.05    0.94
Q22   1   0.1827  0.7162  0.5781  11.00000  0.05    0.88
Q23   1  -0.0669  0.0604  0.3602  11.00000  0.05    0.85
Q24   1   0.2334  0.0833  0.5578  11.00000  0.05    0.84
Q25   1  -0.1247  0.1617  0.4981  11.00000  0.05    0.82
;
_shelx_res_checksum              90521
_shelx_hkl_file
;
   0   0   2  235.01    9.35
   0   0  -2  245.24   16.03
   0   0   3    5.59    4.22
   0   0  -3    6.20    4.38
   0   0   4   54.29    4.76
   0   0  -4   53.20    8.78
   0   0   5 1319.59   98.44
   0   0  -5 1243.31   75.87
   0   0   6 2107.77  154.58
   0   0  -6 1993.99  169.21
   0   0   7  596.80   39.82
   0   0  -7  569.05   27.10
   0   0   8  737.47   38.10
   0   0  -8  719.85   45.54
   0   0   9  163.92   14.28
   0   0  -9  162.86    7.70
   0   0  10    1.18    1.80
   0   0 -10    3.34    2.77
   0   0  11   40.29    7.04
   0   0 -11   35.41    3.41
   0   0  12  105.87   12.21
   0   0 -12   83.46    9.78
   0   0  13  311.73   18.58
   0   0 -13  274.01   14.65
   0   0  14  221.01   25.04
   0   0 -14  250.69   20.10
   0   0  15  100.60    9.31
   0   0 -15  108.03   12.01
   0   0  16   19.89    8.06
   0   0  17    1.52    5.13
   0   0 -17    1.32    3.57
   0   1 -17   35.59    7.74
   0  -1  17   49.92   10.46
   0   1 -16   14.82    5.44
   0  -1  16   20.83    7.20
   0   1 -15   -2.31    3.14
   0  -1  15   -0.30    2.31
   0   1 -14   29.99    6.06
   0  -1  14   30.95    7.76
   0   1 -13  209.25   17.79
   0  -1  13  202.25   20.29
   0   1 -12  226.72   12.06
   0  -1  12  236.69   13.49
   0   1 -11  312.45   22.23
   0  -1  11  332.14   25.25
   0   1 -10  375.74   17.28
   0  -1  10  399.07   27.35
   0   1  -9  152.90   11.31
   0  -1   9  154.50    8.27
   0   1  -8   29.38    4.54
   0  -1   8   20.60    2.73
   0   1  -7  226.37   10.52
   0  -1   7  254.09   17.55
   0   1  -6  981.79   54.10
   0  -1   6 1074.86   72.32
   0   1  -5 1151.25   66.64
   0  -1   5 1280.51   88.18
   0   1  -4  868.13   61.64
   0  -1   4  888.16   61.23
   0   1  -3  793.05   52.62
   0  -1   3  826.25   53.72
   0   1   2 1036.65   72.55
   0  -1  -2  975.79   53.64
   0   1   3 1633.13  131.37
   0  -1  -3 1583.47  105.55
   0   1   4   40.83    8.22
   0  -1  -4   44.20    8.17
   0   1   5    1.52    3.36
   0  -1  -5   -0.48    3.25
   0   1   6   10.98    4.60
   0  -1  -6    9.50    4.18
   0   1   7  142.88   12.46
   0  -1  -7  131.78    6.73
   0   1   8  609.56   31.16
   0  -1  -8  603.70   28.93
   0   1   9  493.79   34.33
   0  -1  -9  476.39   30.48
   0   1  10  229.74   19.93
   0  -1 -10  224.01   16.67
   0   1  11  154.24    9.97
   0  -1 -11  154.35    8.33
   0   1  12    8.52    5.43
   0  -1 -12   10.19    4.04
   0   1  13   32.62    4.83
   0   1  14   77.33   14.14
   0  -1 -14   85.28    6.12
   0   1  15  119.97   10.43
   0  -1 -15  111.59   13.00
   0   1  16  102.67   18.43
   0  -1 -16  110.41    8.18
   0   1  17   50.61    7.69
   0  -1 -17   58.85    9.51
   0   2 -17   79.55   10.81
   0  -2  17   81.44   13.67
   0   2 -16  127.48   13.48
   0  -2  16  119.84   16.73
   0   2 -15  109.77   11.66
   0  -2  15   99.90    8.18
   0   2 -14   40.33    3.96
   0  -2  14   36.90    4.73
   0   2 -13   -0.47    2.87
   0  -2  13    1.53    3.31
   0   2 -12   52.15    7.10
   0  -2  12   56.18    8.20
   0   2 -11  285.43   13.59
   0  -2  11  308.87   22.91
   0   2 -10  524.61   32.28
   0  -2  10  530.25   25.84
   0   2  -9  688.94   43.55
   0  -2   9  747.37   37.12
   0   2  -8  375.09   23.41
   0  -2   8  401.53   18.00
   0   2  -7  249.91   16.46
   0  -2   7  244.16   17.15
   0   2  -6  101.15    9.50
   0  -2   6  109.59   10.37
   0   2  -5  497.64   22.74
   0  -2   5  552.66   34.42
   0   2  -4 1367.79   95.79
   0  -2   4 1347.24   78.80
   0   2  -3 1241.53   69.30
   0  -2   3 1248.78   69.59
   0   2  -2 1075.59   61.17
   0   2  -2  934.40   48.76
   0  -2   2  994.83   49.00
   0   2   0  202.14   13.89
   0  -2   0  201.47   15.48
   0   2   1    2.93    4.06
   0  -2  -1    3.77    2.15
   0   2   2  703.84   53.47
   0  -2  -2  642.25   35.31
   0   2   3  520.21   27.52
   0  -2  -3  550.32   42.20
   0   2   4 1605.51  103.81
   0  -2  -4 1497.31   99.31
   0   2   5 1586.20  124.18
   0  -2  -5 1493.57  117.07
   0   2   6  626.14   42.44
   0  -2  -6  536.70   36.63
   0   2   7   25.54    6.18
   0  -2  -7   31.30    5.15
   0   2   8   26.15    5.43
   0  -2  -8   17.45    4.56
   0   2   9  178.02   10.40
   0  -2  -9  192.52   13.97
   0   2  10  338.98   18.43
   0  -2 -10  316.80   15.82
   0   2  11  364.90   31.80
   0  -2 -11  349.78   17.78
   0   2  12  204.68   14.21
   0  -2 -12  222.15   17.77
   0   2  13   96.33   15.08
   0  -2 -13   94.45   10.88
   0   2  14   16.87    7.95
   0  -2 -14   17.55    3.13
   0   2  15   15.02    4.12
   0  -2 -15    6.53    5.11
   0   2  16   32.52   10.28
   0  -2 -16   31.18    7.66
   0  -3  18    1.55    2.51
   0   3 -17    7.31    4.26
   0  -3  17    3.83    5.15
   0   3 -16   78.39    5.93
   0  -3  16   67.89   11.94
   0   3 -15  162.47   15.20
   0  -3  15  156.59   17.60
   0   3 -14  245.01   20.26
   0  -3  14  250.54   14.42
   0   3 -13  181.73   10.01
   0  -3  13  200.31   11.38
   0   3 -12   73.46    4.81
   0  -3  12   74.31    5.31
   0   3 -11    3.54    2.65
   0  -3  11   -0.47    2.91
   0   3 -10   97.93    8.37
   0  -3  10   90.57    5.30
   0   3  -9  414.15   18.06
   0  -3   9  422.24   18.70
   0   3  -8  634.37   38.24
   0  -3   8  666.50   40.22
   0   3  -7  594.88   27.12
   0  -3   7  622.02   28.91
   0   3  -6  440.69   19.23
   0  -3   6  444.93   19.81
   0   3  -5  235.90   16.52
   0  -3   5  247.80   17.04
   0   3  -4    5.70    3.51
   0  -3   4    4.40    1.71
   0   3  -3  380.92   23.32
   0  -3   3  407.54   25.84
   0   3  -2  697.24   43.42
   0  -3   2  648.09   31.70
   0  -3   2  669.70   40.69
   0   3  -1 1563.22  102.08
   0   3  -1 1767.74  115.46
   0  -3   1 1817.22  138.97
   0  -3   1 1628.98  129.17
   0   3   0  699.02   36.61
   0  -3   0  715.05   54.09
   0   3   1  664.28   50.54
   0  -3  -1  563.68   32.26
   0   3   2  125.73    8.64
   0  -3  -2  129.51   15.46
   0   3   3    2.33    3.99
   0  -3  -3    2.64    3.86
   0   3   4   87.25   11.55
   0  -3  -4   78.31   10.03
   0   3   5  768.72   55.35
   0  -3  -5  699.47   36.35
   0   3   6  684.29   49.86
   0  -3  -6  699.10   45.45
   0   3   7  652.29   46.24
   0  -3  -7  616.65   39.89
   0   3   8  248.24   21.00
   0  -3  -8  244.80   17.23
   0   3   9   18.35    6.26
   0  -3  -9   22.27    4.69
   0   3  10    1.84    4.35
   0  -3 -10    2.27    3.07
   0   3  11   93.93   14.47
   0  -3 -11   95.05    6.40
   0   3  12  280.06   19.01
   0  -3 -12  269.64   14.62
   0   3  13  233.65   29.04
   0  -3 -13  251.22   21.25
   0   3  14  105.16   17.31
   0   3  15   28.76    5.67
   0  -3 -15   30.58    4.28
   0   3  16    7.50    7.27
   0  -3 -16    6.75    2.91
   0   4 -18   50.22    4.88
   0  -4  18   40.48    5.42
   0   4 -17   13.56    4.98
   0  -4  17    9.51    5.78
   0   4 -16    2.74    3.48
   0  -4  16    1.26    3.97
   0   4 -15   20.10    2.96
   0  -4  15   19.63    5.92
   0   4 -14  177.47   15.44
   0  -4  14  167.79   17.04
   0   4 -13  273.38   20.39
   0  -4  13  278.98   22.11
   0   4 -12  169.86   13.23
   0  -4  12  164.18   13.95
   0   4 -11  208.53   14.66
   0  -4  11  205.45   15.25
   0   4 -10   77.06    4.29
   0  -4  10   83.99    7.89
   0   4  -9    2.84    2.29
   0  -4   9    1.17    1.36
   0   4  -8  113.45    5.27
   0  -4   8  134.38    9.52
   0   4  -7  431.77   24.81
   0  -4   7  407.96   24.68
   0   4  -6  627.79   28.53
   0  -4   6  595.48   27.11
   0   4  -5  897.62   53.00
   0   4  -5  936.09   59.65
   0  -4   5  921.45   58.21
   0   4  -4  619.97   36.11
   0  -4   4  630.65   38.68
   0   4  -3 1084.11   69.31
   0  -4   3 1024.82   64.63
   0   4  -2   34.50    5.54
   0   4  -2   29.91    3.35
   0  -4   2   49.98    6.87
   0  -4   2   35.21    5.91
   0   4  -1  755.64   50.36
   0  -4   1  605.28   32.87
   0  -4   1  748.64   52.39
   0   4   0 1890.88  153.03
   0  -4   0 1687.21  118.02
   0   4   1  825.91   59.27
   0  -4  -1  712.03   56.83
   0   4   2 1795.58  127.35
   0  -4  -2 1818.02  150.14
   0   4   3  773.95   56.09
   0  -4  -3  690.00   35.91
   0   4   4  114.48    7.48
   0  -4  -4  103.81   11.14
   0   4   5   17.87    5.70
   0  -4  -5   21.70    2.65
   0   4   6  205.90   11.12
   0  -4  -6  209.04   15.57
   0   4   7  382.12   19.54
   0  -4  -7  376.90   24.69
   0   4   8  792.55   61.08
   0  -4  -8  795.60   53.23
   0   4   9  240.93   22.91
   0  -4  -9  237.99   18.00
   0   4  10  184.19   12.46
   0  -4 -10  199.49   16.13
   0   4  11   18.33    3.98
   0  -4 -11   16.93    5.11
   0   4  12    7.84    6.39
   0  -4 -12   10.93    4.63
   0   4  13   62.32   13.25
   0  -4 -13   64.72    5.50
   0   4  14  106.69   11.29
   0  -4 -14  115.97    8.42
   0   4  15   86.23   10.43
   0  -4 -15   93.90   13.02
   0   5 -18   30.12    3.83
   0  -5  18   16.91    7.52
   0   5 -17   75.64   10.04
   0  -5  17   70.57   10.89
   0   5 -16  112.00   12.08
   0   5 -15   51.45    7.70
   0  -5  15   56.99    8.40
   0   5 -14    1.15    3.01
   0  -5  14    3.02    3.30
   0   5 -13    0.48    2.66
   0  -5  13    1.73    2.88
   0   5 -12   16.73    4.15
   0  -5  12   19.61    4.41
   0   5 -11  438.57   19.76
   0  -5  11  442.45   20.87
   0   5 -10  626.75   37.66
   0  -5  10  661.64   41.54
   0  -5   9  366.59   15.87
   0   5  -8  333.41   19.53
   0  -5   8  318.89   13.43
   0   5  -7   95.16    7.69
   0  -5   7   96.67    7.74
   0   5  -6   81.53    7.50
   0   5  -6   69.96    5.33
   0  -5   6   61.42    3.69
   0   5  -5  764.82   42.59
   0  -5   5  744.39   45.08
   0   5  -4  603.48   32.84
   0  -5   4  580.19   31.85
   0  -5   4  549.36   24.20
   0   5  -3 1163.76   77.76
   0  -5   3 1215.50   80.92
   0  -5   3 1191.50   79.12
   0   5  -2 1210.44   70.86
   0   5  -2 1157.51   80.44
   0  -5   2 1200.85   84.89
   0  -5   2 1235.22   87.62
   0   5  -1  260.76   20.59
   0  -5   1  265.82   20.68
   0  -5   1  266.00   14.32
   0   5   0    3.59    3.82
   0  -5   0    2.38    3.92
   0  -5   0    3.17    2.46
   0   5   1   46.21    8.26
   0  -5  -1   41.43    7.56
   0   5   2  503.70   36.82
   0  -5  -2  459.31   22.75
   0   5   3  871.11   50.01
   0  -5  -3  880.55   59.87
   0   5   4  564.22   39.59
   0  -5  -4  511.50   24.39
   0   5   5  410.59   21.17
   0  -5  -5  389.19   26.07
   0   5   6   78.05   10.89
   0  -5  -6   80.51    8.64
   0   5   7    2.20    4.04
   0  -5  -7    2.11    1.67
   0   5   8  120.90    9.16
   0  -5  -8  117.24    6.81
   0   5   9  113.03    9.37
   0  -5  -9  112.09    6.91
   0   5  10  267.87   17.60
   0  -5 -10  242.60   13.28
   0   5  11  241.65   17.41
   0  -5 -11  227.04   12.87
   0   5  12  110.27   18.04
   0  -5 -12  104.49    7.67
   0   5  13   21.02    8.76
   0  -5 -13   14.39    5.81
   0   5  14    1.60    3.33
   0  -5 -14    1.70    4.01
   0   5  15   13.35    4.91
   0  -5 -15    6.71    5.94
   0   6 -18    1.81    3.46
   0  -6  18    1.41    3.80
   0   6 -17   36.27    3.93
   0   6 -16  106.06    6.80
   0  -6  16   90.72   12.03
   0   6 -15  134.05    7.72
   0  -6  15  125.60   13.22
   0   6 -14  174.70    9.35
   0  -6  14  184.83   15.30
   0   6 -13   80.22    8.56
   0  -6  13   85.97    5.39
   0   6 -12   12.78    3.75
   0  -6  12   13.04    3.95
   0   6 -11  108.68    8.67
   0  -6  11   90.59    9.04
   0   6 -10  152.36    6.87
   0  -6  10  161.52   11.54
   0   6  -9  468.78   20.11
   0  -6   9  480.73   20.93
   0   6  -8 1003.46   60.79
   0   6  -8  955.76   52.82
   0  -6   8  962.35   59.40
   0   6  -7  552.84   27.43
   0  -6   7  590.58   32.24
   0   6  -6   40.24    3.99
   0  -6   6   42.11    4.74
   0   6  -5   12.87    2.79
   0  -6   5    9.75    3.15
   0   6  -4   70.39    5.89
   0  -6   4   61.75    3.29
   0  -6   4   61.22    3.70
   0   6  -3  912.94   58.90
   0  -6   3  953.01   60.34
   0  -6   3  966.91   62.89
   0   6  -2 1074.56   72.08
   0  -6   2 1080.15   75.80
   0  -6   2 1081.70   72.30
   0   6  -1  840.97   44.36
   0  -6   1  927.69   50.78
   0  -6   1  839.82   44.75
   0   6   0  475.40   23.52
   0  -6   0  463.64   23.25
   0  -6   0  589.27   42.37
   0   6   1  347.35   26.07
   0  -6  -1  330.67   23.92
   0   6   2   42.47    6.54
   0  -6  -2   20.96    2.97
   0   6   3  215.16   18.42
   0  -6  -3  199.60    9.45
   0   6   4  550.51   28.94
   0  -6  -4  506.85   32.78
   0   6   5  512.74   38.45
   0  -6  -5  494.46   23.67
   0   6   6  552.50   31.32
   0  -6  -6  587.93   37.89
   0   6   7  291.23   27.03
   0  -6  -7  292.45   21.94
   0   6   8   11.60    6.28
   0  -6  -8   12.90    4.46
   0   6   9   -5.00    4.76
   0  -6  -9   -0.24    3.29
   0   6  10   61.39   12.12
   0  -6 -10   51.51    8.15
   0   6  11  108.01   18.02
   0  -6 -11  108.44   12.30
   0   6  12  156.40   24.56
   0  -6 -12  171.58   16.67
   0   6  13  129.94   21.37
   0  -6 -13  115.67   14.71
   0   6  14   52.22    8.35
   0  -6 -14   54.87    5.74
   0   7 -18   10.28    4.71
   0   7 -17   -3.56    3.08
   0  -7  17    2.32    3.27
   0   7 -16    0.46    3.48
   0  -7  16    7.90    3.70
   0   7 -15   35.88    6.50
   0  -7  15   49.46    6.96
   0   7 -14  162.44    8.68
   0  -7  14  166.65    8.97
   0   7 -13  150.39   11.85
   0  -7  13  136.73   12.35
   0   7 -12  224.37   15.16
   0  -7  12  221.62   16.42
   0   7 -11  117.51    6.30
   0   7 -11   93.83    8.39
   0  -7  11  101.70    9.26
   0   7 -10   43.44    5.13
   0   7 -10   49.87    3.62
   0  -7  10   41.40    3.07
   0   7  -9   39.42    3.11
   0  -7   9   33.52    2.54
   0   7  -8  171.77    8.56
   0  -7   8  169.52   10.69
   0   7  -7  240.48   11.22
   0  -7   7  216.02    8.45
   0   7  -6  688.67   35.01
   0  -7   6  680.92   29.24
   0  -7   6  646.68   28.95
   0   7  -5  516.86   26.94
   0  -7   5  505.68   27.74
   0  -7   5  536.57   30.08
   0  -7   5  465.59   25.06
   0   7  -4  318.97   18.41
   0  -7   4  307.96   18.39
   0  -7   4  334.55   18.93
   0   7  -3    3.09    2.59
   0   7  -3    1.43    2.18
   0  -7   3    0.53    2.48
   0  -7   3    1.09    1.31
   0   7  -2   42.15    5.76
   0  -7   2   41.46    3.60
   0  -7   2   40.55    5.85
   0   7  -1  364.15   24.67
   0  -7   1  339.27   15.70
   0  -7   1  402.82   28.20
   0   7   0  447.71   29.28
   0  -7   0  389.54   21.13
   0  -7   0  389.75   26.59
   0   7   1  290.59   20.78
   0  -7  -1  259.46   11.84
   0   7   2  192.50   15.52
   0  -7  -2  168.98    8.32
   0   7   3  326.77   25.44
   0  -7  -3  302.06   20.16
   0   7   4   21.97    6.08
   0  -7  -4   20.81    4.67
   0   7   5   98.83   12.22
   0  -7  -5   82.47    9.02
   0   7   6  102.65    8.28
   0  -7  -6   97.64    5.95
   0   7   7  196.52   21.23
   0  -7  -7  166.29    9.46
   0   7   8  190.32   23.30
   0  -7  -8  184.84   16.40
   0   7   9  260.00   29.54
   0  -7  -9  264.41   22.06
   0   7  10   57.49   12.66
   0  -7 -10   55.90    8.72
   0   7  11   -1.84    5.38
   0  -7 -11    2.56    3.51
   0   7  12   13.94    9.98
   0  -7 -12   24.22    3.62
   0   7  13   54.47   15.22
   0  -7 -13   50.96    5.66
   0   8 -18   77.19    3.40
   0   8 -18   63.55    5.28
   0  -8  18   58.54   10.16
   0   8 -17   76.60    3.34
   0   8 -17   68.42    5.07
   0  -8  17   67.81    9.50
   0   8 -16   36.53    6.68
   0   8 -16   55.44    4.19
   0  -8  16   42.78    7.44
   0   8 -15    7.83    2.10
   0   8 -15    8.09    3.41
   0  -8  15    5.88    3.79
   0   8 -14   12.45    3.98
   0   8 -14   17.17    2.46
   0  -8  14   11.25    2.36
   0   8 -13   40.77    5.59
   0   8 -13   46.71    3.77
   0  -8  13   27.47    6.00
   0   8 -12  263.23   12.45
   0   8 -12  253.09   12.04
   0  -8  12  235.35   11.94
   0   8 -11  305.99   13.99
   0  -8  11  270.56   18.67
   0   8 -10  305.64   14.49
   0  -8  10  275.10   17.48
   0   8  -9   93.96    5.44
   0  -8   9   85.78    7.09
   0   8  -8    4.75    1.01
   0  -8   8    1.61    2.27
   0   8  -7   17.29    2.38
   0  -8   7   14.02    3.00
   0  -8   7   15.78    2.69
   0   8  -6  250.38   11.84
   0  -8   6  213.60   11.55
   0  -8   6  238.53   12.41
   0  -8   6  203.69    7.91
   0   8  -5  367.26   19.59
   0  -8   5  391.75   20.52
   0  -8   5  352.86   19.37
   0   8  -4  651.94   35.14
   0  -8   4  570.10   25.24
   0  -8   4  570.69   26.03
   0   8  -3  529.84   23.41
   0  -8   3  571.90   24.81
   0  -8   3  556.10   33.67
   0   8  -2   91.22    4.86
   0  -8   2  117.98    8.73
   0  -8   2   93.87    5.46
   0   8  -1   12.73    4.40
   0  -8   1   17.76    2.21
   0  -8   1   15.22    4.87
   0   8   0    2.29    1.76
   0  -8   0    7.22    2.72
   0  -8   0    0.97    3.80
   0   8   1  261.31   20.31
   0  -8  -1  273.14   15.48
   0  -8  -1  244.55   16.84
   0   8   2  609.62   42.03
   0  -8  -2  529.82   25.96
   0   8   3  503.77   38.23
   0  -8  -3  493.92   23.18
   0   8   4  343.32   29.02
   0  -8  -4  315.41   22.34
   0   8   5  202.94   13.38
   0  -8  -5  219.61   16.56
   0   8   6   27.04    8.39
   0  -8  -6   28.28    3.28
   0   8   7   65.54    6.93
   0  -8  -7   60.63    5.14
   0   8   8  186.69   22.66
   0  -8  -8  162.97   10.01
   0   8   9  222.25   25.29
   0  -8  -9  174.89   10.87
   0   8  10  195.85   28.93
   0  -8 -10  210.55   12.50
   0   8  11  103.45   19.95
   0  -8 -11   94.58    7.56
   0   8  12   19.86   11.19
   0  -8 -12   24.44    3.92
   0   9 -18   15.18    2.37
   0   9 -18   -0.97    4.60
   0  -9  18    7.81    4.57
   0   9 -17   51.96    2.54
   0   9 -17   40.58    7.70
   0  -9  17   43.64    7.44
   0   9 -16  100.13    5.77
   0   9 -16   77.86    6.01
   0  -9  16   74.12    9.59
   0   9 -15   81.37    5.36
   0   9 -15   91.93    5.50
   0  -9  15   71.88    9.25
   0   9 -14   43.87    3.55
   0  -9  14   32.72    6.33
   0   9 -13   53.14    3.99
   0  -9  13   46.42    6.58
   0   9 -12    3.73    1.81
   0  -9  12    3.25    2.77
   0   9 -11   67.24    2.78
   0  -9  11   59.54    6.61
   0   9 -10  177.88    8.50
   0  -9  10  141.78    6.71
   0   9  -9  284.22   10.21
   0  -9   9  291.17   16.72
   0   9  -8  346.12   16.56
   0  -9   8  303.38   17.54
   0  -9   8  335.69   13.23
   0   9  -7  153.48    8.34
   0  -9   7  160.05    6.16
   0  -9   7  147.57    9.49
   0   9  -6   25.95    1.85
   0  -9   6   27.31    3.60
   0  -9   6   21.98    3.34
   0  -9   6   30.94    3.50
   0   9  -5    1.20    2.17
   0  -9   5    1.27    2.32
   0  -9   5    9.86    2.29
   0  -9   4   50.07    3.09
   0  -9   4   56.53    5.74
   0   9  -3  431.43   25.43
   0  -9   3  471.06   29.74
   0  -9   3  466.71   26.40
   0   9  -2  474.24   21.99
   0  -9   2  532.05   26.06
   0  -9   2  566.93   31.31
   0   9  -1  447.45   28.83
   0  -9   1  415.76   18.48
   0  -9   1  401.44   21.02
   0   9   0  261.34   19.35
   0  -9   0  233.42   10.68
   0  -9   0  266.69   14.32
   0   9   1   20.37    3.01
   0  -9  -1   15.26    4.21
   0  -9  -1   23.02    6.14
   0   9   2   15.09    5.11
   0  -9  -2   16.10    4.04
   0  -9  -2    8.45    3.34
   0   9   3  168.91   16.60
   0  -9  -3  153.99    8.18
   0   9   4  332.75   30.17
   0  -9  -4  345.34   24.45
   0   9   5  381.31   24.15
   0  -9  -5  401.68   28.19
   0   9   6  106.90   15.98
   0  -9  -6  104.46    6.75
   0   9   7   30.15    4.72
   0  -9  -7   20.90    3.37
   0   9   8    7.38    6.76
   0  -9  -8    8.91    2.52
   0   9   9    4.42    6.70
   0  -9  -9    6.51    2.37
   0   9  10   87.06   17.29
   0  -9 -10   78.71    6.52
   0   9  11   74.45   19.20
   0  -9 -11   89.90    7.45
   0   9  12   37.75   16.74
   0  -9 -12   71.22   10.29
   0  10 -17    1.76    1.57
   0 -10  17   -0.24    2.99
   0  10 -16   26.24    2.77
   0 -10  16    8.79    5.11
   0  10 -15   54.89    4.26
   0 -10  15   48.52    7.31
   0  10 -14  102.87    6.00
   0 -10  14   79.39    9.30
   0  10 -13  148.63    7.75
   0 -10  13  121.95   11.27
   0  10 -12   80.22    5.10
   0 -10  12   61.15    7.26
   0  10 -11   17.19    2.51
   0 -10  11   12.69    3.41
   0  10 -10    0.78    1.45
   0 -10  10    2.15    2.00
   0 -10  10    0.22    0.96
   0  10  -9   71.51    5.12
   0 -10   9   72.95    5.88
   0 -10   9   65.93    6.00
   0  10  -8  256.17   12.84
   0 -10   8  270.56   14.27
   0 -10   8  211.96    9.16
   0  10  -7  284.79   15.40
   0 -10   7  310.26   16.57
   0 -10   7  255.55   15.44
   0  10  -6  252.92   14.26
   0 -10   6  277.65   14.94
   0 -10   6  220.02   13.30
   0  10  -5  185.84    7.90
   0 -10   5  180.10   12.15
   0 -10   5  219.20   12.04
   0 -10   4   35.02    4.90
   0 -10   4   30.84    4.33
   0  10  -3   48.85    5.61
   0 -10   3   51.17    5.71
   0 -10   3   48.58    6.61
   0  10  -2  102.60    9.49
   0 -10   2  118.49    9.05
   0 -10   2  113.05    6.59
   0  10  -1  278.67   14.00
   0 -10   1  302.18   23.36
   0 -10   1  297.52   18.66
   0  10   0  390.62   29.57
   0 -10   0  404.68   33.49
   0 -10   0  434.24   27.11
   0  10   1  364.26   28.53
   0 -10  -1  364.18   24.10
   0 -10  -1  365.61   32.09
   0  10   2   92.22   12.02
   0 -10  -2   95.04   14.32
   0 -10  -2   86.82    9.12
   0  10   3    0.68    4.08
   0 -10  -3    2.77    1.65
   0 -10  -3    0.13    2.78
   0  10   4    8.49    5.26
   0 -10  -4    5.49    3.75
   0  10   5   85.30    8.14
   0 -10  -5   99.02   10.26
   0  10   6  182.30   23.36
   0 -10  -6  180.66   10.32
   0  10   7  176.69   14.78
   0 -10  -7  179.53   11.04
   0 -10  -8   91.47    7.18
   0 -10  -9   42.63    4.97
   0 -10 -10   -0.92    2.30
   0  10  11    1.44    6.57
   0 -10 -11    1.58    2.70
   0  11 -17   38.28    3.34
   0 -11  17   28.70    3.47
   0  11 -16    8.55    2.03
   0  11 -15    0.84    0.85
   0 -11  15   -1.19    2.57
   0  11 -14   10.88    2.30
   0 -11  14    9.85    3.67
   0  11 -13   80.95    4.95
   0 -11  13   62.57    4.24
   0  11 -12  124.36    6.87
   0 -11  12  106.69    9.06
   0  11 -11  175.15    9.31
   0 -11  11  176.79    7.62
   0 -11  11  143.29   11.18
   0  11 -10  166.19    9.13
   0 -11  10  135.09   10.38
   0 -11  10  172.14   10.47
   0  11  -9   46.83    4.02
   0 -11   9   44.76    4.55
   0 -11   9   41.00    4.66
   0  11  -8    1.22    1.67
   0 -11   8    0.44    1.83
   0 -11   8   -0.98    1.89
   0  11  -7   46.81    4.42
   0 -11   7   43.87    4.79
   0 -11   7   54.10    4.82
   0 -11   7   39.23    2.67
   0  11  -6  202.73    8.63
   0 -11   6  215.35   12.67
   0 -11   6  183.11   12.72
   0 -11   5  361.01   15.71
   0 -11   5  350.40   22.76
   0 -11   4  398.52   17.45
   0 -11   4  420.81   27.85
   0  11  -3   97.75    8.25
   0 -11   3   92.37    4.86
   0 -11   3   85.66    9.84
   0  11  -2   31.08    5.20
   0 -11   2   30.32    5.08
   0 -11   2   26.66    5.92
   0  11  -1   13.78    5.09
   0 -11   1   15.35    5.71
   0 -11   1   31.92    4.68
   0  11   0   53.91    4.67
   0 -11   0   55.64    9.35
   0 -11   0   50.46    3.96
   0  11   1  170.81   16.81
   0 -11  -1  155.58   13.80
   0 -11  -1  170.29   11.84
   0  11   2  290.80   25.89
   0 -11  -2  279.55   18.16
   0 -11  -2  255.14   13.19
   0  11   3  191.29   20.95
   0 -11  -3  187.46   15.72
   0 -11  -3  200.06   25.46
   0  11   4   97.33   13.39
   0 -11  -4   85.61    9.73
   0 -11  -4   69.94    9.03
   0  11   5    8.22    3.54
   0 -11  -5   12.11    2.56
   0  11   6   -1.88    4.32
   0 -11  -6    0.38    1.74
   0  11   7   32.77    6.19
   0 -11  -7   45.28    4.76
   0  11   8   77.37   15.99
   0 -11  -8   76.98    6.90
   0  11   9  132.59   21.48
   0 -11  -9  122.11    9.12
   0  11  10   71.53   15.65
   0 -11 -10   50.73    5.06
   0  12 -17   39.06    2.25
   0 -12  17   34.03    6.09
   0  12 -16   48.67    3.86
   0 -12  16   31.82    6.45
   0  12 -15   43.53    3.74
   0 -12  15   36.55    5.91
   0  12 -14   18.00    2.37
   0 -12  14    9.35    3.88
   0  12 -13   -0.26    1.48
   0 -12  13    0.53    1.20
   0 -12  13    1.12    1.92
   0  12 -12   37.00    2.15
   0 -12  12   28.93    4.22
   0 -12  12   26.55    4.58
   0  12 -11  108.47    6.62
   0 -12  11  102.30    4.79
   0 -12  11   83.18    7.65
   0  12 -10  156.09    9.39
   0 -12  10  136.89   10.26
   0 -12  10  168.07   10.38
   0  12  -9   86.17    4.08
   0 -12   9  106.15    7.37
   0 -12   9   88.95    7.17
   0  12  -8   62.92    5.47
   0 -12   8   62.80    3.64
   0 -12   8   87.11    6.25
   0  12  -7   16.24    1.74
   0 -12   7   13.03    3.44
   0 -12   7   16.68    1.87
   0 -12   7   17.67    3.30
   0 -12   6   14.64    3.68
   0 -12   6   22.63    3.59
   0 -12   5   58.37    6.69
   0 -12   5   65.90    6.04
   0 -12   4  208.70   13.63
   0 -12   4  157.77   14.33
   0  12  -3  107.49    9.76
   0 -12   3  100.98   11.40
   0 -12   3  108.89    5.96
   0  12  -2  177.21   14.60
   0 -12   2  160.79   16.17
   0 -12   2  182.29   13.70
   0  12  -1   83.01    5.95
   0 -12   1   71.14   11.31
   0 -12   1  103.36    8.99
   0  12   0   16.18    5.28
   0 -12   0   14.46    3.97
   0 -12   0   11.26    3.21
   0  12   1   -0.44    3.72
   0 -12  -1   -1.34    4.38
   0 -12  -1    1.85    1.64
   0  12   2   50.96    9.57
   0 -12  -2   45.73    7.28
   0 -12  -2   53.90    6.37
   0  12   3   99.64   14.97
   0 -12  -3  109.36   11.04
   0 -12  -3   90.70    9.88
   0  12   4  178.69   22.86
   0 -12  -4  184.51   26.94
   0 -12  -4  185.34   10.94
   0  12   5  100.37    9.65
   0 -12  -5  102.80    7.67
   0 -12  -5  114.94   11.90
   0  12   6   30.28   11.95
   0 -12  -6   55.65    4.89
   0 -12  -6   30.06    8.08
   0  12   7    8.09    3.84
   0 -12  -7   -1.71    4.66
   0 -12  -7    9.30    2.57
   0  12   8    3.95    5.82
   0 -12  -8    1.19    1.91
   0  12   9   22.11   10.43
   0 -12  -9   19.87    2.95
   0  13 -16   19.95    2.54
   0 -13  16   10.45    2.35
   0 -13  16   16.95    2.89
   0  13 -15   40.97    3.79
   0 -13  15   31.85    5.60
   0 -13  15   41.39    2.96
   0  13 -14   58.65    4.46
   0 -13  14   56.13    5.31
   0 -13  14   50.21    3.65
   0  13 -13   58.14    2.82
   0 -13  13   61.97    5.49
   0 -13  13   41.78    5.75
   0  13 -12    8.89    2.16
   0 -13  12    7.51    2.80
   0 -13  12    8.20    2.56
   0  13 -11    1.14    1.64
   0 -13  11   -1.42    1.97
   0 -13  11    2.05    1.89
   0  13 -10   13.86    2.76
   0 -13  10   12.53    3.13
   0 -13  10   15.81    3.16
   0  13  -9   52.88    4.82
   0 -13   9   65.61    5.58
   0 -13   9   60.49    5.77
   0  13  -8   72.87    3.58
   0 -13   8   92.71    6.70
   0 -13   8   74.01    4.04
   0 -13   8   77.49    6.69
   0 -13   7   81.23    7.85
   0 -13   7  102.84    7.55
   0 -13   7   97.33    5.36
   0 -13   6   70.94    7.87
   0 -13   6   87.74    6.99
   0 -13   5   78.35    9.46
   0 -13   5  104.88    5.42
   0 -13   4    6.46    3.08
   0 -13   4    4.37    3.46
   0  13  -3   12.47    4.12
   0 -13   3   13.82    4.51
   0  13  -2   80.06    5.69
   0 -13   2   94.75    8.82
   0 -13   2   85.72    6.69
   0  13  -1  136.63   13.64
   0 -13   1  142.46    7.76
   0 -13   1  133.54   15.84
   0  13   0  200.37   19.21
   0 -13   0  201.16   15.67
   0 -13   0  170.19   20.49
   0  13   1  152.33   10.70
   0 -13  -1  153.52   20.29
   0 -13  -1  167.45   14.50
   0  13   2   29.02    5.02
   0 -13  -2   45.40    4.03
   0 -13  -2   31.93   10.48
   0  13   3    3.15    2.55
   0 -13  -3    0.86    3.04
   0 -13  -3    2.03    1.98
   0  13   4   22.39    9.91
   0 -13  -4   32.49   11.26
   0 -13  -4   39.35    6.92
   0 -13  -5   57.93    8.13
   0 -13  -5   49.77    8.55
   0  13   6   86.10   15.72
   0 -13  -6   74.46   19.24
   0 -13  -6   77.07    9.81
   0  13   7   71.11    9.14
   0 -13  -7   84.61   11.31
   0 -13  -7   67.09    9.19
   0  14 -15    3.52    1.81
   0 -14  15    3.30    2.68
   0 -14  15    5.76    2.26
   0  14 -14   14.16    2.55
   0 -14  14   15.17    3.57
   0 -14  14   20.53    3.06
   0  14 -13   45.07    2.53
   0 -14  13   47.95    4.82
   0 -14  13   41.47    5.05
   0  14 -12   46.86    4.11
   0 -14  12   38.21    4.97
   0 -14  12   50.18    4.99
   0  14 -11   46.49    4.26
   0 -14  11   53.58    5.10
   0 -14  11   47.69    5.14
   0  14 -10   18.31    2.65
   0 -14  10   21.40    1.93
   0 -14  10   13.57    3.40
   0  14  -9    0.36    0.80
   0 -14   9   -4.23    1.80
   0 -14   9    0.76    2.01
   0 -14   8    7.32    2.67
   0 -14   8    5.56    2.82
   0 -14   8    8.78    2.75
   0 -14   7   36.80    5.36
   0 -14   7   47.01    3.77
   0 -14   7   50.94    5.26
   0 -14   6  154.73   11.19
   0 -14   6  124.86   11.68
   0 -14   5  114.66   12.73
   0 -14   5  173.35   12.24
   0 -14   4   47.65    6.32
   0 -14   4   41.01    7.19
   0  14  -3   20.81    2.85
   0 -14   3   22.47    2.62
   0 -14   3   23.96    3.15
   0  14  -2   -0.04    2.93
   0 -14   2    0.24    2.76
   0 -14   2    4.43    3.66
   0  14  -1   22.78    3.57
   0 -14   1   29.29    7.41
   0 -14   1   39.38    5.39
   0  14   0   95.58    7.54
   0 -14   0   97.40    8.70
   0 -14   0  105.11    7.00
   0  14   1  105.04   15.54
   0 -14  -1  128.21   12.50
   0  14   2   75.47    8.23
   0 -14  -2   92.56   16.10
   0 -14  -2  108.04   10.74
   0  14   3   68.55    7.32
   0 -14  -3   76.01    9.13
   0 -14  -3   55.77   15.00
   0  14   4   15.15    6.85
   0 -14  -4   11.50    4.41
   0 -14  -4    7.64    4.50
   0  14   5   -1.01    5.18
   0 -14  -5   -2.08    3.01
   0 -14  -5    2.58    6.12
   0  14   6    6.41    6.41
   0 -14  -6    8.29    7.30
   0 -14  -6    1.93    3.40
   0  15 -14   -1.22    1.46
   0 -15  14    1.24    2.06
   0 -15  14    3.13    1.80
   0  15 -13    2.40    0.92
   0 -15  13    1.25    2.16
   0 -15  13    1.51    2.04
   0  15 -12   11.99    2.22
   0 -15  12   12.88    2.91
   0 -15  12   14.45    2.96
   0  15 -11   30.06    1.98
   0 -15  11   48.68    4.27
   0 -15  11   35.46    4.37
   0 -15  10   56.94    5.76
   0 -15  10   57.35    5.44
   0 -15   9   62.94    6.31
   0 -15   9   60.29    3.51
   0 -15   8   21.03    4.20
   0 -15   8   24.87    3.77
   0 -15   8   18.93    3.94
   0 -15   7    4.22    2.59
   0 -15   7    2.20    1.81
   0 -15   7    2.68    1.40
   0 -15   6    8.00    1.82
   0 -15   6    6.52    3.47
   0 -15   5   46.69    7.37
   0 -15   5   57.19    6.60
   0 -15   4   57.26    9.41
   0 -15   4   77.96    7.62
   0  15  -3   87.20   10.26
   0 -15   3   75.79   11.23
   0 -15   3   99.55    6.03
   0  15  -2   60.08    4.99
   0 -15   2   65.25    6.19
   0 -15   2   74.39    8.36
   0  15  -1   21.40    5.63
   0 -15   1   19.57    6.58
   0 -15   1   13.75    5.10
   0  15   0    2.91    3.90
   0 -15   0    3.52    4.62
   0 -15   0    1.21    3.30
   0  15   1   -1.37    4.01
   0 -15  -1   -0.14    1.76
   0 -15  -1    4.15    2.56
   0  15   2   -0.15    8.15
   0 -15  -2   34.98    5.31
   0  15   3   48.82    6.67
   0 -15  -3   53.21    4.37
   0  15   4   61.98   12.67
   0 -15  -4   59.36    8.51
   0 -15  -4   54.20    4.50
   0  16 -13    6.63    1.66
   0 -16  13    3.13    2.53
   0 -16  13    8.08    2.36
   0 -16  12    4.80    2.36
   0 -16  12    6.34    2.22
   0 -16  11   -1.55    2.07
   0 -16  10   13.16    1.83
   0 -16  10   11.60    3.00
   0 -16   9   40.19    4.42
   0 -16   9   29.80    2.86
   0 -16   8   43.42    5.82
   0 -16   8   50.60    5.59
   0 -16   8   32.70    5.30
   0 -16   7   29.61    2.61
   0 -16   7   15.61    3.09
   0 -16   6   15.69    3.90
   0 -16   6   14.97    4.36
   0 -16   5   -1.62    2.90
   0 -16   5   -0.62    2.62
   0 -16   4   10.25    3.49
   0 -16   4    6.27    2.40
   0  16  -3   21.17    5.09
   0 -16   3   25.37    6.30
   0 -16   3   25.90    3.06
   0  16  -2   53.07    8.13
   0 -16   2   53.26    4.48
   0 -16   2   58.35    9.96
   0  16  -1   44.51    8.43
   0 -16   1   61.84    8.03
   0  16   0    3.49    7.17
   0 -16   0   46.20    5.92
   0  16   1    2.53    4.31
   0 -16  -1    5.22    4.96
   0 -16  -1    0.01    3.08
   0  16   2   -1.52    4.02
   0 -16  -2    0.34    2.48
   0 -16  -2    0.26    2.45
   0 -17  11    8.74    2.57
   0 -17  11    4.13    2.48
   0 -17  10    7.23    2.73
   0 -17  10    6.04    2.56
   0 -17   9    4.86    2.69
   0 -17   9    3.06    1.45
   0 -17   8    6.07    3.18
   0 -17   8   10.06    3.07
   0 -17   8   11.64    3.52
   0 -17   7   22.06    2.59
   0 -17   7   21.04    3.15
   0 -17   6   39.42    5.79
   0 -17   6   32.49    6.09
   0 -17   5   40.57    5.62
   0 -17   5   22.97    6.12
   0 -17   4   14.60    3.87
   0 -17   4    2.19    4.69
   0 -17   3    5.13    3.19
   0 -17   3    2.40    4.09
   0  17  -2    1.31    1.82
   0 -17   2   -0.03    1.61
   0 -17   2    1.52    2.03
   0  17  -1    9.64    2.81
   0 -17   1   17.24    2.46
   0 -17   1    6.53    3.56
   0  17   0   37.34    4.74
   0 -17   0   38.75    3.67
   0 -18   8    2.96    2.43
   0 -18   8   -0.22    2.76
   0 -18   7   -2.91    2.63
   0 -18   7   -4.88    2.69
   0 -18   7   -0.51    1.94
   0 -18   6    9.11    3.32
   0 -18   6    4.09    3.48
   0 -18   5    7.52    4.67
   0 -18   5   19.94    4.25
   0 -18   4   11.59    5.24
   0 -18   4   17.18    4.20
   1 -17   1   15.84    2.85
   1 -17   1   26.68    8.75
  -1  17  -1   23.73    2.42
   1 -17   2   25.05    7.99
   1 -17   2   18.92    2.76
  -1  17  -2   12.04    3.55
   1 -17   3   24.68    7.67
   1 -17   3   21.91    1.74
  -1  17  -3   18.06    1.85
   1 -17   4    1.68    5.44
   1 -17   4    9.59    2.18
   1 -17   5   -2.22    4.05
   1 -17   5    3.02    1.65
   1 -17   6   -0.16    0.91
   1 -17   6    1.89    1.49
   1 -17   6    7.59    3.42
   1 -17   7    9.14    2.02
   1 -17   7   18.15    2.35
   1 -17   7   17.58    5.23
   1 -17   8   22.98    2.61
   1 -17   8   26.14    6.12
  -1  17 -10   28.88    3.43
   1 -16  -2   36.47    3.98
   1 -16  -2   31.86   12.63
  -1  16   2   35.62    4.26
   1 -16  -1   19.83    1.88
   1 -16  -1   19.30    9.78
  -1  16   1   23.91    3.15
   1 -16   0   -0.31    1.62
  -1  16   0    1.01    1.49
   1 -16   1   -2.16    2.37
   1 -16   1    0.97    1.54
  -1  16  -1   -0.10    2.17
   1 -16   2   10.99    2.25
   1 -16   2    7.57    3.44
  -1  16  -2    2.05    2.74
   1 -16   3   29.32    3.69
   1 -16   3   37.72    4.95
  -1  16  -3   31.37    4.07
   1 -16   4   45.98    4.39
   1 -16   4   46.96    9.45
   1 -16   5   11.36    7.79
   1 -16   5   34.86    3.64
   1 -16   6   31.37    3.54
   1 -16   6   35.20    6.93
   1 -16   7    2.77    1.53
   1 -16   7    2.02    1.35
   1 -16   7   -1.73    3.55
   1 -16   8    0.97    1.35
   1 -16   8    3.66    3.26
   1 -16   8    1.52    1.12
  -1  16  -8   -0.98    1.85
   1 -16   9    7.10    1.34
   1 -16   9    7.41    1.63
  -1  16  -9   10.49    3.24
  -1  16 -10   17.64    3.25
  -1  16 -11   14.94    1.80
  -1  16 -12   21.25    2.03
   1 -15  -4   -0.12    0.97
   1 -15  -4    0.21    3.25
  -1  15   4    5.15    3.75
   1 -15  -3    6.64    2.58
   1 -15  -3    9.99    8.46
  -1  15   3   12.86    2.81
   1 -15  -2   26.87    3.94
   1 -15  -2   45.96    6.47
  -1  15   2   28.24    3.87
   1 -15  -1   57.36    5.50
   1 -15  -1   69.49   14.34
  -1  15   1   59.52    4.95
   1 -15   0   45.95    5.05
   1 -15   0   51.39   11.99
  -1  15   0   64.49    7.34
   1 -15   1   26.39    8.26
   1 -15   1   27.28    3.47
  -1  15  -1   16.43    4.53
   1 -15   2    8.21    2.16
   1 -15   2   12.76    5.44
  -1  15  -2   -1.28    2.48
   1 -15   3    1.41    1.65
   1 -15   3    0.64    3.90
  -1  15  -3   -0.20    0.96
   1 -15   4   14.70    3.46
   1 -15   4   18.77    2.82
   1 -15   5   48.39    7.87
   1 -15   5   31.70    3.81
   1 -15   6   62.63    4.65
   1 -15   6   61.80    5.39
   1 -15   7   45.22    7.37
   1 -15   7   38.65    3.32
   1 -15   7   31.67    2.81
  -1  15  -7   49.28    3.64
   1 -15   8   25.04    2.38
   1 -15   8   21.15    2.07
   1 -15   8   25.36    3.25
  -1  15  -8   21.17    3.90
   1 -15   9    2.70    1.32
   1 -15   9    0.62    1.03
  -1  15  -9    2.71    2.11
   1 -15  10    1.97    1.17
   1 -15  10    0.91    0.98
  -1  15 -10    0.75    2.03
   1 -15  11    4.52    1.25
   1 -15  11    1.61    1.08
  -1  15 -11    5.38    2.32
  -1  15 -12   35.59    4.49
  -1  15 -13   30.46    4.21
  -1  15 -14   28.50    2.49
   1 -14  -5   50.25   14.41
   1 -14  -5   37.33    4.64
  -1  14   5   60.69    9.62
   1 -14  -4   44.22   12.37
   1 -14  -4   30.39    4.09
  -1  14   4   34.34    7.92
   1 -14  -3   22.46    5.34
   1 -14  -3   18.00    2.00
  -1  14   3   17.00    3.45
   1 -14  -2   -0.18    1.90
   1 -14  -2   -3.03    5.06
  -1  14   2    0.27    1.63
   1 -14  -1    9.89    7.11
   1 -14  -1    9.15    2.76
  -1  14   1    7.66    2.28
   1 -14   0   73.31    6.38
   1 -14   0   67.39   14.00
  -1  14   0   68.01    8.28
   1 -14   1   99.96    7.69
   1 -14   1  117.21   15.24
  -1  14  -1   94.94    8.98
   1 -14   2   85.42   14.12
   1 -14   2  103.15    7.43
  -1  14  -2   85.81    7.16
   1 -14   3   67.05   10.69
   1 -14   3   70.00    5.28
  -1  14  -3   47.52    4.97
   1 -14   4   11.64    3.00
   1 -14   4   13.04    2.44
   1 -14   5    1.93    1.57
   1 -14   5    7.64    3.97
   1 -14   6   29.90    2.76
   1 -14   6   28.53    3.47
  -1  14  -6   24.36    2.85
   1 -14   7   39.49    3.05
   1 -14   7   31.67    2.55
   1 -14   7   47.79    7.00
  -1  14  -7   38.97    2.81
   1 -14   8   73.14    4.69
  -1  14  -8   78.20    4.33
   1 -14   9   56.61    3.43
   1 -14   9   44.48    2.88
  -1  14  -9   71.58    5.91
   1 -14  10   26.02    2.10
   1 -14  10   27.09    2.37
  -1  14 -10   43.52    4.42
   1 -14  11    5.33    1.42
   1 -14  11    4.00    1.29
   1 -14  12   -0.58    1.06
   1 -14  12   -2.17    1.61
  -1  14 -12    0.25    1.12
   1 -14  13    3.36    1.40
  -1  14 -13    8.40    2.57
  -1  14 -14   33.47    4.46
  -1  14 -15   39.46    2.83
   1 -13  -7    1.52    1.11
   1 -13  -7   -0.90    7.08
  -1  13   7    1.37    4.80
   1 -13  -6    3.53    2.51
   1 -13  -6    3.96    8.06
  -1  13   6    9.17    2.95
   1 -13  -5   26.80    4.19
   1 -13  -5   34.75    6.78
   1 -13  -4   66.31   14.72
   1 -13  -4   54.25    5.97
  -1  13   4   66.77   10.16
   1 -13  -3  124.46   19.28
   1 -13  -3   95.30    8.60
  -1  13   3  106.58    7.56
   1 -13  -2   69.87    7.67
   1 -13  -2   52.25    3.72
  -1  13   2   60.20    8.68
   1 -13  -1   13.85    4.30
   1 -13  -1   15.92    2.03
  -1  13   1   14.87    2.59
   1 -13   0    2.20    2.43
   1 -13   0    0.13    1.12
  -1  13   0   -1.03    2.52
   1 -13   1   17.40    1.79
   1 -13   1   13.96    3.65
  -1  13  -1   15.36    2.18
   1 -13   2   52.61    5.00
   1 -13   2   54.91   10.37
  -1  13  -2   55.33    5.36
   1 -13   3  147.53    8.54
   1 -13   3  138.20   16.17
  -1  13  -3  123.92    8.07
   1 -13   4   79.04    5.23
   1 -13   4   75.84    6.23
   1 -13   5   90.29    5.28
   1 -13   5   87.27   11.29
  -1  13  -5   95.57    5.46
   1 -13   6   20.38    2.39
   1 -13   6   21.11    5.56
  -1  13  -6   21.85    2.26
   1 -13   7   -0.35    1.30
   1 -13   7    0.05    1.49
   1 -13   7   -3.68    1.70
  -1  13  -7   -0.88    2.31
   1 -13   8   21.12    2.02
   1 -13   8   16.13    1.66
  -1  13  -8   19.22    3.82
   1 -13   9   54.02    3.27
   1 -13   9   43.77    2.72
  -1  13  -9   64.89    5.67
   1 -13  10   74.87    4.27
   1 -13  10   58.25    4.52
  -1  13 -10   85.00    6.86
   1 -13  11   55.31    3.61
   1 -13  11   71.98    4.17
  -1  13 -11   84.41    6.66
   1 -13  12   18.11    2.20
   1 -13  12   19.94    2.14
  -1  13 -12   26.82    3.78
   1 -13  13    6.64    1.57
   1 -13  13    5.19    2.10
  -1  13 -13    2.88    2.65
   1 -13  14    1.52    1.15
   1 -13  14    0.00    1.29
  -1  13 -14    1.49    2.01
  -1  13 -15   11.81    3.08
   1 -12  -8  121.22   23.17
  -1  12   8   89.72   17.08
   1 -12  -7   71.93   17.43
  -1  12   7   59.43   13.09
   1 -12  -6   32.25    6.53
   1 -12  -6   21.16    4.37
  -1  12   6   30.14    4.70
   1 -12  -5    3.30    6.86
   1 -12  -5    3.04    2.76
  -1  12   5    5.70    4.82
   1 -12  -4    6.99    3.32
   1 -12  -4    5.03    4.08
  -1  12   4   10.06    2.67
   1 -12  -3   76.12   16.00
   1 -12  -3   87.10    8.57
  -1  12   3   80.47   11.00
   1 -12  -2  136.31   11.41
   1 -12  -2  140.73   20.58
  -1  12   2  139.82   13.74
   1 -12  -1  218.88   26.51
   1 -12  -1  223.28   14.75
  -1  12   1  201.91   11.25
   1 -12   0  185.42   12.69
   1 -12   0  199.65   23.56
  -1  12   0  197.86   14.80
   1 -12   1   61.98    6.15
   1 -12   1   67.70    5.45
  -1  12  -1   65.78    6.67
   1 -12   2    1.34    2.25
   1 -12   2    3.11    1.75
  -1  12  -2    1.83    2.13
   1 -12   3   14.92    5.49
   1 -12   3   13.74    2.28
  -1  12  -3   13.43    2.42
   1 -12   4   76.29    4.66
   1 -12   4   95.74   10.51
  -1  12  -4   74.92    4.75
   1 -12   5  306.35   17.49
   1 -12   5  335.64   15.89
  -1  12  -5  341.61   21.65
   1 -12   6  240.34   10.76
   1 -12   6  250.64   20.22
   1 -12   6  222.13    9.63
  -1  12  -6  247.88   16.41
   1 -12   7   84.66    4.59
   1 -12   7   97.11    9.97
  -1  12  -7   85.04    4.75
   1 -12   8   13.17    1.87
   1 -12   8   13.64    1.48
  -1  12  -8   16.21    3.43
   1 -12   9   -0.78    1.71
   1 -12   9    0.88    0.97
  -1  12  -9    3.09    2.20
   1 -12  10   17.93    1.90
   1 -12  10   19.70    2.12
  -1  12 -10   22.97    3.82
   1 -12  11   51.80    3.77
   1 -12  11   68.20    3.94
  -1  12 -11   83.92    6.40
   1 -12  12   56.85    3.60
   1 -12  12   49.83    3.91
  -1  12 -12   75.44    5.75
   1 -12  13   42.37    3.95
  -1  12 -13   76.38    3.70
   1 -12  14   19.04    2.54
   1 -12  14   18.41    2.22
   1 -12  15    2.14    1.42
   1 -12  15    3.68    1.68
  -1  12 -15    5.12    2.50
   1 -12  16    0.22    1.43
   1 -12  16   -0.56    1.04
  -1  12 -16    0.40    1.99
   1 -11  -9    1.28    1.86
   1 -11  -9    1.83    6.91
  -1  11   9    1.81    3.00
   1 -11  -8   50.14   12.78
   1 -11  -8   29.55    2.61
  -1  11   8   28.37    9.83
   1 -11  -7   87.68   10.59
   1 -11  -7   69.75    4.99
  -1  11   7   86.60   13.59
   1 -11  -6  120.31   11.56
   1 -11  -6  124.86   22.06
  -1  11   6  104.74   15.85
   1 -11  -5  105.85   10.36
   1 -11  -5   96.36   10.91
  -1  11   5   85.29   13.46
   1 -11  -4   99.20   17.79
   1 -11  -4   96.77    9.86
  -1  11   4   98.11   13.14
   1 -11  -3    1.75    2.95
   1 -11  -3    3.37    5.95
  -1  11   3    7.76    3.81
   1 -11  -2   35.06    5.09
   1 -11  -2   30.91    5.39
  -1  11   2   36.14    6.27
   1 -11  -1  147.50   10.47
   1 -11  -1  160.16   12.33
  -1  11   1  156.10   13.16
   1 -11   0  174.48   10.99
   1 -11   0  182.28   21.58
  -1  11   0  193.08   13.94
   1 -11   1  184.30   10.46
   1 -11   1  172.85   19.06
  -1  11  -1  193.34   12.54
   1 -11   2  140.71    9.48
   1 -11   2  139.21    7.60
  -1  11  -2  148.45    9.04
   1 -11   3   19.96    5.70
   1 -11   3   18.28    2.47
  -1  11  -3   20.07    2.42
  -1  11  -3   16.75    2.48
   1 -11   4   -2.59    2.88
   1 -11   4   -0.58    1.17
  -1  11  -4    0.99    1.22
   1 -11   5   73.10    4.30
   1 -11   5   79.00    9.16
  -1  11  -5   82.69    7.49
   1 -11   6   50.58    2.81
   1 -11   6   62.41    3.59
   1 -11   6   55.45    4.47
  -1  11  -6   64.31    3.78
   1 -11   7  109.98    5.42
   1 -11   7  113.52    6.48
   1 -11   7   91.30    4.04
  -1  11  -7  117.19    8.59
   1 -11   8  143.77    6.26
   1 -11   8  103.76    4.59
  -1  11  -8  131.48    6.01
   1 -11   9   64.64    3.61
   1 -11   9   51.69    3.02
  -1  11  -9   69.10    3.69
   1 -11  10   20.45    2.81
   1 -11  10   19.33    2.20
  -1  11 -10   24.00    3.66
   1 -11  11   -1.11    1.21
   1 -11  11   -1.16    1.11
  -1  11 -11    2.39    2.09
   1 -11  12    6.27    1.80
   1 -11  12    4.68    1.55
  -1  11 -12   14.49    1.69
   1 -11  13   40.26    3.25
   1 -11  13   33.93    3.54
  -1  11 -13   54.79    3.15
   1 -11  14   53.80    4.67
  -1  11 -14   91.84    6.55
   1 -11  15   24.88    3.86
  -1  11 -15   53.55    3.14
   1 -11  16   20.78    3.27
  -1  11 -16   43.14    4.37
   1 -10 -10   83.50   19.05
   1 -10 -10   76.92   11.47
   1 -10  -9   78.31   14.95
   1 -10  -9   43.56    6.35
   1 -10  -8    9.99    2.82
   1 -10  -8   11.59    4.61
   1 -10  -7   10.77    7.19
   1 -10  -7    5.38    2.38
  -1  10   7    4.58    5.59
   1 -10  -6   91.47   17.02
   1 -10  -6   82.76    9.99
  -1  10   6   73.11   12.72
   1 -10  -5  195.69   26.93
   1 -10  -5  205.46   15.67
  -1  10   5  174.24   12.32
   1 -10  -4  239.98   17.75
   1 -10  -4  225.35   16.69
  -1  10   4  221.43   20.79
   1 -10  -3  213.71   15.95
   1 -10  -3  218.04   15.05
  -1  10   3  222.82   19.09
   1 -10  -2  130.85    9.74
   1 -10  -2  139.27   18.17
  -1  10   2  135.65   12.89
   1 -10  -1   12.26    3.33
   1 -10  -1   11.03    2.73
  -1  10   1    8.02    3.71
   1 -10   0   25.76    3.39
   1 -10   0   31.53    7.73
   1 -10   1  122.82    6.99
   1 -10   1  117.01   13.97
  -1  10  -1  129.32    8.79
   1 -10   2  183.82    9.21
   1 -10   2  202.44   18.12
  -1  10  -2  198.06   10.70
   1 -10   3  243.01   13.34
   1 -10   3  237.87   12.68
  -1  10  -3  223.23   10.41
  -1  10  -3  202.34    9.72
   1 -10   4  271.74   14.13
   1 -10   4  258.62   11.53
  -1  10  -4  282.65   18.33
   1 -10   5  156.25    6.79
   1 -10   5  134.40    7.67
  -1  10  -5  168.59   11.46
   1 -10   6   23.08    2.03
   1 -10   6   15.68    1.51
   1 -10   6   17.25    2.55
  -1  10  -6   17.39    2.05
   1 -10   7    3.40    1.03
   1 -10   7    5.26    1.42
  -1  10  -7    5.85    2.58
   1 -10   8  111.40    4.57
   1 -10   8  123.71    5.61
  -1  10  -8  114.09    8.29
   1 -10   9  123.39    5.63
   1 -10   9  147.53    6.32
  -1  10  -9  141.53    6.28
   1 -10  10  199.41    9.45
   1 -10  10  218.39    9.52
  -1  10 -10  238.26   10.10
   1 -10  11  143.09    7.94
   1 -10  11  154.67    7.44
  -1  10 -11  199.18    7.91
   1 -10  12   37.89    3.43
  -1  10 -12   52.32    3.14
   1 -10  13    1.80    1.50
  -1  10 -13    0.54    2.33
   1 -10  14   15.04    2.73
  -1  10 -14   28.56    3.91
   1 -10  15   13.83    3.18
  -1  10 -15   36.17    4.06
   1 -10  16   30.17    4.90
  -1  10 -16   78.62    3.85
   1 -10  17   13.56    3.94
  -1  10 -17   64.52    4.88
   1  -9 -11   20.20    7.14
   1  -9 -11   31.53    8.42
  -1   9  11   32.42    5.76
   1  -9 -10   82.47   10.21
   1  -9 -10   86.13   11.41
  -1   9  10   81.04   16.00
   1  -9  -9  166.28   16.85
   1  -9  -9  170.70   10.34
  -1   9   9  160.90   21.96
   1  -9  -8  142.28   23.51
   1  -9  -8  128.48    8.14
  -1   9   8  135.05   17.75
   1  -9  -7   50.01   14.06
   1  -9  -7   61.81    7.77
  -1   9   7   57.10    5.99
   1  -9  -6   23.51    5.09
   1  -9  -6   25.23    5.47
  -1   9   6   27.29    3.96
   1  -9  -5   11.15    6.89
   1  -9  -5    9.45    3.41
  -1   9   5    5.11    5.05
   1  -9  -4  110.48    5.67
   1  -9  -4  125.94   18.24
  -1   9   4  120.86    7.95
   1  -9  -3  204.49   22.84
   1  -9  -3  179.11    7.93
  -1   9   3  183.27   10.21
   1  -9  -2  277.81   27.32
   1  -9  -2  254.73   10.61
  -1   9   2  255.46   12.80
   1  -9  -1  160.44    6.40
   1  -9  -1  189.18   18.94
  -1   9   1  188.82   13.32
   1  -9   0  166.90    9.03
   1  -9   0  176.89   11.04
  -1   9   0  162.30   11.30
   1  -9   1   20.26    6.09
   1  -9   1   22.51    2.83
  -1   9  -1   25.87    3.54
   1  -9   2    7.28    4.23
   1  -9   2    6.95    1.78
  -1   9  -2    7.92    2.11
  -1   9  -2    8.21    3.35
   1  -9   3  119.70    5.64
   1  -9   3  130.85   12.28
  -1   9  -3  126.45   10.29
  -1   9  -3  122.55    5.72
   1  -9   4  290.62   20.81
   1  -9   4  261.74   10.47
  -1   9  -4  303.24   17.83
   1  -9   5  371.53   13.75
   1  -9   5  391.31   26.41
   1  -9   5  409.72   19.27
  -1   9  -5  389.59   16.74
   1  -9   6  199.28    8.15
   1  -9   6  201.84   15.02
   1  -9   6  201.56    8.02
  -1   9  -6  204.94   12.92
   1  -9   7   92.73    4.20
   1  -9   7   83.75    3.43
  -1   9  -7   96.80    6.95
   1  -9   8    7.38    2.07
   1  -9   8    8.05    1.27
  -1   9  -8    9.10    2.93
   1  -9   9   23.52    2.09
   1  -9   9   20.71    2.06
  -1   9  -9   25.11    2.24
   1  -9  10   94.34    5.14
  -1   9 -10  113.40    5.18
   1  -9  11  149.23    8.36
  -1   9 -11  209.31    8.48
   1  -9  12   92.34    6.04
  -1   9 -12  135.09    8.76
   1  -9  13   90.19    6.57
  -1   9 -13  140.56    9.01
   1  -9  14   10.47    2.58
  -1   9 -14   19.54    1.86
  -1   9 -14    7.36    1.60
   1  -9  15    5.17    1.82
  -1   9 -15   -0.65    1.15
  -1   9 -15    4.18    2.30
   1  -9  16    6.68    2.45
  -1   9 -16    6.69    2.65
  -1   9 -16    7.04    3.00
   1  -9  17   15.99    3.51
  -1   9 -17   37.00    4.12
  -1   9 -17   12.79    3.33
   1  -8 -12   51.30    9.74
  -1   8  12   55.05    7.90
   1  -8 -11    6.99    4.23
  -1   8  11    3.64    6.64
   1  -8 -10    1.93    1.78
  -1   8  10   -4.25    4.98
   1  -8  -9   37.70    4.03
  -1   8   9   30.16    9.60
   1  -8  -8  153.79   15.06
   1  -8  -8  196.11   15.86
  -1   8   8  191.07   21.14
   1  -8  -7  213.17   17.20
   1  -8  -7  208.46   16.07
  -1   8   7  191.73   21.46
   1  -8  -6  223.48   26.45
   1  -8  -6  208.04   10.26
   1  -8  -5  102.39    5.77
   1  -8  -5  122.04    9.99
  -1   8   5  122.79    7.80
   1  -8  -4   44.20    5.22
   1  -8  -4   36.17    5.90
  -1   8   4   56.87    7.23
   1  -8  -3    1.62    2.35
   1  -8  -3   -0.35    2.05
  -1   8   3    2.11    2.72
   1  -8  -2  118.66    9.05
   1  -8  -2  115.67    7.99
  -1   8   2  126.01   10.58
   1  -8  -1  376.26   32.49
   1  -8  -1  380.57   19.56
  -1   8   1  411.26   24.54
   1  -8   0  510.27   25.35
   1  -8   0  513.24   28.82
  -1   8   0  537.18   29.58
   1  -8   1  324.29   14.94
   1  -8   1  339.78   17.70
  -1   8  -1  360.85   17.96
  -1   8  -1  360.90   17.06
   1  -8   2  366.80   17.97
   1  -8   2  309.99   13.60
  -1   8  -2  330.59   15.03
  -1   8  -2  359.41   15.99
   1  -8   3  116.87    4.98
   1  -8   3  143.46    7.36
  -1   8  -3  133.62    7.03
  -1   8  -3  135.20    6.38
   1  -8   4   22.48    1.79
   1  -8   4   29.88    4.96
  -1   8  -4   22.79    2.29
   1  -8   5  337.64   14.79
   1  -8   5  310.30   10.29
   1  -8   5  336.46   22.11
  -1   8  -5  322.20   13.33
   1  -8   6  309.50   11.00
   1  -8   6  270.33    9.03
  -1   8  -6  305.31   16.82
   1  -8   7  440.00   19.23
   1  -8   7  408.08   15.33
  -1   8  -7  388.39   23.46
   1  -8   8  357.86   14.14
   1  -8   8  378.03   14.73
  -1   8  -8  366.72   20.83
   1  -8   9  147.22    6.46
  -1   8  -9  152.11    6.78
   1  -8  10    1.65    1.33
  -1   8 -10    2.22    1.29
   1  -8  11   10.07    2.14
  -1   8 -11   16.35    1.90
   1  -8  12   51.30    4.52
  -1   8 -12   64.46    5.10
  -1   8 -12   79.29    6.38
   1  -8  13  126.16    9.28
  -1   8 -13  159.77    9.37
  -1   8 -13  207.38   11.90
   1  -8  14   58.62    5.88
  -1   8 -14  115.34    7.65
  -1   8 -14   73.62    5.76
   1  -8  15   55.42    5.96
  -1   8 -15   82.25    4.33
  -1   8 -15   54.20    5.52
   1  -8  16   17.66    3.77
  -1   8 -16   29.92    4.30
  -1   8 -16   21.12    3.37
   1  -8  17    0.77    1.20
  -1   8 -17   -0.82    1.81
  -1   8 -17    0.73    2.30
   1  -7 -13   28.20    4.32
  -1   7  13   35.92    6.39
   1  -7 -12   81.00   10.65
  -1   7  12   69.89   16.34
   1  -7 -11  169.30   10.13
  -1   7  11  146.52   22.09
   1  -7 -10  118.00    7.48
  -1   7  10  109.70   16.64
   1  -7  -9   22.40    5.70
  -1   7   9   26.72    4.33
   1  -7  -8    0.73    1.60
  -1   7   8   -0.16    2.02
   1  -7  -7   -3.15    2.99
   1  -7  -7    4.45    1.67
  -1   7   7    2.04    2.13
   1  -7  -6  185.20   13.39
   1  -7  -6  181.15   14.08
  -1   7   6  177.53   10.54
   1  -7  -5  526.32   48.97
   1  -7  -5  566.55   33.83
  -1   7   5  542.47   38.61
   1  -7  -4  550.95   47.29
   1  -7  -4  532.75   24.12
  -1   7   4  534.24   26.80
   1  -7  -3  198.79   21.03
   1  -7  -3  191.04    7.78
  -1   7   3  223.40   15.20
   1  -7  -2  102.68    7.66
   1  -7  -2   94.01    4.14
  -1   7   2  107.89    8.54
   1  -7  -1    5.74    4.73
   1  -7  -1    6.34    1.23
  -1   7   1    7.18    1.55
   1  -7   0  300.65   14.26
   1  -7   0  340.37   27.28
  -1   7   0  315.80   16.83
   1  -7   1  351.83   15.13
   1  -7   1  381.53   27.74
  -1   7  -1  340.77   16.73
  -1   7  -1  339.97   24.34
   1  -7   2  603.71   26.82
   1  -7   2  625.37   44.39
  -1   7  -2  670.52   30.10
  -1   7  -2  611.24   40.31
   1  -7   3  370.97   14.49
   1  -7   3  474.91   21.85
  -1   7  -3  442.66   19.39
  -1   7  -3  459.22   18.82
   1  -7   4  200.96    6.25
   1  -7   4  219.49   15.94
   1  -7   4  210.53    8.92
  -1   7  -4  223.49    9.37
   1  -7   5    1.33    1.53
   1  -7   5    1.87    0.96
   1  -7   5    2.14    0.89
  -1   7  -5    4.37    1.31
   1  -7   6    2.22    0.77
   1  -7   6    1.61    0.88
  -1   7  -6    1.88    1.26
   1  -7   7  131.95    4.65
   1  -7   7  153.16    6.49
  -1   7  -7  153.81    9.79
   1  -7   8  260.50    9.87
  -1   7  -8  251.22   10.26
   1  -7   9  285.11   11.85
  -1   7  -9  302.93   12.07
   1  -7  10  180.86    9.16
  -1   7 -10  216.73    8.86
  -1   7 -10  212.84    9.59
   1  -7  11   61.40    5.02
  -1   7 -11   74.12    5.01
  -1   7 -11   83.83    4.22
   1  -7  12   15.60    2.75
  -1   7 -12   15.42    2.73
  -1   7 -12   19.78    3.80
   1  -7  13   25.55    3.96
  -1   7 -13   38.38    2.86
  -1   7 -13   35.01    3.82
   1  -7  14   18.87    3.50
  -1   7 -14   21.96    3.28
   1  -7  15   51.60    5.88
  -1   7 -15   61.44    5.25
   1  -7  16   53.02    3.91
  -1   7 -16   58.08    5.31
   1  -7  17   42.58    5.45
  -1   7 -17   29.63    4.39
   1  -6 -14   15.70    3.35
  -1   6  14   19.92    5.06
  -1   6  13    4.57    6.37
   1  -6 -12   23.39    3.41
  -1   6  12   23.87    9.51
   1  -6 -11  110.37   12.04
  -1   6  11  113.57   10.15
   1  -6 -10  208.75   18.18
  -1   6  10  218.48   15.32
   1  -6  -9  390.88   20.35
  -1   6   9  384.57   36.25
   1  -6  -8  237.63   18.67
  -1   6   8  225.19   23.04
   1  -6  -7   90.23    9.24
  -1   6   7   96.52   11.56
   1  -6  -6   52.10    3.52
  -1   6   6   51.94    8.24
   1  -6  -5  121.65    9.73
   1  -6  -5  126.20    9.32
  -1   6   5  129.12   12.04
   1  -6  -4  342.63   20.06
   1  -6  -4  360.55   19.99
  -1   6   4  353.21   16.63
   1  -6  -3 1036.11   55.15
   1  -6  -3 1110.05   89.28
  -1   6   3 1105.60   71.94
   1  -6  -2  679.61   40.33
   1  -6  -2  707.93   31.50
  -1   6   2  774.86   44.05
   1  -6  -1  252.61   23.11
   1  -6  -1  262.67   13.01
  -1   6   1  235.73    9.61
   1  -6   0    7.02    4.62
   1  -6   0    4.83    2.00
  -1   6   0    7.15    4.23
   1  -6   1    1.31    1.43
   1  -6   1    0.41    2.03
  -1   6  -1    2.44    1.68
  -1   6  -1    3.21    1.78
   1  -6   2  179.91    6.76
   1  -6   2  210.70   16.87
  -1   6  -2  191.26   14.45
  -1   6  -2  182.18    7.31
   1  -6   3  672.42   30.01
   1  -6   3  729.91   36.66
  -1   6  -3  723.27   34.95
   1  -6   4  670.63   25.38
   1  -6   4  636.98   26.52
   1  -6   4  681.50   44.31
  -1   6  -4  709.97   42.23
   1  -6   5  528.88   21.08
   1  -6   5  550.70   20.27
  -1   6  -5  533.65   32.28
   1  -6   6  410.55   14.21
  -1   6  -6  440.16   25.23
   1  -6   7   40.56    2.17
  -1   6  -7   38.11    2.75
   1  -6   8   17.04    1.83
  -1   6  -8   18.04    1.83
  -1   6  -8   21.23    2.06
   1  -6   9   69.49    4.30
  -1   6  -9   80.87    4.39
  -1   6  -9   82.80    6.91
   1  -6  10  291.26   13.97
  -1   6 -10  303.15   12.33
  -1   6 -10  276.97   13.23
   1  -6  11  350.45   18.11
  -1   6 -11  365.83   17.68
   1  -6  12  215.11   13.36
  -1   6 -12  242.55   12.36
   1  -6  13   39.85    4.80
  -1   6 -13   45.88    4.25
   1  -6  14    8.51    3.05
  -1   6 -14   10.76    2.58
   1  -6  15    4.40    2.58
  -1   6 -15    0.74    2.04
   1  -6  16   37.02    4.34
  -1   6 -16    6.78    3.32
   1  -6  17   48.83    6.42
  -1   6 -17   38.90    4.65
   1  -5 -14   85.65   11.34
  -1   5  14   84.74   10.18
   1  -5 -13   94.51    6.99
  -1   5  13   91.91   17.62
   1  -5 -12   40.78    7.75
  -1   5  12   50.33    6.34
   1  -5 -11   -1.08    1.67
  -1   5  11    1.01    2.33
   1  -5 -10   33.57    6.11
  -1   5  10   26.47    8.38
   1  -5  -9  216.47   17.49
  -1   5   9  221.80   13.75
   1  -5  -8  170.57    8.62
  -1   5   8  167.28   10.48
   1  -5  -7  378.50   24.68
  -1   5   7  355.74   28.37
   1  -5  -6  267.49   11.87
  -1   5   6  262.72   20.27
   1  -5  -5  139.53    9.97
  -1   5   5  139.45   12.23
   1  -5  -4   -0.93    3.70
   1  -5  -4    1.30    2.06
  -1   5   4    0.36    1.34
   1  -5  -3   94.51    7.55
   1  -5  -3   98.32    4.42
  -1   5   3  104.70    8.57
   1  -5  -2  162.99    9.76
   1  -5  -2  152.72   17.57
  -1   5   2  163.88    7.26
   1  -5  -1  360.81   20.11
   1  -5  -1  360.24   18.03
  -1   5   1  377.26   20.72
   1  -5   0  862.93   44.40
   1  -5   0  901.32   69.36
  -1   5   0  889.48   48.21
  -1   5   0  825.59   46.77
   1  -5   1  525.44   27.79
   1  -5   1  492.33   20.51
  -1   5  -1  493.89   21.93
  -1   5  -1  448.50   33.02
   1  -5   2  107.34   12.15
   1  -5   2  109.02    4.78
  -1   5  -2  106.25    5.13
  -1   5  -2   99.34   10.80
   1  -5   3   -1.63    2.98
   1  -5   3    0.60    0.50
  -1   5  -3   -0.45    2.74
   1  -5   4  123.16    3.75
  -1   5  -4  144.30   11.21
   1  -5   5  385.42   12.99
  -1   5  -5  397.77   17.21
   1  -5   6  461.77   18.65
  -1   5  -6  456.31   27.14
  -1   5  -6  435.02   15.64
   1  -5   7  211.68   10.48
  -1   5  -7  221.71   10.41
  -1   5  -7  216.20   13.91
   1  -5   8  273.77   11.78
  -1   5  -8  275.47   11.01
   1  -5   9   65.66    4.49
  -1   5  -9   65.90    4.00
   1  -5  10    3.44    2.00
  -1   5 -10    5.05    1.73
   1  -5  11   61.98    5.70
  -1   5 -11   68.80    4.89
   1  -5  12   80.78    6.87
  -1   5 -12   75.71    5.86
   1  -5  13  114.01    9.36
  -1   5 -13  112.96    8.13
   1  -5  14  136.99   11.13
  -1   5 -14  127.87    9.63
   1  -5  15   58.74    4.18
  -1   5 -15   52.88    5.42
   1  -5  16    2.76    3.24
  -1   5 -16    4.22    2.33
   1  -5  17    1.96    3.21
  -1   5 -17    2.57    2.20
   1  -4 -15    3.26    4.08
  -1   4  15    4.82    6.68
   1  -4 -14   45.12    4.90
  -1   4  14   51.10    7.18
   1  -4 -13  148.18   14.95
  -1   4  13  153.14   21.49
   1  -4 -12  207.11   11.60
  -1   4  12  208.96   15.42
   1  -4 -11  164.52   15.22
  -1   4  11  186.42   20.78
   1  -4 -10   86.34    5.88
  -1   4  10   92.99    7.64
   1  -4  -9    2.57    3.11
  -1   4   9    2.75    4.12
   1  -4  -8   31.08    3.03
  -1   4   8   30.99    6.66
   1  -4  -7  323.79   20.07
  -1   4   7  296.15   15.26
   1  -4  -6  578.81   26.80
  -1   4   6  608.43   40.61
   1  -4  -5  705.54   42.22
  -1   4   5  710.06   45.96
   1  -4  -4  529.29   43.25
   1  -4  -4  510.48   22.35
  -1   4   4  542.30   32.85
   1  -4  -3  187.13   12.11
   1  -4  -3  206.62   12.71
  -1   4   3  197.63   13.59
   1  -4  -2   -0.29    1.98
   1  -4  -2    0.94    1.98
  -1   4   2    0.33    1.15
   1  -4  -1  223.21   12.07
   1  -4  -1  230.07   22.22
  -1   4   1  236.77   12.96
  -1   4   1  215.07   22.56
   1  -4   0  379.30   30.43
   1  -4   0  367.80   16.50
  -1   4   0  389.62   17.54
  -1   4   0  343.16   29.11
   1  -4   1 1195.04   87.93
   1  -4   1 1091.92   54.52
  -1   4  -1 1081.49   63.87
  -1   4  -1 1168.28   64.72
   1  -4   2 1435.41  100.06
  -1   4  -2 1111.32   54.63
  -1   4  -2 1458.53   83.41
   1  -4   3  673.34   46.41
  -1   4  -3  713.29   35.30
  -1   4  -4  122.29   11.35
   1  -4   5   31.62    2.40
  -1   4  -5   35.38    2.42
  -1   4  -5   41.51    5.90
   1  -4   6   32.01    2.25
  -1   4  -6   30.87    2.94
   1  -4   7  625.82   28.60
  -1   4  -7  601.11   26.54
   1  -4   8  991.46   53.93
  -1   4  -8  960.98   50.97
   1  -4   9  436.78   21.80
  -1   4  -9  423.98   20.10
   1  -4  10  272.72   16.91
  -1   4 -10  284.85   13.84
   1  -4  11  117.25    5.83
  -1   4 -11  123.03    7.92
   1  -4  12    6.86    2.84
  -1   4 -12    4.74    2.42
   1  -4  13   71.59    4.66
  -1   4 -13   75.74    4.03
   1  -4  14  111.48   10.82
  -1   4 -14  122.66    9.59
   1  -4  15  112.47    7.37
  -1   4 -15  130.95   10.31
   1  -4  16   82.62    9.66
  -1   4 -16   67.02    6.62
   1  -4  17   39.44    6.92
  -1   4 -17   32.90    4.65
   1  -3 -15   33.28    4.04
  -1   3  15   33.23    6.17
   1  -3 -14    5.56    4.40
  -1   3  14   14.19    6.90
   1  -3 -13    6.41    2.46
  -1   3  13   11.37    3.49
   1  -3 -12   76.90   10.06
  -1   3  12  101.62   14.12
   1  -3 -11  243.07   12.25
  -1   3  11  249.18   15.76
   1  -3 -10  248.88   17.91
  -1   3  10  230.56   22.62
   1  -3  -9  196.11   15.05
  -1   3   9  188.84   11.63
   1  -3  -8  244.82   11.54
  -1   3   8  265.38   20.82
   1  -3  -7   53.66    6.20
  -1   3   7   52.71    4.28
   1  -3  -6   66.46    6.62
  -1   3   6   62.03    8.01
   1  -3  -5  250.47   10.55
  -1   3   5  271.45   18.69
   1  -3  -4  497.99   27.75
   1  -3  -4  497.58   21.39
  -1   3   4  480.92   22.21
   1  -3  -3  941.44   57.41
   1  -3  -3  930.59   47.22
  -1   3   3 1010.34   64.22
   1  -3  -2  953.06   57.79
   1  -3  -2  997.28   77.27
  -1   3   2  957.25   58.78
   1  -3  -1  159.23    9.84
   1  -3  -1  179.84   18.08
  -1   3   1  163.86    9.73
  -1   3   1  159.74   10.30
   1  -3   0   11.02    6.31
   1  -3   0   17.87    2.43
  -1   3   0   13.79    5.79
  -1   3   0   17.69    2.29
   1  -3   1   17.01    6.11
   1  -3   1   21.28    2.64
  -1   3  -1   22.08    1.73
   1  -3   2 1112.38   63.28
  -1   3  -2 1114.50   65.28
  -1   3  -3  873.34   46.83
   1  -3   4 1056.54   54.50
  -1   3  -4 1133.95   56.09
  -1   3  -4 1139.61   79.87
   1  -3   5  524.84   22.61
  -1   3  -5  546.33   25.64
   1  -3   6  160.86    8.06
  -1   3  -6  170.97    7.49
   1  -3   7    0.34    1.73
  -1   3  -7    3.63    1.54
   1  -3   8  171.60    9.57
  -1   3  -8  169.57    8.85
   1  -3   9  247.07   13.83
   1  -3  10  587.37   26.54
  -1   3 -10  554.35   24.39
   1  -3  11  265.74   17.13
  -1   3 -11  267.98   15.71
   1  -3  12   38.09    5.88
  -1   3 -12   44.08    5.26
   1  -3  13    5.62    1.87
  -1   3 -13    6.11    2.99
   1  -3  14    7.24    3.55
  -1   3 -14    3.66    3.02
   1  -3  15   22.32    3.38
  -1   3 -15   30.93    4.98
   1  -3  16   56.75    8.25
  -1   3 -16   45.56    3.28
   1  -3  17   48.77    4.70
  -1   3 -17   41.09    5.67
   1  -2 -16   69.87   10.73
  -1   2  16   83.43   16.15
   1  -2 -15  125.14   13.48
  -1   2  15  111.34   11.41
   1  -2 -14  102.48   11.68
  -1   2  14  107.34   16.82
   1  -2 -13   93.41    6.21
  -1   2  13   87.17    8.51
   1  -2 -12   35.06    6.54
  -1   2  12   35.13    5.11
   1  -2 -11   12.68    2.45
  -1   2  11   13.95    6.01
   1  -2 -10  165.31   13.47
  -1   2  10  161.44   10.31
   1  -2  -9  306.70   20.63
  -1   2   9  319.43   26.03
   1  -2  -8  538.06   25.25
  -1   2   8  601.31   41.53
   1  -2  -7  577.67   26.82
  -1   2   7  587.50   29.68
   1  -2  -6  192.75    8.52
  -1   2   6  207.59   15.44
   1  -2  -5   94.89    4.98
  -1   2   5   98.19    9.78
   1  -2  -4  110.78    5.57
   1  -2  -4  113.69    7.96
  -1   2   4  113.93    6.11
   1  -2  -3  718.49   38.77
   1  -2  -3  655.17   40.12
  -1   2   3  664.25   31.09
   1  -2  -2 1397.64  103.31
   1  -2  -2 1258.92   81.69
  -1   2   2 1226.41   67.86
   1  -2  -1 1465.48   96.58
   1  -2  -1 1534.54   98.18
  -1   2   1 1452.10  116.38
  -1   2   1 1492.81   93.03
   1  -2   0  883.84   45.52
   1  -2   0  938.46   50.95
  -1   2   0  879.89   41.73
  -1   2   0  812.85   63.34
   1  -2   1 1174.30   84.30
  -1   2  -1 1103.85   57.97
  -1   2  -1 1138.52   85.66
  -1   2  -2  174.17   16.55
  -1   2  -2  159.90    7.50
   1  -2   3  300.95   13.07
  -1   2  -3  298.22   12.19
   1  -2   4  514.25   28.26
  -1   2  -4  519.63   21.75
   1  -2   5 1006.74   55.46
  -1   2  -5  984.77   52.04
   1  -2   6  715.92   39.18
  -1   2  -6  726.95   36.77
   1  -2   7  522.26   28.00
  -1   2  -7  503.27   25.56
   1  -2   8   77.09    6.59
  -1   2  -8   84.87    6.17
   1  -2   9    8.14    3.31
  -1   2  -9   14.61    1.65
   1  -2  10   80.65    7.80
  -1   2 -10   79.28    6.85
   1  -2  11  132.33   11.81
  -1   2 -11  143.92   10.74
   1  -2  12  202.89   16.45
  -1   2 -12  196.50   14.68
   1  -2  13  207.39   11.70
  -1   2 -13  225.94   16.05
   1  -2  14  136.25   13.36
  -1   2 -14  111.00   11.50
   1  -2  15   19.57    5.23
  -1   2 -15   15.56    2.17
   1  -2  16   -2.61    3.58
  -1   2 -16   -0.95    2.47
   1  -2  17    6.47    4.62
  -1   2 -17    4.84    3.05
   1  -1 -16    4.38    2.26
  -1   1  16   -2.36    6.12
   1  -1 -15   17.43    5.72
  -1   1  15   21.45    4.66
   1  -1 -14  128.94    8.00
  -1   1  14  125.61   10.77
   1  -1 -13  294.46   22.44
  -1   1  13  267.45   29.63
   1  -1 -12  308.93   22.20
  -1   1  12  304.02   18.73
   1  -1 -11  107.07    6.18
  -1   1  11  109.29    8.39
   1  -1 -10   48.58    3.64
  -1   1  10   39.20    8.42
   1  -1  -9    4.36    2.99
  -1   1   9    6.61    3.99
   1  -1  -8  170.47   11.85
  -1   1   8  167.39   14.45
   1  -1  -7  609.98   35.71
  -1   1   7  585.61   29.15
   1  -1  -6  527.78   31.13
  -1   1   6  509.50   24.30
   1  -1  -5 1121.47   61.62
  -1   1   5 1172.84   66.09
   1  -1  -4  437.43   23.16
   1  -1  -4  486.40   29.75
  -1   1   4  499.38   32.73
   1  -1  -3   34.61    5.74
   1  -1  -3   35.15    6.44
  -1   1   3   33.86    3.25
   1  -1  -2    6.83    4.05
   1  -1  -2    8.42    3.58
  -1   1   2    7.68    4.28
  -1   1   2    7.08    1.75
   1  -1  -1  515.24   30.14
   1  -1  -1  494.84   33.98
  -1   1   1  487.09   33.63
  -1   1   1  501.96   22.29
   1  -1   0  806.94   54.26
  -1   1   0  914.96   48.12
  -1   1   0  859.51   44.88
  -1   1  -1 2485.85  223.99
  -1   1  -1 2532.75  210.34
   1  -1   2  724.94   33.99
  -1   1  -2  662.73   30.55
   1  -1   3  388.89   20.17
  -1   1  -3  428.41   20.26
   1  -1   4    5.18    2.58
  -1   1  -4    3.60    2.17
   1  -1   5   65.69    6.56
  -1   1  -5   73.69    5.77
   1  -1   6  211.82    8.91
  -1   1  -6  216.43   12.39
   1  -1   7  456.13   26.94
  -1   1  -7  465.15   24.61
   1  -1   8  501.58   29.36
  -1   1  -8  498.74   21.09
   1  -1   9  365.72   23.45
  -1   1  -9  372.21   15.77
   1  -1  10   77.91    8.37
  -1   1 -10   84.37    4.70
   1  -1  11    7.57    3.76
  -1   1 -11    8.12    1.90
   1  -1  12   17.72    5.00
  -1   1 -12   18.89    4.58
   1  -1  13  101.15    6.89
  -1   1 -13   99.68   10.88
   1  -1  14  184.55   17.31
  -1   1 -14  169.82   16.69
   1  -1  15   96.50   11.75
  -1   1 -15   75.78    5.00
   1  -1  16   60.63    5.87
  -1   1 -16   46.02    7.08
   1  -1  17    9.00    5.45
  -1   1 -17    7.02    3.73
   1   0 -17   58.26    5.46
  -1   0  17   59.27    7.90
   1   0 -16   59.95    8.96
  -1   0  16   50.68   13.13
   1   0 -15   18.73    5.67
  -1   0  15   25.14    8.39
   1   0 -14    8.02    2.36
  -1   0  14   11.60    3.41
   1   0 -13   58.92    7.95
  -1   0  13   51.36   11.17
   1   0 -12  185.37   15.14
  -1   0  12  175.07   19.68
   1   0 -11  316.01   22.23
  -1   0  11  325.77   27.86
   1   0 -10  378.49   17.52
  -1   0  10  412.74   30.47
   1   0  -9  170.67    7.97
  -1   0   9  182.62   15.32
   1   0  -8   61.15    3.74
  -1   0   8   60.89    7.93
   1   0  -7   40.25    5.37
  -1   0   7   37.31    6.45
   1   0  -6  591.64   35.71
  -1   0   6  554.68   38.52
   1   0  -5 1377.72   98.02
  -1   0   5 1407.42   86.69
   1   0  -4  654.18   43.57
   1   0  -4  704.64   34.06
  -1   0   4  666.07   33.23
   1   0  -3  424.17   28.57
   1   0  -3  455.06   26.01
  -1   0   3  391.34   18.46
   1   0  -2  741.81   50.79
   1   0  -2  708.72   40.88
  -1   0   2  730.05   46.37
  -1   0   2  684.85   39.04
   1   0  -1    1.93    1.25
   1   0  -1    1.14    1.89
  -1   0   1    1.18    1.87
  -1   0   1    1.21    0.92
  -1   0   0  338.91   19.62
   1   0   1 1164.34   71.71
  -1   0  -1 1067.64   63.01
   1   0   2  232.25   15.32
  -1   0  -2  225.55   13.68
   1   0   3 1019.13   65.91
  -1   0  -3 1051.11   66.44
   1   0   4  917.78   59.91
  -1   0  -4  956.04   58.94
   1   0   5  325.47   22.46
  -1   0  -5  336.65   19.54
   1   0   6   57.55    6.04
  -1   0  -6   25.26    4.88
   1   0   7   75.49    7.75
  -1   0  -7   76.29    6.82
   1   0   8  208.52    9.82
  -1   0  -8  194.61   13.06
   1   0   9  510.58   34.22
  -1   0  -9  490.17   30.61
   1   0  10  444.24   32.25
  -1   0 -10  418.74   28.27
   1   0  11  214.40   19.74
  -1   0 -11  239.00   18.16
   1   0  12   60.89    9.96
  -1   0 -12   79.75    9.23
   1   0  13    6.62    2.54
  -1   0 -13    5.80    4.10
   1   0  14   18.02    6.76
  -1   0 -14   24.23    6.13
   1   0  15   58.77   10.43
  -1   0 -15   54.55    4.37
   1   0  16   83.27    7.94
   1   1 -17   45.56    4.80
  -1  -1  17   44.88    6.80
   1   1 -16  114.63   13.06
  -1  -1  16  113.51   18.23
   1   1 -15  146.67   14.18
  -1  -1  15  148.00   19.55
   1   1 -14  125.46    7.52
  -1  -1  14  114.28   17.53
   1   1 -13   55.07    4.41
  -1  -1  13   54.15    5.91
   1   1 -12    3.44    3.19
  -1  -1  12    3.49    2.33
   1   1 -11   81.61    8.32
  -1  -1  11   75.87    6.10
   1   1 -10  211.76   14.69
  -1  -1  10  201.86   11.11
   1   1  -9  477.23   28.99
  -1  -1   9  469.06   23.31
   1   1  -8  619.30   29.08
  -1  -1   8  673.68   45.49
   1   1  -7  192.93   13.73
  -1  -1   7  201.73   16.47
   1   1  -6  125.59    6.47
  -1  -1   6  144.41   12.95
   1   1  -5   35.81    5.71
  -1  -1   5   27.16    3.48
   1   1  -4   76.03    5.24
   1   1  -4   72.51    7.98
  -1  -1   4   76.21    9.85
   1   1  -3 1057.72   62.04
   1   1  -3 1201.04   64.29
  -1  -1   3 1071.68   62.01
   1   1  -2  410.92   20.90
   1   1  -2  342.07   20.58
  -1  -1   2  430.04   29.47
  -1  -1   2  411.10   17.17
  -1  -1   1  377.31   17.29
  -1  -1   1  412.51   18.96
  -1  -1   0 2451.20  214.20
   1   1   1  735.55   48.03
  -1  -1  -1  679.25   46.62
   1   1   2    1.18    3.42
  -1  -1  -2    3.28    3.42
   1   1   3  233.21   11.23
  -1  -1  -3  254.39   18.55
   1   1   4  364.83   27.87
  -1  -1  -4  437.08   19.42
   1   1   5  823.20   55.11
  -1  -1  -5  747.06   48.59
   1   1   6 1128.80   83.11
  -1  -1  -6 1192.42   79.24
   1   1   7  328.28   23.19
  -1  -1  -7  345.25   21.54
   1   1   8   27.79    6.04
  -1  -1  -8   33.48    2.91
   1   1   9   43.26    3.92
  -1  -1  -9   29.40    5.80
   1   1  10  219.00   19.41
  -1  -1 -10  215.44   17.02
   1   1  11  161.24   17.29
  -1  -1 -11  170.13   14.86
   1   1  12  183.82   20.23
  -1  -1 -12  201.19   17.84
   1   1  13  134.93   10.26
   1   1  14   38.59    5.37
  -1  -1 -14   42.78    6.33
   1   1  15    2.90    4.84
  -1  -1 -15    2.62    1.78
   1   1  16   15.52    5.73
  -1  -1 -16    5.00    2.11
   1   2 -17   -2.10    3.39
  -1  -2  17   -0.13    2.69
   1   2 -16   15.72    5.53
  -1  -2  16   25.18    8.17
   1   2 -15   70.17    8.92
  -1  -2  15   51.32   12.28
   1   2 -14  183.71   10.17
  -1  -2  14  180.93   20.96
   1   2 -13  285.67   14.47
  -1  -2  13  281.51   26.44
   1   2 -12  107.93    6.25
  -1  -2  12  104.45   13.12
   1   2 -11   30.25    3.01
  -1  -2  11   28.28    6.85
   1   2 -10    1.70    1.46
  -1  -2  10   -1.34    3.46
   1   2  -9   73.75    7.50
  -1  -2   9   72.46    5.21
   1   2  -8  396.29   17.71
  -1  -2   8  436.34   29.40
   1   2  -7  523.48   33.61
  -1  -2   7  589.02   28.50
   1   2  -6 1086.28   76.79
  -1  -2   6 1164.39   66.82
   1   2  -5  694.17   35.70
  -1  -2   5  740.07   38.37
   1   2  -4  130.26    6.26
   1   2  -4  122.00    7.62
  -1  -2   4  146.45   14.34
   1   2  -3   15.87    1.04
   1   2  -3    3.96    3.51
  -1  -2   3   22.78    5.56
  -1  -2   2  171.63    7.36
  -1  -2   2  202.67   17.51
  -1  -2   1 1937.08  167.91
   1   2   0 4578.20  524.36
  -1  -2   0 4350.76  467.56
   1   2   1  997.54   73.79
  -1  -2  -1  994.61   74.78
   1   2   2   79.88    6.07
  -1  -2  -2   79.22    6.12
   1   2   3  200.95   16.73
  -1  -2  -3  155.93   15.97
   1   2   4   86.74    6.21
  -1  -2  -4   70.53    9.24
   1   2   5  699.13   49.03
  -1  -2  -5  709.37   46.07
   1   2   6  674.03   47.17
  -1  -2  -6  678.31   42.88
   1   2   7  458.33   33.52
  -1  -2  -7  443.60   28.87
   1   2   8  402.80   29.64
  -1  -2  -8  400.25   19.31
   1   2   9  224.57   12.93
  -1  -2  -9  226.42   17.93
   1   2  10    4.16    4.24
  -1  -2 -10    4.23    3.61
   1   2  11    5.02    5.01
  -1  -2 -11    8.13    4.20
   1   2  12   76.50   12.12
  -1  -2 -12   71.83   10.35
   1   2  13  156.52   12.37
  -1  -2 -13  178.63   18.11
   1   2  14  158.61   12.33
  -1  -2 -14  136.35   13.24
   1   2  15   67.77   12.93
  -1  -2 -15   62.30    8.31
   1   2  16   15.78    7.91
  -1  -2 -16   13.45    4.76
   1   3 -17   44.78    7.36
  -1  -3  17   33.82    6.01
   1   3 -16   35.75    6.45
  -1  -3  16   29.20    5.23
   1   3 -15    1.43    3.41
  -1  -3  15    4.12    4.56
   1   3 -14   15.70    4.82
  -1  -3  14   16.13    6.51
   1   3 -13  139.20   12.74
  -1  -3  13  138.85   16.61
   1   3 -12  233.25   17.37
  -1  -3  12  226.71   13.57
   1   3 -11  285.61   19.86
  -1  -3  11  301.37   16.55
   1   3 -10  445.89   20.60
  -1  -3  10  474.44   34.40
   1   3  -9  133.62   10.68
  -1  -3   9  136.34    7.99
   1   3  -8    3.46    1.72
  -1  -3   8   15.52    3.74
   1   3  -7   83.61    4.87
  -1  -3   7   75.35    5.20
   1   3  -6  446.28   29.90
  -1  -3   6  437.36   31.60
   1   3  -5 1163.98   68.29
  -1  -3   5 1158.66   87.42
  -1  -3   4 1151.79   85.75
  -1  -3   3  625.88   46.61
  -1  -3   2  216.97   19.78
  -1  -3   1   17.83    3.22
   1   3   0  134.15    8.35
  -1  -3   0  131.61    8.66
   1   3   1  681.22   36.35
  -1  -3  -1  673.35   36.36
   1   3   2  754.33   40.56
  -1  -3  -2  739.31   56.41
   1   3   3  829.34   60.04
  -1  -3  -3  768.73   56.60
   1   3   4  197.22   10.48
  -1  -3  -4  194.22    9.80
   1   3   5   65.59    9.47
  -1  -3  -5   74.23    4.67
   1   3   6   -8.00    3.31
  -1  -3  -6    0.64    1.43
   1   3   7  116.63   13.05
  -1  -3  -7  121.16   10.63
   1   3   8  272.47   23.91
  -1  -3  -8  255.51   19.44
   1   3   9  353.24   20.65
  -1  -3  -9  321.49   25.55
   1   3  10  178.07   22.71
  -1  -3 -10  232.69   18.65
   1   3  11  163.43   21.51
  -1  -3 -11  158.45    9.72
   1   3  12    8.92    5.78
  -1  -3 -12    5.30    2.38
   1   3  13   16.48    6.08
  -1  -3 -13    4.75    1.90
   1   3  14   32.64    5.80
   1   3  15   56.73    7.12
  -1  -3 -15   43.10    4.21
   1   4 -18   25.40    3.74
  -1  -4  18   25.51    5.15
   1   4 -17   57.75    8.84
  -1  -4  17   58.65    6.97
   1   4 -16  120.36   13.00
  -1  -4  16  116.99   10.02
   1   4 -15  127.36   12.84
   1   4 -14   38.62    6.82
  -1  -4  14   43.42    5.06
   1   4 -13    3.44    3.55
  -1  -4  13    5.66    2.53
   1   4 -12   20.37    2.73
  -1  -4  12   27.67    6.56
   1   4 -11  118.58    6.30
  -1  -4  11  127.49   13.75
   1   4 -10  494.80   32.69
  -1  -4  10  505.15   26.49
   1   4  -9  514.37   33.16
  -1  -4   9  527.08   37.27
   1   4  -8  456.45   21.22
  -1  -4   8  507.38   33.80
   1   4  -7  130.06   11.02
  -1  -4   7  133.50   12.88
   1   4  -6   32.97    3.61
  -1  -4   6   30.57    6.40
  -1  -4   5  169.73    8.95
  -1  -4   4  612.81   31.45
  -1  -4   3  715.79   33.10
  -1  -4   3  565.09   19.26
  -1  -4   2 1413.18   90.31
   1   4  -1  357.97   27.53
  -1  -4   1  328.40   17.27
   1   4   0   80.64   10.83
  -1  -4   0   83.01   11.36
   1   4   1    0.39    4.51
  -1  -4  -1    5.68    2.30
   1   4   2  136.49    8.81
  -1  -4  -2  150.54   15.11
   1   4   3  572.59   30.38
  -1  -4  -3  602.66   41.49
   1   4   4  563.77   41.20
  -1  -4  -4  586.27   37.91
   1   4   5  660.33   49.31
  -1  -4  -5  629.29   41.89
   1   4   6  303.04   24.31
  -1  -4  -6  274.94   19.70
   1   4   7   36.36    7.11
  -1  -4  -7   26.09    5.42
   1   4   8    7.37    2.65
  -1  -4  -8    2.95    3.70
   1   4   9  112.80    9.27
  -1  -4  -9  121.50    7.57
   1   4  10   97.01   14.61
  -1  -4 -10   91.58   10.89
   1   4  11  233.38   26.15
  -1  -4 -11  220.27   19.62
   1   4  12  144.64   21.90
  -1  -4 -12  162.90   16.05
   1   4  13   90.37   15.66
  -1  -4 -13   77.51    8.58
   1   4  14   16.20    7.78
  -1  -4 -14   10.53    4.04
   1   4  15    2.63    3.16
  -1  -4 -15    0.46    3.02
   1   5 -18    8.27    2.43
  -1  -5  18    2.62    3.27
   1   5 -17    2.51    2.12
  -1  -5  17    4.17    2.75
   1   5 -16   53.78    4.92
   1   5 -15  143.44    8.72
  -1  -5  15  136.39   10.68
   1   5 -14  209.48   11.41
  -1  -5  14  198.16   13.24
   1   5 -13  230.78   12.25
  -1  -5  13  245.43   23.61
   1   5 -12   73.47    8.77
  -1  -5  12   76.50   10.75
   1   5 -11    5.03    1.92
  -1  -5  11    6.96    2.34
   1   5 -10  104.12    9.62
  -1  -5  10   97.24   11.58
   1   5  -9  191.50   13.95
  -1  -5   9  197.18   16.02
   1   5  -8  591.36   36.90
  -1  -5   8  549.25   27.83
   1   5  -7  563.31   20.60
  -1  -5   7  613.91   29.73
   1   5  -6  359.08   10.17
  -1  -5   6  378.88   25.92
  -1  -5   5  153.70    8.58
  -1  -5   4    1.76    2.09
  -1  -5   3   22.61    2.38
  -1  -5   3   21.69    5.67
  -1  -5   2  297.21   14.58
   1   5  -1  804.99   58.07
  -1  -5   1  810.41   43.48
   1   5   0  806.67   59.21
  -1  -5   0  829.45   45.35
   1   5   1  374.33   30.41
  -1  -5  -1  372.84   30.17
   1   5   2  249.69   13.63
  -1  -5  -2  236.26   21.07
   1   5   3    6.45    4.76
  -1  -5  -3    9.20    4.12
   1   5   4   23.78    3.48
  -1  -5  -4   24.74    5.11
   1   5   5  317.71   16.74
  -1  -5  -5  299.00   21.66
   1   5   6  505.45   28.63
  -1  -5  -6  484.67   33.33
   1   5   7  375.95   33.91
  -1  -5  -7  362.16   18.07
   1   5   8  227.54   15.25
  -1  -5  -8  238.91   18.96
   1   5   9   19.75    7.50
  -1  -5  -9   19.67    5.51
   1   5  10    3.94    5.12
  -1  -5 -10    2.39    1.96
   1   5  11   47.33   11.26
  -1  -5 -11   43.55    4.35
   1   5  12  136.19   20.32
  -1  -5 -12  123.40    8.54
   1   5  13  124.25   18.57
  -1  -5 -13   94.07    6.16
   1   5  14   58.53   13.88
  -1  -5 -14   51.36    4.33
   1   6 -18   42.11    4.39
  -1  -6  18   36.60    5.61
   1   6 -17   24.58    3.55
   1   6 -16    9.12    2.43
  -1  -6  16    6.44    3.13
   1   6 -15    9.18    4.17
  -1  -6  15    6.26    2.99
   1   6 -14  122.21   12.38
  -1  -6  14  119.49   15.70
   1   6 -13  191.62   16.44
  -1  -6  13  193.31   20.53
   1   6 -12   61.27    4.69
  -1  -6  12   68.49    5.76
   1   6 -11  188.70   15.95
  -1  -6  11  199.13   17.85
   1   6 -10   99.67    9.75
  -1  -6  10   93.82    6.24
   1   6  -9   17.24    1.87
   1   6  -9   21.54    2.87
  -1  -6   9   29.11    2.94
   1   6  -8   55.22    2.52
  -1  -6   8   63.27    7.79
   1   6  -7  159.19    4.82
  -1  -6   7  167.91    8.65
  -1  -6   6  263.74   20.02
  -1  -6   5  624.50   43.08
  -1  -6   4  392.67   14.79
  -1  -6   4  404.95   19.06
  -1  -6   3  360.42   18.21
  -1  -6   3  354.61   24.78
  -1  -6   2   37.36    3.72
   1   6  -1  166.40   15.61
  -1  -6   1  179.01   15.32
   1   6   0  467.38   34.39
  -1  -6   0  467.68   23.23
   1   6   1  405.27   31.35
  -1  -6  -1  393.87   29.57
   1   6   2  635.73   47.70
  -1  -6  -2  633.55   32.99
   1   6   3  324.71   17.51
  -1  -6  -3  314.35   15.46
   1   6   4   85.27   11.37
  -1  -6  -4   81.82    5.28
   1   6   5   -1.19    3.60
  -1  -6  -5    1.17    2.80
   1   6   6   54.09    5.76
  -1  -6  -6   62.38    7.98
   1   6   7  241.63   24.63
  -1  -6  -7  201.57   17.47
   1   6   8  329.79   21.84
  -1  -6  -8  322.30   17.17
   1   6   9  174.24   22.28
  -1  -6  -9  154.81   15.07
   1   6  10   96.48   16.76
  -1  -6 -10   98.51   11.55
   1   6  11   23.30    9.55
  -1  -6 -11   25.45    6.28
   1   6  12    1.81    5.26
  -1  -6 -12   -0.03    2.81
   1   6  13   28.74    9.98
  -1  -6 -13   20.46    5.16
   1   7 -18   22.54    6.09
   1   7 -17   73.16   10.03
  -1  -7  17   78.07    7.53
   1   7 -16   89.03   10.56
  -1  -7  16   84.46    8.01
   1   7 -15   45.74    8.01
  -1  -7  15   54.43   10.15
   1   7 -14   12.49    2.64
  -1  -7  14    8.12    5.81
   1   7 -13    2.41    3.44
  -1  -7  13    2.17    2.21
   1   7 -12   14.75    2.10
   1   7 -12   17.84    5.51
  -1  -7  12   19.70    5.59
   1   7 -11  306.99   10.95
   1   7 -11  290.33   16.20
  -1  -7  11  359.43   17.77
   1   7 -10  400.32   16.58
  -1  -7  10  397.95   30.15
   1   7  -9  251.81    8.01
  -1  -7   9  264.08   19.86
   1   7  -8  270.94    8.20
  -1  -7   8  278.93   20.33
   1   7  -7   57.25    1.36
  -1  -7   7   92.77    7.98
  -1  -7   6   34.10    2.86
  -1  -7   6   40.54    6.19
  -1  -7   5  367.97   15.88
  -1  -7   5  304.28   11.19
  -1  -7   5  392.28   18.57
  -1  -7   4  312.54   11.53
  -1  -7   4  355.96   15.29
  -1  -7   3  774.26   37.84
  -1  -7   3  710.36   37.01
   1   7  -2  694.85   47.63
  -1  -7   2  792.17   51.15
   1   7  -1  219.46   18.29
  -1  -7   1  217.41   10.80
   1   7   0   13.72    4.82
  -1  -7   0   10.63    2.31
   1   7   1    5.94    4.74
  -1  -7  -1   10.43    4.14
   1   7   2  182.99   11.02
  -1  -7  -2  207.74   16.98
   1   7   3  536.49   42.27
  -1  -7  -3  523.37   37.47
   1   7   4  471.51   39.52
  -1  -7  -4  459.78   23.20
   1   7   5  219.43   24.05
  -1  -7  -5  234.54   18.97
   1   7   6  124.82   16.47
  -1  -7  -6  118.61   12.44
   1   7   7   10.82    3.41
  -1  -7  -7    8.44    4.40
   1   7   8   19.06    8.64
  -1  -7  -8   26.08    3.48
   1   7   9   97.20   18.13
  -1  -7  -9  104.54   11.83
   1   7  10  183.17   24.13
  -1  -7 -10  148.33   16.49
   1   7  11  153.40   13.73
  -1  -7 -11  124.64   15.27
   1   7  12   61.04    8.72
  -1  -7 -12   57.17    8.90
   1   7  13   14.32    5.02
  -1  -7 -13   10.38    4.65
   1   8 -17   16.59    1.66
   1   8 -17    1.49    6.23
  -1  -8  17   23.30    6.88
   1   8 -16   58.51    2.98
   1   8 -16   60.61   10.22
  -1  -8  16   68.20    6.62
   1   8 -15   88.59    3.87
   1   8 -15  105.20    7.61
  -1  -8  15  110.05   13.75
   1   8 -14  102.80    4.21
   1   8 -14  106.65    7.60
  -1  -8  14  103.57   13.99
   1   8 -13   72.21    3.15
  -1  -8  13   76.34    6.36
   1   8 -12   16.50    1.56
  -1  -8  12   14.74    5.69
   1   8 -11   20.88    1.62
  -1  -8  11   20.73    3.23
   1   8 -10   75.63    2.84
  -1  -8  10   67.35    9.49
   1   8  -9  275.34   10.69
  -1  -8   9  242.05   20.48
   1   8  -8  422.65   14.93
  -1  -8   8  406.89   29.27
  -1  -8   7  274.63   20.38
  -1  -8   7  247.85   16.39
  -1  -8   6   84.66    4.70
  -1  -8   6   79.43    5.55
  -1  -8   5   13.16    1.36
  -1  -8   5   19.64    3.76
  -1  -8   4   17.38    4.18
  -1  -8   4   14.65    1.90
  -1  -8   3  283.52   14.00
  -1  -8   3  289.71   19.61
   1   8  -2  470.61   24.60
  -1  -8   2  507.17   24.72
  -1  -8   2  554.11   24.25
   1   8  -1  346.67   17.42
  -1  -8   1  357.10   16.93
   1   8   0  444.64   32.61
  -1  -8   0  423.49   21.46
   1   8   1  119.49   13.66
  -1  -8  -1  113.16    7.20
   1   8   2    2.30    4.73
  -1  -8  -2    6.97    2.18
   1   8   3   59.98    5.90
  -1  -8  -3   59.61    8.58
   1   8   4  184.38   12.79
  -1  -8  -4  185.99   16.29
   1   8   5  313.18   19.78
  -1  -8  -5  290.01   15.92
   1   8   6  308.45   32.46
  -1  -8  -6  295.21   24.20
   1   8   7   78.28    8.30
  -1  -8  -7   81.97   10.06
   1   8   8    7.72    7.42
  -1  -8  -8   12.95    2.83
   1   8   9    2.66    5.39
  -1  -8  -9    1.29    1.96
   1   8  10   11.38    4.30
  -1  -8 -10   10.57    5.43
   1   8  11   62.22    8.63
  -1  -8 -11   66.58   10.62
   1   8  12   77.07    9.66
  -1  -8 -12   67.38   11.61
  -1  -9  17    6.21    5.53
   1   9 -16   -0.35    0.85
  -1  -9  16   -0.29    2.17
   1   9 -15   26.49    2.61
  -1  -9  15   20.16    7.41
   1   9 -14   77.96    3.39
  -1  -9  14   71.56   11.44
   1   9 -13  138.31    5.34
  -1  -9  13  122.36    9.24
   1   9 -12  176.24    6.63
  -1  -9  12  184.20   17.54
   1   9 -11  126.87    6.14
  -1  -9  11  112.29    7.60
   1   9 -10   46.19    3.30
  -1  -9  10   44.06    4.31
   1   9  -9    5.49    1.17
  -1  -9   9    4.22    3.64
  -1  -9   8  123.30   12.91
  -1  -9   8  133.67   11.17
  -1  -9   7  211.06    9.77
  -1  -9   7  236.80   17.63
  -1  -9   6  324.01   14.21
  -1  -9   6  355.22   22.53
  -1  -9   6  448.89   29.81
  -1  -9   5  337.97   14.06
  -1  -9   5  373.28   23.12
  -1  -9   4  198.20   14.71
  -1  -9   4  189.79    9.39
  -1  -9   3   47.53    5.96
  -1  -9   3   33.60    3.89
   1   9  -2   56.17    4.86
  -1  -9   2   65.32    3.61
  -1  -9   2   52.68    4.39
   1   9  -1  115.05    7.31
  -1  -9   1  116.94    6.79
   1   9   0  222.29   20.25
  -1  -9   0  225.06   11.62
   1   9   1  205.24   12.97
  -1  -9  -1  231.80   18.85
   1   9   2  265.38   25.91
  -1  -9  -2  261.64   21.81
   1   9   3  173.74   20.32
  -1  -9  -3  174.21   10.36
   1   9   4    8.32    6.16
  -1  -9  -4    9.40    4.74
   1   9   5    6.80    3.71
  -1  -9  -5   11.20    2.67
   1   9   6   43.60   11.48
  -1  -9  -6   47.20    8.05
   1   9   7   69.40   14.63
  -1  -9  -7   69.53    9.78
   1   9   8  170.06   24.87
  -1  -9  -8  168.79   10.85
   1   9   9  125.43   12.03
  -1  -9  -9  107.63    8.49
   1   9  10   49.70    7.93
  -1  -9 -10   49.55    9.73
   1   9  11   -0.32    6.41
  -1  -9 -11    2.79    4.57
  -1 -10  17   30.74    8.76
  -1 -10  16   47.68    9.75
   1  10 -15    3.84    1.12
  -1 -10  15    5.45    2.53
   1  10 -14    1.08    0.88
  -1 -10  14   -0.45    3.63
   1  10 -13   27.50    1.91
  -1 -10  13   27.27    3.69
   1  10 -12   88.53    3.87
  -1 -10  12   87.13   11.05
   1  10 -11  218.10   10.00
  -1 -10  11  172.01   10.66
   1  10 -10  162.34    6.61
  -1 -10  10  136.34    8.54
  -1 -10  10  139.40    7.38
  -1 -10   9  108.82   11.59
  -1 -10   9  106.35    6.08
  -1 -10   8    8.37    4.53
  -1 -10   8   10.39    3.56
  -1 -10   7    3.18    2.77
  -1 -10   7    1.36    3.55
  -1 -10   6   63.16    6.42
  -1 -10   6   49.94    3.69
  -1 -10   6   37.44    4.73
  -1 -10   5  194.58    9.16
  -1 -10   5  203.14    9.69
  -1 -10   4  203.88   11.00
  -1 -10   4  230.30   16.28
  -1 -10   3  320.52   22.68
  -1 -10   3  303.85   17.42
   1  10  -2   65.06    5.48
  -1 -10   2   78.20    8.69
  -1 -10   2   68.95    7.14
   1  10  -1   40.78    4.52
  -1 -10   1   50.74    4.29
  -1 -10   1   42.79    4.06
   1  10   0    7.59    4.68
  -1 -10   0    6.40    2.35
   1  10   1   94.55   13.93
  -1 -10  -1   98.49   12.05
   1  10   2  199.50   13.66
  -1 -10  -2  192.62   11.36
   1  10   3  217.60   15.10
  -1 -10  -3  204.39   18.81
   1  10   4  193.25   23.86
  -1 -10  -4  193.41   11.67
   1  10   5  156.01   22.21
  -1 -10  -5  163.95   16.43
   1  10   6    9.26    3.82
  -1 -10  -6    3.98    4.68
   1  10   7    9.84    8.89
  -1 -10  -7   18.07    3.28
   1  10   8   58.36    8.33
  -1 -10  -8   59.08    5.80
   1  10   9   65.83    9.79
  -1 -10  -9   87.87   11.96
   1  10  10  124.34   22.90
  -1 -10 -10  119.66   16.81
  -1 -11  17   13.83    6.34
  -1 -11  15   48.23    5.16
   1  11 -14   44.52    2.53
  -1 -11  14   41.09    8.58
   1  11 -13   19.09    2.45
  -1 -11  13   21.56    3.27
   1  11 -12    0.34    0.96
  -1 -11  12   -2.17    3.08
  -1 -11  11   51.66    6.64
  -1 -11  11   43.63    4.36
  -1 -11  10   79.24    9.74
  -1 -11  10   83.65    8.62
  -1 -11   9  174.54   16.76
  -1 -11   9  176.59    9.08
  -1 -11   8  212.27   18.44
  -1 -11   8  194.28    9.44
  -1 -11   7  102.78    9.71
  -1 -11   7  107.22   11.80
  -1 -11   6   24.25    2.44
  -1 -11   6   40.17    3.15
  -1 -11   5   -0.36    1.48
  -1 -11   5   -2.07    2.76
  -1 -11   4   31.10    3.23
  -1 -11   4   22.74    3.50
  -1 -11   3  221.74   14.92
  -1 -11   3  275.85   19.59
   1  11  -2  198.12   12.31
  -1 -11   2  231.15   18.37
  -1 -11   2  221.87   16.26
   1  11  -1  251.85   23.27
  -1 -11   1  246.74   13.62
  -1 -11   1  244.44   13.00
   1  11   0  119.31    8.93
  -1 -11   0  143.17   14.46
   1  11   1   33.66    8.81
  -1 -11  -1   35.48    4.16
   1  11   2    3.05    5.14
  -1 -11  -2    2.76    3.98
   1  11   3   85.53   13.99
  -1 -11  -3   72.63    5.86
   1  11   4  123.90   11.23
  -1 -11  -4  123.03   14.47
   1  11   5  165.14   23.24
  -1 -11  -5  156.39   16.86
   1  11   6   94.30   17.11
  -1 -11  -6   87.94    7.25
   1  11   7   44.98   14.19
  -1 -11  -7   52.15    5.34
   1  11   8    5.78    4.22
  -1 -11  -8    5.80    5.18
   1  11   9    0.88    6.77
  -1 -11  -9    2.12    4.59
  -1 -12  16    6.45    4.96
  -1 -12  15   -1.19    3.81
  -1 -12  14   49.21    4.81
   1  12 -13   63.68    3.48
  -1 -12  13   66.35    9.54
  -1 -12  13   71.57    8.12
  -1 -12  12   53.35    4.70
  -1 -12  12   53.22    7.17
  -1 -12  11   15.65    4.74
  -1 -12  11   10.17    3.96
  -1 -12  10    3.05    3.54
  -1 -12  10    1.78    2.87
  -1 -12   9   16.26    5.18
  -1 -12   9   11.27    3.92
  -1 -12   8   74.28    8.11
  -1 -12   8   65.85    5.51
  -1 -12   7  139.26    7.67
  -1 -12   7  137.96   16.06
  -1 -12   6   97.17    7.81
  -1 -12   6  127.98   10.90
  -1 -12   5   91.95    6.85
  -1 -12   5  120.79    6.90
  -1 -12   4   65.47    7.38
  -1 -12   4   37.93    4.89
  -1 -12   3   -0.28    2.08
  -1 -12   3    0.72    1.64
   1  12  -2   22.70    3.59
  -1 -12   2   23.07    6.03
  -1 -12   2   12.75    4.58
   1  12  -1  129.72   14.90
  -1 -12   1  117.04   12.85
   1  12   0  179.16   20.18
  -1 -12   0  203.33   19.17
  -1 -12   0  172.67   18.07
   1  12   1  170.94   12.51
  -1 -12  -1  178.23   11.07
   1  12   2   87.96   14.48
  -1 -12  -2   75.32   11.09
   1  12   3    9.18    7.20
  -1 -12  -3   12.59    5.36
   1  12   4   -0.36    6.11
  -1 -12  -4    4.99    2.38
   1  12   5   51.80    6.83
  -1 -12  -5   36.51    4.87
   1  12   6   85.98   16.41
  -1 -12  -6   66.18   11.77
   1  12   7   78.75    9.91
  -1 -12  -7   71.08   12.25
   1  12   8   52.28   16.37
  -1 -12  -8   65.73   11.67
  -1 -13  16    0.10    1.87
  -1 -13  15   -0.54    3.47
  -1 -13  15    1.49    2.75
  -1 -13  14    6.77    3.19
  -1 -13  14   -0.67    3.92
  -1 -13  13   29.50    2.83
  -1 -13  13   -1.27    5.95
  -1 -13  12   75.07    9.61
  -1 -13  12   72.58    4.96
  -1 -13  11   96.46   11.17
  -1 -13  11  100.08    9.50
  -1 -13  10  103.41    7.76
  -1 -13  10  115.19    6.51
  -1 -13   9   18.04    6.48
  -1 -13   9   25.87    2.93
  -1 -13   8    3.33    2.99
  -1 -13   8   -0.06    3.64
  -1 -13   7   13.66    4.34
  -1 -13   7   11.78    1.88
  -1 -13   7   18.85    3.28
  -1 -13   6   67.00    5.21
  -1 -13   6  111.34    9.63
  -1 -13   5  166.26   11.56
  -1 -13   5  231.38   17.39
  -1 -13   4  251.56   18.73
  -1 -13   4  179.55   13.47
  -1 -13   3   39.87    3.30
  -1 -13   3   57.66    4.78
   1  13  -2   13.39    3.38
  -1 -13   2   13.17    5.32
  -1 -13   2   15.13    4.23
   1  13  -1   -2.91    2.37
  -1 -13   1   -2.97    2.15
  -1 -13   1    0.79    3.44
   1  13   0   25.10    8.11
  -1 -13   0   33.33    6.63
  -1 -13   0   23.29    6.90
   1  13   1   87.50   13.94
  -1 -13  -1   88.09   11.53
  -1 -13  -1   79.87   13.19
   1  13   2  141.62   19.56
  -1 -13  -2  142.32    9.14
  -1 -13  -2  118.48   11.03
   1  13   3  113.52   10.68
  -1 -13  -3   99.85    8.38
   1  13   4   67.97   14.68
  -1 -13  -4   59.42   10.48
   1  13   5   11.37    8.03
  -1 -13  -5    8.85    5.56
   1  13   6   -4.39    3.74
  -1 -13  -6   -1.16    4.57
  -1 -14  15   26.88    3.49
  -1 -14  15   20.49    4.99
  -1 -14  14   18.15    2.38
  -1 -14  14    0.37    5.25
  -1 -14  13    0.14    3.01
  -1 -14  13    6.08    2.10
  -1 -14  12   12.46    4.32
  -1 -14  12    6.75    3.51
  -1 -14  11   34.62    3.84
  -1 -14  11   35.43    5.73
  -1 -14  10   74.95   10.43
  -1 -14  10   67.50    8.30
  -1 -14   9   67.02   10.29
  -1 -14   9   71.00    8.20
  -1 -14   8   44.31    6.71
  -1 -14   8   49.14    8.61
  -1 -14   7   16.38    2.34
  -1 -14   7    3.67    1.81
  -1 -14   7   12.15    3.08
  -1 -14   6    0.47    1.59
  -1 -14   6    0.17    1.50
  -1 -14   5    6.06    2.72
  -1 -14   5   20.33    4.47
  -1 -14   4   47.35    7.31
  -1 -14   4   28.78    4.43
  -1 -14   3   78.50    5.83
  -1 -14   3   55.61    7.59
   1  14  -2   68.49   11.11
  -1 -14   2   50.34    4.37
  -1 -14   2   84.69    9.51
   1  14  -1   51.73    5.94
  -1 -14   1   61.52    8.75
  -1 -14   1   47.66    8.07
   1  14   0    8.52    3.22
  -1 -14   0    8.62    2.68
  -1 -14   0    4.40    4.93
   1  14   1    3.34    2.81
  -1 -14  -1    0.59    4.08
   1  14   2   10.47    6.15
  -1 -14  -2    3.28    4.71
  -1 -14  -2    6.02    5.49
   1  14   3   37.50   11.80
  -1 -14  -3   53.22    8.91
  -1 -14  -3   34.75    6.28
   1  14   4   74.21    9.17
  -1 -14  -4   78.42    6.78
  -1 -14  -4   42.37    8.18
   1  14   5   67.70   17.22
  -1 -14  -5   73.77    7.02
  -1 -15  14   29.07    3.99
  -1 -15  14   45.42    5.56
  -1 -15  13   27.60    2.87
  -1 -15  13   19.65    5.97
  -1 -15  12   15.51    2.79
  -1 -15  12   14.81    2.43
  -1 -15  11   -2.52    3.43
  -1 -15  11   -0.23    2.74
  -1 -15  10   -0.46    2.12
  -1 -15  10    5.87    2.87
  -1 -15   9   31.92    6.94
  -1 -15   9   26.22    3.07
  -1 -15   8   59.56    4.50
  -1 -15   8   49.06    5.48
  -1 -15   7   15.66    3.32
  -1 -15   7   21.00    3.92
  -1 -15   6   35.86    4.29
  -1 -15   6   81.54    7.92
  -1 -15   5   15.87    3.33
  -1 -15   5   14.01    5.56
  -1 -15   4    5.83    2.15
  -1 -15   4    2.44    1.34
  -1 -15   3   11.15    2.66
  -1 -15   3    3.25    3.54
   1  15  -2   24.09    7.30
  -1 -15   2   21.39    5.24
  -1 -15   2   32.81    6.90
   1  15  -1   75.33   13.04
  -1 -15   1   88.26   10.93
  -1 -15   1   55.28    9.70
   1  15   0   81.90   14.70
  -1 -15   0  107.09   12.69
  -1 -15   0   75.91   12.16
   1  15   1   63.89   13.06
  -1 -15  -1   64.65    6.06
  -1 -15  -1   52.67   11.00
   1  15   2   18.56    4.44
  -1 -15  -2   17.76    3.64
  -1 -15  -2    7.94    7.11
   1  15   3    3.04    3.29
  -1 -15  -3    1.92    4.36
  -1 -16  12   25.80    6.37
  -1 -16  12   29.82    5.29
  -1 -16  11   16.71    5.92
  -1 -16  11   18.93    4.56
  -1 -16  10    5.76    4.04
  -1 -16  10    0.01    2.98
  -1 -16   9    0.02    3.23
  -1 -16   9    6.57    4.08
  -1 -16   8    0.03    2.93
  -1 -16   8    0.71    1.19
  -1 -16   8   -1.05    3.66
  -1 -16   7    3.32    1.74
  -1 -16   7   -0.00    3.88
  -1 -16   7   11.16    2.89
  -1 -16   6   62.16    7.53
  -1 -16   6   28.26    3.91
  -1 -16   5   34.64    4.89
  -1 -16   5   57.52    7.87
  -1 -16   4   40.83    3.90
  -1 -16   4   11.59    4.46
  -1 -16   3   14.54    2.87
  -1 -16   3    5.38    2.08
   1  16  -2   -2.16    2.22
  -1 -16   2   -0.77    3.01
  -1 -16   2    2.22    3.57
   1  16  -1    4.54    3.02
  -1 -16   1    3.14    4.44
   1  16   0   18.16    4.31
  -1 -16   0   24.23    6.51
  -1 -16   0   12.07    6.01
   1  16   1   33.66   11.10
  -1 -16  -1   60.45    9.01
  -1 -16  -1   21.98    9.10
  -1 -17  10    0.00    4.54
  -1 -17  10   35.65    5.88
  -1 -17   9   37.04    6.16
  -1 -17   9   20.93    7.48
  -1 -17   8   -0.01    4.13
  -1 -17   8   19.54    5.20
  -1 -17   7    1.33    1.36
  -1 -17   7   -3.04    2.30
  -1 -17   6    3.91    3.42
  -1 -17   6    0.92    1.87
  -1 -17   5    7.29    3.05
  -1 -17   5   23.59    5.08
  -1 -17   4   51.81    4.39
  -1 -17   4   10.07    4.86
  -1 -17   3   38.56    3.94
  -1 -17   3    7.21    4.83
  -1 -17   2   35.25    4.58
  -1 -17   2   26.29    6.35
   2 -16   2    8.85    7.23
   2 -16   3    4.75    5.77
   2 -16   4   -1.14    4.67
   2 -16   5   13.33    6.99
   2 -16   6   13.64    3.47
  -2  16  -6    1.49    4.25
   2 -16   7   54.56    6.95
  -2  16  -7   76.19   11.76
  -2  16  -8   32.75    3.95
   2 -15  -1    3.94    3.07
   2 -15  -1    0.34    0.99
  -2  15   1   -4.04    1.60
   2 -15   0    8.94    6.14
   2 -15   0    2.96    1.10
   2 -15   1   20.08    8.33
  -2  15  -1   16.50    2.45
   2 -15   2   30.35   10.00
   2 -15   3   32.05    9.39
   2 -15   4   21.18    7.69
   2 -15   5    6.81    6.09
  -2  15  -5    9.99    3.69
   2 -15   6    0.52    2.40
  -2  15  -6   -4.38    3.85
  -2  15  -7    5.96    3.92
  -2  15  -8   30.65    5.59
  -2  15  -9   37.83    5.85
  -2  15 -10   33.62    3.14
  -2  15 -11    9.74    2.03
   2 -14  -4    9.46    1.76
   2 -14  -3   44.68   13.02
  -2  14   3   38.43    6.15
   2 -14  -2   66.77    7.65
  -2  14   2   37.95    6.34
   2 -14  -1   26.30   11.06
  -2  14   1   31.95    2.56
   2 -14   0   15.59    6.12
   2 -14   0    4.87    1.27
  -2  14   0    2.13    1.76
   2 -14   1    1.62    4.55
   2 -14   1   -0.18    0.84
  -2  14  -1   -0.01    1.32
   2 -14   2    6.38    5.55
   2 -14   2    4.87    1.04
  -2  14  -2    1.82    1.85
   2 -14   3   49.44    7.15
   2 -14   3   13.39    1.32
   2 -14   4   54.92   11.55
  -2  14  -4   67.01    6.90
   2 -14   5   44.04    5.92
  -2  14  -5   63.07    8.43
   2 -14   6   56.41    6.25
  -2  14  -6   51.47    7.65
  -2  14  -7    4.94    3.31
  -2  14  -8   -2.91    2.94
  -2  14  -9   13.72    3.93
  -2  14 -10   29.74    5.20
  -2  14 -11   36.05    5.72
  -2  14 -12   30.52    3.15
   2 -13  -5    9.62    8.59
  -2  13   5    8.79    2.55
   2 -13  -4    1.72    5.73
   2 -13  -4    0.38    1.20
  -2  13   4   -1.48    2.68
   2 -13  -3    3.62    1.50
   2 -13  -3    6.99    3.61
  -2  13   3    2.86    3.05
   2 -13  -2   31.63   10.25
  -2  13   2   30.26    4.86
   2 -13  -1   60.22   12.52
  -2  13   1   45.41    5.41
   2 -13   0   65.87   13.56
  -2  13   0   59.53    5.18
   2 -13   1   52.16    9.85
  -2  13  -1   32.63    3.41
   2 -13   2    7.52    5.48
   2 -13   2    3.86    1.13
  -2  13  -2    7.93    1.36
   2 -13   3    3.16    4.05
   2 -13   3   -0.82    1.00
  -2  13  -3    0.59    2.11
   2 -13   4   14.91    3.43
  -2  13  -4   13.95    4.92
   2 -13   5   31.76    4.46
  -2  13  -5   27.22    5.73
   2 -13   6   98.38   13.71
  -2  13  -6   88.22    5.76
  -2  13  -7   54.54    4.19
  -2  13  -8   35.25    3.35
  -2  13  -9   12.95    2.32
  -2  13 -10   -2.29    2.88
  -2  13 -11    5.51    3.33
  -2  13 -12   33.10    5.53
  -2  13 -13   31.12    3.00
   2 -12  -7   23.34   12.47
  -2  12   7   29.48    4.27
   2 -12  -6   20.24    2.73
   2 -12  -6   47.71    6.53
  -2  12   6   28.47    6.65
   2 -12  -5   76.15   16.54
  -2  12   5   56.94    8.85
   2 -12  -4   31.05    3.41
   2 -12  -4   61.43    7.18
  -2  12   4   35.82    6.51
   2 -12  -3   12.36    2.60
   2 -12  -3   28.57    9.16
  -2  12   3   26.49    2.69
   2 -12  -2   -1.07    1.42
  -2  12   2   -1.76    1.31
   2 -12  -1    7.50    1.66
   2 -12  -1    7.35    6.17
  -2  12   1    5.06    2.66
   2 -12   0   67.82   11.78
   2 -12   0   43.47    3.26
  -2  12   0   60.16    4.82
   2 -12   1   85.48   13.79
  -2  12  -1   77.35    5.20
   2 -12   2   89.27   12.20
  -2  12  -2   65.89    3.71
   2 -12   3   69.03    6.76
  -2  12  -3   75.93    9.29
   2 -12   4   24.67    3.68
  -2  12  -4   19.21    2.93
   2 -12   5   -0.79    3.86
  -2  12  -5    1.04    1.55
   2 -12   6   21.96    4.09
  -2  12  -6   28.88    5.25
  -2  12  -7   46.99    6.67
  -2  12  -8   61.59    7.74
  -2  12  -9   88.72    9.26
  -2  12 -10   53.14    7.03
  -2  12 -11   17.29    2.36
  -2  12 -12    0.95    2.56
  -2  12 -13    8.99    3.55
  -2  12 -14   22.18    2.78
   2 -11  -8   20.67    2.37
   2 -11  -8   31.43   10.82
  -2  11   8   19.83    6.91
   2 -11  -7    7.67    3.43
   2 -11  -7    0.35    1.53
  -2  11   7    0.23    3.93
   2 -11  -6    3.65    6.63
   2 -11  -6    0.40    1.89
  -2  11   6    7.05    2.22
   2 -11  -5   24.60    5.11
   2 -11  -5   15.45    2.95
  -2  11   5   11.97    5.30
   2 -11  -4   80.54   14.68
   2 -11  -4   54.24    5.22
  -2  11   4   69.27    8.12
   2 -11  -3   88.72    6.75
   2 -11  -3  127.65   17.46
  -2  11   3  117.44    9.92
   2 -11  -2   46.84    4.21
   2 -11  -2   57.27   12.10
  -2  11   2   61.58    6.06
   2 -11  -1   19.12    2.49
   2 -11  -1   28.60    7.91
  -2  11   1   24.00    3.54
   2 -11   0   10.95    5.95
   2 -11   0    8.22    1.55
  -2  11   0    5.35    2.28
   2 -11   1   -1.86    4.07
   2 -11   1    0.93    1.02
  -2  11  -1    0.95    1.95
   2 -11   2   55.39   10.44
  -2  11  -2   57.62    8.66
   2 -11   3   82.98    6.91
  -2  11  -3   78.28    9.37
   2 -11   4   91.97   12.32
  -2  11  -4   90.45    5.90
   2 -11   5  120.77    8.84
  -2  11  -5  111.99   11.69
  -2  11  -6   69.04    8.28
  -2  11  -7    0.26    2.63
  -2  11  -8   12.95    4.08
  -2  11  -9   45.65    5.96
  -2  11 -10   81.87    8.32
  -2  11 -11   97.96    9.31
  -2  11 -12   54.39    4.08
  -2  11 -13    9.62    3.73
  -2  11 -14   -0.74    2.64
  -2  11 -15   16.30    4.29
   2 -10  -9   51.90    8.10
  -2  10   9   50.31    5.91
   2 -10  -8   87.26   17.06
  -2  10   8   74.95    6.99
   2 -10  -7   77.91   17.36
  -2  10   7   85.67   11.49
   2 -10  -6   22.95    5.39
   2 -10  -6   19.90    4.03
  -2  10   6   23.13    5.76
   2 -10  -5    7.03    4.03
   2 -10  -5   11.62    2.99
  -2  10   5    7.53    4.07
   2 -10  -4    2.33    2.11
   2 -10  -4    6.02    5.44
  -2  10   4   -0.21    2.85
   2 -10  -3   40.67    4.31
   2 -10  -3   55.96   11.45
  -2  10   3   41.06    5.96
   2 -10  -2  130.43    7.95
   2 -10  -2  145.33   18.80
  -2  10   2  134.19   10.23
   2 -10  -1  205.04   11.11
   2 -10  -1  226.97   24.52
  -2  10   1  236.74   13.71
   2 -10   0  175.16   19.23
   2 -10   0  146.50    7.10
  -2  10   0  153.61    8.43
   2 -10   1   71.83   11.36
  -2  10  -1   76.85    5.78
  -2  10  -1   69.18    4.27
   2 -10   2    0.73    0.77
   2 -10   2    4.18    2.18
  -2  10  -2    1.90    0.95
  -2  10  -2    5.15    3.11
   2 -10   3    2.09    0.58
   2 -10   3    6.91    3.99
  -2  10  -3    2.41    1.75
   2 -10   4  104.80    7.83
  -2  10  -4  109.36   10.88
   2 -10   5  323.02   28.21
  -2  10  -5  302.66   22.73
  -2  10  -6  266.19   13.38
  -2  10  -7   76.58    5.01
  -2  10  -8   32.70    5.19
  -2  10  -9   -3.44    2.95
  -2  10 -10   17.63    2.51
  -2  10 -11   64.35    4.38
  -2  10 -12   76.88    8.28
  -2  10 -13   63.23    4.40
  -2  10 -14   63.75    7.80
  -2  10 -15    7.71    2.09
   2  -9 -10   14.95    3.36
   2  -9 -10   12.89    4.87
  -2   9  10    9.30    6.64
   2  -9  -9    1.43    3.11
   2  -9  -9   -1.19    5.44
  -2   9   9   -0.61    3.89
   2  -9  -8   26.44    5.64
   2  -9  -8   29.19    5.85
  -2   9   8   23.81    7.14
   2  -9  -7   81.64   16.35
   2  -9  -7   85.51    5.69
  -2   9   7   80.74   11.00
   2  -9  -6   96.35    9.57
   2  -9  -6   86.10    8.48
  -2   9   6   79.98   10.40
   2  -9  -5  157.21   11.73
   2  -9  -5  156.92   22.03
  -2   9   5  153.92    8.90
   2  -9  -4   79.06    6.58
   2  -9  -4   87.53   14.16
  -2   9   4   62.01    7.99
   2  -9  -3   18.33    3.01
   2  -9  -3   21.74    7.68
  -2   9   3   16.73    2.18
   2  -9  -2    7.42    1.99
   2  -9  -2    6.02    5.50
  -2   9   2    6.40    2.69
   2  -9  -1   69.93    4.35
   2  -9  -1   56.89   11.14
  -2   9   1   74.58    5.79
   2  -9   0  142.35   16.24
   2  -9   0  137.66    6.24
  -2   9   0  133.98    8.42
  -2   9   0  150.21    7.90
   2  -9   1  253.01   14.89
   2  -9   1  245.79    9.55
  -2   9  -1  251.74   19.69
  -2   9  -1  264.50   13.93
   2  -9   2  120.99    4.66
  -2   9  -2  130.83    7.28
  -2   9  -2  121.85    4.32
   2  -9   3   53.16    4.83
  -2   9  -3   52.33    7.45
   2  -9   4    2.64    3.76
  -2   9  -4    1.94    1.66
   2  -9   5   10.36    2.82
  -2   9  -5   11.68    2.21
  -2   9  -6   56.29    6.59
  -2   9  -7   76.30    7.88
  -2   9  -8  146.43   12.24
  -2   9  -9   71.66    7.86
  -2   9 -10   39.18    5.70
  -2   9 -11    9.89    3.77
  -2   9 -12    4.32    1.85
  -2   9 -13   22.96    4.98
  -2   9 -14   86.29    5.54
  -2   9 -15   38.39    6.24
   2  -8 -11   77.44    8.45
   2  -8 -11   25.00   15.45
  -2   8  11   65.13   12.43
   2  -8 -10   79.47    9.06
   2  -8 -10   87.81   16.91
  -2   8  10   90.01   13.75
   2  -8  -9   63.04    4.53
   2  -8  -9   51.95    7.97
  -2   8   9   64.53   10.85
   2  -8  -8   16.02    4.39
  -2   8   8   21.00    3.50
   2  -8  -7    6.94    3.54
   2  -8  -7    8.46    3.23
  -2   8   7    7.74    2.50
   2  -8  -6   22.38    8.62
   2  -8  -6   23.83    4.22
  -2   8   6   24.33    3.15
   2  -8  -5  166.54   22.47
   2  -8  -5  181.65    8.31
  -2   8   5  190.32   15.17
   2  -8  -4  207.10    8.60
   2  -8  -4  183.29   23.37
  -2   8   4  186.15   13.58
   2  -8  -3  247.89    9.42
   2  -8  -3  246.50   25.68
  -2   8   3  216.67    9.97
   2  -8  -2  122.90    6.80
   2  -8  -2  110.37   15.04
  -2   8   2  117.91    8.42
   2  -8  -1    8.20    5.06
   2  -8  -1    5.61    1.53
  -2   8   1    5.87    2.10
   2  -8   0   10.64    2.83
   2  -8   0   12.87    1.52
  -2   8   0    6.52    4.28
  -2   8   0    9.84    2.14
   2  -8   1   90.56    3.63
   2  -8   1   92.33   11.65
  -2   8  -1  105.02    6.02
  -2   8  -1   91.95   10.12
   2  -8   2  124.26    3.95
   2  -8   2  151.45    8.66
  -2   8  -2  144.41    7.66
  -2   8  -2  142.21    5.13
   2  -8   3  315.26   26.05
  -2   8  -3  327.61   22.48
   2  -8   4  222.81   20.38
  -2   8  -4  249.84   17.33
  -2   8  -5  108.02    9.26
  -2   8  -6    7.44    1.86
  -2   8  -7    5.58    3.33
  -2   8  -8   87.75    8.85
  -2   8  -9  134.78   11.49
  -2   8 -10  190.33    9.53
  -2   8 -11  145.55    7.67
   2  -8  12   13.72    1.76
  -2   8 -12   47.06    4.71
   2  -8  13    1.06    0.94
  -2   8 -13    5.18    1.65
  -2   8 -14    9.97    4.05
  -2   8 -15   19.20    4.98
  -2   8 -16   52.33    7.55
   2  -7 -12   -0.36    2.76
   2  -7 -12    0.23    2.74
  -2   7  12    2.54    4.74
   2  -7 -11   15.27    2.34
   2  -7 -11    3.57    4.39
  -2   7  11   19.69    6.76
   2  -7 -10   90.39    9.36
   2  -7 -10   86.43   16.79
  -2   7  10   92.27    8.10
   2  -7  -9  112.88   10.48
   2  -7  -9  101.43   17.69
  -2   7   9  106.38   14.17
   2  -7  -8  151.59   12.54
   2  -7  -8  172.78   21.90
  -2   7   8  164.89   16.50
   2  -7  -7   76.91   14.34
   2  -7  -7   90.08    5.02
  -2   7   7   85.02   10.54
   2  -7  -6   54.49   11.40
   2  -7  -6   59.33    3.64
  -2   7   6   58.68    7.82
   2  -7  -5   10.20    6.17
   2  -7  -5   11.50    2.91
  -2   7   5   11.03    3.75
   2  -7  -4   93.74    6.69
   2  -7  -4   91.89   13.79
  -2   7   4   88.97    8.18
   2  -7  -3  144.95    8.26
   2  -7  -3  120.26   16.75
  -2   7   3  135.02    9.53
   2  -7  -2  249.84   11.43
   2  -7  -2  224.66   22.55
  -2   7   2  240.31   13.20
   2  -7  -1  254.05   15.30
   2  -7  -1  261.77   10.97
  -2   7   1  265.29   12.90
  -2   7   1  252.27   13.82
   2  -7   0  162.36   15.61
   2  -7   0  170.76    6.72
  -2   7   0  183.23   10.22
  -2   7   0  172.62    9.28
   2  -7   1   14.91    1.20
   2  -7   1   19.54    2.84
  -2   7  -1   17.38    2.25
  -2   7  -1   20.82    4.48
   2  -7   2    1.74    1.62
   2  -7   2    0.39    0.47
  -2   7  -2    1.18    2.60
  -2   7  -2    0.98    0.68
   2  -7   3   45.12    7.25
  -2   7  -3   42.97    6.16
  -2   7  -4  175.87    8.07
  -2   7  -5  300.65   19.54
  -2   7  -6  204.90   14.73
  -2   7  -7  110.88    6.01
  -2   7  -8   25.06    2.88
  -2   7  -9    1.29    1.56
   2  -7  10   34.97    1.51
  -2   7 -10   70.04    6.08
  -2   7 -11  133.95    9.80
  -2   7 -11   87.02    3.01
   2  -7  12   56.50    4.58
  -2   7 -12   87.73    3.31
  -2   7 -13   69.52    3.65
  -2   7 -13  107.54    9.00
  -2   7 -14    9.09    1.65
  -2   7 -14   24.67    4.42
  -2   7 -15    5.81    2.17
  -2   7 -16    4.36    2.04
   2  -6 -12   -1.20    7.74
  -2   6  12   28.00    7.35
   2  -6 -11    4.31    3.94
   2  -6 -11   -3.71    6.58
  -2   6  11   15.83    3.34
   2  -6 -10   -1.14    2.41
   2  -6 -10   -1.41    2.54
  -2   6  10    4.60    3.80
   2  -6  -9   36.74    3.20
   2  -6  -9   23.13    9.55
  -2   6   9   37.95    7.92
   2  -6  -8  151.97    7.70
   2  -6  -8  143.08   11.99
  -2   6   8  168.14    9.88
   2  -6  -7   87.60    7.35
   2  -6  -7   75.94   12.75
  -2   6   7   81.63   10.00
   2  -6  -6  104.65   15.32
   2  -6  -6  130.10    8.76
  -2   6   6  118.43   11.28
   2  -6  -5  149.29    9.40
   2  -6  -5  146.39   17.33
  -2   6   5  145.71   11.57
   2  -6  -4  102.38    4.30
   2  -6  -4   81.42   13.11
  -2   6   4   99.72    8.14
   2  -6  -3    2.59    1.64
   2  -6  -3    5.52    3.78
  -2   6   3    2.06    2.06
   2  -6  -2   73.34    4.50
   2  -6  -2   74.42    5.84
  -2   6   2   80.30    5.44
   2  -6  -1  168.63   16.51
   2  -6  -1  185.84    7.79
  -2   6   1  186.54    8.60
  -2   6   1  173.40    9.53
   2  -6   0  329.42   12.29
   2  -6   0  311.62   23.74
  -2   6   0  324.76   13.02
  -2   6   0  326.28   16.10
   2  -6   1  290.98    9.49
   2  -6   1  296.49   14.77
  -2   6  -1  313.87   14.40
  -2   6  -1  308.55   11.86
   2  -6   2  281.88   14.09
  -2   6  -2  294.20   13.44
   2  -6   3   99.72   10.27
  -2   6  -3   98.95    5.15
  -2   6  -4   16.59    4.10
  -2   6  -5  172.06    8.01
  -2   6  -6  230.21   15.94
  -2   6  -7  281.06   18.98
  -2   6  -8  251.94   17.46
   2  -6   9   89.28    3.08
  -2   6  -9  144.52    9.89
   2  -6  10    5.16    1.02
  -2   6 -10    4.39    1.28
  -2   6 -10    7.61    1.94
   2  -6  11    0.82    1.77
  -2   6 -11    3.33    1.01
  -2   6 -11    6.38    3.32
  -2   6 -12   30.45    2.38
  -2   6 -12   57.58    6.35
   2  -6  13   37.17    4.17
  -2   6 -13   77.18    3.75
   2  -6  14   29.18    3.60
  -2   6 -14   42.71    3.05
   2  -6  15   17.37    3.10
  -2   6 -15   23.57    2.45
   2  -6  16    9.81    3.09
  -2   6 -16   29.56    3.14
   2  -5 -13   -1.48    2.63
  -2   5  13    8.15    4.91
   2  -5 -12   66.47    7.97
   2  -5 -12   79.00    9.19
  -2   5  12   86.82    8.26
   2  -5 -11  137.59   19.65
   2  -5 -11  153.22   13.20
  -2   5  11  155.60   18.84
   2  -5 -10  119.98    6.95
   2  -5 -10   85.02   16.02
  -2   5  10  121.73    8.88
   2  -5  -9   32.38    5.46
   2  -5  -9   33.68    8.72
  -2   5   9   35.24    7.44
   2  -5  -8    9.73    3.09
   2  -5  -8    6.84    5.21
  -2   5   8    1.92    4.31
   2  -5  -7    1.97    2.34
  -2   5   7    2.16    3.20
   2  -5  -6  144.64   18.11
   2  -5  -6  196.08   11.64
  -2   5   6  191.93   14.76
   2  -5  -5  374.70   33.68
   2  -5  -5  432.25   17.98
  -2   5   5  425.93   19.59
   2  -5  -4  378.46   19.18
   2  -5  -4  340.93   29.08
  -2   5   4  357.51   21.29
   2  -5  -3  322.02   15.52
   2  -5  -3  290.50   16.04
  -2   5   3  324.94   17.35
   2  -5  -2  224.15   19.36
   2  -5  -2  222.70   10.36
  -2   5   2  228.00   11.50
  -2   5   2  224.64   12.42
   2  -5  -1   19.01    5.05
   2  -5  -1   19.08    2.72
  -2   5   1   16.84    2.14
  -2   5   1   17.59    4.87
   2  -5   0  193.01    7.14
   2  -5   0  184.74   15.09
  -2   5   0  186.28    6.94
  -2   5   0  171.68   13.99
   2  -5   1  256.35   12.39
  -2   5  -1  266.65    8.17
  -2   5  -1  288.64   18.73
   2  -5   2  316.85   14.55
  -2   5  -2  284.52    7.93
  -2   5  -2  295.42    8.27
  -2   5  -2  309.55   18.96
  -2   5  -3  592.98   37.47
  -2   5  -4  212.46   15.05
  -2   5  -5   54.01    3.78
  -2   5  -6    0.67    1.43
  -2   5  -7   28.29    0.88
  -2   5  -7   52.16    5.36
   2  -5   8  146.05    5.33
  -2   5  -8  143.23    4.84
  -2   5  -8  184.44   12.82
   2  -5   9  175.71    8.85
  -2   5  -9  249.34   11.07
  -2   5  -9  215.82    8.78
  -2   5 -10  136.61    5.49
  -2   5 -10  169.15   12.71
   2  -5  11   60.36    4.73
  -2   5 -11   98.39    4.38
   2  -5  12   15.52    2.42
  -2   5 -12   13.87    1.96
   2  -5  13   -0.18    1.73
  -2   5 -13    1.91    1.29
   2  -5  14   15.84    3.06
  -2   5 -14   16.73    2.27
   2  -5  15   18.04    3.31
  -2   5 -15   17.02    2.41
   2  -5  16   22.37    4.11
  -2   5 -16   28.17    2.92
   2  -4 -14   -1.28    6.87
   2  -4 -14   24.44    5.12
  -2   4  14   15.91    8.22
   2  -4 -13   -3.00    4.24
   2  -4 -13    3.26    3.05
  -2   4  13    0.91    4.80
   2  -4 -12    5.45    5.56
   2  -4 -12    7.89    2.20
  -2   4  12    8.76    5.91
   2  -4 -11   44.25    6.11
   2  -4 -11   61.09    4.54
  -2   4  11   60.20    6.17
   2  -4 -10  131.32   19.33
   2  -4 -10  197.49   14.53
  -2   4  10  182.12   19.27
   2  -4  -9  291.67   18.50
   2  -4  -9  223.32   15.49
  -2   4   9  268.77   15.28
   2  -4  -8  187.69   12.44
   2  -4  -8  129.15   17.00
  -2   4   8  179.59   16.42
   2  -4  -7   56.36    5.60
  -2   4   7   53.12    4.40
   2  -4  -6    5.06    3.59
   2  -4  -6    2.12    1.23
  -2   4   6    3.73    2.96
   2  -4  -5   64.18    5.35
   2  -4  -5   55.32    8.68
  -2   4   5   66.19    6.64
   2  -4  -4  178.78    6.84
   2  -4  -4  189.04   10.40
  -2   4   4  198.13   11.84
   2  -4  -3  648.85   27.94
   2  -4  -3  637.88   44.43
  -2   4   3  664.73   36.16
   2  -4  -2  408.53   29.07
   2  -4  -2  409.91   18.68
  -2   4   2  399.36   20.65
  -2   4   2  399.70   19.10
   2  -4  -1  138.45    6.16
   2  -4  -1  109.70   10.79
  -2   4   1  123.39   11.84
  -2   4   1  139.74    5.99
   2  -4   0   73.55    7.94
   2  -4   0   79.87    4.63
  -2   4   0   70.80    4.72
  -2   4   0   78.05    2.74
   2  -4   1    5.88    2.75
  -2   4  -1    2.55    2.64
  -2   4  -1    0.98    0.90
  -2   4  -2   82.23    3.19
  -2   4  -2   79.98    2.61
  -2   4  -2   85.52    7.86
  -2   4  -3  552.26   34.62
  -2   4  -4  299.85   13.30
  -2   4  -5  311.68    8.13
  -2   4  -5  434.44   22.77
  -2   4  -6  275.06   11.86
  -2   4  -6  246.09    7.53
   2  -4   7   14.46    1.78
  -2   4  -7   15.69    1.12
  -2   4  -7   23.57    2.46
   2  -4   8    5.82    1.41
  -2   4  -8    7.24    1.12
  -2   4  -8   10.64    2.04
   2  -4   9   43.53    3.42
  -2   4  -9   58.02    2.89
   2  -4  10   88.80    5.90
  -2   4 -10  117.71    5.14
   2  -4  11  126.74   10.39
  -2   4 -11  233.78    9.24
   2  -4  12   51.07    5.33
  -2   4 -12   67.36    4.26
   2  -4  13   16.33    3.57
  -2   4 -13   24.02    2.70
   2  -4  14    3.24    2.42
  -2   4 -14    3.02    1.65
   2  -4  15    1.18    2.23
  -2   4 -15    0.76    1.52
   2  -4  16    2.30    2.91
  -2   4 -16    5.74    1.94
   2  -3 -14   80.27    9.33
   2  -3 -14   45.88   11.05
  -2   3  14   75.40   14.08
   2  -3 -13  101.48    6.58
   2  -3 -13   79.35   13.22
  -2   3  13   99.07    9.63
   2  -3 -12   61.58    4.81
   2  -3 -12   49.44   10.09
  -2   3  12   68.97   11.72
   2  -3 -11    8.47    5.07
   2  -3 -11   10.24    3.88
  -2   3  11    7.97    5.59
   2  -3 -10   12.69    5.51
   2  -3 -10   14.14    4.11
  -2   3  10   14.76    3.27
   2  -3  -9   63.37    6.91
   2  -3  -9   53.87    5.23
  -2   3   9   72.07    9.37
   2  -3  -8  214.47   13.81
   2  -3  -8  162.50   16.99
  -2   3   8  207.53   17.47
   2  -3  -7  256.16   22.83
   2  -3  -7  316.46   13.38
  -2   3   7  310.62   15.11
   2  -3  -6  281.96   23.77
   2  -3  -6  355.83   19.56
  -2   3   6  359.21   22.76
   2  -3  -5  103.55    4.47
   2  -3  -5   97.89   10.29
  -2   3   5  110.16    8.70
   2  -3  -4   20.44    3.03
   2  -3  -4   22.47    4.47
  -2   3   4   23.09    3.62
   2  -3  -3   33.28    5.70
   2  -3  -3   38.19    2.01
  -2   3   3   36.61    3.87
  -2   3   3   32.89    3.50
   2  -3  -2  222.15   10.58
   2  -3  -2  193.56   14.71
  -2   3   2  220.43   10.60
  -2   3   2  220.70   17.01
   2  -3  -1  317.77   13.83
   2  -3  -1  298.96   19.48
  -2   3   1  326.29   14.98
  -2   3   1  333.16   12.17
   2  -3   0  555.31   26.64
  -2   3   0  645.75   26.82
  -2   3   0  584.84   38.39
   2  -3   1  336.37   15.49
  -2   3  -1  339.59   15.44
  -2   3  -1  383.16   14.41
  -2   3  -1  368.31   12.99
  -2   3  -2  251.34    7.87
  -2   3  -2  247.13   16.81
  -2   3  -2  266.08   10.69
  -2   3  -3    1.09    0.91
  -2   3  -3    3.10    2.61
  -2   3  -3    1.31    1.06
  -2   3  -4   38.87    1.95
  -2   3  -4   40.17    3.03
  -2   3  -5  183.72    5.66
  -2   3  -5  194.47   13.94
   2  -3   6  192.39    6.83
  -2   3  -6  207.09   14.46
  -2   3  -6  199.93    6.77
   2  -3   7  230.44   12.15
  -2   3  -7  232.97    8.80
   2  -3   8  258.29   12.70
  -2   3  -8  289.14   11.50
   2  -3   9   40.68    4.06
  -2   3  -9   54.27    3.56
   2  -3  10    0.92    1.68
  -2   3 -10    0.13    1.25
   2  -3  11   15.29    3.33
  -2   3 -11   16.20    2.37
   2  -3  12   25.35    3.98
  -2   3 -12   23.47    2.96
   2  -3  13   49.10    3.57
   2  -3  14   50.48    6.69
  -2   3 -14   56.81    4.83
   2  -3  15   38.55    5.38
  -2   3 -15   30.49    2.28
   2  -3  16    2.50    2.84
  -2   3 -16    1.71    1.77
   2  -2 -15    3.32    3.44
   2  -2 -15   -1.02    3.67
  -2   2  15    0.93    3.00
   2  -2 -14   27.08    3.55
   2  -2 -14   17.94    6.66
  -2   2  14   33.53    9.32
   2  -2 -13  104.90    6.55
   2  -2 -13   74.04    7.10
  -2   2  13  104.49   15.41
   2  -2 -12  167.67   14.73
   2  -2 -12  110.42   15.45
  -2   2  12  181.04   12.39
   2  -2 -11  132.32   16.07
   2  -2 -11  185.47   14.84
  -2   2  11  186.97   12.09
   2  -2 -10   38.24    7.45
   2  -2 -10   49.93    6.44
  -2   2  10   44.56    8.41
   2  -2  -9    6.75    2.66
   2  -2  -9   -0.45    1.81
  -2   2   9    3.47    3.65
   2  -2  -8   14.39    2.08
   2  -2  -8   16.49    4.48
  -2   2   8   14.88    4.80
   2  -2  -7   82.64    5.50
   2  -2  -7  101.08    7.78
  -2   2   7  103.22    5.92
   2  -2  -6  372.79   15.44
   2  -2  -6  327.85   23.46
  -2   2   6  370.96   16.93
   2  -2  -5  419.66   21.90
   2  -2  -5  354.04   17.74
  -2   2   5  425.36   18.36
   2  -2  -4  375.32   19.33
   2  -2  -4  341.95   21.44
  -2   2   4  361.12   20.85
   2  -2  -3   90.99    6.22
   2  -2  -3   88.66    4.76
  -2   2   3   86.32    8.78
  -2   2   3   99.43    6.50
   2  -2  -2    4.93    2.10
   2  -2  -2    8.03    3.04
  -2   2   2    9.32    1.06
  -2   2   2    7.56    3.34
   2  -2  -1   49.81    5.50
  -2   2   1   52.41    6.11
  -2   2   1   50.88    2.74
   2  -2   0  219.03    9.48
  -2   2   0  245.92   10.11
  -2   2   0  220.80   15.02
  -2   2  -1  343.24   15.59
  -2   2  -1  371.74   19.29
  -2   2  -1  376.84   14.77
  -2   2  -2  952.09   49.01
  -2   2  -2  839.41   56.17
  -2   2  -2  857.16   42.58
  -2   2  -3  237.37    8.96
  -2   2  -3  234.30   15.43
  -2   2  -4  178.77    8.08
  -2   2  -4  173.75    7.96
   2  -2   5    9.64    2.20
  -2   2  -5    8.96    2.15
   2  -2   6   23.35    2.50
  -2   2  -6   23.30    2.18
   2  -2   7  213.51   14.07
  -2   2  -7  239.28   10.71
   2  -2   8  344.68   19.04
  -2   2  -8  395.18   17.96
   2  -2   9  211.02   13.14
  -2   2  -9  251.38   12.32
   2  -2  10  171.55   12.20
  -2   2 -10  202.58   10.01
   2  -2  11   47.81    5.83
  -2   2 -11   47.03    4.32
   2  -2  12    2.28    2.69
  -2   2 -12    2.03    1.82
   2  -2  13   27.85    5.16
  -2   2 -13   29.47    3.66
   2  -2  14   32.33    5.60
  -2   2 -14   29.68    3.89
   2  -2  15   52.44    6.94
  -2   2 -15   40.41    4.56
   2  -1 -15   41.07    4.34
   2  -1 -15   25.78    7.31
  -2   1  15   45.70    6.43
   2  -1 -14   14.42    4.83
   2  -1 -14    6.10    4.71
  -2   1  14   16.39    4.09
   2  -1 -13    1.64    3.54
   2  -1 -13    4.20    3.52
  -2   1  13    5.02    5.18
   2  -1 -12   40.28    6.50
   2  -1 -12   26.37    6.54
  -2   1  12   51.96    9.11
   2  -1 -11   88.89   12.34
   2  -1 -11  162.89   12.44
  -2   1  11  160.47   16.20
   2  -1 -10  124.73   13.81
   2  -1 -10  187.10   13.55
  -2   1  10  178.58   10.57
   2  -1  -9  191.76    8.58
   2  -1  -9  135.82    8.63
  -2   1   9  187.98   10.30
   2  -1  -8  175.58   11.80
   2  -1  -8  136.45   12.26
  -2   1   8  166.00    9.21
   2  -1  -7   49.15    6.12
   2  -1  -7   62.05    5.94
  -2   1   7   62.90    4.51
   2  -1  -6   27.04    4.07
   2  -1  -6   30.03    4.24
  -2   1   6   32.00    5.24
   2  -1  -5   98.26    6.99
   2  -1  -5   78.32    3.96
  -2   1   5  104.11    8.34
   2  -1  -4  429.36   23.05
   2  -1  -4  400.61   22.52
  -2   1   4  398.89   17.03
   2  -1  -3  582.98   30.84
   2  -1  -3  557.95   31.09
  -2   1   3  571.41   30.63
  -2   1   3  601.06   36.32
   2  -1  -2  608.80   33.74
  -2   1   2  654.59   37.36
  -2   1   2  652.16   32.16
   2  -1  -1  204.43    8.05
  -2   1   1  212.07    8.74
  -2   1   1  202.09   12.35
  -2   1   0   31.63    4.71
  -2   1   0   37.47    3.23
  -2   1   0   35.22    3.82
  -2   1  -1   44.49    5.25
  -2   1  -1   28.74    3.54
  -2   1  -1   31.61    3.19
  -2   1  -2  463.69   22.01
  -2   1  -2  472.18   28.74
  -2   1  -3  544.10   23.40
  -2   1  -3  556.90   33.44
   2  -1   4  555.09   25.50
  -2   1  -4  536.72   25.22
   2  -1   5  354.09   16.74
  -2   1  -5  371.19   17.07
   2  -1   6  144.21    8.64
  -2   1  -6  156.93    7.98
   2  -1   7   10.18    3.01
  -2   1  -7   16.57    2.52
   2  -1   8   39.51    5.43
  -2   1  -8   54.18    2.77
   2  -1   9   86.76    8.61
  -2   1  -9  117.85    7.54
   2  -1  10  153.99    8.31
  -2   1 -10  169.31    6.60
   2  -1  11  116.64   11.28
  -2   1 -11  119.69    7.95
   2  -1  12   33.54    3.52
  -2   1 -12   35.98    4.23
   2  -1  13   18.22    4.88
  -2   1 -13   15.80    3.39
   2  -1  14    3.99    3.56
  -2   1 -14    2.93    2.33
   2  -1  15    7.65    3.96
  -2   1 -15    3.88    2.54
   2   0 -15   86.82    9.68
   2   0 -15   44.98    8.76
  -2   0  15   72.29   14.62
   2   0 -14   76.35    9.33
   2   0 -14   46.93    8.73
  -2   0  14   73.09    7.63
   2   0 -13   89.93    9.57
   2   0 -13   53.76    8.37
  -2   0  13   82.87    7.80
   2   0 -12   60.57    7.25
   2   0 -12   40.76    3.75
  -2   0  12   57.05    5.68
   2   0 -11    0.93    3.03
   2   0 -11    6.55    3.36
  -2   0  11    5.45    2.50
   2   0 -10   50.54    6.55
   2   0 -10   54.32    4.06
  -2   0  10   65.06    5.59
   2   0  -9  159.18    7.68
   2   0  -9  133.35   11.12
  -2   0   9  168.45   10.08
   2   0  -8  253.12   16.89
   2   0  -8  303.17   19.36
  -2   0   8  333.36   16.37
   2   0  -7  391.80   23.25
   2   0  -7  367.11   21.06
  -2   0   7  384.70   18.80
   2   0  -6  112.47    5.20
   2   0  -6  101.38    7.03
   2   0  -5   60.05    5.80
   2   0  -5   47.96    4.45
  -2   0   5   61.84    3.96
   2   0  -4    7.24    2.04
   2   0  -4    8.92    2.82
  -2   0   4    6.26    3.08
   2   0  -3  168.28    8.96
  -2   0   3  198.25   10.27
  -2   0   3  180.23   11.18
  -2   0   2  457.13   23.12
  -2   0   2  468.29   21.77
  -2   0   1  607.33   29.79
  -2   0   1  636.85   29.09
  -2   0   0  440.60   17.30
  -2   0   0  443.54   21.13
  -2   0   0  455.39   22.06
  -2   0  -1  351.46   16.43
  -2   0  -1  360.43   20.15
  -2   0  -2   26.12    2.28
  -2   0  -2   16.28    2.43
   2   0   3   47.49    4.09
  -2   0  -3   42.72    4.28
   2   0   4  172.07    9.52
  -2   0  -4  179.12    6.73
   2   0   5  455.44   24.30
  -2   0  -5  434.62   17.66
   2   0   6  364.05   21.06
  -2   0  -6  377.33   19.93
   2   0   7  192.80   14.03
  -2   0  -7  220.71   12.43
   2   0   8   68.62    4.47
  -2   0  -8   72.57    6.28
   2   0   9    5.59    1.75
  -2   0  -9    4.63    2.77
   2   0  10   14.14    4.01
  -2   0 -10   11.68    2.82
   2   0  11   54.30    8.00
  -2   0 -11   65.82    3.69
   2   0  12   54.52    8.59
  -2   0 -12   64.28    6.06
   2   0  13   91.35   11.42
  -2   0 -13   88.04    8.03
   2   0  14   46.27    8.35
  -2   0 -14   43.86    5.73
   2   0  15   12.02    4.91
  -2   0 -15    8.28    3.16
   2   1 -16   -5.69    3.80
   2   1 -16   -0.30    2.97
  -2  -1  16    1.45    5.66
   2   1 -15   10.18    4.43
   2   1 -15    2.27    3.46
  -2  -1  15    9.31    6.45
   2   1 -14   80.07    9.81
   2   1 -14   51.92    7.78
  -2  -1  14   84.75   13.21
   2   1 -13  185.86   14.66
   2   1 -13  104.13   11.08
  -2  -1  13  182.69   19.10
   2   1 -12  169.63   13.53
   2   1 -12  101.92   10.35
  -2  -1  12  174.59   17.58
   2   1 -11   97.60    9.35
   2   1 -11   71.72    7.34
  -2  -1  11   97.31   12.59
   2   1 -10   59.30    4.08
   2   1 -10   44.99    5.29
  -2  -1  10   64.05    9.84
   2   1  -9    1.70    2.72
   2   1  -9    0.72    1.85
  -2  -1   9    1.40    3.63
   2   1  -8  106.54    5.60
   2   1  -8   96.49    6.61
  -2  -1   8  119.47   12.18
   2   1  -7  265.68   11.63
   2   1  -7  248.63   12.08
  -2  -1   7  250.84   12.80
   2   1  -6  510.50   22.63
   2   1  -6  466.27   21.83
  -2  -1   6  521.30   33.58
   2   1  -5  785.23   39.91
   2   1  -5  870.24   53.66
  -2  -1   5  894.19   58.40
   2   1  -4  339.80   13.41
  -2  -1   4  351.95   14.11
  -2  -1   4  277.13    9.94
  -2  -1   3   25.50    4.16
  -2  -1   3   26.77    2.59
  -2  -1   2    3.43    2.62
  -2  -1   2    6.00    0.88
  -2  -1   1   83.76    4.63
  -2  -1   1   85.03    7.07
  -2  -1   1   83.60    5.77
  -2  -1   0  977.25   58.07
  -2  -1   0  978.58   51.35
  -2  -1  -1 1157.52   72.24
  -2  -1  -2  402.93   22.40
   2   1   3  110.93    7.56
  -2  -1  -3  108.14    8.18
   2   1   4   43.34    4.71
  -2  -1  -4   38.67    4.90
   2   1   5   12.35    3.26
  -2  -1  -5   10.78    3.24
   2   1   6  112.08    9.51
  -2  -1  -6  124.61    9.05
   2   1   7  241.80   18.36
  -2  -1  -7  269.80   16.69
   2   1   8  259.39   13.49
  -2  -1  -8  287.11   18.12
   2   1   9  149.12   14.07
  -2  -1  -9  173.49   12.63
   2   1  10   76.85    8.96
  -2  -1 -10   62.02    6.42
   2   1  11    2.80    3.37
  -2  -1 -11    1.98    1.33
   2   1  12   -2.22    1.75
  -2  -1 -12    2.08    2.30
   2   1  13   29.90    6.18
  -2  -1 -13   17.13    4.35
   2   1  14   59.62    9.08
  -2  -1 -14   48.15    6.68
   2   1  15   42.59    8.24
  -2  -1 -15   36.35    5.67
   2   2 -16   51.04    7.48
   2   2 -16   18.98    5.08
  -2  -2  16   41.46   10.36
   2   2 -15   21.29    5.58
   2   2 -15    9.22    3.77
  -2  -2  15   20.05    7.72
   2   2 -14   -0.67    3.66
   2   2 -14   -3.71    3.56
   2   2 -14   -2.86    2.46
  -2  -2  14    3.65    5.03
   2   2 -13    0.58    4.98
   2   2 -13   13.36    3.07
  -2  -2  13   20.69    6.64
   2   2 -12   60.29    6.39
   2   2 -12  100.82    9.78
  -2  -2  12  103.63   13.42
   2   2 -11  194.73    9.80
   2   2 -11  141.79   10.38
  -2  -2  11  220.03   20.44
   2   2 -10  206.58   15.44
   2   2 -10  170.41   10.34
  -2  -2  10  221.00   12.79
   2   2  -9  214.26   10.24
   2   2  -9  191.07   12.39
  -2  -2   9  218.52   12.50
   2   2  -8   60.26    6.43
   2   2  -8   48.81    3.37
  -2  -2   8   73.51    8.68
   2   2  -7    7.48    3.17
   2   2  -7    4.63    1.78
  -2  -2   7    8.36    2.16
   2   2  -6  196.98    7.25
   2   2  -6  271.75   16.80
  -2  -2   6  240.76   18.19
   2   2  -5  342.49   12.41
  -2  -2   5  434.71   25.67
  -2  -2   4  264.41   19.13
  -2  -2   4  303.02   12.36
  -2  -2   3  425.94   28.12
  -2  -2   3  459.68   19.36
  -2  -2   2  170.82    7.28
  -2  -2   2  172.86   12.34
  -2  -2   2  174.44    7.66
  -2  -2   1   11.52    1.95
  -2  -2   1   12.74    1.99
  -2  -2   1    9.44    1.98
  -2  -2   0   88.17    4.83
  -2  -2  -1   86.74    4.65
   2   2   2  143.75    6.35
  -2  -2  -2  139.41    6.62
   2   2   3  336.27   19.97
  -2  -2  -3  327.35   14.59
   2   2   4  357.39   21.99
  -2  -2  -4  338.67   21.81
   2   2   5   82.47    5.02
  -2  -2  -5   89.17    4.84
   2   2   6   25.76    5.46
  -2  -2  -6   34.31    5.20
   2   2   7   -1.54    2.87
  -2  -2  -7    1.75    2.45
   2   2   8   61.81    8.78
  -2  -2  -8   67.65    4.53
   2   2   9  144.27   15.46
  -2  -2  -9  173.15   13.79
   2   2  10  220.08   12.76
  -2  -2 -10  198.47   10.22
   2   2  11   58.05    9.53
  -2  -2 -11   61.10    7.13
   2   2  12   56.42    8.91
  -2  -2 -12   47.17    6.74
   2   2  13    1.87    4.28
  -2  -2 -13    4.71    3.09
   2   2  14    0.87    2.42
  -2  -2 -14    3.34    1.67
   2   3 -16   67.93   10.61
  -2  -3  16   73.71   14.73
   2   3 -15  118.37   13.72
  -2  -3  15  119.58   18.89
   2   3 -14  100.65   12.04
  -2  -3  14   98.35    9.49
   2   3 -13   51.92    7.40
   2   3 -13   30.83    4.12
  -2  -3  13   55.05    5.93
   2   3 -12    3.85    1.85
   2   3 -12   -0.29    1.78
  -2  -3  12    4.91    2.60
   2   3 -11   53.51    7.05
   2   3 -11   35.99    4.87
  -2  -3  11   53.07    5.50
   2   3 -10  108.59    6.00
   2   3 -10   90.45    4.83
  -2  -3  10  135.58   13.84
   2   3  -9  335.77   22.01
   2   3  -9  299.02   14.01
  -2  -3   9  370.25   29.28
   2   3  -8  280.11   17.57
   2   3  -8  222.61    7.36
  -2  -3   8  280.49   21.40
   2   3  -7  228.69   11.14
  -2  -3   7  230.79   19.58
  -2  -3   6  104.08   10.57
  -2  -3   5   11.59    4.14
  -2  -3   4   88.28    4.51
  -2  -3   4   76.56    9.07
  -2  -3   3  328.47   14.87
  -2  -3   3  330.33   11.68
  -2  -3   3  346.53   23.22
  -2  -3   2  213.07    8.34
  -2  -3   2  227.44   10.68
  -2  -3   2  253.28   18.35
  -2  -3   1  488.43   30.66
  -2  -3   1  447.29   18.85
  -2  -3   0  894.61   61.34
   2   3   1  238.91   10.28
  -2  -3  -1  272.84   12.45
   2   3   2   20.41    2.38
  -2  -3  -2   20.73    4.64
   2   3   3   53.27    3.70
  -2  -3  -3   56.55    7.11
   2   3   4  236.47   18.04
  -2  -3  -4  235.98   17.22
   2   3   5  393.09   28.22
  -2  -3  -5  400.36   19.60
   2   3   6  436.12   33.91
  -2  -3  -6  483.22   24.54
   2   3   7  156.89   15.79
  -2  -3  -7  173.96   14.33
   2   3   8   14.03    5.52
  -2  -3  -8   15.74    4.71
   2   3   9    2.73    1.98
  -2  -3  -9   -0.19    1.70
   2   3  10   60.08   10.64
  -2  -3 -10   73.05    8.06
   2   3  11   58.66    5.85
  -2  -3 -11   51.94    7.69
   2   3  12   75.06    7.44
  -2  -3 -12   83.31    5.90
   2   3  13   54.13   10.60
  -2  -3 -13   50.90    7.69
   2   3  14   27.44    7.97
  -2  -3 -14   22.60    5.56
   2   4 -16    9.62    4.64
  -2  -4  16    4.42    3.55
   2   4 -15   55.72    8.80
  -2  -4  15   53.36    7.12
   2   4 -14  106.87   11.12
   2   4 -14   65.07    7.50
  -2  -4  14  110.74    9.38
   2   4 -13  154.81    9.32
  -2  -4  13  169.53   13.13
   2   4 -12  111.17   10.75
   2   4 -12   88.98    6.43
  -2  -4  12  128.16   15.39
   2   4 -11   12.57    1.44
   2   4 -11   11.87    4.56
  -2  -4  11   14.08    6.18
   2   4 -10   23.92    5.38
  -2  -4  10   24.34    4.06
   2   4  -9   56.76    4.69
  -2  -4   9   52.90    9.49
  -2  -4   8  143.02   15.59
  -2  -4   7  317.83   24.20
  -2  -4   6  308.61   15.18
  -2  -4   5  261.62   12.97
  -2  -4   4  138.78    8.13
  -2  -4   4  156.23    5.05
  -2  -4   3    1.04    1.08
  -2  -4   3    1.69    2.78
  -2  -4   3    1.67    1.66
  -2  -4   2   46.47    3.44
  -2  -4   2   48.16    6.37
  -2  -4   1  480.26   23.66
  -2  -4   0  528.56   36.12
   2   4   1  392.90   26.58
  -2  -4  -1  392.66   19.24
   2   4   2  135.99   11.57
  -2  -4  -2  129.96   12.08
   2   4   3  100.90    9.96
  -2  -4  -3  107.23   11.06
   2   4   4    8.37    2.24
  -2  -4  -4    5.76    2.18
   2   4   5  124.50   13.04
  -2  -4  -5  120.39    7.70
   2   4   6  177.69   17.90
  -2  -4  -6  191.84   16.96
   2   4   7  189.80   18.85
  -2  -4  -7  191.22   17.00
   2   4   8  162.12   11.28
  -2  -4  -8  166.26   10.07
   2   4   9   78.07   12.28
  -2  -4  -9   84.79   10.62
   2   4  10    8.74    2.81
  -2  -4 -10    4.45    2.17
  -2  -4 -11   -2.43    4.59
   2   4  12   21.57    7.15
  -2  -4 -12   13.81    5.48
   2   4  13   70.71   12.32
  -2  -4 -13   55.01    9.30
   2   5 -16   28.86    6.99
  -2  -5  16   31.79    5.76
   2   5 -15    6.26    4.27
  -2  -5  15    3.55    3.44
   2   5 -14    9.46    2.43
   2   5 -14   12.86    2.78
  -2  -5  14   15.73    3.96
   2   5 -13   58.41    5.08
  -2  -5  13   72.42   12.60
   2   5 -12  145.05   15.04
  -2  -5  12  128.79   18.71
   2   5 -11  136.53    8.61
  -2  -5  11  130.48   17.30
  -2  -5  10  248.39   15.03
  -2  -5   9   72.51   11.14
  -2  -5   8   15.74    5.25
  -2  -5   7   20.45    3.16
  -2  -5   6  224.38   19.00
  -2  -5   5  411.62   31.24
  -2  -5   4  490.25   33.52
  -2  -5   4  490.30   36.23
  -2  -5   3  258.42    8.98
  -2  -5   3  274.77   18.99
  -2  -5   2  203.60   15.65
  -2  -5   1    0.62    2.79
  -2  -5   0   94.87   10.16
   2   5   1  218.04   17.23
  -2  -5  -1  218.69   11.19
   2   5   2  311.60   15.87
  -2  -5  -2  327.98   16.86
   2   5   3  346.94   26.62
  -2  -5  -3  354.77   18.87
   2   5   4  181.11   11.08
  -2  -5  -4  185.45   10.59
   2   5   5   69.07    6.13
  -2  -5  -5   75.11    5.83
   2   5   6    2.55    2.17
  -2  -5  -6   -1.79    3.65
   2   5   7   43.60    4.90
  -2  -5  -7   30.61    7.85
   2   5   8  119.41   15.75
  -2  -5  -8  110.57    8.00
   2   5   9  137.38   10.84
  -2  -5  -9  125.69   13.54
   2   5  10   76.68   13.94
  -2  -5 -10   88.01   10.85
   2   5  11   54.47    6.54
  -2  -5 -11   51.04    5.52
   2   5  12    9.62    3.53
  -2  -5 -12    4.83    4.94
   2   6 -16   89.76   12.86
  -2  -6  16   75.82    9.60
   2   6 -15  101.28   12.92
  -2  -6  15   87.95    9.72
   2   6 -14   40.23    4.75
  -2  -6  14   36.91    6.07
   2   6 -13    7.83    2.69
  -2  -6  13    9.61    6.33
  -2  -6  12   -1.66    4.71
  -2  -6  11   36.17    4.91
  -2  -6  10  274.15   27.03
  -2  -6   9  240.75   14.17
  -2  -6   8  275.58   23.93
  -2  -6   7   97.78   11.89
  -2  -6   6    3.71    2.25
  -2  -6   5   36.89    3.58
  -2  -6   5   36.71    4.05
  -2  -6   4  181.04    9.57
  -2  -6   4  233.90   19.72
  -2  -6   3  321.66   22.83
  -2  -6   2  382.68   27.38
  -2  -6   1  234.55   18.22
   2   6   0   31.73    3.61
  -2  -6   0   82.61    7.16
   2   6   1    0.71    3.51
  -2  -6  -1    4.61    3.46
   2   6   2   32.12    6.93
  -2  -6  -2   38.45    7.04
   2   6   3  161.28   15.90
  -2  -6  -3  152.14   16.42
   2   6   4  175.50   11.37
  -2  -6  -4  182.46   17.15
   2   6   5  232.71   14.68
  -2  -6  -5  226.57   21.08
   2   6   6  134.53   17.07
  -2  -6  -6  136.10    9.32
   2   6   7   32.35    8.50
  -2  -6  -7   28.80    7.12
   2   6   8   -0.41    2.45
  -2  -6  -8    1.88    1.95
   2   6   9   18.92    8.06
  -2  -6  -9   20.44    5.90
   2   6  10   33.24    5.61
  -2  -6 -10   30.56    7.57
   2   6  11   67.57   14.67
  -2  -6 -11   72.40    6.70
   2   6  12   72.02   15.89
  -2  -6 -12   82.19    7.62
   2   7 -16    9.52    3.35
  -2  -7  16   24.97    8.04
  -2  -7  15   67.32    8.28
  -2  -7  14  126.81   11.51
  -2  -7  13  142.96   19.58
  -2  -7  12   37.42    9.49
  -2  -7  11    4.28    2.74
  -2  -7  10   26.15    7.67
  -2  -7   9   81.02    6.75
  -2  -7   8  240.03   22.42
  -2  -7   7  349.74   28.80
  -2  -7   7  318.15   15.82
  -2  -7   6  152.06   14.03
  -2  -7   6  158.67   10.08
  -2  -7   5   69.89    8.52
  -2  -7   5   71.07    5.99
  -2  -7   4    1.85    0.46
  -2  -7   4    4.51    3.08
  -2  -7   4    3.08    2.33
  -2  -7   4    2.26    0.68
  -2  -7   3    7.84    2.27
  -2  -7   2  112.90    6.89
  -2  -7   1  399.18   29.69
   2   7   0  272.08   23.57
  -2  -7   0  289.35   22.63
   2   7   1  201.69   11.79
  -2  -7  -1  222.14   19.39
   2   7   2   95.89   12.40
  -2  -7  -2  107.49   12.27
   2   7   3    5.54    4.67
  -2  -7  -3    5.41    2.46
   2   7   4   24.58    7.82
  -2  -7  -4   27.11    3.73
   2   7   5  108.79   15.57
  -2  -7  -5  107.47   13.04
   2   7   6  162.72   20.96
  -2  -7  -6  165.64   10.73
   2   7   7  179.38   13.97
  -2  -7  -7  170.63   17.64
   2   7   8   86.19   14.94
  -2  -7  -8   84.60    6.76
   2   7   9   25.25    5.02
  -2  -7  -9   24.61    6.78
   2   7  10    0.52    6.03
  -2  -7 -10   -5.26    4.37
   2   7  11    4.89    7.81
  -2  -7 -11   15.17    6.06
  -2  -8  16    8.32    7.23
  -2  -8  15   -0.57    2.72
  -2  -8  14   38.84    6.01
  -2  -8  13   52.30   11.92
  -2  -8  12   69.03   12.60
  -2  -8  11  107.95    8.88
  -2  -8  10   96.85   13.71
  -2  -8   9    8.11    2.86
  -2  -8   8    4.27    4.58
  -2  -8   8    3.39    3.35
  -2  -8   7   44.27    8.79
  -2  -8   7   37.65    7.08
  -2  -8   6  115.29   11.85
  -2  -8   6  117.51    8.34
  -2  -8   5  216.80   11.39
  -2  -8   5  280.71   24.71
  -2  -8   4  223.30    8.18
  -2  -8   4  257.08   19.54
  -2  -8   3   95.08   10.87
  -2  -8   2   45.13    4.29
  -2  -8   1   33.12    3.89
   2   8   0   74.85   10.74
  -2  -8   0   65.24    9.57
   2   8   1  142.66   10.05
  -2  -8  -1  191.09   16.74
   2   8   2  133.89   17.26
  -2  -8  -2  162.12   10.06
   2   8   3  147.37   17.90
  -2  -8  -3  163.72   15.94
   2   8   4   61.88   11.79
  -2  -8  -4   70.83   10.09
   2   8   5    7.45    4.33
  -2  -8  -5   -3.90    3.22
   2   8   6    3.96    3.21
  -2  -8  -6    6.48    4.44
   2   8   7   60.05   12.48
  -2  -8  -7   51.21    9.15
   2   8   8   61.36   14.13
  -2  -8  -8   67.51    5.96
   2   8   9   70.19   16.09
  -2  -8  -9   86.05   12.37
   2   8  10   50.44    7.65
  -2  -8 -10   53.78   10.31
  -2  -9  16    9.50    7.67
  -2  -9  15   35.19   10.51
  -2  -9  14    5.14    3.30
  -2  -9  13   -3.11    5.13
  -2  -9  12   13.33    6.78
  -2  -9  11  111.97    9.10
  -2  -9  10  186.42   21.06
  -2  -9   9  122.24    9.51
  -2  -9   9  134.63   13.49
  -2  -9   8  104.95   15.23
  -2  -9   8  111.58   11.76
  -2  -9   7   30.82    4.68
  -2  -9   7   33.27    3.63
  -2  -9   6   10.29    2.46
  -2  -9   6   12.15    5.76
  -2  -9   5   80.75    9.75
  -2  -9   5   68.77    7.03
  -2  -9   4  174.29    9.94
  -2  -9   4  161.92    7.27
  -2  -9   3  246.85   21.14
  -2  -9   2  272.58   15.21
  -2  -9   1   63.73    5.42
   2   9   0   28.16    4.25
  -2  -9   0   24.69    6.65
   2   9   1   -0.38    2.04
  -2  -9  -1   -0.28    1.91
   2   9   2   69.72   11.80
  -2  -9  -2   66.02   10.96
   2   9   3  182.59   20.98
  -2  -9  -3  175.52   11.51
   2   9   4  178.85   13.82
  -2  -9  -4  194.45   19.67
   2   9   5   93.13    9.99
  -2  -9  -5  103.19    7.55
   2   9   6   65.89   15.28
  -2  -9  -6   85.64   11.52
   2   9   7    3.00    6.07
  -2  -9  -7    3.33    2.40
   2   9   8    9.03    7.21
  -2  -9  -8    7.33    5.08
   2   9   9   41.91    7.03
  -2  -9  -9   37.89    9.61
  -2 -10  15    7.29    6.79
  -2 -10  14   33.09    9.63
  -2 -10  13   44.75    6.04
  -2 -10  12    9.91    6.17
  -2 -10  11   -2.16    2.29
  -2 -10  11    0.23    1.62
  -2 -10  10   22.51    3.40
  -2 -10  10   23.28    7.57
  -2 -10   9   82.54   12.44
  -2 -10   9   70.26    5.45
  -2 -10   8  171.87   20.53
  -2 -10   8  162.41    9.55
  -2 -10   7  101.60    6.79
  -2 -10   7  110.75    8.55
  -2 -10   6   73.67    9.83
  -2 -10   6   83.24   12.43
  -2 -10   5   12.65    0.98
  -2 -10   5   22.03    2.95
  -2 -10   4    0.30    0.91
  -2 -10   4    3.39    3.34
  -2 -10   3   45.55    3.93
  -2 -10   3   46.74    8.50
  -2 -10   2  196.24   19.24
  -2 -10   1  174.65   18.00
   2  10   0  168.36   12.06
  -2 -10   0  190.89   19.23
   2  10   1   42.80    5.50
  -2 -10  -1   46.75    5.19
   2  10   2    0.60    2.53
  -2 -10  -2    3.39    4.14
   2  10   3    5.99    3.22
  -2 -10  -3    9.94    4.97
   2  10   4   47.24    6.32
  -2 -10  -4   42.62    5.17
   2  10   5  120.03   19.41
  -2 -10  -5  113.36   15.27
   2  10   6  108.55   18.90
  -2 -10  -6  101.08    8.52
   2  10   7   30.33   11.03
  -2 -10  -7   29.62    4.54
   2  10   8    9.14    4.50
  -2 -10  -8   10.82    6.07
  -2 -11  15   16.28    7.94
  -2 -11  14    6.87    6.15
  -2 -11  13   69.20    7.01
  -2 -11  13   56.29    4.97
  -2 -11  12   58.78    7.06
  -2 -11  12   81.64    9.75
  -2 -11  11   43.85   10.86
  -2 -11  11   53.56    8.18
  -2 -11  10   20.03    4.01
  -2 -11  10   15.87    5.39
  -2 -11   9   -0.86    4.69
  -2 -11   9   -2.55    3.41
  -2 -11   8   47.73    5.99
  -2 -11   8   48.51    7.75
  -2 -11   7   98.66   11.31
  -2 -11   7   74.90   13.55
  -2 -11   6  140.97   15.09
  -2 -11   6  148.12   11.87
  -2 -11   5  102.45    4.44
  -2 -11   5  146.55    8.14
  -2 -11   4   50.89    3.14
  -2 -11   4   73.76    8.99
  -2 -11   3   30.10    3.91
  -2 -11   3   25.31    4.63
  -2 -11   2   14.76    5.19
  -2 -11   2    9.46    1.83
  -2 -11   1   30.65    7.89
   2  11   0   81.07    8.03
  -2 -11   0   80.50    6.90
   2  11   1  103.72    9.21
  -2 -11  -1  101.87   14.54
   2  11   2   98.08    9.59
  -2 -11  -2  104.42    8.11
   2  11   3   49.57   11.80
  -2 -11  -3   49.18    9.75
   2  11   4    4.46    6.48
  -2 -11  -4    6.72    4.87
   2  11   5    4.35    3.35
  -2 -11  -5    2.36    2.64
   2  11   6   14.98    9.47
  -2 -11  -6   18.62    6.91
   2  11   7   32.02   12.60
  -2 -11  -7   35.68    9.17
  -2 -12  14   -1.08    3.11
  -2 -12  14    0.73    2.34
  -2 -12  13    5.35    4.89
  -2 -12  13    0.53    3.74
  -2 -12  12   34.37    5.42
  -2 -12  12   35.84    3.97
  -2 -12  11   79.95    7.65
  -2 -12  11   71.58    5.83
  -2 -12  10   85.07   13.00
  -2 -12  10   60.04    9.20
  -2 -12   9   49.05    6.48
  -2 -12   9   54.02    8.35
  -2 -12   8   15.86    7.37
  -2 -12   8   16.61    5.62
  -2 -12   7    1.06    1.97
  -2 -12   7    1.62    2.50
  -2 -12   6   18.89    3.17
  -2 -12   6   14.00    4.33
  -2 -12   5   34.17    2.02
  -2 -12   5   69.14    7.85
  -2 -12   4   61.63    4.16
  -2 -12   4  100.70   10.80
  -2 -12   3   83.54    6.71
  -2 -12   3  123.18    7.91
  -2 -12   2   42.00    5.49
  -2 -12   2   63.16    9.30
  -2 -12   1    7.29    4.59
  -2 -12   1    2.59    1.74
   2  12   0   -4.81    4.58
  -2 -12   0    0.61    2.15
   2  12   1   19.33    8.57
  -2 -12  -1   24.65    7.58
   2  12   2   47.53   11.95
  -2 -12  -2   45.51    9.87
   2  12   3   87.55   16.49
  -2 -12  -3   88.42    8.14
   2  12   4   64.92    8.86
  -2 -12  -4   75.88    7.05
   2  12   5   48.08   13.36
  -2 -12  -5   47.85   10.85
   2  12   6   -0.30    6.71
  -2 -12  -6    5.23    5.06
  -2 -13  13   14.01    3.88
  -2 -13  13   12.67    5.12
  -2 -13  12   -3.63    4.34
  -2 -13  12    1.53    3.10
  -2 -13  11   15.12    6.91
  -2 -13  11   12.59    2.75
  -2 -13  10   33.09    5.30
  -2 -13  10   30.47    3.92
  -2 -13   9   58.83   12.60
  -2 -13   9   61.52    5.52
  -2 -13   8   70.89    5.84
  -2 -13   8   70.47    7.36
  -2 -13   7   49.40    4.64
  -2 -13   7   36.65    5.89
  -2 -13   6   12.60    4.94
  -2 -13   6    7.60    3.85
  -2 -13   5   -0.34    0.87
  -2 -13   5    1.59    3.53
  -2 -13   4   15.38    5.24
  -2 -13   4    8.74    1.90
  -2 -13   3   53.87    5.26
  -2 -13   3   41.27    4.35
  -2 -13   2   71.63    6.35
  -2 -13   2   46.88    6.06
  -2 -13   1   85.56   12.01
  -2 -13   1   62.96    8.36
   2  13   0   58.57   13.15
  -2 -13   0   49.50   10.98
   2  13   1   13.17    7.85
  -2 -13  -1   13.65    3.47
   2  13   2    0.19    6.08
  -2 -13  -2    6.13    4.89
   2  13   3   10.33    4.59
  -2 -13  -3   19.64    6.65
   2  13   4   41.19   11.74
  -2 -13  -4   32.22    9.67
  -2 -14  12   12.43    4.02
  -2 -14  12   15.72    5.17
  -2 -14  11    9.40    3.76
  -2 -14  11   13.50    4.88
  -2 -14  10    6.68    5.22
  -2 -14  10    0.46    3.85
  -2 -14   9    7.29    5.05
  -2 -14   9   -1.46    3.65
  -2 -14   8   16.58    5.91
  -2 -14   8   17.73    4.17
  -2 -14   7   36.59    7.75
  -2 -14   7   33.80    9.93
  -2 -14   6   45.56    5.94
  -2 -14   6   -4.24    4.32
  -2 -14   5   82.82   12.00
  -2 -14   4   28.89    5.11
  -2 -14   4    3.39    1.85
  -2 -14   3    1.32    1.69
  -2 -14   3    1.59    2.40
  -2 -14   2    8.38    2.87
  -2 -14   2    3.15    2.40
  -2 -14   1   29.05    7.42
  -2 -14   1   15.73    4.53
   2  14   0   66.31   12.99
  -2 -14   0   50.81    8.16
  -2 -14   0   65.16   11.82
   2  14   1   40.08    6.53
  -2 -14  -1   62.89    9.37
  -2 -14  -1   26.61    4.46
   2  14   2   39.31    7.08
  -2 -14  -2   45.80    5.95
  -2 -15  11   25.71    9.60
  -2 -15  11   33.73    7.17
  -2 -15  10   26.84    9.34
  -2 -15  10   25.09    6.69
  -2 -15   9    4.47    3.29
  -2 -15   9    6.28    4.37
  -2 -15   8    2.13    3.47
  -2 -15   8   -2.01    4.51
  -2 -15   7    4.20    4.33
  -2 -15   7    1.00    5.97
  -2 -15   6   25.92    5.57
  -2 -15   6    1.07    4.08
  -2 -15   5   85.59   12.77
  -2 -15   4   70.66   12.32
  -2 -15   3    5.98    2.98
  -2 -15   3   35.60    3.91
  -2 -15   2    2.39    2.45
  -2 -15   2    0.81    1.56
  -2 -15   1   -0.72    2.30
  -2 -15   1    0.31    2.28
   2  15   0   10.38    3.95
  -2 -15   0   12.99    6.05
  -2 -15   0    6.87    4.16
  -2 -16   8   23.93    7.05
  -2 -16   7    4.34    4.79
  -2 -16   7    7.61    6.69
  -2 -16   6   -2.03    4.45
  -2 -16   6   -4.58    3.48
  -2 -16   5    3.80    4.82
  -2 -16   4   -0.89    4.19
   3 -13   0    6.59    3.52
   3 -13   1   13.54    4.07
   3 -13   2   36.63   10.56
   3 -13   3   43.77   12.37
  -3  13  -3   53.54    6.70
   3 -13   4   16.17    9.32
  -3  13  -4   30.69    7.27
  -3  13  -5   10.65    5.15
  -3  13  -6    0.73    3.32
  -3  13  -7    6.25    2.31
  -3  13  -8   26.13    3.43
   3 -12  -3   -0.69    7.46
   3 -12  -3   13.08    1.46
   3 -12  -2    2.43    5.46
   3 -12  -1   -1.16    5.12
   3 -12   0   13.67    3.97
   3 -12   1   -1.88    2.68
   3 -12   2    4.49    3.03
  -3  12  -2    3.10    2.89
   3 -12   3   39.63    5.92
  -3  12  -3   37.10    8.36
   3 -12   4   40.12    6.27
  -3  12  -4   50.13    8.28
  -3  12  -5   47.24    8.05
  -3  12  -6   36.67    7.10
  -3  12  -7   10.07    4.53
  -3  12  -8   -0.35    1.74
  -3  12  -9    6.63    2.37
  -3  12 -10   21.52    5.81
   3 -11  -5    7.38    1.58
  -3  11   5    3.71    2.97
   3 -11  -4    1.68    2.86
   3 -11  -4    2.54    0.71
  -3  11   4    2.06    2.34
   3 -11  -3    0.85    1.01
   3 -11  -3   -0.37    4.56
  -3  11   3    1.58    1.85
   3 -11  -2    7.04    1.12
   3 -11  -2   -0.80    5.91
  -3  11   2    4.30    2.06
   3 -11  -1   21.25    1.41
   3 -11  -1   -0.20    8.24
   3 -11   0   68.17   12.92
   3 -11   1   56.04   12.22
  -3  11  -1   66.26    6.77
   3 -11   2   25.85    8.03
  -3  11  -2   23.01    3.64
   3 -11   3    1.56    4.38
  -3  11  -3   -1.43    3.27
  -3  11  -4   -0.79    3.27
  -3  11  -5   22.87    5.78
  -3  11  -6   67.06    9.27
  -3  11  -7   62.18    9.14
  -3  11  -8   20.76    5.82
  -3  11  -9   17.24    3.03
  -3  11 -10    4.17    1.98
  -3  11 -11    3.36    3.60
   3 -10  -6    3.49    9.92
   3 -10  -6   31.75    3.28
  -3  10   6   32.67    5.23
   3 -10  -5   -1.85    8.26
   3 -10  -5   20.73    2.53
  -3  10   5   18.07    3.93
   3 -10  -4   43.62    5.41
   3 -10  -4   33.32    3.05
  -3  10   4   38.52    2.82
   3 -10  -3   -2.16    4.98
  -3  10   3    4.23    2.03
   3 -10  -2    2.37    0.94
   3 -10  -2    0.11    4.64
  -3  10   2    0.15    1.68
   3 -10  -1    4.37    1.32
   3 -10  -1    4.58    4.99
  -3  10   1    2.64    1.52
   3 -10   0   31.32    8.77
  -3  10   0   37.82    4.79
   3 -10   1   42.16    9.84
  -3  10  -1   44.62    4.70
   3 -10   2   74.06   12.38
  -3  10  -2   67.94    5.62
   3 -10   3   49.22    5.92
  -3  10  -3   45.44    7.90
  -3  10  -4   17.23    5.12
  -3  10  -5   -1.18    3.27
  -3  10  -6    5.01    3.95
  -3  10  -7   33.32    6.72
  -3  10  -8   39.31    6.80
  -3  10  -9   51.89    7.79
  -3  10 -10   35.93    3.85
  -3  10 -11   10.67    4.65
  -3  10 -12    5.78    4.05
   3  -9  -7    6.35    2.46
   3  -9  -7   -0.22    3.09
  -3   9   7   10.94    3.48
   3  -9  -6    0.61    4.94
   3  -9  -6    1.85    1.88
  -3   9   6    2.55    2.58
   3  -9  -5   -0.11    5.94
   3  -9  -5    8.57    2.04
  -3   9   5    5.74    2.79
   3  -9  -4   42.77    5.56
   3  -9  -4   42.54    3.55
  -3   9   4   48.43    2.91
   3  -9  -3   43.90    3.13
   3  -9  -3   52.58    5.54
  -3   9   3   47.58    4.57
   3  -9  -2   38.27    2.57
   3  -9  -2   57.42    5.44
  -3   9   2   44.91    3.83
   3  -9  -1   22.57    1.72
   3  -9  -1   32.48    4.29
  -3   9   1   29.53    2.46
   3  -9   0   11.90    2.71
   3  -9   0    5.43    0.92
  -3   9   0   14.51    4.49
  -3   9   0    3.58    1.56
   3  -9   1   -2.50    2.11
  -3   9  -1   -0.11    0.73
  -3   9  -1   -0.51    1.71
   3  -9   2   30.61    4.68
  -3   9  -2   38.40    6.66
  -3   9  -3   41.97    7.18
  -3   9  -4   84.10   10.06
  -3   9  -5  121.47    7.91
  -3   9  -6   88.80    6.34
  -3   9  -7    4.83    2.01
  -3   9  -8    7.19    3.98
  -3   9  -9   26.18    6.03
  -3   9 -10   48.77    7.94
  -3   9 -11   83.90    5.99
  -3   9 -12   41.11    7.21
   3  -8  -8   52.27    5.53
   3  -8  -8   -0.36    9.22
   3  -8  -7   53.11    5.37
   3  -8  -7   41.52    5.72
  -3   8   7   50.49    6.80
   3  -8  -6   -0.11    6.01
  -3   8   6   13.42    3.53
   3  -8  -5    0.04    5.19
   3  -8  -5    3.86    2.09
  -3   8   5   11.01    2.76
   3  -8  -4    0.23    3.76
   3  -8  -4    1.30    1.27
  -3   8   4   -0.68    0.98
   3  -8  -3   14.00    1.99
   3  -8  -3   13.39    6.03
  -3   8   3   19.00    2.74
   3  -8  -2   64.07    3.55
   3  -8  -2   67.32   10.92
  -3   8   2   65.22    4.72
   3  -8  -1  110.49   13.68
  -3   8   1   88.89    6.46
  -3   8   1  118.71    8.21
   3  -8   0   90.34   11.17
  -3   8   0   81.39    9.78
  -3   8   0   69.71    3.35
   3  -8   1   59.31    9.60
  -3   8  -1   49.92    4.64
   3  -8   2    5.43    2.60
  -3   8  -2    4.61    3.82
  -3   8  -3    3.36    3.52
  -3   8  -4   56.14    4.74
  -3   8  -5  142.95    8.53
  -3   8  -6  115.68    6.85
  -3   8  -7   49.02    4.28
  -3   8  -8   42.66    4.07
  -3   8  -9    2.78    1.90
  -3   8 -10    6.36    3.95
  -3   8 -11   42.27    4.12
  -3   8 -12   41.54    7.58
  -3   8 -13   42.46    4.41
   3  -7  -9   -2.02    1.38
  -3   7   9   -0.33    3.44
   3  -7  -8    9.33    2.99
   3  -7  -8   -0.12    5.03
  -3   7   8    7.78    3.91
   3  -7  -7   50.16    5.34
   3  -7  -7   42.13    9.08
  -3   7   7   47.38    3.97
   3  -7  -6   46.18    5.38
   3  -7  -6   50.57    4.85
  -3   7   6   47.31    6.15
   3  -7  -5  108.13   13.24
   3  -7  -5   97.86    6.61
  -3   7   5   91.63    8.23
   3  -7  -4   48.82    3.83
   3  -7  -4   40.67    8.65
  -3   7   4   44.90    4.82
   3  -7  -3   17.28    2.25
   3  -7  -3   17.73    5.87
  -3   7   3   19.39    2.88
   3  -7  -2   -0.44    0.94
   3  -7  -2   -2.49    3.20
  -3   7   2    0.78    1.31
  -3   7   2    1.98    1.94
   3  -7  -1   33.15    3.68
   3  -7  -1   23.09    2.01
  -3   7   1   30.69    3.72
  -3   7   1   25.17    2.34
   3  -7   0   92.37    6.83
  -3   7   0   79.39    4.72
  -3   7   0  102.14   11.16
   3  -7   1  142.41   15.85
  -3   7  -1  143.77    8.81
  -3   7  -2  101.29   10.97
  -3   7  -3   59.05    4.84
  -3   7  -4   19.95    2.93
  -3   7  -5    5.12    3.49
  -3   7  -6   19.27    5.04
  -3   7  -7   50.78    7.66
  -3   7  -8   95.57   10.58
  -3   7  -9   70.95    5.31
  -3   7 -10   44.65    7.61
  -3   7 -11    7.20    4.40
  -3   7 -12    0.21    1.71
  -3   7 -13   18.74    5.71
   3  -6 -10   67.01    6.72
   3  -6 -10   40.49    9.23
  -3   6  10   61.97    9.52
   3  -6  -9   44.12    5.33
   3  -6  -9   18.42    7.72
  -3   6   9   45.71    4.25
   3  -6  -8   14.27    3.11
   3  -6  -8   -0.18    4.89
  -3   6   8    9.63    4.15
   3  -6  -7    0.45    3.47
   3  -6  -7    1.08    2.04
  -3   6   7    1.32    2.77
   3  -6  -6    8.34    4.16
   3  -6  -6    2.83    2.24
  -3   6   6    4.21    2.91
   3  -6  -5   65.56    5.26
   3  -6  -5   62.39    5.74
  -3   6   5   65.98    6.50
   3  -6  -4  141.91    8.60
   3  -6  -4  139.86    9.58
  -3   6   4  161.45    9.99
   3  -6  -3  101.90    5.69
   3  -6  -3  105.99   11.97
  -3   6   3  104.34    6.95
   3  -6  -2   80.95    9.95
   3  -6  -2   76.10    4.05
  -3   6   2   76.78    4.92
  -3   6   2   84.22    6.72
   3  -6  -1    9.07    4.12
  -3   6   1    4.09    1.53
  -3   6   1   11.76    2.49
   3  -6   0   -0.21    1.74
  -3   6   0    0.02    1.21
  -3   6   0   -1.93    3.18
   3  -6   1   30.08    3.51
  -3   6  -1   31.11    3.36
  -3   6  -1   22.64    1.29
  -3   6  -1   23.21    1.49
  -3   6  -2   92.94   10.93
  -3   6  -3  139.43    8.40
  -3   6  -4  150.60   13.15
  -3   6  -5   47.58    7.19
  -3   6  -6   13.16    4.44
  -3   6  -7   -0.39    2.79
  -3   6  -8   24.75    5.67
  -3   6  -9   59.88    8.62
  -3   6 -10   95.55    6.60
  -3   6 -11   76.26    9.67
  -3   6 -12   46.87    4.55
  -3   6 -13    6.37    4.36
   3  -5 -11   10.02    2.03
   3  -5 -11   10.80    4.59
  -3   5  11    7.29    5.47
   3  -5 -10   35.81    5.02
   3  -5 -10   19.85    6.21
  -3   5  10   34.64    4.22
   3  -5  -9   82.87    7.32
   3  -5  -9   45.77    9.43
  -3   5   9   89.17    9.95
   3  -5  -8   75.23    6.44
   3  -5  -8  111.79    8.24
  -3   5   8  100.54   10.43
   3  -5  -7   66.06   10.36
   3  -5  -7   87.31    4.51
  -3   5   7   82.59    9.20
   3  -5  -6   18.37    3.30
   3  -5  -6   12.07    5.13
  -3   5   6   18.65    2.40
   3  -5  -5    2.80    2.05
   3  -5  -5    5.07    3.39
  -3   5   5    3.11    2.52
   3  -5  -4   29.79    3.17
   3  -5  -4   28.47    5.83
  -3   5   4   25.06    2.21
   3  -5  -3   56.35    4.45
   3  -5  -3   57.28    4.00
  -3   5   3   54.14    4.74
   3  -5  -2  139.63   13.39
  -3   5   2  135.15    9.06
  -3   5   2  160.73    7.94
   3  -5  -1  142.32   13.43
  -3   5   1  159.04    9.48
  -3   5   1  135.24    6.53
   3  -5   0   61.50    4.74
  -3   5   0   70.39    8.68
  -3   5   0   55.83    3.45
  -3   5  -1   26.24    5.91
  -3   5  -1   21.06    1.69
  -3   5  -1   22.64    1.54
  -3   5  -2    0.90    0.92
  -3   5  -2    0.40    1.72
  -3   5  -2    0.50    0.44
  -3   5  -3    8.75    3.99
  -3   5  -4  150.98   13.85
  -3   5  -5  152.34    8.52
  -3   5  -6  152.03    8.31
  -3   5  -7   73.66    5.32
  -3   5  -8   21.31    3.00
  -3   5  -9    1.30    3.14
  -3   5 -10   33.10    3.73
  -3   5 -11   55.18    8.65
  -3   5 -12   89.42    6.73
  -3   5 -13   50.70    8.80
   3  -4 -11   17.04    4.26
   3  -4 -11   13.43    4.84
  -3   4  11   16.27    3.47
   3  -4 -10    5.06    1.65
   3  -4 -10    3.41    1.83
  -3   4  10    1.40    4.32
   3  -4  -9   13.74    4.68
   3  -4  -9   18.21    2.27
  -3   4   9   18.78    5.65
   3  -4  -8   33.98    6.29
   3  -4  -8   47.03    5.13
  -3   4   8   38.09    4.05
   3  -4  -7   30.37    6.02
   3  -4  -7   33.89    2.73
  -3   4   7   34.93    5.84
   3  -4  -6   66.96    6.08
   3  -4  -6   51.52    7.90
  -3   4   6   67.98    4.26
   3  -4  -5  126.41    8.58
   3  -4  -5  108.32   11.43
  -3   4   5  149.99   10.27
   3  -4  -4   45.53    6.35
   3  -4  -4   44.58    4.24
  -3   4   4   50.33    4.94
   3  -4  -3    2.21    2.37
   3  -4  -3    0.36    0.81
  -3   4   3    0.56    1.66
  -3   4   3   -0.46    0.88
   3  -4  -2   18.38    4.39
  -3   4   2   19.97    2.88
  -3   4   2   15.89    2.42
   3  -4  -1   34.27    5.84
  -3   4   1   41.54    3.77
  -3   4   1   34.33    2.38
  -3   4   0  147.03    8.45
  -3   4   0  132.42    7.20
  -3   4   0  146.76    5.83
  -3   4  -1  202.43   16.83
  -3   4  -1  186.31    7.52
  -3   4  -1  188.80    8.55
  -3   4  -2   93.60    3.92
  -3   4  -2   91.78    4.21
  -3   4  -2  106.76   10.38
  -3   4  -3   82.71    9.74
  -3   4  -3   74.92    3.75
  -3   4  -3   77.45    2.49
  -3   4  -4    0.53    1.69
  -3   4  -4    1.05    0.56
  -3   4  -4    1.47    0.67
  -3   4  -5   21.90    4.81
  -3   4  -5   17.21    0.97
  -3   4  -5   15.82    0.88
  -3   4  -6   63.53    2.08
  -3   4  -6   96.78    8.78
  -3   4  -7  105.70    8.94
  -3   4  -7   65.60    2.26
  -3   4  -8  118.73    5.56
  -3   4  -8   59.64    2.80
  -3   4  -9   90.41    7.15
  -3   4  -9   32.50    2.40
  -3   4 -10    9.54    4.51
  -3   4 -11    0.54    3.39
  -3   4 -12   22.30    3.61
  -3   4 -13   41.45    8.31
   3  -3 -12   50.86    6.39
   3  -3 -12   21.00    6.00
  -3   3  12   56.35    9.65
   3  -3 -11   72.09    7.35
   3  -3 -11   40.11    6.74
  -3   3  11   69.28   10.74
   3  -3 -10   68.66    7.42
   3  -3 -10   51.15    6.93
  -3   3  10   66.96   10.05
   3  -3  -9   34.30    3.06
  -3   3   9   35.89    4.00
   3  -3  -8   12.58    2.20
   3  -3  -8   15.43    3.68
  -3   3   8   19.46    4.76
   3  -3  -7    1.82    1.27
   3  -3  -7    1.30    1.38
  -3   3   7   -0.52    2.92
   3  -3  -6   73.12    5.93
   3  -3  -6   50.86    4.09
  -3   3   6   75.54    4.42
   3  -3  -5  170.18   14.99
   3  -3  -5  244.01   13.54
  -3   3   5  220.83   10.25
   3  -3  -4  107.57   10.61
   3  -3  -4  169.00    6.97
  -3   3   4  148.39   10.47
   3  -3  -3  187.19    9.72
  -3   3   3  246.93   12.62
  -3   3   3  194.69   17.03
   3  -3  -2   78.71    8.27
  -3   3   2   85.63    5.85
  -3   3   2   97.48    5.50
  -3   3   1    1.80    1.65
  -3   3   1    2.03    1.07
  -3   3   0   46.89    3.76
  -3   3   0   39.63    2.98
  -3   3   0   39.32    3.44
  -3   3  -1  140.25    5.79
  -3   3  -1  119.59    6.66
  -3   3  -1  130.34    7.14
  -3   3  -2  148.47   13.23
  -3   3  -2  146.46    5.39
  -3   3  -2  118.15    8.46
  -3   3  -3  323.47   17.15
  -3   3  -3  346.62   12.85
  -3   3  -3  337.48   13.82
  -3   3  -4   79.11    4.17
  -3   3  -4   83.22    3.91
  -3   3  -4   91.37    9.91
  -3   3  -5   50.78    2.38
  -3   3  -5   46.53    3.07
  -3   3  -5   61.59    7.39
  -3   3  -6    4.08    0.97
  -3   3  -6    6.17    3.51
  -3   3  -6    5.59    1.15
  -3   3  -7   13.24    4.49
  -3   3  -7   12.72    1.32
  -3   3  -8  106.63    8.05
  -3   3  -8   45.50    2.49
  -3   3  -9  145.21    6.05
  -3   3  -9   45.13    3.47
   3  -3  10   30.08    2.89
  -3   3 -10   49.08    2.74
   3  -3  11   24.43    2.57
  -3   3 -11   22.13    3.20
   3  -3  12    5.89    1.86
  -3   3 -12   21.38    2.90
   3  -2 -12    0.55    1.61
   3  -2 -12    0.98    2.12
  -3   2  12   -0.20    2.26
   3  -2 -11   24.15    4.53
   3  -2 -11    9.01    3.57
  -3   2  11   20.63    3.62
   3  -2 -10   49.13    6.58
   3  -2 -10   85.69    8.05
  -3   2  10   93.21   10.94
   3  -2  -9   94.49    5.30
   3  -2  -9   56.87    7.37
  -3   2   9   89.03   11.04
   3  -2  -8   82.84    7.63
   3  -2  -8   65.30    6.84
  -3   2   8   79.19    9.62
   3  -2  -7   47.06    3.11
   3  -2  -7   28.24    4.81
  -3   2   7   50.22    6.68
   3  -2  -6    7.81    2.80
   3  -2  -6    7.66    1.59
  -3   2   6    7.10    3.61
   3  -2  -5   10.03    3.19
   3  -2  -5   15.41    1.94
  -3   2   5   17.65    3.73
   3  -2  -4   50.36    3.18
  -3   2   4   59.62    5.58
   3  -2  -3  162.56   11.84
  -3   2   3  181.76   10.45
  -3   2   3  165.49   14.16
  -3   2   2  203.12    9.87
  -3   2   2  184.01    9.77
  -3   2   1   98.50    9.47
  -3   2   1   96.69    3.43
  -3   2   1  101.89    7.09
  -3   2   0   79.38    4.77
  -3   2   0   82.22    8.35
  -3   2   0   76.87    5.58
  -3   2  -1    3.92    1.57
  -3   2  -1    6.49    1.93
  -3   2  -1    7.21    3.25
  -3   2  -2   16.85    2.29
  -3   2  -2   13.31    1.79
  -3   2  -2    7.89    2.22
  -3   2  -3  166.06    7.25
  -3   2  -3  164.61   13.85
  -3   2  -3  142.90    7.22
  -3   2  -4  129.49    5.66
  -3   2  -4  156.09    8.01
  -3   2  -4  129.77    7.73
  -3   2  -5  145.01    6.89
  -3   2  -5  175.52    8.81
  -3   2  -6   89.95    4.61
  -3   2  -6  105.96    6.29
  -3   2  -7    3.93    1.52
  -3   2  -7   12.20    2.22
   3  -2   8   -0.09    1.13
  -3   2  -8   -2.44    3.16
  -3   2  -8    2.84    1.09
   3  -2   9   10.58    1.89
  -3   2  -9   17.67    2.61
  -3   2  -9    7.16    1.63
   3  -2  10   17.73    2.68
  -3   2 -10   22.25    2.36
   3  -2  11   43.46    3.89
  -3   2 -11   38.46    3.46
   3  -2  12    4.87    2.54
  -3   2 -12   18.71    2.30
   3  -2  13    3.40    2.05
   3  -1 -13   62.87    8.51
  -3   1  13   55.81   12.22
   3  -1 -12   13.24    3.07
  -3   1  12   22.88    7.02
   3  -1 -11   10.23    2.79
   3  -1 -11   13.05    2.34
  -3   1  11   13.90    6.01
   3  -1 -10    4.45    2.93
   3  -1 -10    0.21    2.09
  -3   1  10    8.21    4.12
   3  -1  -9   27.50    2.82
   3  -1  -9   21.39    3.63
  -3   1   9   34.13    3.83
   3  -1  -8   87.03    7.92
   3  -1  -8   59.60    5.97
  -3   1   8  101.13    6.51
   3  -1  -7  111.74    9.42
   3  -1  -7  180.31   12.10
  -3   1   7  183.00    9.65
   3  -1  -6  113.78    8.96
   3  -1  -6  188.60    8.41
  -3   1   6  170.59    8.87
   3  -1  -5   51.84    4.93
  -3   1   5   80.71    7.10
   3  -1  -4   15.69    2.92
  -3   1   4   17.74    2.25
  -3   1   4   11.60    3.48
  -3   1   3   16.65    3.95
  -3   1   3   17.39    3.03
  -3   1   2   88.32    7.63
  -3   1   2   80.50    5.03
  -3   1   1  165.28    8.36
  -3   1   1  176.58   12.44
  -3   1   1  169.70   10.61
  -3   1   0  200.66   10.16
  -3   1   0  180.77   10.98
  -3   1   0  177.94   13.09
  -3   1  -1  242.08   16.48
  -3   1  -1  246.37   12.02
  -3   1  -1  220.16   12.76
  -3   1  -2  111.61    6.39
  -3   1  -2  114.22   10.03
  -3   1  -2  107.48    6.54
  -3   1  -3    0.95    1.37
  -3   1  -3    2.99    1.55
  -3   1  -3    0.32    1.49
  -3   1  -4   22.09    2.76
  -3   1  -4   16.49    5.03
  -3   1  -5   40.18    3.86
  -3   1  -5   67.73    7.41
  -3   1  -6   75.73    5.47
  -3   1  -6  102.86   10.15
  -3   1  -7   96.55    6.79
  -3   1  -7  141.02    7.50
   3  -1   8   77.29    5.13
  -3   1  -8   61.99    4.42
   3  -1   9   22.44    3.10
  -3   1  -9   24.60    2.74
   3  -1  10    3.71    1.90
  -3   1 -10    2.54    1.64
   3  -1  11    1.09    1.88
  -3   1 -11    1.74    1.50
   3  -1  12   11.21    1.60
  -3   1 -12    2.57    2.07
   3  -1  13   12.42    3.15
  -3   1 -13   11.68    2.37
   3   0 -13   46.45    7.63
  -3   0  13   53.46    6.49
   3   0 -12   92.05   10.12
  -3   0  12   95.09    8.59
   3   0 -11   90.82    5.92
  -3   0  11   92.46   13.89
   3   0 -10   30.77    4.87
   3   0 -10   19.74    2.90
  -3   0  10   36.93    7.37
   3   0  -9    6.38    1.91
   3   0  -9    8.59    1.90
  -3   0   9    5.23    4.82
   3   0  -8   -0.03    1.49
   3   0  -8   -3.30    2.81
  -3   0   8   -3.34    3.47
   3   0  -7   24.19    3.07
   3   0  -7   40.23    3.31
  -3   0   7   42.52    3.80
   3   0  -6  103.29    6.28
  -3   0   6  131.09    7.16
  -3   0   5  187.79   14.31
  -3   0   4  179.25   12.42
  -3   0   4  166.74   11.23
  -3   0   3   68.32    3.57
  -3   0   3   64.94    5.33
  -3   0   2   16.24    2.91
  -3   0   2   24.50    2.93
  -3   0   2   20.17    3.01
  -3   0   1   12.77    2.08
  -3   0   1   11.82    2.42
  -3   0   1   12.60    1.39
  -3   0   0   57.42    5.83
  -3   0   0   65.78    4.93
  -3   0   0   58.29    4.81
  -3   0  -1  122.58    7.93
  -3   0  -1  132.87    9.40
  -3   0  -1  116.35    6.84
  -3   0  -2  238.24   10.47
  -3   0  -2  216.88   11.71
  -3   0  -2  240.31   13.01
  -3   0  -3  144.34    9.45
  -3   0  -3  156.07   12.09
  -3   0  -4   68.40    5.96
  -3   0  -4   84.11    8.58
  -3   0  -5   13.55    2.94
  -3   0  -5   16.02    4.74
  -3   0  -6    3.33    2.17
   3   0   7   44.80    4.26
  -3   0  -7   38.00    4.37
   3   0   8   75.88    6.31
  -3   0  -8   73.60    5.25
   3   0   9   74.20    6.31
  -3   0  -9   73.17    5.56
   3   0  10   41.25    5.30
  -3   0 -10   51.11    4.76
   3   0  11   17.28    3.49
  -3   0 -11   13.08    1.72
   3   0  12   -0.96    2.18
  -3   0 -12    0.15    1.74
   3   1 -13    5.68    3.53
  -3  -1  13    2.44    3.05
   3   1 -12    6.19    1.70
   3   1 -12    7.74    4.04
  -3  -1  12    8.25    3.25
   3   1 -11   57.56    4.50
  -3  -1  11   56.82    6.64
   3   1 -10   94.96    9.99
  -3  -1  10  104.59    8.47
   3   1  -9   86.09    5.94
  -3  -1   9   89.16   12.30
   3   1  -8   65.85    3.83
  -3  -1   8  104.74   10.83
   3   1  -7    9.64    1.66
  -3  -1   7   20.17    4.78
  -3  -1   6    3.31    3.24
  -3  -1   5   59.04    4.23
  -3  -1   4  135.67   10.60
  -3  -1   4  123.91    7.24
  -3  -1   3  186.49   10.06
  -3  -1   3  189.53    8.55
  -3  -1   3  176.93   12.85
  -3  -1   2  224.95   13.65
  -3  -1   2  238.06   12.16
  -3  -1   2  228.34   14.91
  -3  -1   1   96.74    7.24
  -3  -1   1   97.79    5.99
  -3  -1   0   23.85    3.12
  -3  -1   0   28.94    2.85
  -3  -1   0   27.79    3.87
  -3  -1  -1    4.27    2.26
  -3  -1  -1    4.12    2.50
  -3  -1  -1    7.85    2.37
  -3  -1  -2   57.88    5.97
  -3  -1  -2   68.65    6.17
  -3  -1  -3  161.06   12.42
  -3  -1  -3  192.00    8.78
  -3  -1  -4  120.45   10.15
  -3  -1  -4  146.09    7.48
  -3  -1  -5  164.25   11.62
   3   1   6   50.12    5.34
  -3  -1  -6   50.45    5.48
   3   1   7    7.88    2.71
  -3  -1  -7    7.44    2.87
   3   1   8    3.07    2.40
  -3  -1  -8    2.67    2.07
   3   1   9   27.43    4.50
  -3  -1  -9   30.48    2.44
   3   1  10   35.10    5.33
  -3  -1 -10   40.66    4.87
   3   1  11   38.13    5.96
  -3  -1 -11   40.76    3.20
   3   1  12   12.15    3.97
  -3  -1 -12   12.25    3.29
   3   2 -14   40.95    4.54
  -3  -2  14   44.18   11.72
   3   2 -13   56.69    8.60
  -3  -2  13   68.21   13.00
   3   2 -12    9.10    5.37
  -3  -2  12   24.85    7.47
   3   2 -11    1.13    0.85
   3   2 -11   -2.09    1.75
  -3  -2  11    1.02    4.31
   3   2 -10   30.22    3.62
  -3  -2  10   22.26    8.20
   3   2  -9   15.00    1.44
  -3  -2   9   39.21    6.35
  -3  -2   8  186.24   11.99
  -3  -2   7  121.76    7.78
  -3  -2   6   82.80    9.57
  -3  -2   5   41.90    3.69
  -3  -2   4    5.68    3.31
  -3  -2   4    5.89    1.90
  -3  -2   4    6.19    2.67
  -3  -2   3   32.83    3.13
  -3  -2   3   27.16    2.74
  -3  -2   3   34.35    5.51
  -3  -2   2  157.90   11.34
  -3  -2   2  145.66   12.09
  -3  -2   2  144.40    7.79
  -3  -2   1  136.14    9.54
  -3  -2   1  120.93    7.10
  -3  -2   1  124.88   10.41
  -3  -2   0  274.58   13.69
  -3  -2   0  248.17   18.10
  -3  -2   0  276.63   11.57
  -3  -2  -1  166.67    8.55
  -3  -2  -1  183.64    9.08
  -3  -2  -2   39.36    5.94
  -3  -2  -2   46.11    2.89
  -3  -2  -3   10.97    3.59
  -3  -2  -4   42.16    6.03
   3   2   5   89.91    7.43
  -3  -2  -5   96.77    5.71
   3   2   6  107.46    8.87
  -3  -2  -6  107.54    5.95
   3   2   7   83.04    7.74
  -3  -2  -7   77.78    5.02
   3   2   8   35.61    5.44
  -3  -2  -8   41.24    4.99
   3   2   9    3.10    3.00
  -3  -2  -9    4.89    2.65
   3   2  10    0.88    2.88
  -3  -2 -10    2.47    1.42
   3   2  11   12.92    2.58
  -3  -2 -11   17.01    4.03
   3   3 -14   38.62    4.81
  -3  -3  14   33.85   11.93
   3   3 -13   96.48    7.33
  -3  -3  13   74.17   16.89
   3   3 -12   35.71    4.58
  -3  -3  12   80.05   11.39
  -3  -3  11   67.91   12.79
  -3  -3  10   23.45    4.26
  -3  -3   9    7.32    2.95
  -3  -3   8   30.38    6.91
  -3  -3   7   65.87    9.46
  -3  -3   6  227.00   12.76
  -3  -3   5  285.41   22.44
  -3  -3   4  112.34    6.73
  -3  -3   4  109.89    5.90
  -3  -3   4  116.95    7.49
  -3  -3   3   27.89    3.74
  -3  -3   3   24.14    5.76
  -3  -3   2   -0.31    1.35
  -3  -3   2    1.10    1.45
  -3  -3   2    1.49    2.78
  -3  -3   1   27.50    3.24
  -3  -3   1   34.05    5.92
  -3  -3   1   40.83    5.33
  -3  -3   0  267.62   20.91
  -3  -3   0  304.22   14.26
  -3  -3   0  272.37   13.70
  -3  -3  -1  318.05   24.10
  -3  -3  -1  341.90   16.31
  -3  -3  -2  111.69   10.69
  -3  -3  -3   53.36    4.31
  -3  -3  -4   30.58    3.38
   3   3   5    4.20    3.04
  -3  -3  -5    4.38    1.87
   3   3   6   34.52    3.19
  -3  -3  -6   34.97    3.34
   3   3   7   69.28    4.82
  -3  -3  -7   68.83    8.30
   3   3   8   52.78    4.30
  -3  -3  -8   63.09    6.89
   3   3   9   46.45    7.12
  -3  -3  -9   46.79    3.91
   3   3  10   15.47    4.70
  -3  -3 -10   13.24    4.48
   3   3  11    0.97    1.93
  -3  -3 -11    6.61    3.27
  -3  -4  14    0.34    5.31
  -3  -4  13    9.60    7.39
  -3  -4  12   37.59   10.98
  -3  -4  11   80.97    8.20
  -3  -4  10   90.84    8.47
  -3  -4   9  127.93   15.37
  -3  -4   8   19.61    6.30
  -3  -4   7    2.66    2.11
  -3  -4   6   34.40    7.10
  -3  -4   5   86.34   11.20
  -3  -4   5   99.29    7.17
  -3  -4   4  126.64   13.54
  -3  -4   4  121.42   14.06
  -3  -4   4  140.75    5.96
  -3  -4   3  198.28   17.64
  -3  -4   3  204.23    8.89
  -3  -4   3  191.40   11.01
  -3  -4   2   68.26    4.18
  -3  -4   2   68.07    9.26
  -3  -4   2   68.70    8.52
  -3  -4   1   13.44    2.40
  -3  -4   1   19.27    5.11
  -3  -4   1   20.70    3.01
  -3  -4   0    0.73    3.12
  -3  -4   0   -1.57    1.62
  -3  -4  -1    5.45    3.87
  -3  -4  -2   46.73    7.48
  -3  -4  -3  103.24   11.67
   3   4   4  101.70    9.77
  -3  -4  -4  124.23   12.58
   3   4   5   43.89    6.65
  -3  -4  -5   39.90    4.17
   3   4   6   25.17    5.04
  -3  -4  -6   19.70    3.05
   3   4   7    0.04    2.88
  -3  -4  -7    0.73    2.93
   3   4   8   12.50    2.54
  -3  -4  -8   11.14    4.36
   3   4   9   36.05    7.06
  -3  -4  -9   37.57    6.74
   3   4  10   38.51    7.66
  -3  -4 -10   48.39    7.64
  -3  -5  14   45.70   13.21
  -3  -5  13   30.62   10.75
  -3  -5  12    1.12    2.80
  -3  -5  11   11.18    3.87
  -3  -5  10   33.93    8.48
  -3  -5   9  125.10   16.00
  -3  -5   8  103.47   13.66
  -3  -5   7   97.66    7.56
  -3  -5   6   43.40    9.08
  -3  -5   6   56.59    5.06
  -3  -5   5    2.04    2.14
  -3  -5   5    2.79    2.05
  -3  -5   4   20.63    5.66
  -3  -5   4   17.10    5.33
  -3  -5   4   15.20    1.42
  -3  -5   3   79.29    6.24
  -3  -5   3   84.32    4.93
  -3  -5   3   82.68    6.40
  -3  -5   2  118.52    5.62
  -3  -5   2  119.44   13.72
  -3  -5   2  140.85   13.67
  -3  -5   1  185.77   18.01
  -3  -5   1  183.49    8.67
  -3  -5   0  207.17   19.97
  -3  -5  -1   33.86    4.07
  -3  -5  -2   -3.71    2.30
  -3  -5  -3   15.59    5.61
   3   5   4   55.75    8.13
  -3  -5  -4   51.12    8.73
   3   5   5  111.39   12.48
  -3  -5  -5  124.33   13.91
   3   5   6  101.77   12.63
  -3  -5  -6  118.90    8.04
   3   5   7   39.29    7.60
  -3  -5  -7   41.89    7.35
   3   5   8    4.37    2.27
  -3  -5  -8    4.79    2.33
   3   5   9   -1.26    3.43
  -3  -5  -9    1.98    3.36
   3   5  10    6.89    5.06
  -3  -5 -10    9.49    2.86
  -3  -6  14   38.86   12.43
  -3  -6  13   77.92   15.96
  -3  -6  12   55.94    7.60
  -3  -6  11   24.57    4.53
  -3  -6  10   10.52    6.07
  -3  -6   9    6.20    5.29
  -3  -6   8   46.52    5.26
  -3  -6   8   37.88    4.15
  -3  -6   7   96.52   12.66
  -3  -6   7   83.85    6.68
  -3  -6   6  117.13   14.80
  -3  -6   6  113.27    7.62
  -3  -6   5  107.05    8.47
  -3  -6   5  103.64   12.35
  -3  -6   4   59.73    9.58
  -3  -6   4   62.92    8.53
  -3  -6   4   48.54    1.91
  -3  -6   3    6.97    1.18
  -3  -6   3    9.65    2.60
  -3  -6   3    6.13    2.76
  -3  -6   2    9.06    1.51
  -3  -6   2    5.93    4.89
  -3  -6   2    9.18    3.07
  -3  -6   1   64.71   10.17
  -3  -6   1   66.73    4.03
  -3  -6   0  169.69   11.18
  -3  -6  -1  107.47   13.41
  -3  -6  -2   92.62   12.76
  -3  -6  -3   28.70    7.61
   3   6   4    1.89    1.91
  -3  -6  -4   -0.63    2.05
   3   6   5   12.03    5.01
  -3  -6  -5   12.09    5.62
   3   6   6   40.05    8.31
  -3  -6  -6   47.65    4.97
   3   6   7   22.20    7.67
  -3  -6  -7   44.03    7.82
   3   6   8   44.67    5.63
  -3  -6  -8   67.14    6.09
   3   6   9   15.60    5.97
  -3  -6  -9   10.31    6.24
  -3  -7  14   -4.80    6.77
  -3  -7  13   26.65   10.50
  -3  -7  12   32.07    5.37
  -3  -7  11   43.41    6.15
  -3  -7  10   76.15   13.50
  -3  -7   9   53.91    9.87
  -3  -7   9   36.86    4.18
  -3  -7   8    5.25    3.06
  -3  -7   8    8.16    2.57
  -3  -7   7   -1.19    4.49
  -3  -7   7    2.79    2.04
  -3  -7   6   56.74   10.95
  -3  -7   6   52.74    8.62
  -3  -7   5  107.13    8.63
  -3  -7   5   94.32   11.53
  -3  -7   4  125.33   14.02
  -3  -7   4  126.99   16.05
  -3  -7   3   97.32    3.65
  -3  -7   3  108.15   12.52
  -3  -7   3  125.61   15.76
  -3  -7   2   70.06    9.31
  -3  -7   2   55.30    3.07
  -3  -7   1   10.11    5.33
  -3  -7   0  173.83   11.64
  -3  -7  -1   47.02    9.52
  -3  -7  -2   93.82    7.96
   3   7   3   82.63    6.45
  -3  -7  -3  108.68   13.43
   3   7   4   55.12    5.67
  -3  -7  -4   60.52   10.24
   3   7   5   18.43    3.71
  -3  -7  -5   31.70    6.98
   3   7   6    8.31    4.46
  -3  -7  -6   -1.38    4.33
   3   7   7   10.62    5.27
  -3  -7  -7    4.37    5.48
   3   7   8   24.72    4.73
  -3  -7  -8   42.53    5.13
  -3  -8  13    6.15    6.89
  -3  -8  12    2.21    5.43
  -3  -8  11   19.59    4.59
  -3  -8  10   88.08    8.32
  -3  -8  10   67.69   10.65
  -3  -8   9  109.20   16.82
  -3  -8   9  107.76   13.63
  -3  -8   8   78.49   13.85
  -3  -8   8   81.55   10.87
  -3  -8   7   74.33    7.58
  -3  -8   7   72.54   10.44
  -3  -8   6    5.59    5.43
  -3  -8   6    3.90    4.00
  -3  -8   5    2.73    4.32
  -3  -8   5    8.38    5.27
  -3  -8   4   47.90    4.88
  -3  -8   4   49.09    5.91
  -3  -8   3   78.63    2.95
  -3  -8   3   96.08   11.05
  -3  -8   3   80.58    8.29
  -3  -8   2   90.01   12.12
  -3  -8   1  116.21    8.28
  -3  -8   0   25.21    6.81
  -3  -8  -1   13.14    5.98
  -3  -8  -2    5.36    4.90
   3   8   3   17.74    6.43
  -3  -8  -3   26.26    7.31
   3   8   4   48.81    6.07
  -3  -8  -4   72.21   10.36
   3   8   5   62.73    6.74
  -3  -8  -5   76.55    6.91
   3   8   6   40.78    9.89
  -3  -8  -6   49.49    9.70
   3   8   7   21.97    8.61
  -3  -8  -7   31.72    4.93
  -3  -9  13   39.40   11.49
  -3  -9  12   15.30    8.42
  -3  -9  12   18.51    3.37
  -3  -9  11    1.80    5.66
  -3  -9  11    3.49    2.49
  -3  -9  10    0.78    2.66
  -3  -9  10    0.10    3.67
  -3  -9   9   20.66    4.73
  -3  -9   9   20.53    6.44
  -3  -9   8   58.93   11.82
  -3  -9   8   47.57    9.29
  -3  -9   7  113.44   16.73
  -3  -9   7   86.26   12.01
  -3  -9   6   48.46    6.50
  -3  -9   6   49.08    8.62
  -3  -9   5   31.85    7.20
  -3  -9   5   25.79    8.78
  -3  -9   4   12.35    2.97
  -3  -9   4    8.07    7.32
  -3  -9   3    3.11    3.74
  -3  -9   3    1.32    0.74
  -3  -9   2   14.58    5.85
  -3  -9   1  106.39    8.02
  -3  -9   0   67.78   10.65
  -3  -9  -1   70.59    6.67
  -3  -9  -2   23.05    7.29
   3   9   3    5.86    4.58
  -3  -9  -3    2.24    4.59
   3   9   4    2.62    2.80
  -3  -9  -4    4.28    2.57
   3   9   5   22.14    7.13
  -3  -9  -5   11.39    6.35
   3   9   6   29.00    9.63
  -3  -9  -6   38.75    5.20
  -3 -10  12   33.40    5.87
  -3 -10  12   25.58    8.02
  -3 -10  11   40.89   12.21
  -3 -10  11   47.63    5.21
  -3 -10  10   43.59   12.04
  -3 -10  10   47.16    8.95
  -3 -10   9    2.23    2.91
  -3 -10   9    0.22    3.95
  -3 -10   8    1.83    2.83
  -3 -10   8   -0.24    3.73
  -3 -10   7   12.19    7.23
  -3 -10   7    9.71    5.35
  -3 -10   6   15.04    6.90
  -3 -10   6   32.04    8.63
  -3 -10   5   89.78   12.03
  -3 -10   5   77.64    8.64
  -3 -10   4   87.31    7.19
  -3 -10   4   89.35    9.55
  -3 -10   3   47.08    9.42
  -3 -10   2    2.99    4.46
  -3 -10   1    3.53    2.45
  -3 -10   0   15.04    6.58
  -3 -10  -1   27.90    8.14
  -3 -10  -2   45.79    5.83
   3  10   3   39.08    9.82
  -3 -10  -3   48.76    9.50
   3  10   4   29.01    5.26
  -3 -10  -4   27.33    8.12
  -3 -11  11   27.06    5.92
  -3 -11  11   28.68    4.31
  -3 -11  10   48.39   11.81
  -3 -11  10   37.71    4.89
  -3 -11   9   62.46   11.98
  -3 -11   9   30.71    8.85
  -3 -11   8   38.75   10.01
  -3 -11   8   16.17    7.42
  -3 -11   7    6.64    3.65
  -3 -11   7    4.55    4.97
  -3 -11   6   -0.92    3.84
  -3 -11   6    1.23    2.65
  -3 -11   5   17.19    6.43
  -3 -11   5   18.73    8.24
  -3 -11   4   35.28    4.83
  -3 -11   4   32.48    6.25
  -3 -11   3   64.40    6.47
  -3 -11   2   66.29   11.64
  -3 -11   1   28.39    8.59
  -3 -11   0   13.16    3.66
  -3 -11  -1    6.65    5.63
  -3 -11  -2   16.28    6.86
   3  11   3   35.62    5.48
  -3 -11  -3   39.76    5.48
  -3 -12  10    5.61    6.59
  -3 -12  10    4.82    2.68
  -3 -12   9   20.91    5.23
  -3 -12   9   15.13    6.95
  -3 -12   8   55.58    7.47
  -3 -12   8   36.43   10.02
  -3 -12   7   38.04   10.82
  -3 -12   7   26.43    8.35
  -3 -12   6   32.18    7.89
  -3 -12   6   21.13    9.81
  -3 -12   5    7.94    5.78
  -3 -12   5    9.64    7.75
  -3 -12   4   -0.42    2.16
  -3 -12   4    0.57    2.87
  -3 -12   3    2.72    2.65
  -3 -12   2   34.41    9.07
  -3 -12   1   69.50   12.88
  -3 -12   0   33.66    9.56
  -3 -12  -1   25.51    4.94
  -3 -13   8    0.29    5.68
  -3 -13   8    1.09    4.12
  -3 -13   7   17.76    6.91
  -3 -13   7   18.35    8.88
  -3 -13   6   41.17    9.66
  -3 -13   6   36.65   11.74
  -3 -13   5   53.93   10.80
  -3 -13   5   45.40   14.36
  -3 -13   4   34.25    5.21
  -3 -13   3    7.41    3.24
  -3 -13   2    7.51    3.42
  -4   9  -1   -0.84    3.78
  -4   9  -2   10.92    5.00
  -4   9  -3   -0.35    3.20
  -4   9  -4    0.01    3.03
   4  -8  -2   -0.01    3.42
  -4   8   1   -0.27    2.25
  -4   8   0    0.21    1.99
  -4   8  -1   -0.28    3.52
  -4   8  -2   -0.53    3.50
  -4   8  -3   20.71    5.73
  -4   8  -4    3.70    3.90
  -4   8  -5    2.40    3.82
  -4   8  -6   -1.89    3.78
   4  -7  -3    0.57    3.49
  -4   7   1    0.00    3.81
  -4   7   0   -0.34    3.56
  -4   7  -1    0.14    1.82
  -4   7  -2    0.14    3.29
  -4   7  -3   15.24    5.43
  -4   7  -4   33.46    7.24
  -4   7  -5   73.42   10.42
  -4   7  -6   24.41    6.08
   4  -6  -5   -1.16    3.11
  -4   6   5    2.74    1.93
   4  -6  -4   -0.36    3.13
  -4   6   4   -1.41    1.58
   4  -6  -3   -0.37    1.69
  -4   6   2   -0.68    2.13
  -4   6   1   -0.70    3.66
  -4   6   0   -0.50    3.61
  -4   6  -1   33.46    4.25
  -4   6  -2    6.88    4.58
  -4   6  -3    4.35    4.15
  -4   6  -4   12.79    5.24
  -4   6  -5   53.95    8.37
  -4   6  -6   26.28    6.28
  -4   6  -7   42.73    7.58
  -4   6  -8   13.85    5.37
   4  -5  -6   -1.06    3.87
  -4   5   6   14.79    1.92
   4  -5  -5   -1.35    4.34
  -4   5   5   23.41    3.21
   4  -5  -4   23.56    3.04
  -4   5   4   28.60    3.33
  -4   5   3    7.64    1.90
  -4   5   2    1.23    1.65
  -4   5   2   -0.28    3.47
  -4   5   2    2.99    1.23
  -4   5   1    1.01    1.91
  -4   5   0   -1.21    3.58
  -4   5  -1   40.97    4.48
  -4   5  -2   56.12    9.44
  -4   5  -3   28.12    6.98
  -4   5  -4   20.55    5.78
  -4   5  -5    3.06    3.76
  -4   5  -6    7.71    4.48
  -4   5  -7   19.48    5.62
  -4   5  -8   50.09    8.25
   4  -4  -7    7.26    2.77
  -4   4   7    2.76    3.00
   4  -4  -6   -1.40    2.27
  -4   4   6    0.84    1.14
   4  -4  -5   18.51    2.31
  -4   4   5   10.86    3.23
  -4   4   4   42.78    2.76
  -4   4   3   23.55    3.59
  -4   4   3   30.15    2.98
  -4   4   2   28.31    3.12
  -4   4   2   -1.01    5.46
  -4   4   1    0.06    2.30
  -4   4   1    8.64    1.19
  -4   4   0    0.00    1.76
  -4   4   0   -0.88    3.12
  -4   4   0   -0.47    0.81
  -4   4  -1   10.46    2.64
  -4   4  -2   31.62    7.08
  -4   4  -3   43.60    7.82
  -4   4  -4   68.81    9.98
  -4   4  -5   23.60    6.43
  -4   4  -6   12.16    4.99
  -4   4  -7    1.32    3.33
  -4   4  -8    5.58    4.07
   4  -3  -7   11.88    3.42
  -4   3   7   25.26    4.29
  -4   3   6    2.81    2.60
  -4   3   5    1.57    2.20
  -4   3   4    5.22    2.23
  -4   3   3   15.69    4.60
  -4   3   3   12.14    2.93
  -4   3   3   15.04    1.46
  -4   3   2   35.94    4.37
  -4   3   2   39.73    3.43
  -4   3   2   53.20    4.13
  -4   3   1   37.01    3.57
  -4   3   1   29.93    2.47
  -4   3   1   45.26    6.28
  -4   3   0   21.52    2.73
  -4   3   0   20.73    2.13
  -4   3   0   18.89    5.28
  -4   3  -1   11.45    2.59
  -4   3  -1    7.37    1.97
  -4   3  -1   13.43    1.62
  -4   3  -2    3.51    3.80
  -4   3  -3    2.11    3.52
  -4   3  -4   41.15    8.10
  -4   3  -5   58.80    9.20
  -4   3  -6   52.85    8.51
  -4   3  -7   31.78    6.89
  -4   3  -8    8.79    4.64
   4  -2  -8    2.28    1.94
  -4   2   8    5.14    1.91
  -4   2   7    4.26    1.83
  -4   2   6   40.11    5.80
  -4   2   5   44.89    5.58
  -4   2   4   15.53    1.72
  -4   2   4   12.02    3.26
  -4   2   3   -0.24    2.13
  -4   2   3    3.87    1.85
  -4   2   3    6.01    2.71
  -4   2   2    1.41    2.43
  -4   2   2    0.10    1.72
  -4   2   2    0.32    1.18
  -4   2   1    1.26    2.03
  -4   2   1    7.74    1.60
  -4   2   1    3.77    3.09
  -4   2   0   50.43    6.48
  -4   2   0   40.43    4.00
  -4   2   0   43.83    3.31
  -4   2  -1   46.83    4.19
  -4   2  -1   49.76    3.53
  -4   2  -1   72.69    4.56
  -4   2  -2   28.54    2.80
  -4   2  -2   34.24    2.67
  -4   2  -2   47.78    6.03
  -4   2  -3   41.93    5.43
  -4   2  -3   16.50    1.73
  -4   2  -3   13.48    2.58
  -4   2  -4   -2.39    3.63
  -4   2  -5   12.33    5.01
  -4   2  -6   21.76    6.12
  -4   1   8    1.85    3.42
  -4   1   7    1.79    3.02
  -4   1   6   17.00    4.35
  -4   1   5   43.74    5.91
  -4   1   4   51.76    5.55
  -4   1   4   48.68    5.10
  -4   1   3   54.09    4.85
  -4   1   3   57.56    5.34
  -4   1   3   58.68    6.20
  -4   1   2   25.42    2.65
  -4   1   2   25.90    3.52
  -4   1   2   27.04    4.37
  -4   1   1    2.71    2.54
  -4   1   1    2.03    1.45
  -4   1   1    2.05    1.98
  -4   1   0    5.16    3.10
  -4   1   0    4.87    1.78
  -4   1   0    6.76    2.11
  -4   1  -1   14.87    2.28
  -4   1  -1   18.41    2.59
  -4   1  -1   18.92    2.28
  -4   1  -2   41.53    3.42
  -4   1  -2   38.55    3.09
  -4   1  -2   51.14    6.14
  -4   1  -3   75.95    7.32
  -4   1  -3   52.58    3.73
  -4   1  -3   42.19    3.46
  -4   1  -4   27.89    2.85
  -4   1  -4   52.82    6.27
  -4   1  -4   26.37    2.71
  -4   1  -5    5.87    1.82
  -4   1  -5    6.74    1.68
  -4   1  -5   19.95    4.47
  -4   0   9   19.21    6.40
  -4   0   8   10.53    4.77
  -4   0   7   30.36    3.56
  -4   0   6    4.73    1.88
  -4   0   5    2.52    1.48
  -4   0   5    0.90    2.13
  -4   0   4   16.75    1.77
  -4   0   4   12.12    3.47
  -4   0   4   11.68    3.03
  -4   0   3   32.72    3.87
  -4   0   3   35.77    3.88
  -4   0   3   32.95    3.89
  -4   0   2   52.01    4.03
  -4   0   2   50.29    2.88
  -4   0   2   55.60    4.85
  -4   0   1   44.87    4.71
  -4   0   1   39.47    3.55
  -4   0   1   50.24    4.27
  -4   0   0   19.06    2.79
  -4   0   0   19.15    2.77
  -4   0   0   26.69    3.73
  -4   0  -1    9.97    2.17
  -4   0  -1    9.87    2.13
  -4   0  -1    9.51    1.79
  -4   0  -2    2.99    2.77
  -4   0  -2    0.82    1.71
  -4   0  -2    4.26    1.65
  -4   0  -3   23.41    2.95
  -4   0  -3   31.32    4.47
  -4   0  -3   13.94    2.94
  -4   0  -4   35.31    3.84
  -4   0  -4   30.86    3.89
  -4   0  -4   58.86    6.29
  -4   0  -5   20.67    3.11
  -4   0  -5   24.53    3.14
  -4   0  -6   10.32    2.33
  -4   0  -6   23.74    3.04
  -4  -1   9    6.84    4.88
  -4  -1   8    8.93    4.77
  -4  -1   7   54.04    8.14
  -4  -1   6   37.04    6.11
  -4  -1   6   30.41    5.61
  -4  -1   5   27.31    5.22
  -4  -1   5   33.03    5.28
  -4  -1   4    5.79    1.81
  -4  -1   4    4.99    2.92
  -4  -1   4    5.12    2.94
  -4  -1   3    0.81    1.56
  -4  -1   3    1.28    1.13
  -4  -1   3    3.04    2.16
  -4  -1   2   18.53    2.57
  -4  -1   2   13.06    3.23
  -4  -1   2   12.23    2.59
  -4  -1   1   45.59    3.90
  -4  -1   1   53.07    4.47
  -4  -1   1   49.12    5.01
  -4  -1   0   37.22    3.89
  -4  -1   0   38.14    4.49
  -4  -1   0   45.56    3.82
  -4  -1  -1   80.31    3.71
  -4  -1  -1   61.83    3.47
  -4  -1  -1   55.90    5.90
  -4  -1  -2   28.31    3.47
  -4  -1  -2   29.17    4.16
  -4  -1  -2   18.90    3.88
  -4  -1  -3    1.28    2.01
  -4  -1  -3    1.28    2.29
  -4  -1  -3   -0.23    1.64
  -4  -1  -4    1.13    1.99
  -4  -1  -4    1.15    1.73
  -4  -1  -5    5.24    2.49
  -4  -1  -5    6.66    1.42
  -4  -1  -6   12.74    2.63
  -4  -1  -7   19.14    2.93
  -4  -2   9    2.98    2.36
  -4  -2   8    2.36    2.07
  -4  -2   7   12.43    2.85
  -4  -2   7   14.99    2.88
  -4  -2   6   34.96    3.54
  -4  -2   6   33.74    4.14
  -4  -2   5   63.60    7.65
  -4  -2   5   53.70    8.21
  -4  -2   4   50.46    6.23
  -4  -2   4   41.03    3.51
  -4  -2   3   17.14    4.10
  -4  -2   3   26.54    2.69
  -4  -2   3   19.49    2.83
  -4  -2   2    7.72    2.25
  -4  -2   2   10.51    2.73
  -4  -2   2    6.60    3.35
  -4  -2   1   -0.42    0.88
  -4  -2   1    2.37    2.21
  -4  -2   1    0.64    1.55
  -4  -2   0    8.50    2.21
  -4  -2   0   10.44    1.88
  -4  -2   0    8.35    2.26
  -4  -2  -1   42.11    4.39
  -4  -2  -1   44.66    2.42
  -4  -2  -1   34.72    3.31
  -4  -2  -2   63.23    4.90
  -4  -2  -2   48.95    3.97
  -4  -2  -2   54.74    5.36
  -4  -2  -3   36.34    5.84
  -4  -2  -3   48.50    3.01
  -4  -2  -4   13.26    3.73
  -4  -2  -4   18.55    2.08
  -4  -2  -5    4.16    2.66
  -4  -2  -6   -2.76    2.17
  -4  -3   9   24.90    4.03
  -4  -3   8   47.91    8.23
  -4  -3   8   37.02    4.68
  -4  -3   7    4.89    3.96
  -4  -3   7    4.24    2.59
  -4  -3   6    0.81    3.44
  -4  -3   6    2.99    2.14
  -4  -3   5    4.75    4.23
  -4  -3   5   16.91    4.81
  -4  -3   4   32.94    5.85
  -4  -3   4   28.62    6.28
  -4  -3   3   38.95    3.53
  -4  -3   3   46.47    6.94
  -4  -3   3   36.91    3.65
  -4  -3   2   55.56    6.02
  -4  -3   2   48.65    4.48
  -4  -3   2   58.83    7.57
  -4  -3   1   19.36    3.87
  -4  -3   1   23.54    2.88
  -4  -3   1   22.13    2.99
  -4  -3   0   10.05    2.22
  -4  -3   0    5.26    2.61
  -4  -3   0    4.08    3.63
  -4  -3  -1    0.14    0.85
  -4  -3  -1    1.46    2.68
  -4  -3  -1    2.15    1.72
  -4  -3  -2    4.04    2.11
  -4  -3  -2    5.02    3.75
  -4  -3  -2    9.41    1.42
  -4  -3  -3   20.91    4.96
  -4  -3  -3   22.52    2.35
  -4  -3  -4   24.32    2.84
  -4  -3  -5   29.49    5.21
  -4  -3  -6   18.18    3.74
  -4  -4   9    7.02    5.31
  -4  -4   9    7.33    2.68
  -4  -4   8   41.29    8.87
  -4  -4   8   50.40    5.54
  -4  -4   7   43.07    7.89
  -4  -4   7   38.23    4.92
  -4  -4   6   18.75    6.89
  -4  -4   6   37.32    4.37
  -4  -4   5   19.29    5.75
  -4  -4   5   20.81    3.48
  -4  -4   4    0.35    1.75
  -4  -4   4    3.50    3.50
  -4  -4   3    5.25    2.10
  -4  -4   3    6.38    4.24
  -4  -4   2   26.52    5.49
  -4  -4   2   28.54    6.20
  -4  -4   2   27.56    2.99
  -4  -4   1   39.45    5.53
  -4  -4   1   26.85    6.60
  -4  -4   1   29.53    3.34
  -4  -4   0   74.96    5.53
  -4  -4   0   71.31    9.61
  -4  -4   0   75.08    7.51
  -4  -4  -1   73.72    3.24
  -4  -4  -1   55.66    5.30
  -4  -4  -1   67.19    7.13
  -4  -4  -2    8.03    4.23
  -4  -4  -2    8.91    1.84
  -4  -4  -3    0.67    2.98
  -4  -4  -4    0.33    1.59
  -4  -4  -5   16.48    4.69
  -4  -5   9    3.25    4.29
  -4  -5   9    0.74    2.28
  -4  -5   8    3.53    4.44
  -4  -5   8    2.42    2.38
  -4  -5   7    2.08    5.37
  -4  -5   7   17.65    5.50
  -4  -5   6   52.63    8.93
  -4  -5   6   38.80    8.95
  -4  -5   5   63.62    9.91
  -4  -5   5   58.24    6.03
  -4  -5   4   30.94    3.99
  -4  -5   4   36.09    7.83
  -4  -5   3    7.35    2.61
  -4  -5   3   11.74    4.97
  -4  -5   2    0.07    3.45
  -4  -5   2   -1.12    1.92
  -4  -5   1    9.54    2.15
  -4  -5   1   12.16    4.69
  -4  -5   1    9.23    5.05
  -4  -5   0   51.28    4.20
  -4  -5   0   36.93    4.70
  -4  -5   0   47.34    7.36
  -4  -5  -1   60.94   10.17
  -4  -5  -1   88.33    9.58
  -4  -5  -2   21.43    2.62
  -4  -5  -2   -0.87    2.18
  -4  -5  -3   17.89    5.76
  -4  -5  -4    1.68    3.36
  -4  -6   8   11.95    6.65
  -4  -6   8   16.55    6.00
  -4  -6   7   -0.89    4.31
  -4  -6   7   -2.08    3.96
  -4  -6   6    3.72    4.71
  -4  -6   6    4.69    4.60
  -4  -6   5   18.95    6.84
  -4  -6   5   23.01    6.97
  -4  -6   4   30.29    4.34
  -4  -6   4   24.54    4.32
  -4  -6   3   49.20    5.55
  -4  -6   3   41.59    9.29
  -4  -6   2   21.38    3.82
  -4  -6   2   22.32    6.98
  -4  -6   1    6.30    2.66
  -4  -6   1    5.93    4.58
  -4  -6   0    5.44    1.86
  -4  -6   0   -0.20    4.45
  -4  -6   0    2.77    4.34
  -4  -6  -1    5.46    2.57
  -4  -6  -1    4.20    2.63
  -4  -6  -2    2.32    4.17
  -4  -6  -3   27.24    4.22
  -4  -7   7   27.03    7.67
  -4  -7   7   13.36    6.48
  -4  -7   6    7.79    6.42
  -4  -7   6   14.25    5.86
  -4  -7   5   -0.32    4.40
  -4  -7   5    2.07    3.98
  -4  -7   4    8.62    4.60
  -4  -7   4   -0.16    2.30
  -4  -7   3    7.91    6.41
  -4  -7   3   14.02    3.28
  -4  -7   2   18.54    7.95
  -4  -7   2   30.31    4.54
  -4  -7   1   30.57    9.20
  -4  -7   1   44.85    5.35
  -4  -7   0   35.23    9.69
  -4  -7   0   51.91    6.23
  -4  -7  -1    2.48    4.55
  -4  -8   6   29.80    7.65
  -4  -8   6    6.14    6.37
  -4  -8   5   21.76    7.77
  -4  -8   5   13.41    6.31
  -4  -8   4   12.85    7.08
  -4  -8   4   12.07    5.83
  -4  -8   3   -0.24    5.82
  -4  -8   3    7.88    2.90
  -4  -8   2    1.25    4.42
  -4  -8   2    2.44    4.69
  -4  -8   1   10.51    5.58
  -4  -8   1    4.81    5.93
   0   0   0    0.00    0.00
;
_shelx_hkl_checksum              25754
#END Tags that were not found in dictionaries
loop_
_space_group_symop_operation_xyz
'x, y, z'
'-x, -y, -z'
loop_
_atom_site_label
_atom_site_type_symbol
_atom_site_fract_x
_atom_site_fract_y
_atom_site_fract_z
_atom_site_U_iso_or_equiv
_atom_site_adp_type
_atom_site_occupancy
_atom_site_site_symmetry_order
_atom_site_calc_flag
_atom_site_refinement_flags_posn
_atom_site_refinement_flags_adp
_atom_site_refinement_flags_occupancy
_atom_site_disorder_assembly
_atom_site_disorder_group
C1 C 0.014(3) 0.3095(8) 0.6190(8) 0.043(2) Uani 1 1 d . . . . .
F2 F -0.051(2) 0.3692(5) 0.5650(5) 0.0604(17) Uani 1 1 d . . . . .
C3 C -0.038(3) 0.3473(9) 0.7202(9) 0.053(3) Uani 1 1 d . . . . .
F4 F -0.161(2) 0.4414(6) 0.7603(6) 0.077(2) Uani 1 1 d . . . . .
N5 N 0.009(3) 0.2955(9) 0.7806(7) 0.056(2) Uani 1 1 d . . . . .
C6 C 0.126(3) 0.2037(10) 0.7415(8) 0.049(3) Uani 1 1 d . . . . .
F7 F 0.175(2) 0.1489(7) 0.8025(5) 0.074(2) Uani 1 1 d . . . . .
C8 C 0.186(3) 0.1579(7) 0.6402(8) 0.039(2) Uani 1 1 d . . . . .
F9 F 0.3030(18) 0.0633(5) 0.6086(5) 0.0524(15) Uani 1 1 d . . . . .
C10 C 0.136(3) 0.2124(7) 0.5756(7) 0.038(2) Uani 1 1 d . . . . .
Au11 Au 0.21713(11) 0.15073(3) 0.42706(3) 0.03984(15) Uani 1 1 d . . . . .
C12 C 0.297(3) 0.0935(8) 0.2829(8) 0.043(2) Uani 1 1 d . . . . .
N13 N 0.355(2) 0.0619(7) 0.1997(6) 0.0401(18) Uani 1 1 d . . . . .
C14 C 0.425(2) 0.0293(7) 0.0977(7) 0.0336(19) Uani 1 1 d . . . . .
C15 C 0.362(3) -0.0717(8) 0.0407(7) 0.037(2) Uani 1 1 d . . . . .
H15 H 0.2715 -0.1191 0.0701 0.044 Uiso 1 1 calc R U . . .
C16 C 0.433(3) -0.1019(8) -0.0591(7) 0.039(2) Uani 1 1 d . . . . .
H16 H 0.3869 -0.1701 -0.1006 0.047 Uiso 1 1 calc R U . . .
C21 C 0.288(9) 0.620(2) 0.659(2) 0.065(7) Uani 0.5 1 d . . P A -1
H21A H 0.5033 0.6519 0.7044 0.098 Uiso 0.5 1 calc R U P A -1
H21B H 0.3031 0.6373 0.5982 0.098 Uiso 0.5 1 calc R U P A -1
H21C H 0.2950 0.5463 0.6427 0.098 Uiso 0.5 1 calc R U P A -1
C22 C -0.066(6) 0.6562(16) 0.7080(16) 0.045(5) Uani 0.5 1 d . . P A -1
C23 C -0.446(10) 0.615(2) 0.649(2) 0.076(9) Uani 0.5 1 d . . P A -1
H23A H -0.6574 0.6450 0.6898 0.115 Uiso 0.5 1 calc R U P A -1
H23B H -0.4633 0.5410 0.6318 0.115 Uiso 0.5 1 calc R U P A -1
H23C H -0.4550 0.6323 0.5877 0.115 Uiso 0.5 1 calc R U P A -1
O24 O -0.076(6) 0.7192(14) 0.7894(16) 0.078(6) Uani 0.5 1 d . . P A -1
C31 C 0.244(12) 0.599(3) 0.958(2) 0.095(12) Uani 0.5 1 d . . P B -2
H31A H 0.4673 0.6236 0.9324 0.143 Uiso 0.5 1 calc R U P B -2
H31B H 0.2203 0.5251 0.9283 0.143 Uiso 0.5 1 calc R U P B -2
H31C H 0.2700 0.6181 1.0302 0.143 Uiso 0.5 1 calc R U P B -2
C32 C -0.111(7) 0.6463(18) 0.9291(19) 0.057(6) Uani 0.5 1 d . . P B -2
C33 C -0.480(9) 0.618(2) 0.960(2) 0.066(7) Uani 0.5 1 d . . P B -2
H33A H -0.6806 0.6529 0.9373 0.098 Uiso 0.5 1 calc R U P B -2
H33B H -0.4779 0.6366 1.0324 0.098 Uiso 0.5 1 calc R U P B -2
H33C H -0.5253 0.5443 0.9299 0.098 Uiso 0.5 1 calc R U P B -2
O34 O -0.067(5) 0.7024(15) 0.882(2) 0.080(6) Uani 0.5 1 d . . P B -2
loop_
_atom_site_aniso_label
_atom_site_aniso_U_11
_atom_site_aniso_U_22
_atom_site_aniso_U_33
_atom_site_aniso_U_23
_atom_site_aniso_U_13
_atom_site_aniso_U_12
C1 0.048(6) 0.044(5) 0.035(5) 0.008(4) -0.004(4) -0.003(5)
F2 0.075(5) 0.044(3) 0.061(4) 0.015(3) -0.006(3) 0.012(3)
C3 0.041(5) 0.044(6) 0.057(7) -0.008(5) 0.007(5) 0.001(5)
F4 0.070(5) 0.059(4) 0.071(5) -0.022(4) 0.011(4) 0.011(4)
N5 0.052(5) 0.074(7) 0.033(5) 0.004(5) 0.005(4) -0.001(5)
C6 0.045(6) 0.067(7) 0.038(6) 0.020(5) 0.006(5) -0.001(5)
F7 0.078(5) 0.107(6) 0.048(4) 0.041(4) 0.010(4) 0.004(5)
C8 0.036(5) 0.034(5) 0.045(5) 0.013(4) 0.005(4) -0.001(4)
F9 0.055(4) 0.046(3) 0.059(4) 0.022(3) 0.005(3) 0.002(3)
C10 0.030(4) 0.040(5) 0.036(5) 0.003(4) 0.000(4) -0.001(4)
Au11 0.0466(2) 0.0398(2) 0.0286(2) 0.00537(15) 0.00324(15) -0.00068(16)
C12 0.037(5) 0.051(6) 0.037(5) 0.012(5) -0.009(4) -0.007(4)
N13 0.037(4) 0.053(5) 0.029(4) 0.011(4) 0.002(3) -0.001(4)
C14 0.021(4) 0.051(5) 0.030(4) 0.015(4) 0.003(3) 0.006(4)
C15 0.035(5) 0.044(5) 0.035(5) 0.018(4) 0.005(4) 0.000(4)
C16 0.034(5) 0.042(5) 0.037(5) 0.007(4) 0.000(4) -0.004(4)
C21 0.09(2) 0.062(16) 0.048(14) 0.018(12) 0.006(15) 0.001(16)
C22 0.049(12) 0.048(12) 0.042(11) 0.021(10) -0.007(9) 0.004(9)
C23 0.08(2) 0.063(17) 0.059(17) -0.013(13) -0.009(17) 0.012(17)
O24 0.090(14) 0.054(10) 0.069(13) -0.009(10) -0.011(11) 0.016(10)
C31 0.12(3) 0.10(3) 0.046(16) -0.005(16) -0.015(19) 0.03(3)
C32 0.059(14) 0.042(12) 0.055(14) -0.005(11) 0.001(11) 0.008(11)
C33 0.066(17) 0.063(16) 0.068(18) 0.023(14) -0.006(15) -0.015(15)
O34 0.056(11) 0.065(12) 0.13(2) 0.052(13) 0.008(12) 0.000(9)
loop_
_atom_type_symbol
_atom_type_description
_atom_type_scat_dispersion_real
_atom_type_scat_dispersion_imag
_atom_type_scat_source
C C 0.0033 0.0016 'International Tables Vol C Tables 4.2.6.8 and 6.1.1.4'
H H 0.0000 0.0000 'International Tables Vol C Tables 4.2.6.8 and 6.1.1.4'
N N 0.0061 0.0033 'International Tables Vol C Tables 4.2.6.8 and 6.1.1.4'
O O 0.0106 0.0060 'International Tables Vol C Tables 4.2.6.8 and 6.1.1.4'
F F 0.0171 0.0103 'International Tables Vol C Tables 4.2.6.8 and 6.1.1.4'
Au Au -2.0133 8.8022 'International Tables Vol C Tables 4.2.6.8 and 6.1.1.4'
loop_
_geom_angle_atom_site_label_1
_geom_angle_atom_site_label_2
_geom_angle_atom_site_label_3
_geom_angle
_geom_angle_site_symmetry_1
_geom_angle_site_symmetry_3
F2 C1 C10 121.1(9) . .
F2 C1 C3 118.5(10) . .
C10 C1 C3 120.5(10) . .
N5 C3 F4 116.4(11) . .
N5 C3 C1 124.3(10) . .
F4 C3 C1 119.3(12) . .
C6 N5 C3 116.4(10) . .
N5 C6 F7 117.4(10) . .
N5 C6 C8 124.1(10) . .
F7 C6 C8 118.5(10) . .
F9 C8 C10 121.5(9) . .
F9 C8 C6 118.7(9) . .
C10 C8 C6 119.7(9) . .
C1 C10 C8 115.0(9) . .
C1 C10 Au11 123.0(8) . .
C8 C10 Au11 122.0(7) . .
C12 Au11 C10 178.9(4) . .
N13 C12 Au11 177.6(9) . .
C12 N13 C14 176.4(11) . .
C15 C14 C16 123.1(8) . 2_655
C15 C14 N13 119.9(9) . .
C16 C14 N13 117.0(9) 2_655 .
C16 C15 C14 118.9(9) . .
C16 C15 H15 120.6 . .
C14 C15 H15 120.6 . .
C15 C16 C14 118.0(9) . 2_655
C15 C16 H16 121.0 . .
C14 C16 H16 121.0 2_655 .
C22 C21 H21A 109.5 . .
C22 C21 H21B 109.5 . .
H21A C21 H21B 109.5 . .
C22 C21 H21C 109.5 . .
H21A C21 H21C 109.5 . .
H21B C21 H21C 109.5 . .
O24 C22 C21 123(2) . .
O24 C22 C23 119(2) . .
C21 C22 C23 118(2) . .
C22 C23 H23A 109.5 . .
C22 C23 H23B 109.5 . .
H23A C23 H23B 109.5 . .
C22 C23 H23C 109.5 . .
H23A C23 H23C 109.5 . .
H23B C23 H23C 109.5 . .
C32 C31 H31A 109.5 . .
C32 C31 H31B 109.5 . .
H31A C31 H31B 109.5 . .
C32 C31 H31C 109.5 . .
H31A C31 H31C 109.5 . .
H31B C31 H31C 109.5 . .
O34 C32 C33 125(3) . .
O34 C32 C31 117(3) . .
C33 C32 C31 118(3) . .
C32 C33 H33A 109.5 . .
C32 C33 H33B 109.5 . .
H33A C33 H33B 109.5 . .
C32 C33 H33C 109.5 . .
H33A C33 H33C 109.5 . .
H33B C33 H33C 109.5 . .
loop_
_geom_bond_atom_site_label_1
_geom_bond_atom_site_label_2
_geom_bond_distance
_geom_bond_site_symmetry_2
C1 F2 1.330(12) .
C1 C10 1.380(14) .
C1 C3 1.382(16) .
C3 N5 1.306(17) .
C3 F4 1.342(12) .
N5 C6 1.305(16) .
C6 F7 1.347(13) .
C6 C8 1.397(15) .
C8 F9 1.331(11) .
C8 C10 1.387(14) .
C10 Au11 2.037(10) .
Au11 C12 1.974(11) .
C12 N13 1.146(13) .
N13 C14 1.404(12) .
C14 C15 1.388(14) .
C14 C16 1.397(14) 2_655
C15 C16 1.377(13) .
C15 H15 0.9500 .
C16 C14 1.397(14) 2_655
C16 H16 0.9500 .
C21 C22 1.47(4) .
C21 H21A 0.9800 .
C21 H21B 0.9800 .
C21 H21C 0.9800 .
C22 O24 1.21(3) .
C22 C23 1.56(4) .
C23 H23A 0.9800 .
C23 H23B 0.9800 .
C23 H23C 0.9800 .
C31 C32 1.54(4) .
C31 H31A 0.9800 .
C31 H31B 0.9800 .
C31 H31C 0.9800 .
C32 O34 1.20(3) .
C32 C33 1.48(4) .
C33 H33A 0.9800 .
C33 H33B 0.9800 .
C33 H33C 0.9800 .
loop_
_geom_torsion_atom_site_label_1
_geom_torsion_atom_site_label_2
_geom_torsion_atom_site_label_3
_geom_torsion_atom_site_label_4
_geom_torsion
_geom_torsion_site_symmetry_1
_geom_torsion_site_symmetry_4
F2 C1 C3 N5 178.4(11) . .
C10 C1 C3 N5 -2.3(18) . .
F2 C1 C3 F4 1.7(16) . .
C10 C1 C3 F4 -179.1(10) . .
F4 C3 N5 C6 179.5(10) . .
C1 C3 N5 C6 2.7(18) . .
C3 N5 C6 F7 -179.9(10) . .
C3 N5 C6 C8 -2.9(17) . .
N5 C6 C8 F9 -179.5(10) . .
F7 C6 C8 F9 -2.5(15) . .
N5 C6 C8 C10 2.8(17) . .
F7 C6 C8 C10 179.8(9) . .
F2 C1 C10 C8 -178.8(9) . .
C3 C1 C10 C8 2.0(15) . .
F2 C1 C10 Au11 -1.1(14) . .
C3 C1 C10 Au11 179.7(8) . .
F9 C8 C10 C1 -179.8(9) . .
C6 C8 C10 C1 -2.2(14) . .
F9 C8 C10 Au11 2.4(13) . .
C6 C8 C10 Au11 -179.9(8) . .
C16 C14 C15 C16 -1.7(15) 2_655 .
N13 C14 C15 C16 -179.9(8) . .
C14 C15 C16 C14 1.6(14) . 2_655
