#------------------------------------------------------------------------------
#$Date: 2016-02-18 17:37:37 +0200 (Thu, 18 Feb 2016) $
#$Revision: 176729 $
#$URL: svn://www.crystallography.net/cod/cif/1/51/85/1518569.cif $
#------------------------------------------------------------------------------
#
# This file is available in the Crystallography Open Database (COD),
# http://www.crystallography.net/
#
# All data on this site have been placed in the public domain by the
# contributors.
#
data_1518569
loop_
_publ_author_name
'Scully, Stephen S.'
'Zheng, Shao-Liang'
'Wagner, Bridget K.'
'Schreiber, Stuart L.'
_publ_section_title
;
 Synthesis of Oxazocenones via Gold(I)-Catalyzed 8-Endo-Dig
 Hydroalkoxylation of Alkynamides.
;
_journal_issue                   3
_journal_name_full               'Organic letters'
_journal_page_first              418
_journal_page_last               421
_journal_paper_doi               10.1021/ol503273v
_journal_volume                  17
_journal_year                    2015
_chemical_formula_sum            'C15 H19 N O2'
_chemical_formula_weight         245.31
_chemical_name_systematic
;
 ?
;
_space_group_crystal_system      triclinic
_space_group_IT_number           2
_space_group_name_Hall           '-P 1'
_space_group_name_H-M_alt        'P -1'
_symmetry_space_group_name_Hall  '-P 1'
_symmetry_space_group_name_H-M   'P -1'
_atom_sites_solution_hydrogens   geom
_audit_creation_method           SHELXL-2014
_cell_angle_alpha                97.4234(16)
_cell_angle_beta                 102.0132(16)
_cell_angle_gamma                108.1635(15)
_cell_formula_units_Z            2
_cell_length_a                   6.6977(7)
_cell_length_b                   8.9166(10)
_cell_length_c                   11.8671(13)
_cell_measurement_reflns_used    4023
_cell_measurement_temperature    100(2)
_cell_measurement_theta_max      27.1
_cell_measurement_theta_min      2.45
_cell_volume                     644.13(12)
_computing_cell_refinement       'SAINT 8.30C (Bruker-AXS, 2014)'
_computing_data_collection       'APEX2 v2014.3.0 (Bruker-AXS, 2014)'
_computing_data_reduction        'SAINT 8.30C (Bruker-AXS, 2014)'
_computing_molecular_graphics    'Bruker SHELXTL (Sheldrick, 2008)'
_computing_publication_material  'Bruker SHELXTL (Sheldrick, 2008)'
_computing_structure_refinement  'SHELXL-2014 (Sheldrick, 2008)'
_computing_structure_solution    'SHELXS-2014 (Sheldrick, 2008)'
_diffrn_ambient_temperature      100(2)
_diffrn_measured_fraction_theta_full 1.000
_diffrn_measured_fraction_theta_max 0.995
_diffrn_measurement_device_type
;
Bruker D8 goniometer with CCD area detector  
;
_diffrn_measurement_method       'omega and phi scans'
_diffrn_radiation_monochromator  graphite
_diffrn_radiation_source         'fine-focus sealed tube'
_diffrn_radiation_type           MoK\a
_diffrn_radiation_wavelength     0.71073
_diffrn_reflns_av_R_equivalents  0.0204
_diffrn_reflns_av_unetI/netI     0.0267
_diffrn_reflns_Laue_measured_fraction_full 1.000
_diffrn_reflns_Laue_measured_fraction_max 0.995
_diffrn_reflns_limit_h_max       8
_diffrn_reflns_limit_h_min       -8
_diffrn_reflns_limit_k_max       11
_diffrn_reflns_limit_k_min       -11
_diffrn_reflns_limit_l_max       15
_diffrn_reflns_limit_l_min       -15
_diffrn_reflns_number            7989
_diffrn_reflns_point_group_measured_fraction_full 1.000
_diffrn_reflns_point_group_measured_fraction_max 0.995
_diffrn_reflns_theta_full        25.242
_diffrn_reflns_theta_max         27.143
_diffrn_reflns_theta_min         1.794
_exptl_absorpt_coefficient_mu    0.084
_exptl_absorpt_correction_T_max  0.7455
_exptl_absorpt_correction_T_min  0.7042
_exptl_absorpt_correction_type   multi-scan
_exptl_absorpt_process_details   SADABS
_exptl_crystal_colour            colorless
_exptl_crystal_density_diffrn    1.265
_exptl_crystal_description       block
_exptl_crystal_F_000             264
_exptl_crystal_size_max          0.180
_exptl_crystal_size_mid          0.100
_exptl_crystal_size_min          0.060
_refine_diff_density_max         0.287
_refine_diff_density_min         -0.215
_refine_diff_density_rms         0.043
_refine_ls_extinction_method     none
_refine_ls_goodness_of_fit_ref   1.055
_refine_ls_hydrogen_treatment    constr
_refine_ls_matrix_type           full
_refine_ls_number_parameters     166
_refine_ls_number_reflns         2848
_refine_ls_number_restraints     0
_refine_ls_restrained_S_all      1.055
_refine_ls_R_factor_all          0.0485
_refine_ls_R_factor_gt           0.0380
_refine_ls_shift/su_max          0.000
_refine_ls_shift/su_mean         0.000
_refine_ls_structure_factor_coef Fsqd
_refine_ls_weighting_details
'w=1/[\s^2^(Fo^2^)+(0.0512P)^2^+0.1822P] where P=(Fo^2^+2Fc^2^)/3'
_refine_ls_weighting_scheme      calc
_refine_ls_wR_factor_gt          0.0969
_refine_ls_wR_factor_ref         0.1017
_reflns_Friedel_coverage         0.000
_reflns_number_gt                2357
_reflns_number_total             2848
_reflns_threshold_expression     'I > 2\s(I)'
_cod_data_source_file            ol503273v_si_003.cif
_cod_data_source_block           SSS-2-28B
_cod_depositor_comments
'Adding full bibliography for 1518568--1518572.cif.'
_cod_database_code               1518569
#BEGIN Tags that were not found in dictionaries:
_shelx_space_group_comment
;
The symmetry employed for this shelxl refinement is uniquely defined
by the following loop, which should always be used as a source of
symmetry information in preference to the above space-group names.
They are only intended as comments.
;
_shelx_estimated_absorpt_t_min   0.985
_shelx_estimated_absorpt_t_max   0.995
_shelxl_version_number           2014-3
_shelx_res_file
;
TITL zsl in P-1
CELL 0.71073 6.6977 8.9166 11.8671 97.4234 102.0132 108.1635
ZERR 2 0.0007 0.001 0.0013 0.0016 0.0016 0.0015
LATT 1

SFAC C H N O
UNIT 30 38 2 4

L.S. 10
PLAN  -1
SIZE 0.06 0.1 0.18
TEMP -173.15
REM Solution 1 R1 0.121 Rweak 0.007, Alpha = 0.0772 in P-1
REM Formula: C15 N O2
BOND $H
conf
LIST 4
fmap 2
acta
REM <HKL>G:/zsl/Schreiber/SScully1403/work/zsl.hkl</HKL>

WGHT    0.051200    0.182200
FVAR       0.34132
C1    1    0.310005    0.211281    0.496637    11.00000    0.01577    0.01270 =
         0.01522   -0.00033    0.00216    0.00289
C2    1    0.293799    0.155038    0.607814    11.00000    0.01257    0.01438 =
         0.01761    0.00323    0.00444    0.00372
AFIX  43
H2    2    0.179697    0.056919    0.602546    11.00000   -1.20000
AFIX   0
C3    1    0.425927    0.230514    0.714825    11.00000    0.01185    0.01133 =
         0.01855    0.00371    0.00529    0.00515
C4    1    0.818196    0.377385    0.743244    11.00000    0.01007    0.01673 =
         0.02042    0.00323    0.00247    0.00274
C5    1    0.859196    0.362376    0.621302    11.00000    0.01293    0.01761 =
         0.02071    0.00445    0.00582    0.00350
AFIX  23
H5A   2    1.005841    0.355459    0.628458    11.00000   -1.20000
H5B   2    0.859376    0.461698    0.592385    11.00000   -1.20000
AFIX   0
C6    1    0.692913    0.216847    0.529894    11.00000    0.01559    0.01706 =
         0.02029    0.00393    0.00753    0.00683
AFIX  23
H6A   2    0.765063    0.182897    0.471593    11.00000   -1.20000
H6B   2    0.644534    0.126357    0.569813    11.00000   -1.20000
AFIX   0
C7    1    0.383682    0.181655    0.824820    11.00000    0.01070    0.01540 =
         0.01598    0.00382    0.00360    0.00596
C8    1    0.258265    0.023814    0.825063    11.00000    0.01546    0.01457 =
         0.01824    0.00146    0.00376    0.00428
AFIX  43
H8    2    0.202349   -0.055835    0.754078    11.00000   -1.20000
AFIX   0
C9    1    0.215192   -0.016918    0.928446    11.00000    0.01820    0.01615 =
         0.02406    0.00708    0.00712    0.00346
AFIX  43
H9    2    0.130696   -0.124711    0.928015    11.00000   -1.20000
AFIX   0
C10   1    0.294380    0.098359    1.032714    11.00000    0.01811    0.02319 =
         0.01793    0.00813    0.00629    0.00694
AFIX  43
H10   2    0.263423    0.069785    1.103227    11.00000   -1.20000
AFIX   0
C11   1    0.418543    0.254984    1.033418    11.00000    0.01648    0.01985 =
         0.01567    0.00198    0.00268    0.00514
AFIX  43
H11   2    0.472205    0.334438    1.104452    11.00000   -1.20000
AFIX   0
C12   1    0.464846    0.296248    0.930606    11.00000    0.01376    0.01506 =
         0.01788    0.00310    0.00320    0.00372
AFIX  43
H12   2    0.552683    0.403566    0.932079    11.00000   -1.20000
AFIX   0
C13   1    0.859546    0.245350    0.803729    11.00000    0.01469    0.02669 =
         0.02466    0.01024    0.00378    0.00893
AFIX 137
H13A  2    0.761954    0.139562    0.756116    11.00000   -1.50000
H13B  2    0.832121    0.258876    0.881710    11.00000   -1.50000
H13C  2    1.011187    0.252602    0.812303    11.00000   -1.50000
AFIX   0
C14   1    0.957221    0.543669    0.817940    11.00000    0.01696    0.02258 =
         0.02342   -0.00015    0.00188   -0.00125
AFIX 137
H14A  2    1.111610    0.558479    0.827983    11.00000   -1.50000
H14B  2    0.926642    0.553516    0.895269    11.00000   -1.50000
H14C  2    0.923109    0.626296    0.778762    11.00000   -1.50000
AFIX   0
C15   1    0.522507    0.316823    0.364237    11.00000    0.02531    0.03182 =
         0.02117    0.01211    0.00914    0.00856
AFIX 137
H15A  2    0.391932    0.342173    0.333570    11.00000   -1.50000
H15B  2    0.538952    0.239416    0.303469    11.00000   -1.50000
H15C  2    0.650801    0.415871    0.386243    11.00000   -1.50000
AFIX   0
N1    3    0.501452    0.246964    0.467450    11.00000    0.01712    0.01843 =
         0.01598    0.00513    0.00529    0.00584
O1    4    0.145990    0.223684    0.433223    11.00000    0.01627    0.03042 =
         0.01837    0.00612    0.00089    0.00663
O2    4    0.593269    0.374860    0.729736    11.00000    0.01095    0.01205 =
         0.01790    0.00298    0.00338    0.00228
HKLF 4

REM  zsl in P-1
REM R1 =  0.0380 for    2357 Fo > 4sig(Fo)  and  0.0485 for all    2848 data
REM    166 parameters refined using      0 restraints

END

WGHT      0.0512      0.1822

REM Highest difference peak  0.287,  deepest hole -0.215,  1-sigma level  0.043
Q1    1   0.8326  0.3605  0.6828  11.00000  0.05    0.29
;
_shelx_res_checksum              4923
_shelx_hkl_file
;
  -1   0   0  202.72    3.37
  -1   0   0  205.62    3.35
  -1   0   0  205.78    3.35
   1   0   0  206.36    3.37
   1   0   0  206.01    3.33
  -2   0   0    2.88    0.11
  -2   0   0    3.36    0.17
  -2   0   0    2.51    0.19
   2   0   0    2.85    0.13
  -3   0   0   43.47    0.89
  -3   0   0   43.78    0.86
  -3   0   0   44.61    0.76
   3   0   0   43.88    0.80
  -4   0   0    0.75    0.18
  -4   0   0    0.94    0.18
  -4   0   0    0.60    0.08
   4   0   0    0.52    0.11
  -5   0   0    1.14    0.25
  -5   0   0    1.11    0.22
   5   0   0    1.18    0.16
  -6   0   0    1.83    0.33
  -6   0   0    1.29    0.29
  -7   0   0   19.73    0.76
  -7   0   0   20.66    0.72
  -8   1   0    1.53    0.40
  -8   1   0    2.04    0.39
  -7   1   0    0.02    0.27
  -7   1   0    0.20    0.27
   6  -1   0    4.79    0.32
  -6   1   0    4.92    0.40
  -6   1   0    5.02    0.39
   5  -1   0    0.30    0.14
  -5   1   0    0.20    0.15
  -5   1   0    0.33    0.19
   4  -1   0   26.45    0.58
  -4   1   0   26.22    0.66
  -4   1   0   26.86    0.61
   3  -1   0   41.81    0.79
  -3   1   0   41.74    0.84
  -3   1   0   42.53    0.81
   2  -1   0  592.39    9.82
  -2   1   0  606.14    9.95
  -2   1   0  608.14    9.89
   1  -1   0    1.28    0.07
   1  -1   0    0.92    0.11
  -1   1   0    1.19    0.09
  -1   1   0    0.98    0.11
  -1   1   0    1.00    0.07
   0  -1   0    0.81    0.10
   0  -1   0    0.98    0.08
   0  -1   0    1.15    0.07
   0   1   0    1.09    0.06
   0   1   0    1.23    0.10
  -1  -1   0   39.23    0.69
  -1  -1   0   38.45    0.71
  -1  -1   0   38.60    0.70
  -2  -1   0   31.58    0.60
  -2  -1   0   32.11    0.64
  -2  -1   0   31.09    0.65
   2   1   0   31.67    0.54
  -3  -1   0    0.79    0.11
  -3  -1   0    1.10    0.17
  -3  -1   0    0.83    0.15
   3   1   0    0.85    0.09
  -4  -1   0    3.12    0.26
  -4  -1   0    3.39    0.20
  -4  -1   0    3.10    0.30
   4   1   0    3.65    0.17
  -5  -1   0   17.38    0.57
  -5  -1   0   17.29    0.59
  -6  -1   0   -0.02    0.24
  -6  -1   0    0.08    0.27
  -7  -1   0   -0.01    0.30
  -7  -1   0   -0.22    0.32
  -8   2   0   10.39    0.64
  -8   2   0   11.08    0.64
  -7   2   0   18.16    0.74
  -7   2   0   19.96    0.67
   6  -2   0   26.71    0.69
  -6   2   0   27.18    0.78
  -6   2   0   26.33    0.71
   5  -2   0    0.38    0.15
  -5   2   0    0.33    0.17
  -5   2   0    0.03    0.17
   4  -2   0    1.95    0.19
  -4   2   0    2.42    0.21
  -4   2   0    1.94    0.25
   3  -2   0   64.50    1.17
  -3   2   0   64.52    1.20
  -3   2   0   65.29    1.15
   2  -2   0  175.83    2.86
   2  -2   0  179.85    2.92
  -2   2   0  178.00    2.89
  -2   2   0  175.06    2.94
   1  -2   0  969.27   16.12
   1  -2   0 1000.00   16.12
  -1   2   0  986.25   16.25
  -1   2   0  994.73   15.96
   0  -2   0  466.32    7.50
   0  -2   0  452.86    7.70
   0  -2   0  452.75    7.57
   0   2   0  464.92    7.66
  -1  -2   0    0.28    0.10
  -1  -2   0    0.40    0.11
   1   2   0    0.26    0.11
  -2  -2   0    8.90    0.31
  -2  -2   0    8.90    0.28
  -3  -2   0    8.54    0.34
  -3  -2   0    8.67    0.31
  -3  -2   0    9.08    0.34
   3   2   0    8.42    0.17
   3   2   0    8.51    0.21
  -4  -2   0   27.57    0.73
  -4  -2   0   28.63    0.64
  -4  -2   0   28.42    0.71
  -5  -2   0   20.53    0.67
  -5  -2   0   20.97    0.68
  -6  -2   0    0.80    0.28
  -6  -2   0    0.83    0.30
  -7  -2   0    5.67    0.62
  -7  -2   0    4.72    0.55
  -8   3   0    0.53    0.34
  -8   3   0    0.18    0.31
   7  -3   0    0.47    0.25
  -7   3   0    0.40    0.27
  -7   3   0    0.35    0.25
   6  -3   0    2.40    0.27
  -6   3   0    2.92    0.34
  -6   3   0    2.37    0.30
   5  -3   0   17.59    0.50
  -5   3   0   17.75    0.49
  -5   3   0   16.63    0.54
   4  -3   0  147.06    2.55
  -4   3   0  146.13    2.50
  -4   3   0  150.28    2.60
   3  -3   0  328.44    5.37
   3  -3   0  325.29    5.35
  -3   3   0  328.46    5.29
  -3   3   0  322.85    5.37
   2  -3   0   46.28    0.87
   2  -3   0   45.52    0.83
  -2   3   0   46.42    0.89
  -2   3   0   46.25    0.82
   1  -3   0   52.88    0.96
   1  -3   0   52.88    0.94
  -1   3   0   53.30    0.97
  -1   3   0   53.00    0.92
   0  -3   0    4.91    0.16
   0  -3   0    4.82    0.20
   0  -3   0    5.48    0.23
   0   3   0    4.73    0.22
  -1  -3   0    2.87    0.21
  -1  -3   0    3.61    0.21
  -1  -3   0    3.19    0.10
   1   3   0    3.20    0.21
  -2  -3   0    0.29    0.14
  -2  -3   0    0.25    0.14
   2   3   0    0.24    0.16
  -3  -3   0    1.18    0.19
  -3  -3   0    1.67    0.23
   3   3   0    1.02    0.20
  -4  -3   0   20.91    0.63
  -4  -3   0   21.27    0.58
   4   3   0   21.23    0.67
  -5  -3   0    2.19    0.31
   5   3   0    2.24    0.36
  -6  -3   0   -0.21    0.31
   6   3   0   -0.44    0.30
   8  -4   0    0.37    0.30
  -8   4   0   -0.13    0.31
   7  -4   0   -0.24    0.24
  -7   4   0   -0.11    0.23
  -7   4   0    0.23    0.26
   6  -4   0    1.42    0.26
  -6   4   0    1.65    0.23
  -6   4   0    1.33    0.27
   5  -4   0    0.24    0.16
  -5   4   0    0.25    0.14
  -5   4   0    0.39    0.18
   4  -4   0   10.77    0.27
   4  -4   0   11.75    0.40
  -4   4   0   11.35    0.34
  -4   4   0   11.77    0.43
   3  -4   0   66.46    1.17
  -3   4   0   65.30    1.26
  -3   4   0   65.91    1.16
   2  -4   0    3.47    0.23
   2  -4   0    3.58    0.19
  -2   4   0    3.76    0.23
  -2   4   0    3.84    0.18
   1  -4   0   16.90    0.40
   1  -4   0   16.96    0.44
  -1   4   0   16.64    0.44
   0  -4   0   42.78    0.86
   0  -4   0   42.40    0.76
   0  -4   0   42.31    0.82
   0   4   0   42.21    0.86
  -1  -4   0    1.00    0.17
  -1  -4   0    1.12    0.10
  -1  -4   0    1.00    0.14
   1   4   0    1.52    0.21
  -2  -4   0    4.82    0.30
  -2  -4   0    4.92    0.28
   2   4   0    4.92    0.30
  -3  -4   0    0.04    0.18
  -3  -4   0    0.08    0.19
   3   4   0    0.13    0.21
  -4  -4   0    4.34    0.38
  -4  -4   0    4.61    0.38
   4   4   0    4.65    0.40
  -5  -4   0    3.31    0.40
   5   4   0    3.85    0.52
  -6  -4   0    1.92    0.42
   6   4   0    1.10    0.44
   8  -5   0    1.87    0.36
  -8   5   0    1.96    0.39
   7  -5   0    3.57    0.38
  -7   5   0    3.28    0.42
   6  -5   0    0.10    0.23
  -6   5   0    0.10    0.19
  -6   5   0    0.04    0.24
   5  -5   0   25.73    0.69
  -5   5   0   25.44    0.72
  -5   5   0   25.95    0.61
   4  -5   0   66.40    1.31
   4  -5   0   67.90    1.21
  -4   5   0   67.07    1.22
   3  -5   0   31.89    0.68
  -3   5   0   32.94    0.64
  -3   5   0   31.35    0.74
   2  -5   0   35.88    0.75
   2  -5   0   36.89    0.76
  -2   5   0   36.08    0.79
  -2   5   0   36.42    0.70
   1  -5   0   14.12    0.43
   1  -5   0   14.77    0.38
  -1   5   0   13.98    0.43
   0  -5   0   71.01    1.31
   0  -5   0   71.78    1.24
   0  -5   0   69.72    1.36
   0   5   0   71.95    1.37
  -1  -5   0    5.63    0.31
  -1  -5   0    6.52    0.19
  -1  -5   0    6.69    0.34
  -2  -5   0   16.81    0.56
  -2  -5   0   17.85    0.53
   2   5   0   17.49    0.57
  -3  -5   0    8.92    0.46
  -3  -5   0    8.94    0.46
   3   5   0    9.17    0.47
  -4  -5   0    0.20    0.25
  -4  -5   0    0.09    0.24
   4   5   0    0.38    0.31
  -5  -5   0    0.26    0.34
   5   5   0    0.35    0.34
   8  -6   0    0.02    0.33
  -8   6   0   -0.18    0.31
   7  -6   0   16.85    0.64
  -7   6   0   16.50    0.69
   6  -6   0    1.59    0.27
  -6   6   0    2.08    0.32
   5  -6   0    0.08    0.21
  -5   6   0   -0.05    0.22
  -5   6   0    0.24    0.16
   4  -6   0    7.07    0.35
   4  -6   0    7.90    0.32
  -4   6   0    7.53    0.38
  -4   6   0    7.97    0.30
   3  -6   0    1.76    0.21
   3  -6   0    1.24    0.18
  -3   6   0    1.38    0.22
  -3   6   0    1.65    0.19
   2  -6   0    7.29    0.31
   2  -6   0    6.53    0.33
  -2   6   0    6.05    0.33
  -2   6   0    6.92    0.27
   1  -6   0    1.52    0.17
   1  -6   0    1.45    0.20
   1  -6   0    1.34    0.16
  -1   6   0    1.86    0.25
   0  -6   0    5.17    0.36
   0  -6   0    4.89    0.23
   0  -6   0    4.75    0.28
   0   6   0    5.20    0.36
  -1  -6   0    6.20    0.40
  -1  -6   0    6.38    0.36
   1   6   0    6.80    0.41
  -2  -6   0    3.88    0.36
  -2  -6   0    3.78    0.36
   2   6   0    3.29    0.36
  -3  -6   0    4.34    0.39
  -3  -6   0    4.66    0.45
   3   6   0    4.04    0.48
  -4  -6   0   -0.14    0.30
  -4  -6   0    0.05    0.27
   4   6   0   -0.06    0.30
  -5  -6   0    1.81    0.43
   5   6   0    1.20    0.45
   7  -7   0   12.39    0.64
  -7   7   0   13.95    0.65
   6  -7   0    0.40    0.28
  -6   7   0    0.33    0.25
   5  -7   0    1.62    0.26
  -5   7   0    1.81    0.28
   4  -7   0   27.01    0.73
   4  -7   0   29.14    0.70
  -4   7   0   28.55    0.64
  -4   7   0   28.76    0.80
   3  -7   0    1.22    0.20
   3  -7   0    1.22    0.21
  -3   7   0    1.24    0.17
  -3   7   0    1.53    0.26
   2  -7   0    2.35    0.26
   2  -7   0    1.73    0.23
  -2   7   0    2.48    0.30
  -2   7   0    2.30    0.22
   1  -7   0    5.20    0.29
   1  -7   0    5.06    0.35
  -1   7   0    4.41    0.38
   0  -7   0   14.17    0.39
   0  -7   0   14.78    0.48
   0  -7   0   13.54    0.55
   0   7   0   14.07    0.56
  -1  -7   0    3.11    0.41
  -1  -7   0    3.42    0.35
   1   7   0    3.93    0.42
  -2  -7   0    0.14    0.28
  -2  -7   0    0.33    0.26
   2   7   0    0.27    0.31
  -3  -7   0    0.24    0.31
  -3  -7   0   -0.08    0.29
   3   7   0    0.24    0.31
  -4  -7   0    6.09    0.55
  -4  -7   0    5.26    0.57
   4   7   0    6.01    0.58
   7  -8   0    2.55    0.38
  -7   8   0    2.41    0.39
   6  -8   0    4.68    0.44
  -6   8   0    4.15    0.45
   5  -8   0    5.32    0.46
  -5   8   0    5.09    0.48
   4  -8   0    1.60    0.28
   4  -8   0    0.85    0.23
  -4   8   0    0.90    0.30
   3  -8   0   16.80    0.59
   3  -8   0   16.55    0.54
  -3   8   0   17.34    0.49
  -3   8   0   16.80    0.63
   2  -8   0    4.20    0.33
   2  -8   0    5.00    0.42
  -2   8   0    4.36    0.38
  -2   8   0    4.75    0.31
   1  -8   0    0.05    0.17
   1  -8   0    0.29    0.24
  -1   8   0    0.14    0.23
  -1   8   0    0.14    0.19
   0  -8   0   17.56    0.68
   0  -8   0   17.41    0.57
   0   8   0   16.41    0.64
  -1  -8   0   -0.41    0.28
  -1  -8   0   -0.17    0.23
   1   8   0    0.05    0.27
  -2  -8   0    0.26    0.28
  -2  -8   0   -0.09    0.28
   2   8   0   -0.07    0.34
  -3  -8   0    3.95    0.48
  -3  -8   0    3.28    0.47
   3   8   0    3.62    0.48
   7  -9   0    0.26    0.32
  -7   9   0    0.67    0.36
   6  -9   0    0.27    0.29
  -6   9   0    1.08    0.37
   5  -9   0   -0.05    0.28
  -5   9   0    0.12    0.27
   4  -9   0    7.84    0.47
   4  -9   0    7.45    0.49
  -4   9   0    7.58    0.55
   3  -9   0    0.30    0.27
   3  -9   0    0.17    0.24
  -3   9   0    1.00    0.32
   2  -9   0    2.95    0.37
   2  -9   0    3.58    0.46
  -2   9   0    3.55    0.34
  -2   9   0    4.22    0.47
   1  -9   0    1.16    0.31
  -1   9   0    0.35    0.28
  -1   9   0    1.00    0.25
   0  -9   0    3.82    0.46
   0  -9   0    3.92    0.41
   0   9   0    3.52    0.45
  -1  -9   0    6.62    0.52
  -1  -9   0    5.88    0.59
   1   9   0    7.68    0.56
  -2  -9   0    0.06    0.33
  -2  -9   0    0.21    0.34
   2   9   0    0.37    0.36
   6 -10   0    0.44    0.35
  -6  10   0    0.17    0.37
   5 -10   0    0.78    0.35
  -5  10   0    0.50    0.35
   4 -10   0    0.79    0.33
   4 -10   0    1.04    0.33
  -4  10   0    0.59    0.31
   3 -10   0    3.56    0.44
   3 -10   0    4.84    0.51
  -3  10   0    4.56    0.48
   2 -10   0    0.43    0.34
  -2  10   0    0.56    0.31
   1 -10   0    0.08    0.31
  -1  10   0    0.25    0.37
   0 -10   0    0.47    0.30
   0 -10   0    0.14    0.33
   0  10   0   -0.04    0.38
  -1 -10   0    4.56    0.54
  -1 -10   0    3.98    0.51
   1  10   0    5.49    0.60
   4 -11   0   -0.27    0.32
   4 -11   0    0.32    0.39
  -4  11   0    0.13    0.34
   3 -11   0   -0.07    0.36
  -3  11   0   -0.22    0.37
   2 -11   0    0.95    0.42
  -2  11   0    0.32    0.40
   1 -11   0    0.02    0.41
  -1  11   0   -0.32    0.40
  -1  11  -1    0.33    0.40
   1 -11   1    0.56    0.43
  -2  11  -1    0.76    0.40
   2 -11   1    1.18    0.39
  -3  11  -1    0.17    0.35
   3 -11   1   -0.25    0.36
   3 -11   1   -0.10    0.31
  -4  11  -1    2.89    0.48
   4 -11   1    3.45    0.44
   4 -11   1    3.41    0.43
   1  10  -1    0.39    0.42
  -1 -10   1    0.33    0.32
  -1 -10   1    0.55    0.42
   0  10  -1    8.59    0.66
   0 -10   1    8.83    0.67
  -1  10  -1    4.36    0.55
   1 -10   1    4.97    0.51
  -2  10  -1    0.37    0.31
   2 -10   1    0.40    0.30
  -3  10  -1    5.51    0.50
   3 -10   1    5.05    0.46
   3 -10   1    5.02    0.52
  -4  10  -1    0.71    0.31
   4 -10   1    0.10    0.30
   4 -10   1    0.18    0.30
  -5  10  -1    0.41    0.32
   5 -10   1    0.89    0.36
  -6  10  -1    1.81    0.44
   6 -10   1    1.89    0.38
   2   9  -1    0.21    0.36
  -2  -9   1    0.57    0.33
  -2  -9   1    0.75    0.37
   1   9  -1    2.40    0.42
  -1  -9   1    1.86    0.37
  -1  -9   1    1.84    0.33
   0   9  -1   13.76    0.67
   0  -9   1   14.62    0.65
   0  -9   1   15.60    0.58
  -1   9  -1    0.76    0.32
  -1   9  -1    1.11    0.24
   1  -9   1    1.00    0.29
  -2   9  -1    0.12    0.25
   2  -9   1    0.15    0.21
   2  -9   1   -0.25    0.23
  -3   9  -1   10.67    0.54
   3  -9   1    9.98    0.54
   3  -9   1   11.15    0.51
  -4   9  -1    0.55    0.29
   4  -9   1    0.69    0.27
   4  -9   1    1.14    0.30
  -5   9  -1    1.78    0.35
   5  -9   1    2.01    0.35
  -6   9  -1   -0.02    0.32
   6  -9   1    0.14    0.29
  -7   9  -1   15.82    0.76
   7  -9   1   17.07    0.79
   3   8  -1    0.32    0.39
  -3  -8   1   -0.12    0.27
  -3  -8   1    0.14    0.36
   2   8  -1    1.90    0.39
  -2  -8   1    2.23    0.33
  -2  -8   1    1.43    0.33
   1   8  -1    9.78    0.52
  -1  -8   1    9.31    0.47
  -1  -8   1    8.22    0.51
   0   8  -1    3.80    0.44
   0  -8   1    2.94    0.39
   0  -8   1    3.62    0.33
  -1   8  -1   11.58    0.51
   1  -8   1   11.57    0.55
   1  -8   1   11.59    0.41
  -2   8  -1    0.64    0.17
  -2   8  -1    0.51    0.24
   2  -8   1    0.53    0.22
   2  -8   1    0.65    0.20
  -3   8  -1    0.25    0.24
   3  -8   1    0.38    0.22
   3  -8   1    0.41    0.22
  -4   8  -1    0.89    0.29
   4  -8   1    0.25    0.24
   4  -8   1    0.75    0.23
  -5   8  -1   13.10    0.58
   5  -8   1   13.09    0.55
  -6   8  -1    0.97    0.30
   6  -8   1    1.19    0.34
  -7   8  -1    0.27    0.33
   7  -8   1    0.71    0.36
   4   7  -1    0.08    0.34
  -4  -7   1   -0.10    0.32
  -4  -7   1    0.11    0.34
   3   7  -1   10.68    0.59
  -3  -7   1   10.83    0.61
  -3  -7   1   10.48    0.57
   2   7  -1    0.44    0.27
  -2  -7   1    0.80    0.27
  -2  -7   1    0.58    0.25
   1   7  -1    1.93    0.29
  -1  -7   1    2.06    0.25
  -1  -7   1    2.43    0.32
   0   7  -1   61.26    1.30
   0  -7   1   60.59    1.13
   0  -7   1   61.04    1.31
   0  -7   1   62.40    1.21
  -1   7  -1   11.16    0.48
   1  -7   1   11.08    0.37
   1  -7   1   10.43    0.45
   1  -7   1   10.68    0.37
  -2   7  -1   12.96    0.38
  -2   7  -1   12.83    0.48
   2  -7   1   13.16    0.50
   2  -7   1   14.05    0.45
  -3   7  -1    8.38    0.30
  -3   7  -1    7.93    0.44
   3  -7   1    9.29    0.41
   3  -7   1    8.67    0.39
  -4   7  -1   11.33    0.49
   4  -7   1   13.28    0.45
   4  -7   1   11.25    0.49
  -5   7  -1    0.17    0.23
   5  -7   1    0.02    0.20
  -6   7  -1    1.11    0.33
   6  -7   1    0.45    0.29
  -7   7  -1    3.37    0.43
   7  -7   1    4.62    0.52
   5   6  -1    0.60    0.37
  -5  -6   1    0.56    0.37
   4   6  -1    0.78    0.32
  -4  -6   1    0.29    0.30
  -4  -6   1    0.65    0.30
   3   6  -1   -0.42    0.26
  -3  -6   1    0.06    0.23
  -3  -6   1   -0.07    0.23
   2   6  -1    0.07    0.24
  -2  -6   1    0.13    0.21
  -2  -6   1   -0.15    0.20
   1   6  -1    1.31    0.25
  -1  -6   1    1.13    0.20
  -1  -6   1    1.05    0.22
   0   6  -1   36.16    0.85
   0  -6   1   34.68    0.84
   0  -6   1   37.00    0.77
   0  -6   1   36.41    0.71
  -1   6  -1   11.11    0.43
   1  -6   1   10.79    0.41
   1  -6   1   10.48    0.35
   1  -6   1   10.60    0.33
  -2   6  -1    0.48    0.11
  -2   6  -1    0.46    0.17
   2  -6   1    0.64    0.16
   2  -6   1    0.35    0.15
  -3   6  -1   25.16    0.52
  -3   6  -1   25.38    0.67
   3  -6   1   24.68    0.61
   3  -6   1   24.52    0.64
  -4   6  -1   17.72    0.43
  -4   6  -1   17.69    0.59
   4  -6   1   18.83    0.57
   4  -6   1   18.79    0.48
  -5   6  -1   13.36    0.52
   5  -6   1   12.83    0.50
  -6   6  -1    5.49    0.48
   6  -6   1    5.83    0.45
  -7   6  -1   31.05    0.95
   7  -6   1   32.19    0.93
  -8   6  -1    8.45    0.66
   8  -6   1    7.43    0.55
   5   5  -1    0.42    0.33
  -5  -5   1    0.82    0.30
   4   5  -1   12.76    0.57
  -4  -5   1   11.28    0.53
  -4  -5   1   13.09    0.58
   3   5  -1    2.83    0.38
  -3  -5   1    2.78    0.35
  -3  -5   1    2.84    0.34
   2   5  -1   30.73    0.78
  -2  -5   1   29.24    0.74
  -2  -5   1   29.83    0.73
   1   5  -1    5.29    0.30
  -1  -5   1    4.85    0.28
  -1  -5   1    5.22    0.17
  -1  -5   1    5.16    0.31
   0   5  -1    1.72    0.21
   0  -5   1    1.63    0.18
   0  -5   1    1.62    0.21
   0  -5   1    1.68    0.16
  -1   5  -1    1.19    0.19
   1  -5   1    1.03    0.12
   1  -5   1    1.26    0.17
   1  -5   1    1.28    0.15
  -2   5  -1   22.99    0.46
  -2   5  -1   22.18    0.58
   2  -5   1   22.44    0.54
   2  -5   1   21.87    0.54
  -3   5  -1   13.82    0.45
  -3   5  -1   14.22    0.34
   3  -5   1   13.56    0.43
   3  -5   1   14.15    0.39
  -4   5  -1   18.15    0.56
  -4   5  -1   19.52    0.45
   4  -5   1   18.65    0.55
   4  -5   1   19.20    0.44
  -5   5  -1   97.71    1.92
  -5   5  -1  100.51    1.76
   5  -5   1   99.67    1.88
  -6   5  -1    0.00    0.22
   6  -5   1    0.40    0.25
  -7   5  -1   25.75    0.86
   7  -5   1   23.64    0.77
  -8   5  -1    2.39    0.44
   8  -5   1    2.42    0.40
   6   4  -1    0.01    0.39
  -6  -4   1    0.18    0.32
   5   4  -1    2.33    0.39
  -5  -4   1    2.67    0.36
   4   4  -1    6.06    0.41
  -4  -4   1    5.77    0.39
  -4  -4   1    6.14    0.38
   3   4  -1    0.65    0.20
  -3  -4   1    0.88    0.21
  -3  -4   1    0.64    0.20
   2   4  -1    7.37    0.33
  -2  -4   1    7.68    0.33
  -2  -4   1    7.31    0.32
   1   4  -1  110.43    1.95
  -1  -4   1  111.09    1.92
  -1  -4   1  109.63    1.80
  -1  -4   1  109.30    1.96
   0   4  -1    3.95    0.23
   0  -4   1    4.19    0.19
   0  -4   1    3.88    0.24
   0  -4   1    4.27    0.18
  -1   4  -1   18.01    0.45
   1  -4   1   18.74    0.46
   1  -4   1   18.41    0.42
  -2   4  -1   37.52    0.77
  -2   4  -1   36.80    0.66
   2  -4   1   35.27    0.72
   2  -4   1   36.77    0.74
  -3   4  -1    2.73    0.16
  -3   4  -1    2.66    0.26
   3  -4   1    2.93    0.17
   3  -4   1    2.71    0.21
  -4   4  -1   48.73    0.92
  -4   4  -1   48.85    1.05
   4  -4   1   49.14    0.87
   4  -4   1   50.64    1.02
  -5   4  -1   55.90    1.22
  -5   4  -1   54.83    1.08
   5  -4   1   57.46    1.16
  -6   4  -1   32.63    0.76
  -6   4  -1   33.27    0.89
   6  -4   1   32.45    0.83
  -7   4  -1    0.76    0.32
  -7   4  -1    0.87    0.28
   7  -4   1    0.73    0.28
  -8   4  -1    0.33    0.34
   8  -4   1    0.36    0.31
   6   3  -1    0.92    0.37
  -6  -3   1    0.80    0.34
   5   3  -1    4.39    0.46
  -5  -3   1    4.82    0.40
   4   3  -1    1.36    0.24
  -4  -3   1    1.93    0.25
  -4  -3   1    1.83    0.25
   3   3  -1   40.93    0.91
  -3  -3   1   40.47    0.90
  -3  -3   1   43.31    0.87
   2   3  -1  112.37    2.00
  -2  -3   1  113.50    1.99
  -2  -3   1  114.21    1.98
   1   3  -1    1.80    0.18
  -1  -3   1    1.74    0.18
  -1  -3   1    1.83    0.09
  -1  -3   1    2.05    0.19
   0   3  -1   44.15    0.84
   0  -3   1   44.76    0.85
   0  -3   1   45.57    0.78
   0  -3   1   43.84    0.80
  -1   3  -1    8.29    0.27
  -1   3  -1    8.49    0.20
   1  -3   1    8.30    0.26
   1  -3   1    8.62    0.27
  -2   3  -1   31.10    0.56
  -2   3  -1   30.57    0.65
   2  -3   1   30.72    0.63
   2  -3   1   31.28    0.59
  -3   3  -1    7.57    0.31
  -3   3  -1    7.15    0.23
   3  -3   1    7.31    0.29
   3  -3   1    7.62    0.20
  -4   3  -1   51.70    1.09
  -4   3  -1   52.83    0.99
   4  -3   1   53.26    0.86
   4  -3   1   53.12    1.05
   4  -3   1   53.81    0.86
  -5   3  -1    6.95    0.33
  -5   3  -1    6.77    0.37
   5  -3   1    7.18    0.33
  -6   3  -1    4.00    0.35
  -6   3  -1    4.60    0.42
   6  -3   1    3.92    0.35
  -7   3  -1    4.97    0.45
  -7   3  -1    4.73    0.46
   7  -3   1    4.58    0.44
  -8   3  -1    3.59    0.50
  -7  -2   1    8.86    0.65
  -7  -2   1    8.26    0.59
  -6  -2   1    6.73    0.48
  -6  -2   1    6.20    0.46
  -5  -2   1    0.63    0.25
  -5  -2   1    0.19    0.21
  -4  -2   1    0.15    0.17
  -4  -2   1    0.18    0.13
  -4  -2   1    0.14    0.18
   3   2  -1    6.10    0.14
  -3  -2   1    5.66    0.28
  -3  -2   1    6.07    0.29
  -3  -2   1    5.75    0.26
  -2  -2   1   90.31    1.63
  -2  -2   1   95.55    1.62
   1   2  -1    0.50    0.12
  -1  -2   1    0.55    0.12
  -1  -2   1    0.60    0.06
  -1  -2   1    0.48    0.11
  -1  -2   1    0.62    0.06
   0   2  -1  303.39    5.07
   0  -2   1  301.14    4.95
   0  -2   1  300.59    4.88
   0  -2   1  295.84    4.94
  -1   2  -1   18.03    0.32
  -1   2  -1   17.87    0.39
   1  -2   1   17.62    0.38
   1  -2   1   18.55    0.37
   1  -2   1   17.97    0.32
  -2   2  -1   20.97    0.40
  -2   2  -1   20.19    0.46
   2  -2   1   21.55    0.46
   2  -2   1   21.17    0.39
  -3   2  -1  176.86    2.90
  -3   2  -1  175.14    2.98
   3  -2   1  173.16    2.93
   3  -2   1  176.42    2.81
   3  -2   1  174.51    2.81
  -4   2  -1    6.12    0.31
  -4   2  -1    6.71    0.27
   4  -2   1    6.18    0.28
  -5   2  -1   16.43    0.57
  -5   2  -1   17.96    0.51
   5  -2   1   17.48    0.49
  -6   2  -1   11.72    0.56
  -6   2  -1   12.66    0.49
   6  -2   1   11.86    0.46
  -7   2  -1    1.19    0.32
  -7   2  -1    1.91    0.32
  -8   2  -1    0.00    0.37
  -8   2  -1    0.53    0.35
  -7  -1   1    4.83    0.49
  -7  -1   1    4.60    0.53
  -6  -1   1    1.80    0.28
  -6  -1   1    1.61    0.32
  -5  -1   1   35.88    0.89
  -5  -1   1   35.02    0.87
   4   1  -1   57.17    1.00
  -4  -1   1   56.15    1.15
  -4  -1   1   56.98    1.02
  -4  -1   1   56.26    1.14
   3   1  -1   42.01    0.74
  -3  -1   1   42.76    0.78
  -3  -1   1   42.22    0.85
  -3  -1   1   42.05    0.86
   2   1  -1   23.68    0.42
  -2  -1   1   24.52    0.51
  -2  -1   1   23.43    0.47
  -2  -1   1   23.52    0.51
   1   1  -1   94.27    1.51
  -1  -1   1   93.68    1.56
  -1  -1   1   93.28    1.56
  -1  -1   1   93.68    1.51
  -1  -1   1   93.21    1.56
   0   1  -1   92.41    1.50
   0   1  -1   92.08    1.52
   0   1  -1   92.65    1.50
   0  -1   1   91.40    1.53
   0  -1   1   92.02    1.52
  -1   1  -1  226.10    3.86
  -1   1  -1  229.24    3.73
   1  -1   1  227.94    3.76
   1  -1   1  231.49    3.73
   1  -1   1  224.26    3.68
  -2   1  -1   92.09    1.58
  -2   1  -1   91.64    1.54
   2  -1   1   90.28    1.55
   2  -1   1   91.49    1.49
  -3   1  -1    7.75    0.26
   3  -1   1    7.26    0.25
   3  -1   1    7.06    0.16
  -4   1  -1    2.90    0.21
  -4   1  -1    2.95    0.25
   4  -1   1    2.42    0.20
   4  -1   1    2.93    0.08
  -5   1  -1    5.66    0.39
  -5   1  -1    5.48    0.34
   5  -1   1    5.41    0.29
  -6   1  -1    4.63    0.39
  -6   1  -1    5.10    0.41
   6  -1   1    4.60    0.32
  -7   1  -1    9.01    0.55
  -7   1  -1    9.56    0.61
  -7   0   1    0.21    0.30
  -7   0   1    0.31    0.28
  -6   0   1   15.02    0.58
  -6   0   1   16.89    0.64
   5   0  -1    0.97    0.15
  -5   0   1    0.98    0.23
  -5   0   1    1.65    0.24
   4   0  -1    0.07    0.10
  -4   0   1    0.12    0.07
  -4   0   1    0.03    0.14
  -4   0   1    0.02    0.15
   3   0  -1   45.28    0.82
  -3   0   1   45.64    0.88
  -3   0   1   45.51    0.90
  -3   0   1   46.36    0.79
   2   0  -1  141.34    2.30
  -2   0   1  141.78    2.35
  -2   0   1  141.08    2.28
  -2   0   1  138.55    2.34
   1   0  -1   28.89    0.50
  -1   0   1   28.70    0.51
  -1   0   1   28.84    0.52
   0   0  -1   34.95    0.58
   0   0  -1   34.83    0.57
   0   0  -1   35.20    0.58
   0   0   1   34.36    0.58
   0   0   1   34.46    0.57
  -1   0  -1    6.65    0.20
  -1   0  -1    7.38    0.19
  -1   0  -1    6.95    0.17
   1   0   1    7.16    0.17
  -2   0  -1   71.50    1.28
  -2   0  -1   71.40    1.20
  -2   0  -1   71.81    1.25
   2   0   1   71.24    1.21
  -3   0  -1    7.12    0.20
  -3   0  -1    7.39    0.27
  -3   0  -1    6.92    0.31
   3   0   1    6.40    0.22
  -4   0  -1    5.23    0.33
  -4   0  -1    5.19    0.19
  -4   0  -1    5.13    0.30
   4   0   1    5.40    0.23
  -5   0  -1   70.56    1.46
  -5   0  -1   71.20    1.41
   5   0   1   70.81    1.29
  -6   0  -1   24.24    0.74
  -6   0  -1   23.24    0.76
  -7   0  -1    5.53    0.51
  -7   0  -1    5.93    0.52
  -8   1   1    4.22    0.58
  -8   1   1    4.45    0.56
  -7   1   1    9.76    0.54
  -7   1   1    9.27    0.53
   6  -1  -1   12.40    0.43
  -6   1   1   13.48    0.57
  -6   1   1   12.94    0.49
   5  -1  -1   41.89    0.85
  -5   1   1   41.50    0.92
  -5   1   1   42.28    0.95
   4  -1  -1   11.76    0.34
  -4   1   1   10.86    0.37
  -4   1   1   11.92    0.41
   3  -1  -1    0.01    0.09
  -3   1   1    0.06    0.11
  -3   1   1    0.05    0.12
  -3   1   1    0.08    0.03
  -3   1   1    0.25    0.03
   2  -1  -1  303.84    5.03
  -2   1   1  312.14    5.04
  -2   1   1  302.96    4.98
  -2   1   1  308.25    4.99
   1  -1  -1  193.54    3.23
   1  -1  -1  198.38    3.32
  -1   1   1  194.63    3.17
  -1   1   1  198.43    3.26
   0  -1  -1  326.47    5.29
   0  -1  -1  318.15    5.34
   0  -1  -1  325.25    5.37
   0   1   1  323.53    5.32
  -1  -1  -1   50.99    0.92
  -1  -1  -1   52.80    0.87
  -1  -1  -1   52.54    0.94
  -1  -1  -1   52.54    0.91
  -2  -1  -1    1.22    0.17
  -2  -1  -1    1.33    0.17
  -2  -1  -1    1.63    0.14
   2   1   1    1.87    0.11
  -3  -1  -1    4.27    0.28
  -3  -1  -1    4.43    0.21
  -3  -1  -1    4.26    0.26
   3   1   1    4.32    0.17
  -4  -1  -1    9.62    0.42
  -4  -1  -1    9.43    0.30
  -4  -1  -1    8.96    0.39
   4   1   1    9.09    0.26
  -5  -1  -1    3.73    0.35
  -5  -1  -1    3.32    0.37
  -6  -1  -1   -0.12    0.27
  -6  -1  -1    0.17    0.26
  -7  -1  -1    1.39    0.37
  -7  -1  -1    1.78    0.39
  -8   2   1    0.14    0.31
  -8   2   1   -0.05    0.30
   7  -2  -1    1.69    0.26
  -7   2   1    1.45    0.31
  -7   2   1    1.83    0.31
   6  -2  -1   23.41    0.62
  -6   2   1   22.98    0.65
  -6   2   1   24.18    0.71
   5  -2  -1   16.14    0.47
  -5   2   1   15.92    0.48
  -5   2   1   15.34    0.52
   4  -2  -1   96.11    1.72
  -4   2   1   98.51    1.77
  -4   2   1   96.87    1.72
   3  -2  -1   42.68    0.83
   3  -2  -1   42.76    0.72
  -3   2   1   42.26    0.85
  -3   2   1   43.56    0.82
   2  -2  -1  298.47    4.92
   2  -2  -1  295.21    4.89
  -2   2   1  293.53    4.82
  -2   2   1  297.59    4.87
   1  -2  -1   73.90    1.24
   1  -2  -1   73.06    1.25
  -1   2   1   73.04    1.23
  -1   2   1   72.06    1.25
   0  -2  -1  165.44    2.73
   0  -2  -1  163.11    2.74
   0  -2  -1  169.97    2.74
   0   2   1  165.20    2.74
  -1  -2  -1   32.66    0.65
  -1  -2  -1   31.55    0.65
  -1  -2  -1   32.84    0.55
   1   2   1   32.46    0.67
  -2  -2  -1   22.09    0.51
  -2  -2  -1   21.79    0.53
   2   2   1   23.05    0.40
  -3  -2  -1    1.83    0.26
  -3  -2  -1    2.03    0.22
  -3  -2  -1    1.81    0.21
   3   2   1    1.92    0.10
  -4  -2  -1   10.44    0.47
  -4  -2  -1    9.97    0.45
  -4  -2  -1   10.04    0.36
  -5  -2  -1   59.12    1.33
  -5  -2  -1   57.99    1.29
  -6  -2  -1   -0.02    0.27
  -6  -2  -1    0.04    0.28
  -7  -2  -1    0.83    0.39
  -7  -2  -1    1.17    0.42
  -8   3   1    7.24    0.62
  -8   3   1    6.77    0.57
   7  -3  -1    0.55    0.25
  -7   3   1    0.30    0.24
  -7   3   1    0.47    0.27
   6  -3  -1    0.14    0.19
  -6   3   1    0.19    0.21
  -6   3   1    0.17    0.19
   5  -3  -1   47.71    0.99
  -5   3   1   47.81    1.05
  -5   3   1   46.90    0.97
   4  -3  -1    6.38    0.16
  -4   3   1    6.55    0.32
  -4   3   1    6.56    0.28
   3  -3  -1    1.48    0.13
   3  -3  -1    1.85    0.20
  -3   3   1    1.58    0.18
  -3   3   1    1.56    0.21
   2  -3  -1   55.12    0.98
   2  -3  -1   53.87    1.00
  -2   3   1   54.18    1.01
  -2   3   1   54.74    0.97
   1  -3  -1    3.01    0.17
   1  -3  -1    2.69    0.19
  -1   3   1    3.21    0.17
  -1   3   1    2.94    0.19
   0  -3  -1   42.37    0.83
   0  -3  -1   42.68    0.80
   0  -3  -1   42.17    0.75
   0   3   1   42.89    0.83
  -1  -3  -1   95.28    1.55
  -1  -3  -1   94.74    1.67
  -1  -3  -1   94.96    1.68
   1   3   1   94.26    1.69
  -2  -3  -1   45.00    0.93
  -2  -3  -1   45.13    0.92
   2   3   1   46.44    0.96
  -3  -3  -1    9.49    0.37
  -3  -3  -1    9.67    0.39
   3   3   1    9.65    0.41
  -4  -3  -1    2.01    0.29
  -4  -3  -1    1.78    0.24
   4   3   1    2.40    0.33
  -5  -3  -1   13.16    0.60
   5   3   1   10.56    0.61
  -6  -3  -1    1.12    0.33
   6   3   1    0.51    0.35
   8  -4  -1    0.20    0.30
  -8   4   1    0.22    0.35
  -8   4   1   -0.02    0.29
   7  -4  -1    7.32    0.46
  -7   4   1    7.09    0.46
  -7   4   1    6.50    0.51
   6  -4  -1   63.13    1.30
  -6   4   1   61.47    1.35
  -6   4   1   63.21    1.26
   5  -4  -1    3.81    0.31
  -5   4   1    3.65    0.27
  -5   4   1    4.01    0.35
   4  -4  -1   17.64    0.50
   4  -4  -1   17.88    0.39
  -4   4   1   17.48    0.45
  -4   4   1   17.15    0.52
   3  -4  -1    3.05    0.18
  -3   4   1    2.82    0.20
  -3   4   1    2.85    0.25
   2  -4  -1    7.31    0.26
   2  -4  -1    8.30    0.29
  -2   4   1    7.79    0.25
  -2   4   1    7.04    0.29
   1  -4  -1   43.21    0.81
   1  -4  -1   42.53    0.86
  -1   4   1   43.00    0.86
  -1   4   1   42.37    0.81
   0  -4  -1    1.80    0.17
   0  -4  -1    1.82    0.19
   0  -4  -1    1.74    0.14
   0   4   1    1.79    0.23
  -1  -4  -1   46.64    0.92
  -1  -4  -1   44.92    0.77
  -1  -4  -1   43.96    0.93
   1   4   1   43.43    0.93
  -2  -4  -1    2.97    0.26
  -2  -4  -1    2.77    0.28
   2   4   1    3.08    0.31
  -3  -4  -1    0.27    0.20
  -3  -4  -1   -0.03    0.19
   3   4   1    0.14    0.21
  -4  -4  -1    6.57    0.41
  -4  -4  -1    6.46    0.46
   4   4   1    7.72    0.52
  -5  -4  -1    9.75    0.58
   5   4   1   10.81    0.61
  -6  -4  -1    3.52    0.44
   6   4   1    3.62    0.54
   8  -5  -1    8.33    0.57
  -8   5   1    7.14    0.61
   7  -5  -1    0.82    0.29
  -7   5   1    0.62    0.31
  -7   5   1    0.71    0.25
   6  -5  -1   13.17    0.54
  -6   5   1   13.11    0.57
  -6   5   1   13.61    0.49
   5  -5  -1   13.80    0.51
  -5   5   1   13.35    0.50
  -5   5   1   14.01    0.43
   4  -5  -1    5.41    0.24
   4  -5  -1    6.01    0.34
  -4   5   1    4.69    0.27
  -4   5   1    5.07    0.31
   3  -5  -1    2.20    0.24
   3  -5  -1    1.93    0.20
  -3   5   1    1.78    0.22
  -3   5   1    2.27    0.20
   2  -5  -1    0.07    0.13
   2  -5  -1    0.18    0.14
  -2   5   1    0.33    0.15
  -2   5   1    0.42    0.12
   1  -5  -1    0.08    0.11
   1  -5  -1    0.23    0.16
  -1   5   1    0.01    0.11
  -1   5   1   -0.07    0.13
   0  -5  -1   87.36    1.60
   0  -5  -1   89.06    1.52
   0  -5  -1   88.46    1.65
   0   5   1   88.35    1.65
  -1  -5  -1    0.91    0.10
  -1  -5  -1    0.85    0.19
  -1  -5  -1    0.65    0.16
   1   5   1    0.90    0.22
  -2  -5  -1    5.96    0.38
  -2  -5  -1    5.55    0.34
   2   5   1    5.07    0.36
  -3  -5  -1    6.83    0.44
  -3  -5  -1    5.78    0.43
   3   5   1    7.52    0.45
  -4  -5  -1    1.04    0.29
  -4  -5  -1    0.80    0.29
   4   5   1    1.37    0.33
  -5  -5  -1   -0.06    0.30
   5   5   1   -0.04    0.34
   8  -6  -1    2.09    0.39
  -8   6   1    1.32    0.36
   7  -6  -1    6.56    0.51
  -7   6   1    5.95    0.54
   6  -6  -1    0.73    0.26
  -6   6   1    0.50    0.25
  -6   6   1    1.35    0.23
   5  -6  -1    8.34    0.45
  -5   6   1    7.28    0.34
  -5   6   1    7.49    0.42
   4  -6  -1    0.07    0.14
   4  -6  -1   -0.22    0.18
  -4   6   1    0.15    0.15
  -4   6   1    0.44    0.19
   3  -6  -1    5.70    0.33
   3  -6  -1    6.05    0.31
  -3   6   1    5.60    0.28
  -3   6   1    6.26    0.34
   2  -6  -1    1.64    0.20
   2  -6  -1    1.90    0.24
  -2   6   1    1.98    0.21
  -2   6   1    1.45    0.21
   1  -6  -1   38.12    0.88
   1  -6  -1   37.37    0.77
  -1   6   1   37.56    0.87
   0  -6  -1   40.37    0.94
   0  -6  -1   40.17    0.87
   0  -6  -1   39.36    0.77
   0   6   1   38.42    0.93
  -1  -6  -1    6.57    0.39
  -1  -6  -1    5.95    0.37
   1   6   1    6.44    0.39
  -2  -6  -1    1.98    0.29
  -2  -6  -1    1.43    0.28
   2   6   1    1.53    0.28
  -3  -6  -1    1.03    0.30
  -3  -6  -1    1.44    0.32
   3   6   1    1.62    0.34
  -4  -6  -1    0.53    0.34
  -4  -6  -1    0.68    0.32
   4   6   1    0.69    0.39
   8  -7  -1    0.50    0.33
  -8   7   1    0.34    0.34
   7  -7  -1   -0.16    0.29
  -7   7   1    0.18    0.32
   6  -7  -1    3.88    0.45
  -6   7   1    5.07    0.43
   5  -7  -1    2.02    0.31
  -5   7   1    3.37    0.41
  -5   7   1    3.04    0.30
   4  -7  -1    0.23    0.18
   4  -7  -1    0.14    0.20
  -4   7   1    0.28    0.24
  -4   7   1    0.18    0.17
   3  -7  -1    5.90    0.33
   3  -7  -1    5.11    0.35
  -3   7   1    5.70    0.40
  -3   7   1    5.68    0.31
   2  -7  -1    3.13    0.28
   2  -7  -1    3.52    0.31
  -2   7   1    2.28    0.31
  -2   7   1    3.06    0.27
   1  -7  -1   29.30    0.79
   1  -7  -1   28.56    0.66
  -1   7   1   28.28    0.77
  -1   7   1   28.65    0.69
   0  -7  -1    7.98    0.40
   0  -7  -1    8.59    0.48
   0   7   1    7.35    0.46
  -1  -7  -1    7.48    0.45
  -1  -7  -1    7.55    0.44
   1   7   1    6.85    0.45
  -2  -7  -1    4.29    0.48
  -2  -7  -1    6.01    0.47
   2   7   1    5.82    0.47
  -3  -7  -1    1.00    0.31
  -3  -7  -1    1.56    0.32
   3   7   1    1.39    0.37
  -4  -7  -1    0.05    0.38
  -4  -7  -1   -0.14    0.34
   4   7   1   -0.52    0.41
   7  -8  -1    0.14    0.32
  -7   8   1    0.16    0.35
   6  -8  -1    0.94    0.32
  -6   8   1    0.79    0.30
   5  -8  -1    9.36    0.52
  -5   8   1    8.34    0.50
   4  -8  -1    9.59    0.46
   4  -8  -1    9.67    0.49
  -4   8   1   10.04    0.41
  -4   8   1    9.21    0.49
   3  -8  -1   42.05    0.97
   3  -8  -1   41.97    1.00
  -3   8   1   43.13    0.91
  -3   8   1   41.04    1.03
   2  -8  -1    7.45    0.38
   2  -8  -1    7.71    0.43
  -2   8   1    6.92    0.44
  -2   8   1    8.06    0.39
   1  -8  -1    5.90    0.43
   1  -8  -1    5.13    0.32
  -1   8   1    5.59    0.38
  -1   8   1    6.17    0.44
   0  -8  -1    0.70    0.30
   0  -8  -1    0.39    0.23
   0   8   1    0.77    0.29
  -1  -8  -1    0.29    0.26
  -1  -8  -1    0.13    0.27
   1   8   1    0.47    0.29
  -2  -8  -1    3.48    0.45
  -2  -8  -1    3.17    0.37
   2   8   1    3.55    0.49
  -3  -8  -1    2.21    0.39
  -3  -8  -1    1.80    0.42
   3   8   1    2.20    0.44
   7  -9  -1    1.63    0.40
  -7   9   1    1.14    0.37
   6  -9  -1    1.89    0.38
  -6   9   1    1.51    0.36
   5  -9  -1    1.08    0.32
  -5   9   1    0.40    0.29
   4  -9  -1    9.55    0.52
   4  -9  -1    8.66    0.50
  -4   9   1    8.90    0.58
   3  -9  -1    0.18    0.25
   3  -9  -1    0.43    0.28
  -3   9   1    0.24    0.22
  -3   9   1    0.36    0.27
   2  -9  -1    1.21    0.25
   2  -9  -1    1.05    0.32
  -2   9   1    1.17    0.31
  -2   9   1    1.24    0.24
   1  -9  -1    0.04    0.28
  -1   9   1    0.21    0.23
  -1   9   1    0.35    0.29
   0  -9  -1    0.22    0.34
   0  -9  -1    0.96    0.30
   0   9   1    0.94    0.35
  -1  -9  -1    3.70    0.51
  -1  -9  -1    4.43    0.51
   1   9   1    4.27    0.51
  -2  -9  -1    7.55    0.67
  -2  -9  -1    8.07    0.63
   2   9   1    7.59    0.70
   6 -10  -1    0.15    0.33
  -6  10   1    1.04    0.41
   5 -10  -1    2.08    0.39
  -5  10   1    2.80    0.45
   4 -10  -1   29.90    0.89
   4 -10  -1   28.50    0.86
  -4  10   1   27.74    0.96
   3 -10  -1    7.14    0.49
   3 -10  -1    7.15    0.58
  -3  10   1    6.65    0.54
   2 -10  -1    2.78    0.43
  -2  10   1    2.29    0.37
   1 -10  -1    4.61    0.60
  -1  10   1    4.24    0.45
  -1  10   1    3.35    0.44
   0 -10  -1    0.04    0.35
   0  10   1    0.26    0.40
   4 -11  -1    0.52    0.34
   4 -11  -1    0.60    0.37
  -4  11   1    0.31    0.36
   3 -11  -1    2.31    0.44
  -3  11   1    2.05    0.41
   2 -11  -1    0.57    0.41
  -2  11   1    0.74    0.37
  -1  11  -2    1.51    0.40
   1 -11   2    1.85    0.46
  -2  11  -2    0.98    0.42
   2 -11   2    1.33    0.41
  -3  11  -2    0.19    0.39
   3 -11   2    0.56    0.38
   3 -11   2    0.15    0.32
  -4  11  -2    2.94    0.49
   4 -11   2    2.61    0.41
   4 -11   2    2.57    0.44
   1  10  -2    0.52    0.41
  -1 -10   2   -0.06    0.35
   0  10  -2   -0.14    0.30
   0 -10   2    0.38    0.35
  -1  10  -2    0.05    0.33
   1 -10   2   -0.06    0.33
  -2  10  -2    0.71    0.32
   2 -10   2    0.25    0.29
   2 -10   2    0.14    0.26
  -3  10  -2    6.01    0.56
   3 -10   2    6.74    0.49
   3 -10   2    6.64    0.48
  -4  10  -2    3.10    0.44
   4 -10   2    2.96    0.38
   4 -10   2    2.00    0.35
  -5  10  -2    0.70    0.38
   5 -10   2    0.34    0.33
  -6  10  -2    0.29    0.35
   6 -10   2    0.34    0.37
   2   9  -2    3.31    0.48
  -2  -9   2    2.66    0.37
  -2  -9   2    3.53    0.44
   1   9  -2    3.82    0.47
  -1  -9   2    4.30    0.49
  -1  -9   2    4.67    0.47
   0   9  -2   25.82    0.86
   0  -9   2   27.48    0.88
   0  -9   2   25.16    0.72
  -1   9  -2    0.25    0.25
   1  -9   2   -0.13    0.26
  -2   9  -2    0.66    0.30
   2  -9   2    0.45    0.26
   2  -9   2    0.44    0.22
  -3   9  -2   -0.10    0.24
   3  -9   2    0.13    0.26
   3  -9   2   -0.21    0.23
  -4   9  -2    5.65    0.47
   4  -9   2    6.82    0.47
   4  -9   2    6.26    0.48
  -5   9  -2    4.71    0.47
   5  -9   2    5.00    0.44
  -6   9  -2    2.92    0.42
   6  -9   2    2.35    0.39
   3   8  -2    1.51    0.40
  -3  -8   2    1.32    0.34
  -3  -8   2    1.13    0.35
   2   8  -2    0.18    0.32
  -2  -8   2    0.36    0.26
  -2  -8   2    0.55    0.30
   1   8  -2    0.37    0.30
  -1  -8   2    0.64    0.24
  -1  -8   2    0.53    0.31
   0   8  -2    4.34    0.40
   0  -8   2    4.07    0.34
   0  -8   2    4.75    0.41
  -1   8  -2    0.44    0.25
   1  -8   2    0.55    0.27
   1  -8   2    0.37    0.18
  -2   8  -2    0.33    0.26
   2  -8   2    0.72    0.25
   2  -8   2    0.50    0.19
  -3   8  -2    0.31    0.26
   3  -8   2    0.23    0.22
   3  -8   2    0.32    0.22
  -4   8  -2   -0.14    0.23
   4  -8   2   -0.10    0.24
   4  -8   2    0.05    0.21
  -5   8  -2    0.44    0.26
   5  -8   2    0.15    0.24
  -6   8  -2    2.35    0.36
   6  -8   2    3.01    0.41
  -7   8  -2    0.52    0.33
   7  -8   2    1.04    0.33
   4   7  -2    0.08    0.36
  -4  -7   2    0.19    0.28
  -4  -7   2    0.05    0.34
   3   7  -2    0.91    0.34
  -3  -7   2    1.15    0.33
  -3  -7   2    0.55    0.28
   2   7  -2    7.86    0.46
  -2  -7   2    6.43    0.42
  -2  -7   2    7.14    0.47
   1   7  -2   41.35    1.00
  -1  -7   2   41.01    1.01
  -1  -7   2   42.20    0.93
   0   7  -2    0.24    0.21
   0  -7   2   -0.05    0.21
   0  -7   2    0.11    0.15
   0  -7   2    0.12    0.13
  -1   7  -2   15.54    0.53
   1  -7   2   15.99    0.42
   1  -7   2   16.04    0.56
   1  -7   2   15.85    0.46
  -2   7  -2    1.50    0.15
  -2   7  -2    1.51    0.26
   2  -7   2    1.36    0.20
   2  -7   2    1.70    0.25
  -3   7  -2   24.33    0.69
   3  -7   2   23.87    0.66
   3  -7   2   24.10    0.65
  -4   7  -2    0.01    0.21
   4  -7   2    0.45    0.23
   4  -7   2    0.20    0.17
  -5   7  -2   37.68    0.99
   5  -7   2   37.54    0.96
  -6   7  -2   -0.33    0.28
   6  -7   2    0.39    0.29
  -7   7  -2   -0.09    0.33
   7  -7   2    0.56    0.33
   5   6  -2    9.02    0.61
  -5  -6   2    8.62    0.63
   4   6  -2    1.44    0.33
  -4  -6   2    0.80    0.29
  -4  -6   2    1.49    0.32
   3   6  -2   20.95    0.69
  -3  -6   2   20.87    0.71
  -3  -6   2   21.33    0.67
   2   6  -2    1.15    0.24
  -2  -6   2    0.92    0.21
  -2  -6   2    1.35    0.24
   1   6  -2    5.20    0.33
  -1  -6   2    5.37    0.38
  -1  -6   2    5.88    0.31
  -1  -6   2    5.61    0.21
   0   6  -2    7.17    0.35
   0  -6   2    7.73    0.30
   0  -6   2    7.26    0.37
   0  -6   2    7.52    0.27
  -1   6  -2   15.80    0.49
   1  -6   2   16.47    0.51
   1  -6   2   16.62    0.40
   1  -6   2   16.68    0.44
  -2   6  -2   10.07    0.40
  -2   6  -2   10.38    0.27
   2  -6   2   10.55    0.38
   2  -6   2   11.07    0.38
  -3   6  -2    0.08    0.09
  -3   6  -2    0.20    0.19
   3  -6   2    0.17    0.15
   3  -6   2    0.06    0.15
   4  -6   2   10.84    0.37
   4  -6   2   11.29    0.44
  -5   6  -2    0.58    0.26
   5  -6   2    0.25    0.20
  -6   6  -2    8.01    0.53
   6  -6   2    8.38    0.47
  -7   6  -2    1.26    0.34
   7  -6   2    0.77    0.32
   6   5  -2    1.38    0.46
  -6  -5   2    1.59    0.40
   5   5  -2    4.89    0.54
  -5  -5   2    5.84    0.54
   4   5  -2    1.62    0.30
  -4  -5   2    2.57    0.32
  -4  -5   2    1.89    0.29
   3   5  -2    7.33    0.40
  -3  -5   2    7.06    0.38
  -3  -5   2    7.06    0.42
   2   5  -2    3.27    0.32
  -2  -5   2    3.79    0.30
  -2  -5   2    3.79    0.30
   1   5  -2    1.37    0.19
  -1  -5   2    1.37    0.16
  -1  -5   2    1.48    0.21
  -1  -5   2    2.09    0.15
   0   5  -2   34.64    0.76
   0  -5   2   33.58    0.66
   0  -5   2   32.79    0.67
   0  -5   2   33.48    0.77
  -1   5  -2   37.58    0.80
   1  -5   2   38.55    0.82
   1  -5   2   37.81    0.76
   1  -5   2   37.42    0.70
  -2   5  -2   10.96    0.38
  -2   5  -2   10.79    0.25
   2  -5   2   10.84    0.35
   2  -5   2   10.35    0.36
  -3   5  -2   12.26    0.29
  -3   5  -2   12.95    0.45
   3  -5   2   12.73    0.42
   3  -5   2   12.54    0.38
  -4   5  -2    2.20    0.27
  -4   5  -2    2.40    0.18
   4  -5   2    2.09    0.23
   4  -5   2    2.14    0.20
  -5   5  -2   12.56    0.51
   5  -5   2   13.84    0.50
  -6   5  -2    0.50    0.24
   6  -5   2    0.47    0.26
  -7   5  -2   20.08    0.75
   7  -5   2   19.30    0.71
  -8   5  -2    0.46    0.35
   8  -5   2    1.22    0.37
   6   4  -2    2.08    0.40
  -6  -4   2    2.07    0.40
   5   4  -2    0.35    0.31
  -5  -4   2    0.00    0.24
   4   4  -2   24.78    0.74
  -4  -4   2   24.33    0.67
  -4  -4   2   23.53    0.69
   3   4  -2    0.43    0.21
  -3  -4   2    0.46    0.17
  -3  -4   2    0.49    0.18
   2   4  -2    4.00    0.28
  -2  -4   2    4.07    0.09
  -2  -4   2    3.80    0.24
  -2  -4   2    4.00    0.09
  -2  -4   2    4.29    0.30
   1   4  -2   31.04    0.68
  -1  -4   2   30.15    0.69
  -1  -4   2   30.94    0.65
  -1  -4   2   31.29    0.57
   0   4  -2   38.60    0.79
   0  -4   2   39.93    0.73
   0  -4   2   39.36    0.73
   0  -4   2   38.44    0.81
  -1   4  -2    0.19    0.13
   1  -4   2   -0.03    0.12
   1  -4   2   -0.03    0.06
   1  -4   2   -0.13    0.09
  -2   4  -2   38.61    0.66
  -2   4  -2   39.07    0.81
   2  -4   2   38.43    0.79
   2  -4   2   37.89    0.76
  -3   4  -2   56.58    1.12
  -3   4  -2   57.03    0.97
   3  -4   2   54.71    1.09
   3  -4   2   56.64    1.02
  -4   4  -2   10.44    0.42
  -4   4  -2   10.41    0.30
   4  -4   2   10.44    0.40
   4  -4   2    9.92    0.27
  -5   4  -2   59.17    1.27
  -5   4  -2   59.47    1.13
   5  -4   2   60.32    1.23
  -6   4  -2    0.29    0.23
  -6   4  -2    0.45    0.19
   6  -4   2    0.80    0.25
  -7   4  -2    0.00    0.30
   7  -4   2    0.10    0.26
  -8   4  -2    0.78    0.40
   7   3  -2    1.74    0.47
  -7  -3   2    2.79    0.46
   6   3  -2    2.16    0.36
  -6  -3   2    1.77    0.36
   5   3  -2    3.38    0.37
  -5  -3   2    3.62    0.37
   4   3  -2    0.27    0.19
  -4  -3   2    0.34    0.17
  -4  -3   2    0.15    0.20
   3   3  -2    1.42    0.21
  -3  -3   2    1.61    0.21
  -3  -3   2    1.58    0.22
   2   3  -2   73.90    1.38
  -2  -3   2   76.56    1.22
  -2  -3   2   74.94    1.23
  -2  -3   2   74.96    1.38
  -2  -3   2   73.87    1.36
   1   3  -2    3.50    0.21
  -1  -3   2    3.14    0.21
  -1  -3   2    3.53    0.19
  -1  -3   2    3.52    0.14
   0   3  -2   42.93    0.81
   0  -3   2   43.26    0.76
   0  -3   2   42.66    0.83
   0  -3   2   43.23    0.78
  -1   3  -2  124.48    2.00
  -1   3  -2  124.98    2.00
  -1   3  -2  124.89    2.11
   1  -3   2  124.28    2.11
   1  -3   2  124.47    2.10
  -2   3  -2    6.10    0.25
  -2   3  -2    6.69    0.16
   2  -3   2    6.73    0.27
   2  -3   2    6.22    0.22
  -3   3  -2  119.06    2.10
  -3   3  -2  120.42    1.98
   3  -3   2  116.44    2.07
   3  -3   2  120.13    1.98
  -4   3  -2   -0.10    0.14
  -4   3  -2   -0.13    0.11
   4  -3   2    0.11    0.06
   4  -3   2   -0.24    0.15
  -5   3  -2    8.50    0.42
  -5   3  -2   10.19    0.36
   5  -3   2   10.21    0.41
  -6   3  -2    2.39    0.31
  -6   3  -2    1.95    0.30
   6  -3   2    2.35    0.28
  -7   3  -2    1.26    0.29
  -7   3  -2    1.30    0.33
   7  -3   2    1.31    0.29
  -8   3  -2   11.58    0.68
  -7  -2   2   -0.02    0.34
  -7  -2   2    0.15    0.30
  -6  -2   2    0.48    0.29
  -6  -2   2    0.92    0.28
  -5  -2   2    0.53    0.24
  -5  -2   2    0.68    0.24
  -4  -2   2    4.58    0.26
  -4  -2   2    3.76    0.29
  -4  -2   2    4.26    0.32
   3   2  -2   57.47    0.95
  -3  -2   2   55.93    1.10
  -3  -2   2   56.27    1.05
  -3  -2   2   55.10    1.09
   2   2  -2   21.63    0.39
   2   2  -2   21.67    0.49
  -2  -2   2   21.14    0.49
  -2  -2   2   21.47    0.49
   1   2  -2    8.13    0.24
   1   2  -2    7.85    0.19
  -1  -2   2    7.75    0.24
  -1  -2   2    8.13    0.26
   0   2  -2  103.66    1.73
   0  -2   2  104.66    1.77
   0  -2   2  104.75    1.70
  -1   2  -2   13.30    0.31
   1  -2   2   12.76    0.31
   1  -2   2   12.29    0.32
  -2   2  -2    0.01    0.10
  -2   2  -2   -0.05    0.06
   2  -2   2    0.13    0.11
   2  -2   2    0.09    0.07
  -3   2  -2   37.64    0.71
  -3   2  -2   37.28    0.79
   3  -2   2   36.81    0.66
   3  -2   2   38.55    0.76
  -4   2  -2   25.04    0.56
   4  -2   2   24.09    0.58
   4  -2   2   24.15    0.43
  -5   2  -2    6.37    0.38
  -5   2  -2    6.65    0.34
   5  -2   2    6.64    0.33
  -6   2  -2   12.51    0.58
  -6   2  -2   12.68    0.49
   6  -2   2   11.88    0.47
  -7   2  -2    0.55    0.29
  -7   2  -2    1.04    0.34
  -7  -1   2    2.26    0.37
  -7  -1   2    2.99    0.42
  -6  -1   2    2.62    0.35
  -6  -1   2    2.48    0.33
  -5  -1   2    0.20    0.18
  -5  -1   2    0.42    0.19
   4   1  -2    4.21    0.19
  -4  -1   2    4.61    0.28
  -4  -1   2    3.83    0.29
  -4  -1   2    4.40    0.21
   3   1  -2   34.90    0.64
  -3  -1   2   35.39    0.73
  -3  -1   2   33.94    0.73
  -3  -1   2   35.10    0.67
   2   1  -2   92.90    1.52
  -2  -1   2   91.57    1.57
  -2  -1   2   91.79    1.59
  -2  -1   2   90.22    1.56
   1   1  -2   23.05    0.43
   1   1  -2   23.33    0.42
  -1  -1   2   22.90    0.45
  -1  -1   2   22.78    0.46
   0   1  -2   58.15    0.97
   0   1  -2   56.27    0.99
   0  -1   2   61.20    0.98
   0  -1   2   58.78    0.96
  -1   1  -2  230.89    3.77
  -1   1  -2  233.59    3.76
   1  -1   2  231.73    3.85
  -2   1  -2   18.29    0.43
  -2   1  -2   18.63    0.39
   2  -1   2   18.54    0.41
  -3   1  -2   69.34    1.25
  -3   1  -2   70.86    1.32
   3  -1   2   69.66    1.25
  -4   1  -2   12.18    0.44
  -4   1  -2   12.65    0.39
   4  -1   2   12.38    0.37
  -5   1  -2    2.54    0.31
  -5   1  -2    2.78    0.30
   5  -1   2    3.18    0.27
  -6   1  -2    0.70    0.24
  -6   1  -2    0.85    0.28
  -7   1  -2    7.54    0.53
  -7   1  -2    8.40    0.61
  -8   0   2    0.20    0.34
  -8   0   2    0.41    0.37
  -7   0   2    3.79    0.43
  -7   0   2    2.91    0.38
  -6   0   2    6.42    0.44
  -6   0   2    6.75    0.46
   5   0  -2   21.42    0.51
  -5   0   2   21.10    0.60
  -5   0   2   21.14    0.61
   4   0  -2   69.65    1.23
  -4   0   2   69.14    1.18
  -4   0   2   68.94    1.32
  -4   0   2   68.92    1.31
   3   0  -2    0.18    0.09
  -3   0   2    0.25    0.12
  -3   0   2    0.28    0.12
  -3   0   2    0.24    0.08
   2   0  -2   68.50    1.17
  -2   0   2   68.74    1.16
  -2   0   2   68.00    1.18
  -2   0   2   68.80    1.20
   1   0  -2  152.76    2.49
   1   0  -2  155.20    2.52
  -1   0   2  152.19    2.51
  -1   0   2  150.32    2.50
   0   0  -2   16.48    0.33
   0   0  -2   17.10    0.34
   0   0  -2   17.14    0.30
   0   0   2   16.69    0.32
   0   0   2   16.84    0.30
  -1   0  -2    0.35    0.08
  -1   0  -2    0.50    0.10
  -1   0  -2    0.52    0.09
  -1   0  -2    0.39    0.09
  -2   0  -2    0.24    0.10
  -2   0  -2    0.06    0.11
  -2   0  -2    0.27    0.08
   2   0   2    0.42    0.09
  -3   0  -2    0.01    0.08
  -3   0  -2   -0.03    0.12
  -3   0  -2    0.16    0.11
   3   0   2    0.01    0.09
  -4   0  -2    0.35    0.16
  -4   0  -2    0.68    0.11
  -4   0  -2    0.59    0.20
   4   0   2    0.55    0.13
  -5   0  -2   78.73    1.61
  -5   0  -2   78.20    1.55
   5   0   2   79.45    1.44
  -6   0  -2   14.26    0.64
  -6   0  -2   14.32    0.60
  -7   0  -2    2.40    0.40
  -7   0  -2    2.84    0.45
  -8   1   2    6.47    0.52
  -8   1   2    6.56    0.55
  -7   1   2    0.34    0.29
  -7   1   2    0.00    0.23
   6  -1  -2    4.45    0.31
  -6   1   2    4.03    0.38
  -6   1   2    3.93    0.40
   5  -1  -2   12.82    0.41
  -5   1   2   13.64    0.49
  -5   1   2   13.85    0.45
   4  -1  -2   17.23    0.43
  -4   1   2   17.04    0.32
  -4   1   2   16.51    0.47
  -4   1   2   17.43    0.48
   3  -1  -2   12.52    0.33
  -3   1   2   11.53    0.35
  -3   1   2   11.96    0.34
   2  -1  -2   38.79    0.68
   2  -1  -2   38.71    0.72
  -2   1   2   38.76    0.72
  -2   1   2   38.73    0.73
   1  -1  -2   22.31    0.44
   1  -1  -2   21.74    0.43
  -1   1   2   21.79    0.44
  -1   1   2   22.78    0.42
   0  -1  -2  198.14    3.24
   0  -1  -2  197.86    3.25
   0  -1  -2  199.13    3.28
   0   1   2  199.99    3.29
  -1  -1  -2   68.09    1.20
  -1  -1  -2   67.26    1.19
  -1  -1  -2   68.31    1.19
  -1  -1  -2   68.55    1.15
  -2  -1  -2    1.60    0.19
  -2  -1  -2    1.22    0.15
  -2  -1  -2    1.84    0.21
   2   1   2    1.35    0.13
  -3  -1  -2   42.29    0.88
  -3  -1  -2   40.60    0.89
  -3  -1  -2   42.23    0.81
   3   1   2   41.93    0.77
  -4  -1  -2    4.47    0.32
  -4  -1  -2    4.17    0.24
  -4  -1  -2    4.41    0.33
   4   1   2    4.53    0.21
  -5  -1  -2   12.39    0.53
  -5  -1  -2   12.23    0.53
  -6  -1  -2   38.53    1.00
  -6  -1  -2   38.09    1.07
  -7  -1  -2    5.60    0.55
  -7  -1  -2    5.39    0.60
  -8   2   2    4.88    0.54
  -8   2   2    4.87    0.50
   7  -2  -2    3.75    0.38
  -7   2   2    4.23    0.42
  -7   2   2    5.25    0.45
   6  -2  -2   15.21    0.50
  -6   2   2   16.32    0.59
  -6   2   2   15.85    0.55
   5  -2  -2   25.86    0.63
  -5   2   2   26.00    0.67
  -5   2   2   26.67    0.66
   4  -2  -2    0.39    0.14
  -4   2   2    0.09    0.14
  -4   2   2    0.11    0.12
   3  -2  -2    7.91    0.21
   3  -2  -2    7.79    0.27
  -3   2   2    7.66    0.27
  -3   2   2    7.49    0.28
   2  -2  -2   27.22    0.56
   2  -2  -2   27.70    0.53
  -2   2   2   27.90    0.56
  -2   2   2   28.27    0.57
   1  -2  -2   36.28    0.67
   1  -2  -2   36.46    0.69
  -1   2   2   36.66    0.68
  -1   2   2   35.75    0.67
   0  -2  -2   73.57    1.30
   0  -2  -2   73.50    1.25
   0  -2  -2   73.89    1.28
   0   2   2   73.86    1.29
  -1  -2  -2  149.25    2.52
  -1  -2  -2  149.63    2.43
  -1  -2  -2  149.36    2.51
   1   2   2  148.09    2.53
  -2  -2  -2   10.34    0.35
  -2  -2  -2   10.05    0.33
  -3  -2  -2    0.06    0.17
  -3  -2  -2    0.30    0.14
  -3  -2  -2    0.25    0.16
   3   2   2    0.35    0.09
  -4  -2  -2  114.44    2.15
  -4  -2  -2  112.62    2.11
  -4  -2  -2  114.21    2.02
  -5  -2  -2   42.71    1.05
  -5  -2  -2   42.84    1.08
  -6  -2  -2    0.22    0.30
  -6  -2  -2    0.06    0.32
  -8   3   2    0.63    0.32
  -8   3   2    0.37    0.36
   7  -3  -2    8.36    0.47
  -7   3   2    9.07    0.54
  -7   3   2    8.51    0.49
   6  -3  -2    2.96    0.33
  -6   3   2    3.42    0.33
  -6   3   2    3.75    0.34
   5  -3  -2    3.27    0.29
  -5   3   2    2.66    0.27
  -5   3   2    2.15    0.25
   4  -3  -2    1.63    0.13
   4  -3  -2    1.41    0.18
  -4   3   2    1.57    0.18
  -4   3   2    1.35    0.20
   3  -3  -2   26.77    0.61
   3  -3  -2   27.62    0.54
  -3   3   2   27.66    0.58
  -3   3   2   27.31    0.61
   2  -3  -2   10.08    0.29
   2  -3  -2    9.92    0.30
  -2   3   2    9.55    0.30
  -2   3   2    9.91    0.30
   1  -3  -2   50.91    0.92
   1  -3  -2   51.58    0.96
  -1   3   2   49.38    0.95
  -1   3   2   51.22    0.93
   0  -3  -2  240.70    3.92
   0  -3  -2  237.58    3.98
   0  -3  -2  245.69    4.00
   0   3   2  240.60    3.99
  -1  -3  -2    0.81    0.15
  -1  -3  -2    0.86    0.15
  -1  -3  -2    0.88    0.09
   1   3   2    0.92    0.16
  -2  -3  -2   52.90    1.05
  -2  -3  -2   53.16    0.89
  -2  -3  -2   51.85    1.05
   2   3   2   50.62    1.07
  -3  -3  -2    0.84    0.19
  -3  -3  -2    0.87    0.19
   3   3   2    0.81    0.21
  -4  -3  -2    2.87    0.38
  -4  -3  -2    3.69    0.34
   4   3   2    3.78    0.42
  -5  -3  -2   12.01    0.60
   5   3   2   12.35    0.60
  -6  -3  -2   14.14    0.72
   6   3   2   13.67    0.78
   8  -4  -2    0.24    0.31
  -8   4   2    0.79    0.32
  -8   4   2    0.30    0.34
   7  -4  -2    1.10    0.28
  -7   4   2    1.57    0.28
  -7   4   2    1.12    0.29
   6  -4  -2    4.70    0.38
  -6   4   2    5.19    0.41
  -6   4   2    5.49    0.38
   5  -4  -2    0.58    0.20
  -5   4   2    0.40    0.17
  -5   4   2    0.29    0.17
   4  -4  -2    1.01    0.19
   4  -4  -2    1.01    0.12
  -4   4   2    0.75    0.16
  -4   4   2    0.85    0.18
   3  -4  -2   34.03    0.69
   3  -4  -2   33.47    0.73
  -3   4   2   33.85    0.70
  -3   4   2   34.70    0.76
   2  -4  -2    1.98    0.19
   2  -4  -2    1.71    0.18
  -2   4   2    1.61    0.19
  -2   4   2    1.39    0.18
   1  -4  -2   69.87    1.30
   1  -4  -2   69.66    1.23
  -1   4   2   68.53    1.29
  -1   4   2   69.26    1.26
   0  -4  -2   84.08    1.50
   0  -4  -2   83.13    1.42
   0  -4  -2   82.45    1.53
   0   4   2   81.25    1.52
  -1  -4  -2   15.38    0.44
  -1  -4  -2   13.99    0.45
  -1  -4  -2   14.31    0.32
   1   4   2   14.99    0.46
  -2  -4  -2   18.75    0.54
  -2  -4  -2   18.16    0.53
   2   4   2   17.70    0.56
  -3  -4  -2   50.38    1.10
  -3  -4  -2   51.50    1.12
   3   4   2   49.96    1.16
  -4  -4  -2   15.26    0.56
  -4  -4  -2   14.50    0.62
   4   4   2   14.26    0.62
  -5  -4  -2    0.51    0.30
   5   4   2    0.22    0.33
   8  -5  -2   -0.03    0.31
  -8   5   2    0.06    0.29
  -8   5   2   -0.34    0.29
   7  -5  -2    3.43    0.39
  -7   5   2    3.09    0.39
  -7   5   2    3.08    0.38
   6  -5  -2    6.97    0.44
  -6   5   2    7.03    0.41
  -6   5   2    7.06    0.43
   5  -5  -2   55.53    1.19
  -5   5   2   56.82    1.22
  -5   5   2   58.50    1.15
   4  -5  -2    0.99    0.19
   4  -5  -2    0.40    0.14
  -4   5   2    0.56    0.18
  -4   5   2    0.32    0.15
   3  -5  -2    0.11    0.14
   3  -5  -2    0.03    0.13
  -3   5   2   -0.02    0.16
  -3   5   2   -0.02    0.13
   2  -5  -2   12.53    0.40
   2  -5  -2   12.55    0.39
  -2   5   2   13.16    0.38
  -2   5   2   12.87    0.42
   1  -5  -2    1.61    0.18
   1  -5  -2    1.73    0.23
  -1   5   2    1.61    0.22
  -1   5   2    1.63    0.21
   0  -5  -2    0.17    0.15
   0  -5  -2    0.25    0.10
   0  -5  -2   -0.11    0.16
   0   5   2    0.02    0.16
  -1  -5  -2   64.43    1.27
  -1  -5  -2   62.95    1.31
  -1  -5  -2   64.46    1.11
   1   5   2   64.49    1.32
  -2  -5  -2   17.71    0.58
  -2  -5  -2   19.15    0.59
   2   5   2   19.58    0.65
  -3  -5  -2    2.98    0.37
  -3  -5  -2    3.58    0.40
   3   5   2    3.19    0.39
  -4  -5  -2    0.03    0.27
  -4  -5  -2    0.08    0.26
   4   5   2    0.15    0.34
  -5  -5  -2    7.08    0.63
   5   5   2    6.36    0.67
   8  -6  -2    0.43    0.35
  -8   6   2    0.33    0.38
   7  -6  -2    5.41    0.51
  -7   6   2    6.56    0.54
  -7   6   2    6.22    0.46
   6  -6  -2    0.04    0.24
  -6   6   2    0.67    0.26
  -6   6   2    0.67    0.22
   5  -6  -2    1.06    0.22
  -5   6   2    1.11    0.22
  -5   6   2    1.23    0.27
   4  -6  -2    0.23    0.19
   4  -6  -2    0.11    0.15
  -4   6   2    0.01    0.16
  -4   6   2   -0.01    0.18
   3  -6  -2    6.17    0.33
   3  -6  -2    5.89    0.33
  -3   6   2    6.62    0.31
  -3   6   2    5.34    0.34
   2  -6  -2   -0.16    0.15
   2  -6  -2   -0.01    0.15
  -2   6   2   -0.07    0.14
  -2   6   2   -0.29    0.17
   1  -6  -2   12.85    0.39
   1  -6  -2   12.67    0.49
  -1   6   2   13.51    0.48
  -1   6   2   13.64    0.44
   0  -6  -2    5.59    0.32
   0  -6  -2    5.94    0.25
   0  -6  -2    6.13    0.37
   0   6   2    5.07    0.35
  -1  -6  -2   25.28    0.75
  -1  -6  -2   26.23    0.70
   1   6   2   25.27    0.74
  -2  -6  -2    8.18    0.46
  -2  -6  -2    7.96    0.44
   2   6   2    9.97    0.54
  -3  -6  -2    1.32    0.33
  -3  -6  -2    1.05    0.28
   3   6   2    1.15    0.36
  -4  -6  -2    2.05    0.41
  -4  -6  -2    1.61    0.36
   4   6   2    1.53    0.40
   8  -7  -2   -0.06    0.36
  -8   7   2   -0.48    0.31
   7  -7  -2    1.51    0.36
  -7   7   2    0.56    0.33
   6  -7  -2   34.95    0.95
  -6   7   2   34.97    0.85
  -6   7   2   35.35    0.98
   5  -7  -2    8.25    0.48
  -5   7   2    8.20    0.42
  -5   7   2    9.20    0.51
   4  -7  -2    1.10    0.21
   4  -7  -2    1.52    0.23
  -4   7   2    1.99    0.30
  -4   7   2    1.45    0.22
   3  -7  -2    3.39    0.32
   3  -7  -2    3.00    0.33
  -3   7   2    2.83    0.27
  -3   7   2    2.23    0.31
   2  -7  -2   15.10    0.54
   2  -7  -2   14.56    0.47
  -2   7   2   14.81    0.53
  -2   7   2   15.76    0.48
   1  -7  -2   54.02    1.06
   1  -7  -2   52.81    1.19
  -1   7   2   54.40    1.20
  -1   7   2   53.95    1.12
   0  -7  -2    2.01    0.30
   0  -7  -2    1.52    0.25
   0   7   2    1.50    0.27
  -1  -7  -2    4.61    0.46
  -1  -7  -2    3.68    0.36
   1   7   2    3.21    0.45
  -2  -7  -2    2.19    0.36
  -2  -7  -2    2.22    0.33
   2   7   2    2.61    0.37
  -3  -7  -2    3.14    0.42
  -3  -7  -2    2.62    0.40
   3   7   2    2.74    0.42
   7  -8  -2    2.41    0.37
  -7   8   2    2.80    0.43
   6  -8  -2   -0.02    0.26
  -6   8   2    0.23    0.27
   5  -8  -2    0.20    0.24
  -5   8   2   -0.17    0.21
  -5   8   2    0.11    0.28
   4  -8  -2    0.57    0.24
   4  -8  -2    0.60    0.25
  -4   8   2    1.10    0.30
  -4   8   2    0.79    0.21
   3  -8  -2   15.61    0.55
   3  -8  -2   15.31    0.59
  -3   8   2   15.16    0.62
  -3   8   2   16.03    0.51
   2  -8  -2    0.27    0.20
   2  -8  -2    0.43    0.23
  -2   8   2    0.32    0.24
  -2   8   2    0.15    0.20
   1  -8  -2    6.38    0.34
   1  -8  -2    5.77    0.44
  -1   8   2    6.37    0.49
  -1   8   2    6.39    0.41
   0  -8  -2   -0.13    0.20
   0  -8  -2   -0.03    0.25
   0   8   2   -0.10    0.26
  -1  -8  -2    0.97    0.29
  -1  -8  -2    1.03    0.34
   1   8   2    1.75    0.38
  -2  -8  -2   16.93    0.79
  -2  -8  -2   16.93    0.70
   2   8   2   18.43    0.77
  -3  -8  -2    2.13    0.43
   7  -9  -2    1.47    0.43
  -7   9   2    0.80    0.35
   6  -9  -2   11.31    0.66
  -6   9   2   11.43    0.63
   5  -9  -2    6.11    0.47
  -5   9   2    6.37    0.51
   4  -9  -2    5.92    0.48
   4  -9  -2    5.57    0.43
  -4   9   2    5.45    0.48
   3  -9  -2   26.82    0.75
   3  -9  -2   26.50    0.83
  -3   9   2   25.39    0.82
  -3   9   2   25.55    0.71
   2  -9  -2   22.28    0.65
   2  -9  -2   22.34    0.79
  -2   9   2   23.07    0.78
  -2   9   2   23.21    0.69
   1  -9  -2    0.20    0.29
  -1   9   2    0.11    0.25
  -1   9   2    0.11    0.32
   0  -9  -2    0.02    0.30
   0   9   2    0.04    0.31
  -1  -9  -2    1.08    0.41
  -1  -9  -2    1.51    0.37
   1   9   2    0.65    0.36
   6 -10  -2    0.64    0.38
  -6  10   2    0.71    0.41
   5 -10  -2   21.76    0.78
  -5  10   2   21.66    0.88
   4 -10  -2    5.27    0.54
   4 -10  -2    4.97    0.49
  -4  10   2    4.28    0.56
   3 -10  -2    0.31    0.32
   3 -10  -2    0.34    0.27
  -3  10   2    0.35    0.33
   2 -10  -2    0.77    0.38
  -2  10   2    0.55    0.29
  -2  10   2    0.64    0.38
   1 -10  -2    1.85    0.43
  -1  10   2    2.44    0.41
  -1  10   2    2.52    0.37
   0 -10  -2    5.66    0.58
   0  10   2    4.96    0.58
   0  10   2    5.91    0.56
   3 -11  -2   -0.13    0.35
  -3  11   2    0.17    0.40
  -1  11  -3    0.46    0.36
   1 -11   3    0.12    0.41
  -2  11  -3   17.13    0.77
   2 -11   3   17.04    0.81
  -3  11  -3    0.28    0.35
   3 -11   3    1.35    0.40
   3 -11   3    0.96    0.35
  -4  11  -3    1.31    0.43
   4 -11   3    1.49    0.38
   4 -11   3    1.74    0.40
   1  10  -3    2.34    0.41
  -1 -10   3    2.80    0.49
   0  10  -3    0.77    0.36
   0 -10   3    0.75    0.36
  -1  10  -3    0.86    0.36
   1 -10   3    1.03    0.37
  -2  10  -3    0.97    0.32
   2 -10   3    1.10    0.32
   2 -10   3    1.06    0.27
  -3  10  -3   -0.19    0.28
   3 -10   3   -0.20    0.27
   3 -10   3    0.04    0.27
  -4  10  -3    0.95    0.33
   4 -10   3    1.29    0.34
   4 -10   3    1.08    0.34
  -5  10  -3    5.09    0.59
   5 -10   3    4.42    0.55
   2   9  -3    3.51    0.48
  -2  -9   3    4.11    0.52
  -2  -9   3    3.06    0.39
   1   9  -3   -0.07    0.32
  -1  -9   3    0.04    0.25
  -1  -9   3   -0.03    0.33
   0   9  -3    0.74    0.28
   0  -9   3    0.86    0.30
  -1   9  -3   29.00    0.88
   1  -9   3   28.22    0.72
   1  -9   3   29.48    0.90
  -2   9  -3    3.12    0.38
   2  -9   3    1.88    0.28
   2  -9   3    2.78    0.38
  -3   9  -3    3.24    0.41
   3  -9   3    4.06    0.44
   3  -9   3    2.99    0.35
  -4   9  -3    0.15    0.29
   4  -9   3    0.20    0.28
   4  -9   3    0.41    0.26
  -5   9  -3    6.50    0.56
   5  -9   3    6.40    0.49
  -6   9  -3    0.09    0.31
   6  -9   3   -0.16    0.29
   3   8  -3    4.46    0.49
  -3  -8   3    3.59    0.40
  -3  -8   3    3.14    0.44
   2   8  -3    6.34    0.53
  -2  -8   3    4.83    0.43
  -2  -8   3    5.26    0.48
   1   8  -3    0.52    0.30
  -1  -8   3    0.56    0.31
  -1  -8   3    0.54    0.22
   0   8  -3   -0.13    0.25
   0  -8   3    0.07    0.18
   0  -8   3    0.40    0.25
  -1   8  -3    3.35    0.40
   1  -8   3    3.34    0.37
   1  -8   3    2.98    0.29
  -2   8  -3    0.15    0.22
   2  -8   3    0.24    0.24
   2  -8   3    0.08    0.20
  -3   8  -3   14.88    0.57
   3  -8   3   13.82    0.54
   3  -8   3   14.15    0.54
  -4   8  -3    6.82    0.45
   4  -8   3    7.98    0.45
   4  -8   3    7.21    0.43
  -5   8  -3    6.32    0.47
   5  -8   3    6.63    0.50
  -6   8  -3   -0.09    0.28
   6  -8   3    0.29    0.28
  -7   8  -3    0.32    0.34
   7  -8   3   -0.02    0.35
   4   7  -3    0.50    0.38
  -4  -7   3    0.85    0.33
  -4  -7   3    0.33    0.33
   3   7  -3    8.73    0.56
  -3  -7   3    8.04    0.55
  -3  -7   3    7.80    0.49
   2   7  -3   13.09    0.58
  -2  -7   3   13.14    0.51
  -2  -7   3   12.52    0.56
   1   7  -3    0.07    0.24
  -1  -7   3    0.33    0.25
  -1  -7   3    0.46    0.18
   0   7  -3   12.73    0.51
   0  -7   3   12.26    0.40
   0  -7   3   12.51    0.39
   0  -7   3   11.72    0.50
  -1   7  -3    0.00    0.18
   1  -7   3    0.16    0.15
   1  -7   3    0.07    0.12
   1  -7   3   -0.11    0.18
  -2   7  -3   -0.08    0.18
   2  -7   3   -0.14    0.16
   2  -7   3    0.10    0.20
  -3   7  -3    0.12    0.22
   3  -7   3    0.10    0.19
   3  -7   3    0.02    0.17
  -4   7  -3    3.73    0.35
   4  -7   3    4.06    0.37
   4  -7   3    3.33    0.31
  -5   7  -3   11.91    0.56
   5  -7   3   11.64    0.52
  -6   7  -3    0.47    0.31
   6  -7   3    0.37    0.29
  -7   7  -3    0.06    0.30
   7  -7   3    0.05    0.34
   5   6  -3    4.92    0.52
  -5  -6   3    5.64    0.59
   4   6  -3   -0.30    0.29
  -4  -6   3   -0.16    0.27
  -4  -6   3   -0.23    0.27
   3   6  -3   22.30    0.72
  -3  -6   3   21.68    0.66
  -3  -6   3   20.65    0.70
   2   6  -3    4.19    0.37
  -2  -6   3    3.86    0.32
  -2  -6   3    4.68    0.37
   1   6  -3    0.06    0.20
  -1  -6   3    0.14    0.10
  -1  -6   3    0.11    0.14
  -1  -6   3    0.24    0.20
   0   6  -3   45.81    0.98
   0  -6   3   44.43    1.01
   0  -6   3   44.80    0.88
   0  -6   3   46.21    0.89
  -1   6  -3    0.04    0.15
   1  -6   3    0.00    0.16
   1  -6   3    0.17    0.09
   1  -6   3   -0.02    0.13
  -2   6  -3    1.20    0.21
  -2   6  -3    1.21    0.12
   2  -6   3    1.00    0.18
   2  -6   3    1.10    0.19
  -3   6  -3   30.42    0.77
   3  -6   3   31.70    0.72
   3  -6   3   30.13    0.74
  -4   6  -3   -0.33    0.20
   4  -6   3    0.19    0.15
   4  -6   3   -0.12    0.16
  -5   6  -3    7.87    0.45
   5  -6   3    7.86    0.43
  -6   6  -3    5.56    0.45
   6  -6   3    6.28    0.44
  -7   6  -3    3.93    0.54
   7  -6   3    3.55    0.45
   6   5  -3    3.36    0.49
  -6  -5   3    2.59    0.47
   5   5  -3    6.11    0.53
  -5  -5   3    6.33    0.54
   4   5  -3    3.01    0.35
  -4  -5   3    3.63    0.41
  -4  -5   3    4.13    0.41
   3   5  -3   18.91    0.59
  -3  -5   3   17.70    0.59
  -3  -5   3   17.86    0.56
   2   5  -3    9.98    0.40
  -2  -5   3   10.40    0.39
  -2  -5   3    9.72    0.44
   1   5  -3    0.68    0.17
  -1  -5   3    0.48    0.18
  -1  -5   3    0.23    0.13
  -1  -5   3    0.40    0.10
   0   5  -3    5.31    0.29
   0  -5   3    5.14    0.23
   0  -5   3    5.49    0.22
   0  -5   3    5.24    0.29
  -1   5  -3   39.63    0.84
   1  -5   3   40.14    0.71
   1  -5   3   39.92    0.81
   1  -5   3   40.05    0.85
  -2   5  -3    0.07    0.04
  -2   5  -3    0.02    0.15
  -2   5  -3    0.02    0.04
   2  -5   3   -0.01    0.12
   2  -5   3   -0.22    0.13
  -3   5  -3    3.50    0.12
  -3   5  -3    3.15    0.29
   3  -5   3    3.96    0.30
   3  -5   3    3.66    0.25
  -4   5  -3   25.15    0.70
   4  -5   3   25.91    0.58
   4  -5   3   27.92    0.71
  -5   5  -3    0.52    0.22
   5  -5   3    0.67    0.23
  -6   5  -3    1.24    0.29
   6  -5   3    1.37    0.30
  -7   5  -3    0.25    0.32
   7  -5   3    0.16    0.30
   6   4  -3   14.47    0.72
  -6  -4   3   12.96    0.70
   5   4  -3    8.00    0.48
  -5  -4   3    8.00    0.52
  -5  -4   3    8.12    0.54
   4   4  -3    3.50    0.33
  -4  -4   3    4.04    0.38
  -4  -4   3    3.60    0.34
   3   4  -3   13.59    0.47
  -3  -4   3   13.99    0.48
  -3  -4   3   13.91    0.48
   2   4  -3    2.20    0.24
  -2  -4   3    1.76    0.20
  -2  -4   3    1.84    0.22
  -2  -4   3    1.67    0.12
   1   4  -3    1.68    0.20
  -1  -4   3    1.73    0.17
  -1  -4   3    1.44    0.19
  -1  -4   3    1.50    0.14
   0   4  -3  121.86    2.08
   0  -4   3  118.06    2.12
   0  -4   3  121.12    2.01
   0  -4   3  121.98    2.04
  -1   4  -3   40.60    0.80
   1  -4   3   40.38    0.79
   1  -4   3   38.94    0.82
  -2   4  -3    6.93    0.29
   2  -4   3    6.16    0.26
   2  -4   3    6.64    0.29
  -3   4  -3    9.16    0.36
  -3   4  -3    9.01    0.22
   3  -4   3    9.08    0.29
   3  -4   3    8.72    0.35
  -4   4  -3   25.06    0.51
  -4   4  -3   23.08    0.64
   4  -4   3   24.50    0.51
   4  -4   3   24.29    0.63
  -5   4  -3    2.96    0.26
  -5   4  -3    2.87    0.36
   5  -4   3    2.96    0.30
  -6   4  -3    0.69    0.25
   6  -4   3    1.17    0.28
  -7   4  -3    2.26    0.38
   7  -4   3    2.71    0.36
   7   3  -3    5.86    0.63
  -7  -3   3    5.84    0.63
   6   3  -3   -0.17    0.29
  -6  -3   3    0.15    0.29
   5   3  -3    3.41    0.39
  -5  -3   3    3.05    0.33
  -5  -3   3    3.86    0.41
   4   3  -3    1.60    0.24
  -4  -3   3    1.87    0.26
  -4  -3   3    2.21    0.28
   3   3  -3   15.66    0.47
   3   3  -3   16.00    0.31
  -3  -3   3   15.20    0.46
  -3  -3   3   16.00    0.48
   2   3  -3    3.64    0.14
   2   3  -3    3.57    0.23
  -2  -3   3    3.19    0.23
  -2  -3   3    3.64    0.23
   1   3  -3   24.78    0.52
   1   3  -3   24.89    0.48
  -1  -3   3   23.47    0.51
  -1  -3   3   24.71    0.57
   0   3  -3   40.67    0.76
   0  -3   3   41.11    0.72
   0  -3   3   41.23    0.76
   0  -3   3   40.68    0.81
  -1   3  -3    6.39    0.25
   1  -3   3    6.83    0.26
   1  -3   3    7.17    0.26
  -2   3  -3    6.39    0.14
  -2   3  -3    6.47    0.27
   2  -3   3    6.20    0.26
   2  -3   3    6.84    0.15
   2  -3   3    5.86    0.24
  -3   3  -3    7.55    0.22
  -3   3  -3    7.53    0.33
   3  -3   3    7.40    0.32
   3  -3   3    7.22    0.24
  -4   3  -3    4.49    0.24
  -4   3  -3    4.59    0.30
   4  -3   3    4.73    0.19
   4  -3   3    4.74    0.30
  -5   3  -3    0.53    0.17
  -5   3  -3    0.36    0.20
   5  -3   3    0.68    0.21
  -6   3  -3    2.56    0.36
  -6   3  -3    2.46    0.27
   6  -3   3    2.06    0.29
  -7   3  -3    0.49    0.30
   7  -3   3    0.48    0.27
  -7  -2   3    0.87    0.36
  -7  -2   3    0.71    0.32
  -6  -2   3   14.56    0.62
  -6  -2   3   14.71    0.60
  -5  -2   3   16.01    0.55
  -5  -2   3   16.01    0.56
  -5  -2   3   12.92    0.59
   4   2  -3   -0.06    0.09
  -4  -2   3    0.23    0.17
  -4  -2   3    0.03    0.15
  -4  -2   3   -0.09    0.13
   3   2  -3   14.58    0.32
  -3  -2   3   14.56    0.40
  -3  -2   3   14.28    0.41
  -3  -2   3   13.63    0.43
   2   2  -3   27.71    0.52
   2   2  -3   27.49    0.57
  -2  -2   3   27.46    0.59
  -2  -2   3   27.28    0.60
   1   2  -3   12.12    0.28
   1   2  -3   11.87    0.28
  -1  -2   3   11.71    0.30
  -1  -2   3   12.09    0.33
   0   2  -3    1.05    0.13
   0   2  -3    0.88    0.12
   0  -2   3    1.27    0.16
   0  -2   3    1.25    0.09
  -1   2  -3  190.30    3.10
   1  -2   3  188.50    3.04
   1  -2   3  187.62    3.11
   1  -2   3  189.10    3.12
   1  -2   3  188.81    3.04
  -2   2  -3    2.20    0.12
  -2   2  -3    2.45    0.18
   2  -2   3    2.02    0.18
  -3   2  -3    0.04    0.10
  -3   2  -3   -0.05    0.14
   3  -2   3    0.00    0.13
  -4   2  -3   10.04    0.33
  -4   2  -3    9.85    0.42
   4  -2   3   10.02    0.26
   4  -2   3    9.80    0.36
  -5   2  -3   19.80    0.56
  -5   2  -3   18.90    0.62
   5  -2   3   19.20    0.56
  -6   2  -3   13.59    0.54
  -6   2  -3   14.10    0.63
   6  -2   3   13.73    0.53
  -7   2  -3    0.35    0.33
  -7   2  -3    0.18    0.29
  -7  -1   3    0.15    0.28
  -7  -1   3    0.36    0.32
  -6  -1   3    3.29    0.40
  -6  -1   3    3.17    0.42
   5   1  -3    3.23    0.22
  -5  -1   3    3.29    0.32
  -5  -1   3    2.82    0.34
   4   1  -3    5.72    0.22
  -4  -1   3    6.08    0.26
  -4  -1   3    5.62    0.31
  -4  -1   3    6.33    0.31
   3   1  -3    0.07    0.08
  -3  -1   3   -0.11    0.10
  -3  -1   3   -0.03    0.11
  -3  -1   3   -0.05    0.12
   2   1  -3    1.55    0.14
  -2  -1   3    1.31    0.16
  -2  -1   3    1.29    0.14
  -2  -1   3    1.54    0.16
   1   1  -3    5.01    0.18
   1   1  -3    5.07    0.14
  -1  -1   3    5.07    0.19
  -1  -1   3    4.63    0.22
   0   1  -3   67.92    1.12
   0   1  -3   67.84    1.17
   0  -1   3   67.90    1.13
  -1   1  -3    1.84    0.14
  -1   1  -3    1.85    0.12
  -1   1  -3    2.14    0.16
  -2   1  -3   49.90    0.89
  -2   1  -3   49.25    0.94
   2  -1   3   50.23    0.92
  -3   1  -3   53.78    1.07
  -3   1  -3   53.13    1.00
   3  -1   3   53.54    1.01
  -4   1  -3    2.39    0.24
  -4   1  -3    2.10    0.26
   4  -1   3    2.24    0.23
  -5   1  -3    9.59    0.43
  -5   1  -3   10.59    0.47
   5  -1   3   10.09    0.40
  -6   1  -3    3.65    0.41
  -6   1  -3    3.91    0.41
  -7   1  -3    0.10    0.31
  -7   1  -3    0.27    0.30
  -8   0   3   -0.43    0.35
  -8   0   3   -0.13    0.35
  -7   0   3    0.34    0.30
  -7   0   3   -0.15    0.25
  -6   0   3   15.66    0.57
  -6   0   3   16.03    0.57
   5   0  -3    0.21    0.14
  -5   0   3   -0.01    0.17
  -5   0   3   -0.06    0.17
   4   0  -3    1.52    0.18
  -4   0   3    1.80    0.22
  -4   0   3    1.60    0.15
  -4   0   3    1.58    0.21
   3   0  -3    2.45    0.18
  -3   0   3    2.47    0.16
  -3   0   3    2.25    0.18
   2   0  -3   23.37    0.48
  -2   0   3   23.58    0.46
  -2   0   3   24.07    0.51
   1   0  -3   65.51    1.15
   1   0  -3   67.31    1.08
  -1   0   3   67.18    1.08
  -1   0   3   66.29    1.15
   0   0  -3   35.11    0.64
   0   0  -3   34.21    0.65
   0   0  -3   34.98    0.60
   0   0   3   33.84    0.62
  -1   0  -3   27.11    0.53
  -1   0  -3   27.16    0.52
  -1   0  -3   25.74    0.52
  -1   0  -3   26.23    0.53
  -2   0  -3    2.14    0.16
  -2   0  -3    2.24    0.21
  -2   0  -3    1.98    0.18
  -3   0  -3   11.24    0.31
  -3   0  -3   11.03    0.40
  -3   0  -3   11.12    0.36
   3   0   3   11.26    0.32
  -4   0  -3    6.76    0.39
  -4   0  -3    6.41    0.26
  -4   0  -3    7.12    0.35
   4   0   3    6.86    0.29
  -5   0  -3   17.34    0.62
  -5   0  -3   18.43    0.60
  -6   0  -3   -0.03    0.27
  -6   0  -3    0.14    0.25
  -7   0  -3    5.80    0.56
  -7   0  -3    6.80    0.61
  -8   1   3    0.77    0.35
  -8   1   3    0.06    0.35
  -7   1   3    0.09    0.24
  -7   1   3    0.64    0.29
   6  -1  -3    0.60    0.19
  -6   1   3    0.94    0.25
  -6   1   3    0.81    0.22
   5  -1  -3    4.84    0.27
  -5   1   3    4.75    0.30
  -5   1   3    5.80    0.35
   4  -1  -3    9.59    0.32
  -4   1   3    9.43    0.25
  -4   1   3    8.88    0.36
  -4   1   3    9.58    0.34
   3  -1  -3   97.38    1.72
  -3   1   3  100.88    1.72
  -3   1   3  100.68    1.74
   2  -1  -3   40.71    0.76
   2  -1  -3   39.65    0.73
  -2   1   3   39.41    0.72
  -2   1   3   39.64    0.76
   1  -1  -3  107.83    1.83
   1  -1  -3  108.31    1.82
  -1   1   3  107.53    1.82
  -1   1   3  108.95    1.78
   0  -1  -3  200.96    3.35
   0  -1  -3  206.16    3.32
   0   1   3  203.93    3.32
  -1  -1  -3   28.85    0.60
  -1  -1  -3   29.08    0.60
  -1  -1  -3   28.59    0.55
  -1  -1  -3   28.24    0.58
  -2  -1  -3   11.45    0.34
  -2  -1  -3   12.13    0.36
  -2  -1  -3   11.88    0.30
  -2  -1  -3   11.49    0.36
  -3  -1  -3   16.79    0.44
  -3  -1  -3   16.31    0.50
  -3  -1  -3   17.29    0.49
   3   1   3   17.00    0.40
  -4  -1  -3   16.21    0.57
  -4  -1  -3   17.21    0.46
  -4  -1  -3   17.11    0.55
   4   1   3   17.56    0.43
  -5  -1  -3   18.08    0.60
  -5  -1  -3   18.71    0.65
  -6  -1  -3    5.08    0.50
  -6  -1  -3    4.09    0.51
  -8   2   3    0.83    0.33
  -8   2   3    1.50    0.34
   7  -2  -3    2.01    0.28
  -7   2   3    2.06    0.31
  -7   2   3    1.59    0.33
   6  -2  -3    0.56    0.20
  -6   2   3    0.36    0.22
  -6   2   3    0.52    0.20
   5  -2  -3    0.77    0.17
  -5   2   3    1.11    0.20
  -5   2   3    0.69    0.19
   4  -2  -3    0.24    0.14
  -4   2   3    0.26    0.14
  -4   2   3    0.28    0.13
   3  -2  -3    0.22    0.09
   3  -2  -3   -0.01    0.12
  -3   2   3    0.23    0.12
  -3   2   3    0.15    0.11
   2  -2  -3   29.83    0.60
   2  -2  -3   29.62    0.61
  -2   2   3   30.20    0.62
  -2   2   3   30.81    0.60
   1  -2  -3   34.81    0.66
   1  -2  -3   34.13    0.68
  -1   2   3   34.70    0.67
  -1   2   3   33.91    0.65
   0  -2  -3   13.02    0.35
   0  -2  -3   12.39    0.31
   0   2   3   12.66    0.34
  -1  -2  -3    6.74    0.29
  -1  -2  -3    7.62    0.29
  -1  -2  -3    7.22    0.22
   1   2   3    7.24    0.30
  -2  -2  -3    9.51    0.34
  -2  -2  -3    9.73    0.26
  -2  -2  -3   10.15    0.35
   2   2   3    9.65    0.37
  -3  -2  -3    1.90    0.25
  -3  -2  -3    2.08    0.25
  -3  -2  -3    2.51    0.31
   3   2   3    2.44    0.17
  -4  -2  -3   12.82    0.52
  -4  -2  -3   14.31    0.46
  -4  -2  -3   14.06    0.57
  -5  -2  -3    4.09    0.40
  -5  -2  -3    3.64    0.46
  -6  -2  -3   25.08    0.86
  -6  -2  -3   24.41    0.91
  -8   3   3    1.33    0.34
  -8   3   3    1.40    0.35
   7  -3  -3    0.07    0.22
  -7   3   3    0.06    0.24
  -7   3   3    0.38    0.24
   6  -3  -3    2.14    0.25
  -6   3   3    2.58    0.33
  -6   3   3    2.71    0.30
   5  -3  -3    5.53    0.33
  -5   3   3    5.93    0.34
  -5   3   3    5.82    0.35
   4  -3  -3   10.01    0.28
   4  -3  -3   10.51    0.36
  -4   3   3   10.42    0.37
  -4   3   3    9.78    0.37
   3  -3  -3  135.40    2.27
   3  -3  -3  134.28    2.32
  -3   3   3  135.13    2.31
  -3   3   3  133.62    2.31
   2  -3  -3   67.10    1.21
   2  -3  -3   65.76    1.21
  -2   3   3   66.80    1.20
  -2   3   3   65.44    1.20
   1  -3  -3   40.40    0.81
   1  -3  -3   39.76    0.77
  -1   3   3   40.40    0.79
  -1   3   3   40.79    0.79
   0  -3  -3   95.35    1.70
   0  -3  -3   97.42    1.65
   0  -3  -3   97.12    1.74
   0   3   3   97.24    1.71
  -1  -3  -3   29.16    0.57
  -1  -3  -3   30.15    0.67
  -1  -3  -3   29.37    0.68
   1   3   3   28.47    0.67
  -2  -3  -3   16.02    0.49
  -2  -3  -3   15.99    0.35
  -2  -3  -3   15.89    0.48
   2   3   3   15.13    0.50
  -3  -3  -3    4.09    0.32
  -3  -3  -3    4.29    0.32
   3   3   3    4.34    0.38
  -4  -3  -3   67.99    1.36
  -4  -3  -3   67.56    1.43
   4   3   3   65.98    1.46
  -5  -3  -3    1.56    0.35
   5   3   3    2.31    0.38
  -6  -3  -3    7.72    0.65
   6   3   3    7.06    0.69
   8  -4  -3    9.75    0.55
  -8   4   3    8.01    0.55
  -8   4   3    8.44    0.61
   7  -4  -3    1.11    0.28
  -7   4   3    0.99    0.28
  -7   4   3    1.05    0.26
   6  -4  -3    0.72    0.24
  -6   4   3    0.62    0.22
  -6   4   3    0.48    0.22
   5  -4  -3   22.89    0.65
  -5   4   3   23.29    0.62
  -5   4   3   24.51    0.67
   4  -4  -3   26.25    0.57
   4  -4  -3   25.62    0.65
  -4   4   3   25.53    0.62
  -4   4   3   25.64    0.65
   3  -4  -3    7.22    0.28
   3  -4  -3    7.63    0.32
  -3   4   3    6.82    0.31
  -3   4   3    6.68    0.30
   2  -4  -3    1.18    0.17
   2  -4  -3    1.10    0.16
  -2   4   3    1.26    0.15
  -2   4   3    0.75    0.16
   1  -4  -3   13.21    0.42
   1  -4  -3   12.61    0.35
  -1   4   3   13.95    0.40
  -1   4   3   12.18    0.40
   0  -4  -3   58.03    1.16
   0  -4  -3   58.97    1.13
   0  -4  -3   57.66    1.05
   0   4   3   56.98    1.14
  -1  -4  -3   19.20    0.56
  -1  -4  -3   19.55    0.41
  -1  -4  -3   18.11    0.52
   1   4   3   18.39    0.54
  -2  -4  -3   42.64    0.96
  -2  -4  -3   41.04    0.96
   2   4   3   43.52    0.98
  -3  -4  -3   29.03    0.79
  -3  -4  -3   30.80    0.83
   3   4   3   31.56    0.86
  -4  -4  -3    4.42    0.42
  -4  -4  -3    2.84    0.39
   4   4   3    3.65    0.50
  -5  -4  -3   14.62    0.73
   5   4   3   14.84    0.78
   8  -5  -3    0.83    0.34
  -8   5   3    1.12    0.33
  -8   5   3    0.31    0.31
   7  -5  -3    5.69    0.48
  -7   5   3    5.77    0.44
  -7   5   3    5.73    0.45
   6  -5  -3   31.73    0.83
  -6   5   3   32.36    0.81
  -6   5   3   32.06    0.86
   5  -5  -3   11.18    0.45
  -5   5   3   11.51    0.48
  -5   5   3   10.44    0.43
   4  -5  -3   27.49    0.70
   4  -5  -3   26.87    0.62
  -4   5   3   26.71    0.65
  -4   5   3   26.50    0.69
   3  -5  -3   40.80    0.87
   3  -5  -3   40.30    0.86
  -3   5   3   40.58    0.89
  -3   5   3   40.62    0.85
   2  -5  -3    5.71    0.28
   2  -5  -3    6.09    0.32
  -2   5   3    5.26    0.31
  -2   5   3    5.89    0.29
   1  -5  -3    5.43    0.26
   1  -5  -3    5.39    0.31
  -1   5   3    5.49    0.30
  -1   5   3    5.17    0.33
   0  -5  -3   65.30    1.27
   0  -5  -3   64.82    1.17
   0  -5  -3   63.61    1.30
   0   5   3   62.87    1.28
  -1  -5  -3    3.19    0.31
  -1  -5  -3    3.18    0.31
  -1  -5  -3    2.81    0.19
   1   5   3    3.02    0.31
  -2  -5  -3   10.85    0.47
  -2  -5  -3    9.67    0.48
   2   5   3   10.05    0.52
  -3  -5  -3   19.37    0.67
  -3  -5  -3   20.58    0.67
   3   5   3   20.00    0.71
  -4  -5  -3    4.02    0.46
  -4  -5  -3    4.19    0.47
   4   5   3    3.32    0.47
  -5  -5  -3   18.81    0.85
   5   5   3   19.51    0.85
   8  -6  -3   -0.08    0.28
  -8   6   3    0.30    0.36
  -8   6   3    0.04    0.47
   7  -6  -3    0.12    0.30
  -7   6   3    0.43    0.27
  -7   6   3    0.06    0.26
   6  -6  -3   41.98    1.02
  -6   6   3   40.39    0.95
  -6   6   3   41.92    1.05
   5  -6  -3   42.30    0.96
   5  -6  -3   44.40    1.03
  -5   6   3   43.84    1.03
  -5   6   3   44.48    0.97
   4  -6  -3   10.26    0.45
   4  -6  -3   10.10    0.39
  -4   6   3    9.18    0.42
  -4   6   3    8.97    0.40
   3  -6  -3    0.19    0.18
   3  -6  -3   -0.14    0.17
  -3   6   3    0.39    0.18
  -3   6   3    0.25    0.16
   2  -6  -3   12.56    0.48
   2  -6  -3   12.15    0.41
  -2   6   3   11.68    0.40
  -2   6   3   12.10    0.45
   1  -6  -3    8.96    0.42
   1  -6  -3    8.72    0.34
  -1   6   3    9.01    0.44
  -1   6   3    8.82    0.37
   0  -6  -3   18.88    0.59
   0  -6  -3   19.92    0.65
   0  -6  -3   18.53    0.47
   0   6   3   18.34    0.60
  -1  -6  -3   59.65    1.27
  -1  -6  -3   59.21    1.31
   1   6   3   61.56    1.34
  -2  -6  -3    3.21    0.43
  -2  -6  -3    3.42    0.43
   2   6   3    2.99    0.40
  -3  -6  -3    1.87    0.36
  -3  -6  -3    1.78    0.35
   3   6   3    2.77    0.40
  -4  -6  -3    0.08    0.36
  -4  -6  -3   -0.26    0.32
   4   6   3   -0.26    0.39
   8  -7  -3   10.08    0.67
  -8   7   3    9.50    0.63
   7  -7  -3    0.80    0.30
  -7   7   3    2.00    0.36
  -7   7   3    1.80    0.35
   6  -7  -3   23.33    0.76
  -6   7   3   25.69    0.82
  -6   7   3   25.89    0.73
   5  -7  -3   11.96    0.55
   5  -7  -3   12.41    0.46
  -5   7   3   11.31    0.52
  -5   7   3   12.23    0.50
   4  -7  -3    0.57    0.21
   4  -7  -3    0.79    0.22
  -4   7   3    0.52    0.23
  -4   7   3    0.57    0.20
   3  -7  -3    0.23    0.20
   3  -7  -3    0.01    0.21
  -3   7   3    0.02    0.20
  -3   7   3    0.00    0.18
   2  -7  -3    0.42    0.19
   2  -7  -3    0.42    0.22
  -2   7   3    0.63    0.20
  -2   7   3    0.68    0.23
   1  -7  -3   67.47    1.46
   1  -7  -3   68.21    1.31
  -1   7   3   67.69    1.39
  -1   7   3   71.04    1.47
   0  -7  -3   21.85    0.72
   0  -7  -3   21.87    0.68
   0   7   3   21.85    0.74
  -1  -7  -3    5.13    0.49
  -1  -7  -3    5.97    0.47
   1   7   3    4.98    0.45
  -2  -7  -3    0.57    0.33
  -2  -7  -3    0.70    0.32
   2   7   3    0.87    0.32
  -3  -7  -3    0.79    0.33
  -3  -7  -3    1.09    0.38
   3   7   3    1.12    0.40
   7  -8  -3   22.23    0.84
  -7   8   3   21.40    0.81
   6  -8  -3   13.84    0.65
  -6   8   3   13.63    0.63
   5  -8  -3    1.77    0.30
   5  -8  -3    1.71    0.34
  -5   8   3    2.23    0.29
  -5   8   3    2.94    0.39
   4  -8  -3    3.17    0.39
   4  -8  -3    3.36    0.39
  -4   8   3    3.35    0.38
  -4   8   3    3.50    0.35
   3  -8  -3   18.63    0.65
   3  -8  -3   16.96    0.58
  -3   8   3   16.93    0.63
  -3   8   3   17.38    0.58
   2  -8  -3    0.93    0.27
   2  -8  -3    0.83    0.22
  -2   8   3    1.12    0.24
  -2   8   3    1.45    0.29
   1  -8  -3   13.47    0.63
  -1   8   3   12.39    0.61
  -1   8   3   12.06    0.53
   0  -8  -3    9.08    0.52
   0  -8  -3    8.95    0.59
   0   8   3    8.51    0.58
  -1  -8  -3    0.04    0.33
  -1  -8  -3   -0.09    0.29
   1   8   3   -0.10    0.30
  -2  -8  -3    0.14    0.33
  -2  -8  -3   -0.04    0.30
   2   8   3    0.43    0.36
   6  -9  -3    3.81    0.44
  -6   9   3    3.36    0.45
   5  -9  -3    3.54    0.42
  -5   9   3    2.58    0.38
   4  -9  -3    4.16    0.47
   4  -9  -3    4.03    0.45
  -4   9   3    4.17    0.40
  -4   9   3    3.87    0.44
   3  -9  -3   10.86    0.52
   3  -9  -3   12.07    0.62
  -3   9   3   12.42    0.53
  -3   9   3   11.54    0.63
   2  -9  -3    6.72    0.56
   2  -9  -3    6.77    0.44
  -2   9   3    6.45    0.49
  -2   9   3    6.39    0.46
   1  -9  -3    7.86    0.61
  -1   9   3    9.12    0.53
  -1   9   3    8.51    0.56
   0  -9  -3   14.75    0.70
   0   9   3   15.15    0.67
   0   9   3   13.55    0.69
  -1  -9  -3    0.26    0.36
  -1  -9  -3    0.29    0.36
   1   9   3    0.69    0.41
   5 -10  -3    1.72    0.39
  -5  10   3    1.48    0.42
   4 -10  -3    6.62    0.60
   4 -10  -3    7.11    0.54
  -4  10   3    8.08    0.64
   3 -10  -3    1.11    0.35
   3 -10  -3    0.23    0.29
  -3  10   3    0.82    0.34
  -3  10   3    0.84    0.31
   2 -10  -3   -0.06    0.36
  -2  10   3    0.28    0.34
  -2  10   3    0.33    0.30
   1 -10  -3    0.41    0.35
  -1  10   3    0.39    0.32
  -1  10   3    0.61    0.41
  -1  11  -4    4.75    0.54
   1 -11   4    5.89    0.60
  -2  11  -4    0.11    0.36
   2 -11   4   -0.05    0.34
  -3  11  -4    6.92    0.64
   3 -11   4    6.35    0.58
   3 -11   4    5.61    0.62
  -4  11  -4   29.90    1.05
   4 -11   4   32.06    1.00
   4 -11   4   30.52    0.98
   1  10  -4    0.81    0.40
  -1 -10   4    0.40    0.41
   0  10  -4    2.10    0.40
   0 -10   4    1.77    0.39
  -1  10  -4    6.45    0.51
   1 -10   4    7.29    0.61
  -2  10  -4   39.57    1.08
   2 -10   4   40.51    1.00
   2 -10   4   39.23    1.11
  -3  10  -4    7.85    0.59
   3 -10   4    8.14    0.58
   3 -10   4    8.42    0.53
  -4  10  -4    0.31    0.34
   4 -10   4    0.49    0.31
   4 -10   4    0.70    0.32
  -5  10  -4   -0.29    0.31
   5 -10   4   -0.07    0.35
   2   9  -4   11.03    0.67
  -2  -9   4   11.40    0.60
  -2  -9   4   11.04    0.65
   1   9  -4    1.47    0.36
  -1  -9   4    1.59    0.36
   0   9  -4    1.51    0.31
   0  -9   4    1.86    0.34
  -1   9  -4    3.50    0.39
   1  -9   4    3.16    0.36
   1  -9   4    2.81    0.39
  -2   9  -4    5.02    0.43
   2  -9   4    5.14    0.48
   2  -9   4    4.81    0.42
  -3   9  -4   14.46    0.65
   3  -9   4   14.45    0.62
   3  -9   4   14.89    0.61
  -4   9  -4    0.99    0.29
   4  -9   4    0.35    0.26
   4  -9   4    0.37    0.27
  -5   9  -4   12.99    0.69
   5  -9   4   14.57    0.68
  -6   9  -4   -0.10    0.36
   6  -9   4   -0.05    0.35
   3   8  -4    4.03    0.53
  -3  -8   4    2.98    0.41
  -3  -8   4    3.50    0.39
   2   8  -4    0.21    0.29
  -2  -8   4    0.11    0.24
  -2  -8   4   -0.08    0.32
   1   8  -4    0.31    0.25
  -1  -8   4    0.50    0.22
  -1  -8   4    0.41    0.27
   0   8  -4   36.62    0.93
   0  -8   4   33.64    0.94
  -1   8  -4   13.92    0.56
   1  -8   4   14.04    0.48
   1  -8   4   13.69    0.60
  -2   8  -4   20.68    0.67
   2  -8   4   18.87    0.64
   2  -8   4   18.49    0.59
  -3   8  -4    3.95    0.42
   3  -8   4    3.22    0.33
   3  -8   4    3.14    0.37
  -4   8  -4    0.64    0.26
   4  -8   4    1.45    0.29
   4  -8   4    1.02    0.25
  -5   8  -4    0.55    0.27
   5  -8   4    0.64    0.28
  -6   8  -4   -0.21    0.32
   6  -8   4    0.22    0.32
   4   7  -4    1.46    0.39
  -4  -7   4    1.71    0.36
  -4  -7   4    1.55    0.35
   3   7  -4   10.44    0.57
  -3  -7   4   11.07    0.61
  -3  -7   4   10.34    0.53
   2   7  -4    0.61    0.26
  -2  -7   4    0.19    0.20
  -2  -7   4    0.21    0.28
   1   7  -4    2.98    0.32
  -1  -7   4    2.76    0.29
  -1  -7   4    2.68    0.36
   0   7  -4    6.60    0.40
   0  -7   4    7.47    0.42
   0  -7   4    6.75    0.31
   0  -7   4    6.41    0.29
  -1   7  -4    2.36    0.32
   1  -7   4    2.00    0.28
   1  -7   4    1.83    0.22
  -2   7  -4    1.33    0.25
   2  -7   4    1.89    0.24
   2  -7   4    1.64    0.26
  -3   7  -4    8.05    0.44
   3  -7   4    8.20    0.41
   3  -7   4    8.09    0.43
  -4   7  -4    8.83    0.50
   4  -7   4   10.02    0.44
   4  -7   4    9.66    0.46
  -5   7  -4    6.97    0.46
   5  -7   4    7.48    0.49
  -6   7  -4    3.78    0.51
   6  -7   4    3.68    0.43
  -7   7  -4    0.92    0.39
   7  -7   4    1.53    0.39
   5   6  -4   -0.30    0.33
  -5  -6   4   -0.19    0.44
  -5  -6   4    0.18    0.30
   4   6  -4    0.19    0.25
  -4  -6   4   -0.03    0.26
  -4  -6   4   -0.17    0.27
   3   6  -4    8.29    0.44
  -3  -6   4    7.38    0.45
  -3  -6   4    8.62    0.45
   2   6  -4    1.18    0.23
  -2  -6   4    1.19    0.22
  -2  -6   4    1.02    0.25
   1   6  -4   38.51    0.88
  -1  -6   4   38.39    0.82
  -1  -6   4   38.56    0.75
  -1  -6   4   37.65    0.93
   0   6  -4   38.32    0.84
   0  -6   4   38.69    0.78
   0  -6   4   37.35    0.75
   0  -6   4   37.33    0.89
  -1   6  -4    1.10    0.18
   1  -6   4    0.51    0.15
   1  -6   4    0.80    0.10
   1  -6   4    0.53    0.18
  -2   6  -4    0.10    0.18
   2  -6   4    0.26    0.18
   2  -6   4   -0.02    0.14
  -3   6  -4    0.03    0.19
   3  -6   4    0.18    0.19
   3  -6   4    0.06    0.16
  -4   6  -4   12.16    0.48
   4  -6   4   11.83    0.48
   4  -6   4   12.59    0.42
  -5   6  -4    6.41    0.46
   5  -6   4    6.08    0.41
  -6   6  -4    0.43    0.31
   6  -6   4    0.70    0.27
  -7   6  -4    2.33    0.41
   7  -6   4    2.78    0.42
   6   5  -4   -0.16    0.36
  -6  -5   4    0.28    0.33
   5   5  -4    2.06    0.33
  -5  -5   4    1.52    0.35
  -5  -5   4    1.89    0.33
   4   5  -4   -0.08    0.24
  -4  -5   4    0.14    0.23
  -4  -5   4    0.09    0.21
   3   5  -4    0.89    0.21
  -3  -5   4    0.72    0.24
  -3  -5   4    0.75    0.22
   2   5  -4    0.15    0.15
  -2  -5   4    0.19    0.09
  -2  -5   4    0.31    0.18
  -2  -5   4    0.34    0.16
   1   5  -4   32.07    0.73
  -1  -5   4   33.18    0.66
  -1  -5   4   34.26    0.81
  -1  -5   4   32.54    0.69
   0   5  -4    8.19    0.32
   0  -5   4    8.56    0.38
   0  -5   4    8.57    0.30
   0  -5   4    8.53    0.25
  -1   5  -4    3.30    0.25
   1  -5   4    2.66    0.22
   1  -5   4    2.60    0.11
   1  -5   4    2.30    0.23
  -2   5  -4   13.39    0.42
   2  -5   4   13.54    0.43
   2  -5   4   14.67    0.44
  -3   5  -4    1.73    0.24
   3  -5   4    1.50    0.18
   3  -5   4    1.99    0.24
  -4   5  -4    0.65    0.22
   4  -5   4    0.88    0.21
   4  -5   4    0.55    0.15
  -5   5  -4    0.59    0.23
   5  -5   4    0.96    0.26
  -6   5  -4    1.13    0.29
   6  -5   4    0.59    0.27
  -7   5  -4    2.61    0.40
   7  -5   4    2.27    0.35
   6   4  -4    3.38    0.44
  -6  -4   4    3.35    0.43
   5   4  -4    3.60    0.42
  -5  -4   4    3.54    0.38
  -5  -4   4    2.85    0.37
   4   4  -4    4.21    0.37
  -4  -4   4    4.33    0.38
  -4  -4   4    4.27    0.36
   3   4  -4    5.92    0.33
  -3  -4   4    5.93    0.36
  -3  -4   4    6.34    0.35
   2   4  -4    0.06    0.14
  -2  -4   4    0.09    0.13
  -2  -4   4   -0.12    0.14
   1   4  -4   39.44    0.79
  -1  -4   4   39.11    0.77
  -1  -4   4   40.03    0.75
   0   4  -4   29.53    0.63
   0  -4   4   29.81    0.56
   0  -4   4   30.28    0.70
   0  -4   4   30.01    0.62
  -1   4  -4   90.70    1.62
   1  -4   4   92.96    1.66
   1  -4   4   91.81    1.63
  -2   4  -4    5.46    0.27
   2  -4   4    5.31    0.25
   2  -4   4    5.29    0.28
  -3   4  -4    0.42    0.17
  -3   4  -4    0.41    0.07
   3  -4   4    0.76    0.18
   3  -4   4    0.46    0.13
  -4   4  -4    0.13    0.16
  -4   4  -4   -0.11    0.11
   4  -4   4   -0.03    0.16
   4  -4   4    0.14    0.12
  -5   4  -4   17.49    0.60
   5  -4   4   17.85    0.60
  -6   4  -4    1.33    0.33
   6  -4   4    2.22    0.31
  -7   4  -4   11.82    0.69
   7  -4   4   12.07    0.61
   7   3  -4    0.87    0.40
  -7  -3   4   -0.10    0.32
   6   3  -4    0.55    0.31
  -6  -3   4    0.45    0.30
   5   3  -4    3.85    0.38
  -5  -3   4    3.99    0.37
  -5  -3   4    3.67    0.32
   4   3  -4    1.16    0.22
  -4  -3   4    1.21    0.22
  -4  -3   4    1.39    0.22
   3   3  -4    0.95    0.11
   3   3  -4    1.34    0.18
  -3  -3   4    1.05    0.19
  -3  -3   4    0.92    0.17
   2   3  -4    9.21    0.30
   2   3  -4    9.73    0.26
  -2  -3   4    9.23    0.36
  -2  -3   4    8.44    0.30
   1   3  -4    2.80    0.18
   1   3  -4    2.58    0.17
  -1  -3   4    2.89    0.17
  -1  -3   4    2.57    0.25
   0   3  -4    0.01    0.09
   0   3  -4    0.00    0.10
   0  -3   4    0.05    0.13
   0  -3   4    0.03    0.06
  -1   3  -4   23.21    0.49
   1  -3   4   22.37    0.53
   1  -3   4   22.17    0.51
  -2   3  -4    0.51    0.13
   2  -3   4    0.47    0.12
   2  -3   4    0.51    0.13
  -3   3  -4   29.14    0.69
  -3   3  -4   29.90    0.57
   3  -3   4   29.89    0.68
   3  -3   4   30.13    0.62
  -4   3  -4    7.11    0.28
  -4   3  -4    7.58    0.38
   4  -3   4    6.94    0.25
   4  -3   4    7.47    0.34
  -5   3  -4    1.37    0.20
  -5   3  -4    1.40    0.26
   5  -3   4    1.06    0.24
  -6   3  -4    0.41    0.29
   6  -3   4    0.80    0.26
  -7   3  -4   -0.13    0.30
  -7  -2   4   -0.16    0.32
  -7  -2   4   -0.18    0.31
  -6  -2   4   48.14    1.14
  -6  -2   4   48.86    1.16
  -5  -2   4    1.53    0.25
  -5  -2   4    1.63    0.21
  -5  -2   4    1.91    0.26
   4   2  -4    0.40    0.11
  -4  -2   4    0.22    0.16
  -4  -2   4    0.55    0.16
  -4  -2   4    0.21    0.19
   3   2  -4    0.57    0.10
  -3  -2   4    0.47    0.14
  -3  -2   4    0.56    0.15
   2   2  -4   18.10    0.41
   2   2  -4   19.15    0.42
  -2  -2   4   18.96    0.46
  -2  -2   4   18.56    0.48
   1   2  -4   26.94    0.50
   1   2  -4   26.12    0.53
  -1  -2   4   26.12    0.53
  -1  -2   4   26.81    0.59
   0   2  -4    6.60    0.19
   0   2  -4    6.76    0.24
   0  -2   4    7.27    0.19
   0  -2   4    7.26    0.26
  -1   2  -4   24.29    0.53
  -1   2  -4   25.51    0.51
   1  -2   4   24.61    0.44
  -2   2  -4   35.64    0.63
  -2   2  -4   34.70    0.72
   2  -2   4   34.24    0.72
  -3   2  -4    9.98    0.29
  -3   2  -4    9.57    0.37
   3  -2   4    9.20    0.34
  -4   2  -4    0.24    0.19
  -4   2  -4    0.41    0.15
   4  -2   4    0.40    0.17
  -5   2  -4    5.23    0.33
  -5   2  -4    4.98    0.38
   5  -2   4    5.04    0.34
  -6   2  -4   38.45    0.92
  -6   2  -4   37.21    1.01
   6  -2   4   36.52    0.89
  -7   2  -4    0.28    0.36
  -7  -1   4    1.68    0.37
  -7  -1   4    1.05    0.30
  -6  -1   4    1.69    0.29
  -6  -1   4    0.82    0.28
   5   1  -4    2.23    0.22
  -5  -1   4    2.43    0.30
  -5  -1   4    2.18    0.24
  -5  -1   4    2.34    0.30
   4   1  -4    8.79    0.29
  -4  -1   4    8.59    0.33
  -4  -1   4    7.95    0.37
  -4  -1   4    8.49    0.31
   3   1  -4   10.83    0.30
  -3  -1   4   11.65    0.35
  -3  -1   4   11.42    0.37
  -3  -1   4   11.23    0.32
   2   1  -4   26.26    0.52
  -2  -1   4   25.16    0.49
  -2  -1   4   24.95    0.55
  -2  -1   4   25.69    0.56
   1   1  -4   26.65    0.44
   1   1  -4   26.60    0.44
   1   1  -4   25.59    0.53
  -1  -1   4   26.50    0.53
   0   1  -4    0.09    0.10
   0   1  -4    0.11    0.05
   0  -1   4    0.02    0.06
  -1   1  -4    0.77    0.09
  -1   1  -4    1.05    0.13
  -1   1  -4    0.77    0.12
  -2   1  -4   10.67    0.33
  -2   1  -4   11.77    0.31
  -3   1  -4   58.69    1.09
  -3   1  -4   59.14    1.17
   3  -1   4   58.23    1.11
  -4   1  -4   16.04    0.47
  -4   1  -4   16.04    0.53
   4  -1   4   16.39    0.46
  -5   1  -4   10.79    0.45
  -5   1  -4   10.31    0.52
   5  -1   4    9.88    0.40
  -6   1  -4    0.14    0.28
  -6   1  -4    0.33    0.27
  -7   1  -4    0.73    0.34
  -7   1  -4    0.60    0.39
  -8   0   4    2.88    0.44
  -8   0   4    2.84    0.44
  -7   0   4    5.18    0.46
  -7   0   4    6.04    0.44
   6   0  -4    0.64    0.23
  -6   0   4    0.48    0.23
  -6   0   4    0.49    0.23
   5   0  -4    9.48    0.34
  -5   0   4    9.28    0.39
  -5   0   4    9.22    0.31
  -5   0   4    8.92    0.40
   4   0  -4    1.03    0.14
  -4   0   4    1.25    0.17
  -4   0   4    0.84    0.13
  -4   0   4    0.60    0.15
   3   0  -4    0.21    0.11
  -3   0   4    0.26    0.11
  -3   0   4    0.32    0.11
  -3   0   4    0.40    0.13
   2   0  -4  138.82    2.33
  -2   0   4  139.12    2.35
  -2   0   4  139.32    2.28
   1   0  -4   81.47    1.42
   1   0  -4   82.95    1.32
  -1   0   4   82.45    1.32
  -1   0   4   82.21    1.41
   0   0  -4   30.99    0.55
   0   0  -4   30.07    0.63
   0   0  -4   31.42    0.61
   0   0   4   30.38    0.59
  -1   0  -4   21.73    0.46
  -1   0  -4   21.05    0.49
  -1   0  -4   21.00    0.46
  -1   0  -4   21.50    0.46
  -2   0  -4   63.80    1.15
  -2   0  -4   64.08    1.17
  -2   0  -4   63.70    1.16
  -2   0  -4   63.06    1.19
  -3   0  -4   15.12    0.44
  -3   0  -4   15.50    0.41
  -3   0  -4   14.49    0.46
   3   0   4   15.22    0.41
  -4   0  -4    5.15    0.27
  -4   0  -4    5.29    0.38
  -4   0  -4    5.13    0.33
   4   0   4    5.84    0.29
  -5   0  -4    0.26    0.22
  -5   0  -4    0.24    0.22
  -6   0  -4    2.87    0.40
  -6   0  -4    3.42    0.37
  -7   0  -4   13.26    0.69
  -7   0  -4   14.21    0.78
  -8   1   4    0.33    0.34
  -8   1   4    0.63    0.35
  -7   1   4   -0.07    0.27
  -7   1   4    0.21    0.27
   6  -1  -4    0.27    0.18
  -6   1   4    0.35    0.21
  -6   1   4    0.23    0.19
   5  -1  -4    0.22    0.15
  -5   1   4   -0.01    0.15
  -5   1   4    0.04    0.16
   4  -1  -4   35.93    0.75
  -4   1   4   34.91    0.78
  -4   1   4   36.09    0.75
   3  -1  -4   34.07    0.70
  -3   1   4   34.69    0.67
  -3   1   4   33.42    0.71
   2  -1  -4   49.48    0.93
   2  -1  -4   50.10    0.93
  -2   1   4   50.20    0.87
  -2   1   4   49.50    0.94
   1  -1  -4   -0.07    0.11
   1  -1  -4    0.00    0.09
  -1   1   4   -0.13    0.06
  -1   1   4   -0.11    0.10
   0  -1  -4    0.03    0.09
   0  -1  -4    0.00    0.10
   0   1   4   -0.13    0.10
   0   1   4    0.00    0.08
  -1  -1  -4    0.39    0.13
  -1  -1  -4    0.33    0.12
  -1  -1  -4    0.43    0.13
  -1  -1  -4    0.40    0.11
  -2  -1  -4   45.20    0.86
  -2  -1  -4   45.26    0.93
  -2  -1  -4   46.90    0.91
  -2  -1  -4   44.53    0.91
  -3  -1  -4   25.20    0.67
  -3  -1  -4   27.03    0.66
  -3  -1  -4   26.27    0.63
   3   1   4   28.10    0.59
  -4  -1  -4    1.04    0.23
  -4  -1  -4    1.06    0.23
  -4  -1  -4    1.24    0.19
   4   1   4    0.99    0.16
  -5  -1  -4   16.08    0.66
  -5  -1  -4   17.64    0.64
  -6  -1  -4   10.15    0.61
  -6  -1  -4   12.07    0.68
  -8   2   4    9.05    0.61
  -8   2   4    7.99    0.59
   7  -2  -4    0.05    0.22
  -7   2   4    0.07    0.26
  -7   2   4    0.05    0.26
   6  -2  -4    5.25    0.35
  -6   2   4    4.47    0.38
  -6   2   4    4.64    0.37
   5  -2  -4    0.42    0.17
  -5   2   4    0.48    0.20
  -5   2   4    0.33    0.17
   4  -2  -4   15.19    0.43
  -4   2   4   16.57    0.45
  -4   2   4   15.60    0.47
   3  -2  -4    9.03    0.29
   3  -2  -4    8.89    0.32
  -3   2   4    8.85    0.32
  -3   2   4    9.21    0.30
   2  -2  -4    1.25    0.16
   2  -2  -4    1.11    0.14
  -2   2   4    1.51    0.16
  -2   2   4    1.09    0.15
   1  -2  -4  113.18    1.95
   1  -2  -4  111.50    1.92
  -1   2   4  111.98    1.89
  -1   2   4  112.25    1.93
   0  -2  -4  198.51    3.31
   0  -2  -4  202.71    3.37
   0   2   4  200.54    3.33
  -1  -2  -4    0.60    0.11
  -1  -2  -4    0.58    0.16
  -1  -2  -4    0.74    0.13
   1   2   4    0.90    0.17
  -2  -2  -4    1.98    0.25
  -2  -2  -4    1.83    0.17
  -2  -2  -4    1.85    0.24
   2   2   4    1.94    0.27
  -3  -2  -4   14.61    0.49
  -3  -2  -4   14.09    0.46
   3   2   4   14.53    0.38
  -4  -2  -4    2.17    0.29
  -4  -2  -4    1.49    0.22
  -4  -2  -4    1.66    0.31
  -5  -2  -4    0.43    0.31
  -5  -2  -4    0.28    0.26
  -6  -2  -4   11.53    0.68
   8  -3  -4    0.47    0.30
  -8   3   4    0.19    0.32
  -8   3   4    0.12    0.32
   7  -3  -4   -0.02    0.24
  -7   3   4   -0.19    0.26
  -7   3   4    0.11    0.26
   6  -3  -4   21.31    0.63
  -6   3   4   20.34    0.63
  -6   3   4   21.11    0.63
   5  -3  -4   13.86    0.47
  -5   3   4   13.68    0.47
  -5   3   4   13.62    0.48
   4  -3  -4    0.62    0.15
   4  -3  -4    0.42    0.12
  -4   3   4    0.50    0.16
  -4   3   4    0.38    0.15
   3  -3  -4   15.71    0.41
   3  -3  -4   17.03    0.46
  -3   3   4   15.75    0.43
  -3   3   4   16.33    0.44
   2  -3  -4   42.77    0.86
   2  -3  -4   43.44    0.87
  -2   3   4   43.38    0.87
  -2   3   4   43.73    0.84
   1  -3  -4    1.84    0.21
   1  -3  -4    1.43    0.18
  -1   3   4    1.67    0.21
  -1   3   4    1.34    0.16
   0  -3  -4   15.34    0.39
   0  -3  -4   16.22    0.46
   0  -3  -4   16.38    0.45
   0   3   4   15.35    0.42
  -1  -3  -4   11.63    0.40
  -1  -3  -4   10.64    0.39
  -1  -3  -4   11.23    0.31
   1   3   4   11.70    0.41
  -2  -3  -4    8.91    0.39
  -2  -3  -4    7.29    0.25
  -2  -3  -4    6.68    0.37
   2   3   4    7.37    0.37
  -3  -3  -4   19.17    0.63
  -3  -3  -4   20.54    0.60
   3   3   4   20.19    0.67
  -4  -3  -4   31.55    0.86
  -4  -3  -4   29.39    0.79
   4   3   4   31.80    0.93
  -5  -3  -4   20.65    0.79
   5   3   4   19.45    0.82
   8  -4  -4   -0.27    0.30
  -8   4   4    0.05    0.33
  -8   4   4   -0.02    0.31
   7  -4  -4   -0.22    0.24
  -7   4   4    0.11    0.26
  -7   4   4    0.14    0.26
   6  -4  -4    5.75    0.38
  -6   4   4    6.37    0.42
  -6   4   4    5.98    0.42
   5  -4  -4    7.55    0.29
   5  -4  -4    7.43    0.40
  -5   4   4    8.02    0.39
  -5   4   4    7.40    0.39
   4  -4  -4    2.11    0.20
   4  -4  -4    2.12    0.24
  -4   4   4    2.93    0.28
  -4   4   4    1.95    0.26
   3  -4  -4    0.20    0.16
   3  -4  -4    0.25    0.14
  -3   4   4    0.48    0.16
  -3   4   4    0.17    0.14
   2  -4  -4    2.54    0.23
   2  -4  -4    2.89    0.24
  -2   4   4    2.77    0.23
  -2   4   4    3.22    0.24
   1  -4  -4   89.19    1.58
   1  -4  -4   90.34    1.66
  -1   4   4   87.76    1.62
  -1   4   4   89.26    1.62
   0  -4  -4    0.19    0.16
   0  -4  -4    0.10    0.14
   0  -4  -4   -0.02    0.10
   0   4   4   -0.01    0.13
  -1  -4  -4    1.09    0.22
  -1  -4  -4    1.12    0.14
  -1  -4  -4    0.91    0.19
   1   4   4    1.23    0.22
  -2  -4  -4    6.35    0.37
  -2  -4  -4    6.28    0.37
   2   4   4    6.86    0.43
  -3  -4  -4    3.91    0.42
  -3  -4  -4    3.76    0.35
   3   4   4    3.64    0.40
  -4  -4  -4    3.42    0.41
  -4  -4  -4    4.02    0.45
   4   4   4    3.17    0.43
  -5  -4  -4   10.79    0.69
   5   4   4   10.34    0.73
   8  -5  -4    1.44    0.35
  -8   5   4    1.03    0.34
  -8   5   4    1.04    0.37
   7  -5  -4    4.20    0.41
  -7   5   4    4.36    0.44
  -7   5   4    4.14    0.47
   6  -5  -4   18.29    0.62
  -6   5   4   19.95    0.66
  -6   5   4   19.57    0.62
   5  -5  -4    2.97    0.31
   5  -5  -4    3.29    0.28
  -5   5   4    3.34    0.33
  -5   5   4    3.33    0.34
   4  -5  -4    3.69    0.27
   4  -5  -4    4.11    0.30
  -4   5   4    3.81    0.30
  -4   5   4    3.66    0.29
   3  -5  -4    5.79    0.33
   3  -5  -4    5.95    0.33
  -3   5   4    6.24    0.33
  -3   5   4    6.00    0.33
   2  -5  -4    4.17    0.29
   2  -5  -4    4.79    0.28
  -2   5   4    4.79    0.28
  -2   5   4    4.70    0.28
   1  -5  -4    5.85    0.34
   1  -5  -4    5.53    0.27
  -1   5   4    5.98    0.31
  -1   5   4    6.22    0.35
   0  -5  -4   17.96    0.57
   0  -5  -4   18.17    0.56
   0  -5  -4   18.14    0.45
   0   5   4   17.82    0.55
  -1  -5  -4    9.93    0.48
  -1  -5  -4    9.39    0.42
  -1  -5  -4    9.14    0.34
   1   5   4    8.86    0.44
  -2  -5  -4   58.48    1.30
  -2  -5  -4   59.36    1.29
   2   5   4   58.83    1.32
  -3  -5  -4    2.92    0.36
  -3  -5  -4    2.80    0.36
   3   5   4    2.56    0.37
  -4  -5  -4    3.92    0.53
  -4  -5  -4    3.30    0.41
   4   5   4    3.22    0.44
   8  -6  -4    1.12    0.37
  -8   6   4    0.88    0.34
  -8   6   4    0.71    0.37
   7  -6  -4   -0.03    0.25
  -7   6   4   -0.11    0.27
  -7   6   4    0.01    0.25
   6  -6  -4    6.25    0.47
  -6   6   4    5.83    0.43
  -6   6   4    5.95    0.45
   5  -6  -4    0.37    0.21
   5  -6  -4    0.11    0.18
  -5   6   4    0.06    0.20
  -5   6   4    0.12    0.20
   4  -6  -4    2.81    0.32
   4  -6  -4    2.76    0.34
  -4   6   4    2.89    0.31
  -4   6   4    2.83    0.30
   3  -6  -4    0.03    0.17
   3  -6  -4    0.03    0.18
  -3   6   4    0.13    0.18
  -3   6   4    0.05    0.18
   2  -6  -4    1.19    0.19
   2  -6  -4    0.68    0.21
  -2   6   4    1.07    0.22
  -2   6   4    1.39    0.22
   1  -6  -4    9.43    0.35
   1  -6  -4    9.98    0.46
  -1   6   4    9.23    0.40
  -1   6   4    9.76    0.47
   0  -6  -4   35.89    0.74
   0  -6  -4   34.51    0.91
   0  -6  -4   34.10    0.86
   0   6   4   34.34    0.88
  -1  -6  -4    2.51    0.34
  -1  -6  -4    2.88    0.35
   1   6   4    2.66    0.37
  -2  -6  -4    1.61    0.33
  -2  -6  -4    1.06    0.29
   2   6   4    1.70    0.33
  -3  -6  -4    0.41    0.29
  -3  -6  -4    0.49    0.30
   3   6   4    1.15    0.37
  -4  -6  -4   14.99    0.73
  -4  -6  -4   14.64    0.74
   4   6   4   15.35    0.79
   7  -7  -4    0.63    0.30
  -7   7   4    0.87    0.31
  -7   7   4    0.99    0.34
   6  -7  -4    0.46    0.26
  -6   7   4    0.05    0.28
  -6   7   4    0.08    0.25
   5  -7  -4    6.01    0.38
   5  -7  -4    5.19    0.40
  -5   7   4    6.42    0.41
  -5   7   4    5.86    0.46
   4  -7  -4    3.43    0.33
   4  -7  -4    3.39    0.36
  -4   7   4    3.32    0.35
  -4   7   4    3.59    0.36
   3  -7  -4    1.77    0.28
   3  -7  -4    0.96    0.23
  -3   7   4    1.33    0.25
  -3   7   4    1.57    0.26
   2  -7  -4   14.36    0.49
   2  -7  -4   14.11    0.56
  -2   7   4   14.08    0.55
  -2   7   4   15.46    0.54
   1  -7  -4   26.57    0.65
   1  -7  -4   25.68    0.78
  -1   7   4   24.99    0.73
  -1   7   4   26.10    0.77
   0  -7  -4   30.21    0.88
   0   7   4   30.18    0.89
  -1  -7  -4   12.08    0.60
  -1  -7  -4   12.32    0.64
   1   7   4   11.68    0.59
  -2  -7  -4    1.08    0.36
  -2  -7  -4    1.60    0.37
   2   7   4    1.08    0.40
  -3  -7  -4    0.13    0.33
  -3  -7  -4    0.20    0.34
   3   7   4    0.28    0.39
   7  -8  -4    0.12    0.30
  -7   8   4   -0.28    0.34
   6  -8  -4    3.31    0.40
  -6   8   4    3.63    0.44
  -6   8   4    2.51    0.36
   5  -8  -4    3.53    0.39
   5  -8  -4    3.05    0.39
  -5   8   4    3.59    0.43
  -5   8   4    3.44    0.40
   4  -8  -4   -0.02    0.24
   4  -8  -4    0.13    0.24
  -4   8   4    0.23    0.25
  -4   8   4    0.15    0.23
   3  -8  -4    0.22    0.28
   3  -8  -4    0.01    0.21
  -3   8   4    0.18    0.23
  -3   8   4   -0.11    0.26
   2  -8  -4    4.79    0.36
   2  -8  -4    5.09    0.50
  -2   8   4    6.89    0.51
  -2   8   4    5.90    0.43
   1  -8  -4   36.63    1.02
  -1   8   4   38.23    0.97
  -1   8   4   36.71    1.03
   0  -8  -4    0.55    0.35
   0   8   4    0.22    0.28
   0   8   4    0.49    0.31
  -1  -8  -4    1.15    0.35
  -1  -8  -4    1.47    0.36
   1   8   4    1.56    0.38
  -2  -8  -4    3.51    0.48
  -2  -8  -4    3.74    0.44
   2   8   4    5.26    0.66
   6  -9  -4    0.49    0.35
  -6   9   4    0.37    0.36
   5  -9  -4    5.19    0.50
   5  -9  -4    5.75    0.47
  -5   9   4    4.40    0.49
  -5   9   4    6.29    0.51
   4  -9  -4    0.34    0.31
   4  -9  -4    0.14    0.26
  -4   9   4    0.10    0.32
  -4   9   4    0.25    0.26
   3  -9  -4   10.06    0.57
   3  -9  -4    9.00    0.51
  -3   9   4    8.63    0.51
  -3   9   4    9.35    0.60
   2  -9  -4    1.58    0.30
   2  -9  -4    1.84    0.37
  -2   9   4    1.91    0.35
  -2   9   4    1.67    0.31
   1  -9  -4   17.84    0.76
  -1   9   4   19.16    0.76
  -1   9   4   18.65    0.72
   0  -9  -4   -0.24    0.34
   0   9   4    0.40    0.39
   0   9   4    0.37    0.29
  -1  -9  -4    2.52    0.45
   5 -10  -4    1.07    0.33
  -5  10   4    1.64    0.44
   4 -10  -4    7.87    0.55
   4 -10  -4    7.39    0.56
  -4  10   4    7.45    0.65
  -4  10   4    8.13    0.55
   3 -10  -4    7.96    0.60
   3 -10  -4    8.10    0.55
  -3  10   4    8.59    0.60
  -3  10   4    8.21    0.65
   2 -10  -4    2.48    0.48
  -2  10   4    2.12    0.38
  -2  10   4    1.92    0.43
   1 -10  -4    1.59    0.42
  -1  10   4    2.34    0.49
  -1  10   4    2.30    0.41
  -1  11  -5    3.65    0.51
   1 -11   5    2.87    0.51
  -2  11  -5    1.54    0.38
   2 -11   5    2.15    0.45
  -3  11  -5    2.03    0.43
   3 -11   5    1.98    0.40
   3 -11   5    2.22    0.39
   1  10  -5    1.61    0.41
  -1 -10   5    1.23    0.43
   0  10  -5    1.43    0.37
   0 -10   5    0.87    0.39
  -1  10  -5    0.79    0.34
   1 -10   5    1.22    0.39
  -2  10  -5    3.25    0.43
   2 -10   5    2.59    0.42
   2 -10   5    3.28    0.37
  -3  10  -5   11.99    0.66
   3 -10   5   13.34    0.64
   3 -10   5   12.27    0.61
  -4  10  -5   -0.05    0.29
   4 -10   5   -0.37    0.30
   4 -10   5   -0.25    0.32
  -5  10  -5    6.34    0.57
   5 -10   5    7.55    0.63
   2   9  -5   11.48    0.66
  -2  -9   5   11.14    0.67
   1   9  -5    0.30    0.31
  -1  -9   5    0.06    0.34
   0   9  -5    1.21    0.32
   0  -9   5    0.98    0.32
  -1   9  -5    1.55    0.32
   1  -9   5    1.45    0.32
   1  -9   5    1.57    0.26
  -2   9  -5   -0.17    0.27
   2  -9   5    0.12    0.23
   2  -9   5    0.12    0.26
  -3   9  -5   15.87    0.67
   3  -9   5   16.06    0.63
   3  -9   5   16.60    0.67
  -4   9  -5    0.27    0.30
   4  -9   5    0.53    0.29
   4  -9   5    0.46    0.28
  -5   9  -5    2.40    0.41
   5  -9   5    2.15    0.40
  -6   9  -5   16.32    0.79
   6  -9   5   15.24    0.77
   3   8  -5    4.74    0.53
  -3  -8   5    4.40    0.50
  -3  -8   5    4.00    0.50
   2   8  -5    2.46    0.33
  -2  -8   5    2.90    0.37
  -2  -8   5    2.12    0.40
   1   8  -5   -0.20    0.24
  -1  -8   5    0.01    0.30
   0   8  -5    0.16    0.23
   0  -8   5    0.37    0.29
   0  -8   5    0.12    0.18
  -1   8  -5    6.47    0.40
   1  -8   5    6.41    0.37
   1  -8   5    6.28    0.44
  -2   8  -5    7.43    0.42
   2  -8   5    6.78    0.43
   2  -8   5    6.98    0.42
  -3   8  -5   -0.10    0.24
   3  -8   5   -0.06    0.21
   3  -8   5   -0.03    0.23
  -4   8  -5    1.08    0.31
   4  -8   5    0.80    0.26
   4  -8   5    1.07    0.31
  -5   8  -5    1.88    0.33
   5  -8   5    1.63    0.35
  -6   8  -5    1.90    0.39
   6  -8   5    1.80    0.38
   4   7  -5    0.43    0.33
  -4  -7   5    0.04    0.35
  -4  -7   5    0.26    0.31
   3   7  -5   16.48    0.65
  -3  -7   5   16.16    0.64
  -3  -7   5   16.31    0.70
   2   7  -5   17.96    0.63
  -2  -7   5   19.31    0.59
  -2  -7   5   18.14    0.71
   1   7  -5   26.17    0.72
  -1  -7   5   27.93    0.66
  -1  -7   5   27.03    0.80
   0   7  -5    1.65    0.25
   0  -7   5    1.44    0.20
   0  -7   5    1.73    0.28
  -1   7  -5    2.95    0.33
   1  -7   5    3.05    0.29
   1  -7   5    3.70    0.34
  -2   7  -5   10.11    0.43
   2  -7   5    9.88    0.41
   2  -7   5   10.40    0.45
  -3   7  -5   26.05    0.74
   3  -7   5   27.12    0.72
   3  -7   5   25.06    0.73
  -4   7  -5    0.22    0.24
   4  -7   5    0.17    0.22
   4  -7   5    0.26    0.21
  -5   7  -5    3.58    0.41
   5  -7   5    3.86    0.46
  -6   7  -5    4.53    0.53
   6  -7   5    4.74    0.53
   5   6  -5    2.66    0.42
  -5  -6   5    3.48    0.42
  -5  -6   5    2.35    0.40
   4   6  -5   18.00    0.68
  -4  -6   5   18.72    0.65
  -4  -6   5   17.56    0.70
   3   6  -5    0.50    0.23
  -3  -6   5    0.49    0.28
  -3  -6   5    0.46    0.22
   2   6  -5    2.21    0.26
  -2  -6   5    1.45    0.22
  -2  -6   5    1.67    0.27
   1   6  -5   10.32    0.41
  -1  -6   5    9.08    0.33
  -1  -6   5    9.83    0.48
  -1  -6   5    9.95    0.36
   0   6  -5    8.82    0.37
   0  -6   5    9.56    0.43
   0  -6   5   10.37    0.36
   0  -6   5   10.69    0.31
  -1   6  -5    0.87    0.19
   1  -6   5    0.70    0.16
   1  -6   5    0.80    0.20
  -2   6  -5    6.33    0.35
   2  -6   5    5.75    0.36
   2  -6   5    6.29    0.35
  -3   6  -5    1.72    0.24
   3  -6   5    2.33    0.27
   3  -6   5    1.57    0.23
  -4   6  -5    0.02    0.22
   4  -6   5    0.18    0.18
   4  -6   5    0.17    0.21
  -5   6  -5    5.34    0.46
   5  -6   5    6.12    0.43
  -6   6  -5    0.63    0.33
   6  -6   5    0.57    0.32
  -7   6  -5    2.01    0.39
   7  -6   5    2.42    0.42
   6   5  -5    0.48    0.37
  -6  -5   5    0.65    0.34
   5   5  -5    0.39    0.30
  -5  -5   5    0.23    0.28
  -5  -5   5    0.20    0.28
   4   5  -5    0.93    0.25
  -4  -5   5    1.21    0.28
  -4  -5   5    1.43    0.29
   3   5  -5    6.16    0.37
  -3  -5   5    6.28    0.42
  -3  -5   5    6.75    0.38
   2   5  -5    3.29    0.27
  -2  -5   5    2.76    0.26
  -2  -5   5    3.28    0.31
  -2  -5   5    3.10    0.21
   1   5  -5    4.68    0.27
  -1  -5   5    4.20    0.24
  -1  -5   5    4.36    0.31
  -1  -5   5    4.35    0.24
   0   5  -5    4.07    0.25
   0  -5   5    4.37    0.25
   0  -5   5    4.66    0.19
   0  -5   5    4.49    0.30
  -1   5  -5   21.80    0.54
   1  -5   5   21.50    0.60
   1  -5   5   21.56    0.55
  -2   5  -5   18.68    0.51
   2  -5   5   18.72    0.52
   2  -5   5   17.84    0.51
  -3   5  -5   68.81    1.38
   3  -5   5   71.14    1.34
   3  -5   5   70.49    1.38
  -4   5  -5    0.57    0.20
   4  -5   5    1.05    0.22
   4  -5   5    0.51    0.17
  -5   5  -5    7.55    0.44
   5  -5   5    7.31    0.43
  -6   5  -5    1.13    0.30
   6  -5   5    1.94    0.34
  -7   5  -5   -0.17    0.35
   7  -5   5    0.42    0.34
   6   4  -5   13.14    0.65
  -6  -4   5   12.11    0.66
   5   4  -5    1.88    0.32
  -5  -4   5    1.80    0.30
  -5  -4   5    1.42    0.31
   4   4  -5    0.04    0.19
  -4  -4   5    0.20    0.21
  -4  -4   5   -0.45    0.20
   3   4  -5    8.61    0.30
   3   4  -5    9.00    0.37
  -3  -4   5    8.73    0.39
  -3  -4   5    9.17    0.40
   2   4  -5    0.09    0.10
   2   4  -5    0.13    0.13
  -2  -4   5   -0.04    0.17
  -2  -4   5    0.05    0.13
   1   4  -5   24.47    0.53
   1   4  -5   24.03    0.54
  -1  -4   5   24.19    0.62
  -1  -4   5   24.41    0.53
   0   4  -5    7.10    0.27
   0  -4   5    7.28    0.21
   0  -4   5    7.66    0.29
   0  -4   5    7.35    0.33
  -1   4  -5   52.90    1.01
   1  -4   5   52.15    1.06
   1  -4   5   53.77    1.04
  -2   4  -5   16.29    0.45
   2  -4   5   15.80    0.46
  -3   4  -5    0.13    0.14
   3  -4   5    0.07    0.16
   3  -4   5   -0.11    0.13
  -4   4  -5    7.59    0.41
   4  -4   5    7.12    0.37
   4  -4   5    7.78    0.31
  -5   4  -5   13.96    0.58
   5  -4   5   14.94    0.57
  -6   4  -5    0.29    0.26
   6  -4   5    0.03    0.27
  -7   4  -5    2.00    0.43
   7  -4   5    1.54    0.37
   7   3  -5    0.22    0.36
  -7  -3   5   -0.07    0.36
   6   3  -5    3.17    0.43
  -6  -3   5    2.39    0.38
   5   3  -5   17.30    0.59
  -5  -3   5   18.47    0.65
  -5  -3   5   17.35    0.58
   4   3  -5    4.24    0.33
  -4  -3   5    4.27    0.33
  -4  -3   5    4.46    0.33
   3   3  -5    6.55    0.29
   3   3  -5    7.25    0.25
  -3  -3   5    7.34    0.35
  -3  -3   5    6.23    0.34
   2   3  -5    8.55    0.27
   2   3  -5    9.29    0.28
  -2  -3   5    7.95    0.34
  -2  -3   5    8.31    0.31
   1   3  -5   16.72    0.37
   1   3  -5   16.55    0.41
  -1  -3   5   16.60    0.48
  -1  -3   5   15.77    0.39
   0   3  -5   52.54    0.99
   0   3  -5   52.24    0.94
   0  -3   5   52.74    1.03
   0  -3   5   52.42    0.91
  -1   3  -5   42.44    0.80
   1  -3   5   42.21    0.70
   1  -3   5   41.26    0.85
  -2   3  -5   25.74    0.58
   2  -3   5   24.24    0.57
   2  -3   5   25.32    0.45
   2  -3   5   23.53    0.59
  -3   3  -5    7.20    0.23
  -3   3  -5    7.65    0.35
   3  -3   5    6.86    0.32
   3  -3   5    6.75    0.28
  -4   3  -5   14.70    0.52
  -4   3  -5   15.03    0.40
   4  -3   5   14.84    0.41
   4  -3   5   15.34    0.51
  -5   3  -5   18.07    0.65
   5  -3   5   17.53    0.59
  -6   3  -5    2.07    0.34
   6  -3   5    2.74    0.34
  -7   3  -5    2.19    0.39
  -7  -2   5    0.46    0.31
  -6  -2   5    0.30    0.28
  -6  -2   5    0.42    0.26
  -5  -2   5    1.40    0.27
  -5  -2   5    1.58    0.22
  -5  -2   5    2.07    0.26
   4   2  -5   11.36    0.34
  -4  -2   5   10.57    0.44
  -4  -2   5   10.68    0.40
   3   2  -5    3.50    0.22
   3   2  -5    3.65    0.21
  -3  -2   5    3.70    0.27
  -3  -2   5    3.47    0.27
   2   2  -5   -0.10    0.10
   2   2  -5   -0.05    0.08
  -2  -2   5   -0.04    0.10
  -2  -2   5   -0.05    0.14
   1   2  -5  292.53    4.81
   1   2  -5  294.93    4.78
  -1  -2   5  290.49    4.78
  -1  -2   5  297.85    4.86
   0   2  -5  192.97    3.12
   0   2  -5  191.16    3.20
   0  -2   5  192.65    3.13
  -1   2  -5    1.04    0.16
  -1   2  -5    1.23    0.14
   1  -2   5    1.10    0.11
  -2   2  -5   10.74    0.28
  -2   2  -5   11.10    0.34
   2  -2   5   11.06    0.37
  -3   2  -5    1.57    0.21
  -3   2  -5    1.61    0.19
   3  -2   5    1.39    0.19
  -4   2  -5   15.28    0.54
  -4   2  -5   14.65    0.43
   4  -2   5   15.00    0.48
  -5   2  -5    7.84    0.49
  -5   2  -5    8.18    0.40
   5  -2   5    8.07    0.40
  -6   2  -5    2.47    0.35
   6  -2   5    2.41    0.32
  -7   2  -5    0.02    0.36
  -7  -1   5    7.82    0.53
  -7  -1   5    9.77    0.60
  -6  -1   5   19.03    0.63
  -6  -1   5   19.18    0.69
   5   1  -5    1.15    0.17
  -5  -1   5    0.71    0.17
  -5  -1   5    0.77    0.20
  -5  -1   5    1.32    0.26
   4   1  -5    0.77    0.14
  -4  -1   5    0.73    0.19
  -4  -1   5    0.42    0.15
  -4  -1   5    0.79    0.16
   3   1  -5    0.00    0.10
  -3  -1   5    0.08    0.09
  -3  -1   5    0.09    0.13
  -3  -1   5    0.05    0.13
   2   1  -5    4.41    0.15
   2   1  -5    3.93    0.21
  -2  -1   5    4.48    0.25
   1   1  -5    6.31    0.24
  -1  -1   5    6.10    0.24
   0   1  -5   10.02    0.31
   0   1  -5   10.06    0.22
   0  -1   5    9.84    0.26
  -1   1  -5    0.57    0.10
  -1   1  -5    0.44    0.13
   1  -1   5    0.35    0.09
  -2   1  -5   18.91    0.48
  -2   1  -5   18.98    0.47
  -2   1  -5   18.94    0.44
  -3   1  -5   -0.17    0.15
  -3   1  -5    0.08    0.13
   3  -1   5   -0.03    0.12
  -4   1  -5   14.16    0.53
  -4   1  -5   15.52    0.47
   4  -1   5   14.06    0.46
  -5   1  -5    1.41    0.31
  -5   1  -5    1.12    0.25
   5  -1   5    0.86    0.21
  -6   1  -5    7.77    0.50
  -6   1  -5    7.37    0.56
  -8   0   5   27.63    0.93
  -8   0   5   28.75    0.97
  -7   0   5    1.63    0.34
  -7   0   5    1.54    0.31
   6   0  -5    0.21    0.18
  -6   0   5    0.39    0.23
  -6   0   5    0.45    0.22
   5   0  -5    7.49    0.32
  -5   0   5    7.26    0.36
  -5   0   5    8.17    0.32
  -5   0   5    7.59    0.38
   4   0  -5    7.63    0.30
  -4   0   5    7.03    0.33
  -4   0   5    7.49    0.29
  -4   0   5    8.19    0.30
   3   0  -5    2.53    0.20
  -3   0   5    2.48    0.17
  -3   0   5    2.38    0.22
   2   0  -5   72.72    1.32
  -2   0   5   74.46    1.22
  -2   0   5   73.15    1.33
   1   0  -5  375.10    6.13
  -1   0   5  379.90    6.03
  -1   0   5  371.72    6.11
  -1   0   5  379.73    6.04
   0   0  -5   12.52    0.36
   0   0   5   12.38    0.32
  -1   0  -5    0.25    0.10
  -1   0  -5    0.37    0.12
  -1   0  -5    0.14    0.12
  -1   0  -5    0.49    0.11
  -2   0  -5    5.02    0.25
  -2   0  -5    4.99    0.27
  -2   0  -5    5.18    0.25
  -2   0  -5    5.21    0.26
  -3   0  -5    0.36    0.17
  -3   0  -5    0.27    0.15
  -3   0  -5    0.38    0.16
   3   0   5    0.49    0.14
  -4   0  -5    2.48    0.26
  -4   0  -5    2.52    0.30
  -4   0  -5    2.22    0.25
   4   0   5    2.20    0.24
  -5   0  -5    0.36    0.26
  -5   0  -5   -0.13    0.26
  -6   0  -5    1.59    0.34
  -6   0  -5    1.25    0.36
  -8   1   5    0.04    0.33
  -8   1   5    0.24    0.35
  -7   1   5    0.38    0.26
  -7   1   5    0.93    0.29
   6  -1  -5    2.73    0.29
  -6   1   5    3.15    0.34
  -6   1   5    2.98    0.34
   5  -1  -5    0.87    0.18
  -5   1   5    1.09    0.19
  -5   1   5    1.00    0.15
  -5   1   5    0.85    0.23
   4  -1  -5   58.41    1.12
  -4   1   5   58.37    1.10
  -4   1   5   57.94    1.16
   3  -1  -5    0.31    0.13
  -3   1   5    0.24    0.10
  -3   1   5    0.07    0.13
   2  -1  -5   11.10    0.34
   2  -1  -5   11.96    0.36
  -2   1   5   12.34    0.28
  -2   1   5   11.87    0.36
   1  -1  -5   24.65    0.57
   1  -1  -5   24.78    0.54
  -1   1   5   24.44    0.54
  -1   1   5   24.95    0.47
   0  -1  -5    2.14    0.19
   0  -1  -5    1.83    0.20
   0   1   5    1.83    0.19
   0   1   5    1.88    0.15
  -1  -1  -5   78.17    1.38
  -1  -1  -5   77.31    1.43
  -1  -1  -5   75.97    1.40
  -2  -1  -5    2.84    0.25
  -2  -1  -5    2.81    0.25
  -2  -1  -5    3.00    0.22
  -2  -1  -5    2.72    0.25
  -3  -1  -5    9.38    0.42
  -3  -1  -5    9.56    0.38
  -3  -1  -5    9.77    0.39
   3   1   5    9.83    0.34
  -4  -1  -5    6.50    0.42
  -4  -1  -5    6.93    0.36
  -4  -1  -5    6.41    0.44
  -5  -1  -5   -0.16    0.28
  -5  -1  -5   -0.31    0.27
  -6  -1  -5    2.02    0.40
  -6  -1  -5    1.66    0.37
  -8   2   5    3.28    0.43
  -8   2   5    2.40    0.37
   7  -2  -5    0.13    0.24
  -7   2   5    0.63    0.28
  -7   2   5   -0.03    0.27
   6  -2  -5   14.36    0.52
  -6   2   5   14.46    0.57
  -6   2   5   14.53    0.53
   5  -2  -5    9.98    0.40
  -5   2   5   10.08    0.39
  -5   2   5    8.99    0.41
   4  -2  -5   27.65    0.66
  -4   2   5   26.83    0.61
  -4   2   5   27.31    0.66
   3  -2  -5    1.29    0.16
   3  -2  -5    1.13    0.16
  -3   2   5    1.16    0.17
  -3   2   5    1.26    0.17
   2  -2  -5    3.21    0.24
  -2   2   5    3.49    0.19
  -2   2   5    3.21    0.22
   1  -2  -5    0.04    0.12
   1  -2  -5    0.14    0.12
  -1   2   5   -0.02    0.13
  -1   2   5    0.18    0.10
   0  -2  -5   43.44    0.90
   0  -2  -5   43.69    0.85
   0   2   5   43.66    0.85
   0   2   5   43.03    0.87
  -1  -2  -5    0.24    0.15
  -1  -2  -5    0.16    0.11
  -1  -2  -5    0.30    0.16
   1   2   5    0.05    0.12
  -2  -2  -5    1.06    0.15
  -2  -2  -5    1.02    0.19
  -2  -2  -5    0.89    0.20
   2   2   5    0.74    0.19
  -3  -2  -5   29.71    0.73
  -3  -2  -5   27.97    0.75
   3   2   5   29.40    0.64
   3   2   5   28.21    0.77
  -4  -2  -5    2.65    0.32
  -4  -2  -5    2.65    0.34
  -5  -2  -5    8.93    0.58
  -6  -2  -5    5.50    0.62
   8  -3  -5    4.02    0.51
  -8   3   5    4.37    0.46
  -8   3   5    5.41    0.54
   7  -3  -5    0.44    0.26
  -7   3   5    0.60    0.28
  -7   3   5    0.40    0.25
   6  -3  -5    1.29    0.24
  -6   3   5    1.48    0.25
  -6   3   5    1.07    0.24
   5  -3  -5   25.54    0.68
  -5   3   5   25.16    0.69
  -5   3   5   25.71    0.65
   4  -3  -5    7.83    0.30
   4  -3  -5    7.62    0.34
  -4   3   5    8.32    0.36
  -4   3   5    8.37    0.33
   3  -3  -5    6.88    0.30
   3  -3  -5    6.53    0.30
  -3   3   5    7.34    0.31
  -3   3   5    6.65    0.28
   2  -3  -5    0.29    0.12
   2  -3  -5    0.27    0.15
  -2   3   5    0.22    0.12
  -2   3   5    0.24    0.15
   1  -3  -5    1.31    0.19
   1  -3  -5    1.88    0.20
  -1   3   5    1.82    0.19
  -1   3   5    1.95    0.21
   0  -3  -5    0.89    0.14
   0  -3  -5    0.81    0.19
   0   3   5    0.70    0.15
   0   3   5    0.70    0.16
  -1  -3  -5    0.31    0.12
  -1  -3  -5    0.12    0.16
  -1  -3  -5    0.29    0.16
   1   3   5    0.41    0.16
  -2  -3  -5   10.50    0.33
  -2  -3  -5   11.23    0.46
  -2  -3  -5   10.48    0.45
   2   3   5   10.00    0.43
  -3  -3  -5    9.73    0.46
  -3  -3  -5    9.91    0.47
   3   3   5   10.56    0.54
  -4  -3  -5    0.86    0.32
  -4  -3  -5    0.79    0.27
   4   3   5    1.31    0.36
  -5  -3  -5    6.07    0.59
   5   3   5    4.92    0.55
   8  -4  -5    8.14    0.57
  -8   4   5    9.04    0.60
  -8   4   5    7.96    0.58
   7  -4  -5    4.69    0.45
  -7   4   5    4.65    0.45
  -7   4   5    4.21    0.41
   6  -4  -5    6.42    0.43
  -6   4   5    6.36    0.40
  -6   4   5    6.13    0.41
   5  -4  -5    1.11    0.23
   5  -4  -5    1.74    0.23
  -5   4   5    1.68    0.25
  -5   4   5    1.05    0.22
   4  -4  -5    2.22    0.28
   4  -4  -5    2.76    0.25
  -4   4   5    2.56    0.26
  -4   4   5    2.87    0.26
   3  -4  -5   38.40    0.84
   3  -4  -5   38.59    0.84
  -3   4   5   38.92    0.85
  -3   4   5   38.67    0.82
   2  -4  -5   39.70    0.87
   2  -4  -5   37.90    0.81
  -2   4   5   38.73    0.82
  -2   4   5   39.01    0.84
   1  -4  -5    2.86    0.27
   1  -4  -5    2.41    0.22
  -1   4   5    2.64    0.24
  -1   4   5    2.56    0.22
   0  -4  -5    1.95    0.26
   0  -4  -5    1.38    0.16
   0   4   5    1.05    0.18
  -1  -4  -5    1.70    0.21
  -1  -4  -5    1.96    0.25
  -1  -4  -5    1.83    0.25
   1   4   5    1.82    0.26
  -2  -4  -5    2.88    0.33
  -2  -4  -5    2.72    0.33
   2   4   5    3.30    0.39
  -3  -4  -5    0.87    0.28
  -3  -4  -5    1.06    0.30
   3   4   5    0.88    0.29
  -4  -4  -5    8.70    0.53
  -4  -4  -5    8.07    0.59
   4   4   5    7.49    0.55
  -5  -4  -5    7.45    0.60
   8  -5  -5    4.43    0.53
  -8   5   5    3.82    0.43
  -8   5   5    4.13    0.53
   7  -5  -5    0.29    0.29
  -7   5   5    0.68    0.27
  -7   5   5    0.53    0.26
   6  -5  -5    0.26    0.26
  -6   5   5    0.77    0.25
  -6   5   5    0.58    0.25
   5  -5  -5    1.09    0.25
   5  -5  -5    0.82    0.20
  -5   5   5    0.98    0.24
  -5   5   5    1.07    0.24
   4  -5  -5    7.81    0.37
   4  -5  -5    7.29    0.39
  -4   5   5    7.73    0.40
  -4   5   5    7.88    0.38
   3  -5  -5    7.16    0.35
   3  -5  -5    7.56    0.37
  -3   5   5    8.45    0.38
  -3   5   5    8.21    0.39
   2  -5  -5    6.55    0.36
   2  -5  -5    7.16    0.31
  -2   5   5    6.39    0.35
  -2   5   5    6.83    0.36
   1  -5  -5   26.43    0.71
   1  -5  -5   26.08    0.62
  -1   5   5   27.46    0.69
  -1   5   5   25.81    0.67
   0  -5  -5   24.65    0.70
   0  -5  -5   24.90    0.58
   0   5   5   25.07    0.68
  -1  -5  -5    4.20    0.39
  -1  -5  -5    4.25    0.37
   1   5   5    4.49    0.42
  -2  -5  -5    1.04    0.28
  -2  -5  -5    0.51    0.28
   2   5   5    0.35    0.30
  -3  -5  -5    0.00    0.29
  -3  -5  -5    0.58    0.30
   3   5   5    0.12    0.31
  -4  -5  -5    0.37    0.37
  -4  -5  -5    0.82    0.39
   4   5   5    0.42    0.37
   8  -6  -5   13.66    0.71
  -8   6   5   13.79    0.68
  -8   6   5   13.64    0.71
   7  -6  -5    0.41    0.28
  -7   6   5    0.34    0.31
  -7   6   5    0.40    0.29
   6  -6  -5    0.21    0.27
  -6   6   5    0.43    0.24
  -6   6   5    0.07    0.26
   5  -6  -5    1.01    0.25
   5  -6  -5    1.16    0.24
  -5   6   5    1.55    0.26
  -5   6   5    0.94    0.23
   4  -6  -5    4.13    0.35
   4  -6  -5    4.98    0.38
  -4   6   5    4.26    0.37
  -4   6   5    3.75    0.32
   3  -6  -5   15.50    0.53
   3  -6  -5   15.46    0.54
  -3   6   5   15.72    0.54
  -3   6   5   16.33    0.55
   2  -6  -5    3.97    0.31
   2  -6  -5    3.67    0.34
  -2   6   5    3.86    0.32
  -2   6   5    4.94    0.36
   1  -6  -5   18.92    0.65
   1  -6  -5   20.17    0.54
  -1   6   5   19.84    0.64
  -1   6   5   19.63    0.62
   0  -6  -5    0.23    0.23
   0  -6  -5    0.22    0.15
   0   6   5    0.12    0.20
   0   6   5   -0.17    0.21
  -1  -6  -5    5.62    0.49
  -1  -6  -5    5.44    0.47
   1   6   5    5.20    0.44
  -2  -6  -5   -0.35    0.30
  -2  -6  -5    0.01    0.27
   2   6   5   -0.11    0.29
  -3  -6  -5    4.48    0.56
  -3  -6  -5    3.88    0.46
   3   6   5    4.86    0.63
   7  -7  -5    1.00    0.36
  -7   7   5    0.73    0.33
  -7   7   5    0.47    0.31
   6  -7  -5    2.38    0.37
  -6   7   5    2.29    0.36
  -6   7   5    1.84    0.32
   5  -7  -5   13.14    0.55
   5  -7  -5   13.24    0.53
  -5   7   5   13.26    0.55
  -5   7   5   13.97    0.59
   4  -7  -5   13.40    0.52
   4  -7  -5   12.54    0.51
  -4   7   5   12.63    0.50
  -4   7   5   12.11    0.52
   3  -7  -5    2.86    0.35
   3  -7  -5    1.69    0.26
  -3   7   5    2.30    0.32
  -3   7   5    2.33    0.30
   2  -7  -5    7.96    0.50
   2  -7  -5    8.70    0.42
  -2   7   5    8.00    0.46
  -2   7   5    8.99    0.49
   1  -7  -5    9.65    0.40
   1  -7  -5    9.83    0.51
  -1   7   5    9.72    0.47
  -1   7   5    9.55    0.54
   0  -7  -5    5.50    0.46
   0   7   5    5.08    0.50
   0   7   5    6.68    0.48
  -1  -7  -5    2.93    0.40
  -1  -7  -5    3.25    0.43
   1   7   5    3.20    0.43
  -2  -7  -5   -0.02    0.35
  -2  -7  -5    0.42    0.36
   2   7   5    0.67    0.41
   7  -8  -5    3.95    0.48
  -7   8   5    2.98    0.41
  -7   8   5    2.07    0.41
   6  -8  -5    3.55    0.44
  -6   8   5    2.83    0.38
  -6   8   5    2.84    0.41
   5  -8  -5    2.10    0.32
   5  -8  -5    2.96    0.36
  -5   8   5    2.37    0.34
  -5   8   5    3.71    0.47
   4  -8  -5    7.41    0.52
   4  -8  -5    8.23    0.50
  -4   8   5    7.50    0.52
  -4   8   5    7.01    0.47
   3  -8  -5    3.87    0.39
   3  -8  -5    3.56    0.47
  -3   8   5    3.26    0.45
  -3   8   5    3.93    0.42
   2  -8  -5    5.29    0.38
   2  -8  -5    6.37    0.48
  -2   8   5    5.61    0.51
  -2   8   5    5.12    0.46
   1  -8  -5   19.11    0.78
  -1   8   5   19.71    0.72
  -1   8   5   21.09    0.75
   0  -8  -5    1.17    0.34
   0   8   5    1.10    0.35
   0   8   5    0.99    0.33
  -1  -8  -5    0.80    0.40
  -1  -8  -5    0.41    0.33
   1   8   5    1.48    0.43
   6  -9  -5    6.78    0.60
  -6   9   5    7.49    0.57
  -6   9   5    7.65    0.57
   5  -9  -5   17.81    0.72
   5  -9  -5   17.89    0.73
  -5   9   5   17.61    0.77
  -5   9   5   16.80    0.71
   4  -9  -5   -0.13    0.32
   4  -9  -5    0.05    0.29
  -4   9   5   -0.03    0.28
  -4   9   5   -0.30    0.31
   3  -9  -5    1.87    0.29
   3  -9  -5    2.36    0.41
  -3   9   5    2.27    0.40
  -3   9   5    2.27    0.35
   2  -9  -5    0.20    0.32
  -2   9   5    0.00    0.30
  -2   9   5    0.13    0.30
   1  -9  -5    8.47    0.61
  -1   9   5    8.46    0.66
  -1   9   5    8.66    0.54
   0  -9  -5    5.09    0.56
   0   9   5    4.67    0.50
   0   9   5    4.31    0.55
   4 -10  -5    2.22    0.45
   4 -10  -5    2.05    0.37
  -4  10   5    1.89    0.44
  -4  10   5    2.74    0.41
   3 -10  -5    2.00    0.46
  -3  10   5    2.58    0.39
  -3  10   5    1.93    0.44
   2 -10  -5   18.09    0.80
  -2  10   5   15.69    0.81
  -2  10   5   15.01    0.74
   2 -11   6    1.11    0.43
   1  10  -6    1.86    0.39
  -1 -10   6    2.18    0.49
   0  10  -6    0.31    0.34
   0 -10   6   -0.11    0.34
  -1  10  -6    0.96    0.35
   1 -10   6    0.39    0.34
  -2  10  -6    1.01    0.35
   2 -10   6    0.73    0.36
   2 -10   6    0.53    0.29
  -3  10  -6    2.13    0.39
   3 -10   6    3.03    0.43
   3 -10   6    2.49    0.37
  -4  10  -6    0.45    0.34
   4 -10   6   -0.03    0.29
   2   9  -6    0.97    0.37
  -2  -9   6    1.24    0.38
   1   9  -6    3.48    0.47
  -1  -9   6    3.33    0.43
   0   9  -6    0.48    0.29
   0  -9   6    0.52    0.33
  -1   9  -6    1.18    0.31
   1  -9   6    0.87    0.31
   1  -9   6    1.71    0.28
  -2   9  -6    4.69    0.47
   2  -9   6    5.11    0.51
   2  -9   6    5.60    0.45
  -3   9  -6    1.29    0.33
   3  -9   6    1.45    0.30
   3  -9   6    1.52    0.33
  -4   9  -6    1.20    0.34
   4  -9   6    0.89    0.46
   4  -9   6    1.37    0.35
  -5   9  -6   10.84    0.66
   5  -9   6   10.80    0.65
   3   8  -6    0.59    0.34
  -3  -8   6    0.59    0.38
  -3  -8   6    0.84    0.30
   2   8  -6    0.18    0.29
  -2  -8   6   -0.05    0.30
   1   8  -6    4.04    0.41
  -1  -8   6    3.76    0.45
   0   8  -6   19.19    0.64
   0  -8   6   19.56    0.70
   0  -8   6   19.01    0.58
  -1   8  -6    4.87    0.41
   1  -8   6    5.19    0.39
   1  -8   6    4.67    0.47
  -2   8  -6    6.76    0.41
   2  -8   6    7.33    0.44
   2  -8   6    8.37    0.51
  -3   8  -6   29.16    0.81
   3  -8   6   29.75    0.84
   3  -8   6   28.99    0.84
  -4   8  -6    1.12    0.32
   4  -8   6    1.22    0.32
   4  -8   6    1.48    0.28
  -5   8  -6    1.09    0.32
   5  -8   6    1.62    0.37
  -6   8  -6   13.84    0.72
   6  -8   6   14.12    0.73
   4   7  -6    0.21    0.32
  -4  -7   6    0.42    0.35
  -4  -7   6    0.40    0.29
   3   7  -6   14.59    0.60
  -3  -7   6   14.01    0.57
  -3  -7   6   13.72    0.69
   2   7  -6    1.32    0.27
  -2  -7   6    1.06    0.23
  -2  -7   6    1.30    0.30
   1   7  -6    2.78    0.34
  -1  -7   6    2.68    0.30
  -1  -7   6    2.97    0.32
  -1  -7   6    3.43    0.44
   0   7  -6    1.82    0.25
   0  -7   6    1.47    0.30
   0  -7   6    1.28    0.20
  -1   7  -6   26.42    0.70
   1  -7   6   25.24    0.68
   1  -7   6   25.79    0.75
  -2   7  -6   18.48    0.59
   2  -7   6   17.72    0.59
   2  -7   6   17.37    0.61
  -3   7  -6   30.06    0.81
   3  -7   6   31.80    0.81
   3  -7   6   29.13    0.80
  -4   7  -6   -0.13    0.24
   4  -7   6   -0.05    0.23
   4  -7   6    0.13    0.21
  -5   7  -6    0.84    0.31
   5  -7   6    0.68    0.28
  -6   7  -6    4.35    0.48
   6  -7   6    3.61    0.42
   5   6  -6    0.50    0.33
  -5  -6   6   -0.20    0.27
  -5  -6   6    0.27    0.34
   4   6  -6    3.53    0.43
  -4  -6   6    3.54    0.49
  -4  -6   6    4.43    0.45
   3   6  -6    0.92    0.25
  -3  -6   6    0.86    0.24
  -3  -6   6    1.23    0.31
   2   6  -6   26.75    0.70
  -2  -6   6   27.27    0.79
  -2  -6   6   27.13    0.68
   1   6  -6   62.88    1.25
  -1  -6   6   61.31    1.19
  -1  -6   6   63.57    1.19
  -1  -6   6   63.43    1.36
   0   6  -6    0.62    0.18
   0  -6   6    0.56    0.21
   0  -6   6    0.42    0.16
  -1   6  -6    7.59    0.37
   1  -6   6    7.96    0.37
  -2   6  -6   24.64    0.66
   2  -6   6   27.41    0.71
   2  -6   6   25.10    0.67
  -3   6  -6    4.29    0.34
   3  -6   6    4.59    0.35
   3  -6   6    3.90    0.33
  -4   6  -6   13.41    0.53
   4  -6   6   13.92    0.48
   4  -6   6   12.28    0.52
  -5   6  -6   21.60    0.72
   5  -6   6   24.16    0.78
  -6   6  -6    7.93    0.53
   6  -6   6    8.37    0.55
  -6  -5   6    3.54    0.47
   5   5  -6    7.68    0.51
  -5  -5   6    8.13    0.54
  -5  -5   6    8.43    0.56
   4   5  -6   16.94    0.58
  -4  -5   6   16.49    0.60
  -4  -5   6   16.29    0.62
   3   5  -6   84.05    1.61
  -3  -5   6   84.43    1.70
  -3  -5   6   85.11    1.63
   2   5  -6    0.10    0.16
  -2  -5   6   -0.04    0.15
  -2  -5   6    0.00    0.19
   1   5  -6   17.76    0.47
  -1  -5   6   16.58    0.45
  -1  -5   6   16.30    0.57
  -1  -5   6   16.89    0.43
   0   5  -6   -0.07    0.12
   0  -5   6    0.13    0.19
   0  -5   6    0.05    0.09
   0  -5   6    0.11    0.13
  -1   5  -6    0.82    0.16
   1  -5   6    1.28    0.20
   1  -5   6    1.17    0.20
  -2   5  -6    9.84    0.37
   2  -5   6    9.51    0.38
   2  -5   6    9.94    0.42
  -3   5  -6    2.26    0.26
   3  -5   6    1.88    0.23
   3  -5   6    1.99    0.25
  -4   5  -6   23.84    0.70
   4  -5   6   23.69    0.63
   4  -5   6   23.96    0.72
  -5   5  -6    0.70    0.27
   5  -5   6    0.88    0.28
  -6   5  -6    2.36    0.39
   6  -5   6    3.33    0.41
   6   4  -6    4.55    0.48
  -6  -4   6    4.69    0.55
   5   4  -6    1.12    0.27
  -5  -4   6    0.93    0.28
  -5  -4   6    0.96    0.30
   4   4  -6    3.83    0.32
  -4  -4   6    3.65    0.38
  -4  -4   6    4.02    0.39
   3   4  -6   50.41    0.96
   3   4  -6   50.09    1.02
  -3  -4   6   51.62    1.12
  -3  -4   6   49.92    1.06
   2   4  -6   46.48    0.91
   2   4  -6   45.88    0.90
  -2  -4   6   47.99    0.95
  -2  -4   6   45.68    1.02
   1   4  -6   14.50    0.41
   1   4  -6   13.85    0.36
  -1  -4   6   14.24    0.37
  -1  -4   6   13.72    0.47
   0   4  -6   39.63    0.76
   0   4  -6   37.83    0.81
   0  -4   6   39.63    0.71
   0  -4   6   38.26    0.87
  -1   4  -6    1.57    0.18
   1  -4   6    1.26    0.18
   1  -4   6    1.59    0.07
   1  -4   6    1.65    0.19
   1  -4   6    1.47    0.07
  -2   4  -6   21.36    0.54
   2  -4   6   20.82    0.57
   2  -4   6   21.63    0.57
  -3   4  -6   36.07    0.83
   3  -4   6   35.07    0.83
   3  -4   6   36.29    0.79
  -4   4  -6    7.26    0.38
   4  -4   6    6.33    0.41
   4  -4   6    7.40    0.33
  -5   4  -6    7.24    0.48
   5  -4   6    7.29    0.47
  -6   4  -6    1.39    0.35
   6  -4   6    1.71    0.33
  -7   4  -6    0.52    0.35
   7  -4   6    0.64    0.36
  -7  -3   6    1.06    0.40
   6   3  -6    0.79    0.30
  -6  -3   6    0.51    0.31
   5   3  -6   47.69    1.06
  -5  -3   6   47.15    1.10
  -5  -3   6   46.49    1.06
   4   3  -6   42.27    0.91
  -4  -3   6   43.01    0.97
  -4  -3   6   43.21    0.99
   3   3  -6   22.41    0.53
   3   3  -6   22.59    0.52
  -3  -3   6   23.21    0.60
  -3  -3   6   22.43    0.63
   2   3  -6    0.43    0.13
   2   3  -6    0.67    0.11
  -2  -3   6    0.86    0.15
  -2  -3   6    0.59    0.17
   1   3  -6    2.28    0.21
   1   3  -6    2.06    0.15
  -1  -3   6    2.06    0.17
  -1  -3   6    2.39    0.24
   0   3  -6    1.71    0.14
   0   3  -6    1.26    0.18
   0  -3   6    1.85    0.22
   0  -3   6    1.42    0.14
  -1   3  -6   48.24    0.97
  -1   3  -6   48.64    0.91
   1  -3   6   48.01    0.99
   1  -3   6   48.96    0.83
  -2   3  -6    0.22    0.13
   2  -3   6    0.21    0.14
   2  -3   6    0.37    0.08
   2  -3   6    0.25    0.15
  -3   3  -6    0.06    0.10
  -3   3  -6   -0.01    0.16
   3  -3   6    0.24    0.17
  -4   3  -6   10.12    0.46
   4  -3   6    9.07    0.35
   4  -3   6    8.95    0.43
  -5   3  -6    0.35    0.24
   5  -3   6    0.88    0.25
  -6   3  -6    3.81    0.44
   6  -3   6    5.56    0.46
  -7  -2   6   22.29    0.85
  -6  -2   6    0.28    0.29
  -5  -2   6   10.68    0.43
  -5  -2   6   10.48    0.47
   4   2  -6    7.10    0.30
   4   2  -6    7.03    0.31
  -4  -2   6    7.35    0.37
  -4  -2   6    7.47    0.36
   3   2  -6    2.57    0.18
   3   2  -6    2.58    0.21
  -3  -2   6    2.60    0.26
  -3  -2   6    2.44    0.27
   2   2  -6    2.68    0.14
   2   2  -6    2.67    0.21
  -2  -2   6    3.18    0.27
  -2  -2   6    2.68    0.22
   1   2  -6   44.39    0.74
   1   2  -6   43.76    0.87
  -1  -2   6   43.82    0.83
   0   2  -6   10.10    0.24
   0   2  -6   10.31    0.35
   0  -2   6   10.02    0.27
  -1   2  -6   10.99    0.30
  -1   2  -6   12.12    0.38
   1  -2   6   10.61    0.27
  -2   2  -6    4.31    0.24
  -3   2  -6    0.28    0.17
  -3   2  -6    0.21    0.13
   3  -2   6    0.23    0.17
  -4   2  -6    1.64    0.21
  -4   2  -6    1.39    0.26
   4  -2   6    1.58    0.24
  -5   2  -6    0.48    0.27
   5  -2   6    0.11    0.21
  -6   2  -6    0.17    0.32
  -7  -1   6    8.15    0.54
  -7  -1   6    8.42    0.54
  -6  -1   6   56.87    1.30
  -6  -1   6   57.36    1.23
   5   1  -6   13.21    0.43
  -5  -1   6   12.77    0.45
  -5  -1   6   12.49    0.53
  -5  -1   6   13.56    0.44
   4   1  -6    5.48    0.28
  -4  -1   6    5.86    0.31
  -4  -1   6    5.37    0.26
  -4  -1   6    5.66    0.32
   3   1  -6   35.93    0.75
  -3  -1   6   35.78    0.78
  -3  -1   6   35.89    0.68
   2   1  -6    0.10    0.05
   2   1  -6    0.04    0.11
   2   1  -6    0.08    0.05
  -2  -1   6    0.33    0.13
   1   1  -6  147.26    2.49
  -1  -1   6  144.87    2.46
   0   1  -6    1.54    0.18
   0   1  -6    1.46    0.11
   0  -1   6    1.50    0.16
  -1   1  -6   24.90    0.52
  -1   1  -6   24.13    0.57
   1  -1   6   24.09    0.51
  -2   1  -6    1.47    0.19
  -2   1  -6    1.57    0.20
  -2   1  -6    1.22    0.15
  -3   1  -6   10.33    0.36
  -3   1  -6   10.43    0.40
   3  -1   6    9.87    0.38
  -4   1  -6    0.50    0.24
  -4   1  -6    0.50    0.20
   4  -1   6    0.42    0.18
  -5   1  -6    4.41    0.43
  -5   1  -6    4.00    0.40
   5  -1   6    3.58    0.36
  -6   1  -6    0.01    0.32
  -8   0   6    6.85    0.64
  -7   0   6    1.31    0.31
  -7   0   6    1.85    0.32
   6   0  -6    0.85    0.21
  -6   0   6    0.56    0.23
  -6   0   6    0.38    0.21
   5   0  -6   10.85    0.40
  -5   0   6   10.75    0.39
  -5   0   6   10.71    0.40
   4   0  -6    2.18    0.23
  -4   0   6    2.53    0.20
  -4   0   6    2.63    0.29
  -4   0   6    2.47    0.23
   3   0  -6  100.72    1.78
  -3   0   6   99.84    1.80
  -3   0   6   99.39    1.68
   2   0  -6   15.34    0.42
   2   0  -6   15.10    0.27
  -2   0   6   14.95    0.42
  -2   0   6   15.00    0.27
   1   0  -6   16.80    0.43
  -1   0   6   16.38    0.42
  -1   0   6   16.90    0.29
  -1   0   6   16.91    0.29
   0   0  -6    2.59    0.23
   0   0  -6    2.35    0.19
   0   0   6    2.76    0.15
   0   0   6    2.22    0.18
  -1   0  -6    0.71    0.16
  -1   0  -6    0.79    0.16
  -1   0  -6    0.92    0.13
   1   0   6    0.69    0.12
  -2   0  -6    1.84    0.23
  -2   0  -6    2.45    0.25
  -2   0  -6    1.66    0.23
  -2   0  -6    1.39    0.17
  -3   0  -6   10.74    0.41
  -3   0  -6   10.97    0.40
  -3   0  -6   11.03    0.43
   3   0   6   10.72    0.38
  -4   0  -6    2.66    0.30
  -4   0  -6    3.16    0.38
  -4   0  -6    2.94    0.37
   4   0   6    2.80    0.28
  -5   0  -6    4.67    0.43
  -5   0  -6    4.26    0.48
  -6   0  -6   -0.39    0.31
  -6   0  -6   -0.21    0.30
  -8   1   6   20.22    0.82
   7  -1  -6    0.58    0.38
  -7   1   6    0.61    0.32
  -7   1   6    0.24    0.26
   6  -1  -6   35.19    0.84
  -6   1   6   34.56    0.85
  -6   1   6   35.82    0.92
   5  -1  -6    5.80    0.33
  -5   1   6    6.04    0.32
  -5   1   6    5.73    0.39
  -5   1   6    5.85    0.30
   4  -1  -6    2.31    0.25
  -4   1   6    2.05    0.25
  -4   1   6    2.67    0.20
   3  -1  -6   10.28    0.37
  -3   1   6   10.87    0.28
  -3   1   6   11.36    0.38
   2  -1  -6   76.11    1.40
   2  -1  -6   76.30    1.41
  -2   1   6   74.23    1.39
  -2   1   6   77.08    1.28
   1  -1  -6    2.45    0.24
   1  -1  -6    2.06    0.21
  -1   1   6    2.28    0.22
  -1   1   6    1.91    0.13
   0  -1  -6    6.33    0.30
   0  -1  -6    6.36    0.26
   0   1   6    6.42    0.23
   0   1   6    6.36    0.28
  -1  -1  -6    0.59    0.15
  -1  -1  -6    0.57    0.17
  -1  -1  -6    0.58    0.16
   1   1   6    0.40    0.14
  -2  -1  -6   15.37    0.43
  -2  -1  -6   15.34    0.48
  -2  -1  -6   14.30    0.46
  -2  -1  -6   15.19    0.46
  -3  -1  -6   14.85    0.49
  -3  -1  -6   15.44    0.54
  -3  -1  -6   14.31    0.49
  -4  -1  -6    0.28    0.24
  -4  -1  -6    0.21    0.23
  -4  -1  -6    0.59    0.23
  -5  -1  -6    3.25    0.42
  -5  -1  -6    4.37    0.48
  -6  -1  -6    0.26    0.34
  -6  -1  -6    0.04    0.37
  -8   2   6    2.61    0.40
  -8   2   6    3.55    0.45
   7  -2  -6    4.07    0.40
  -7   2   6    3.69    0.41
  -7   2   6    5.43    0.44
   6  -2  -6   10.75    0.47
  -6   2   6   12.03    0.54
  -6   2   6   11.58    0.46
   5  -2  -6    0.75    0.20
  -5   2   6    1.06    0.19
  -5   2   6    1.11    0.21
   4  -2  -6   39.81    0.86
  -4   2   6   39.07    0.88
  -4   2   6   38.91    0.79
   3  -2  -6   14.40    0.43
   3  -2  -6   13.06    0.41
  -3   2   6   13.60    0.43
  -3   2   6   15.18    0.37
   2  -2  -6    0.94    0.16
   2  -2  -6    0.69    0.17
  -2   2   6    1.07    0.15
  -2   2   6    0.75    0.15
   1  -2  -6    0.18    0.13
   1  -2  -6    0.16    0.14
  -1   2   6    0.25    0.14
  -1   2   6   -0.04    0.10
   0  -2  -6    0.63    0.14
   0  -2  -6    0.81    0.16
   0   2   6    0.90    0.15
   0   2   6    0.60    0.15
  -1  -2  -6    2.13    0.21
  -1  -2  -6    2.23    0.27
  -1  -2  -6    2.19    0.28
   1   2   6    2.51    0.24
  -2  -2  -6   10.11    0.36
  -2  -2  -6   10.28    0.41
  -2  -2  -6   10.53    0.43
   2   2   6    9.54    0.40
  -3  -2  -6    1.43    0.24
  -3  -2  -6    1.45    0.26
   3   2   6    1.28    0.26
  -4  -2  -6    6.30    0.44
  -4  -2  -6    6.03    0.41
   4   2   6    6.64    0.48
  -5  -2  -6    0.82    0.35
   5   2   6    0.36    0.39
   8  -3  -6    2.35    0.37
  -8   3   6    2.00    0.40
  -8   3   6    2.52    0.40
   7  -3  -6    9.46    0.51
  -7   3   6    9.51    0.51
  -7   3   6    9.46    0.52
   6  -3  -6   22.19    0.68
  -6   3   6   20.93    0.63
  -6   3   6   22.09    0.71
   5  -3  -6   17.89    0.57
  -5   3   6   16.93    0.52
  -5   3   6   17.18    0.58
   4  -3  -6    0.20    0.15
   4  -3  -6    0.02    0.14
  -4   3   6    0.08    0.19
  -4   3   6    0.06    0.14
   3  -3  -6    4.53    0.29
   3  -3  -6    4.82    0.28
  -3   3   6    4.80    0.29
  -3   3   6    5.22    0.26
   2  -3  -6    3.77    0.27
   2  -3  -6    3.92    0.30
  -2   3   6    3.82    0.22
  -2   3   6    4.14    0.29
   1  -3  -6   26.97    0.69
   1  -3  -6   28.85    0.65
  -1   3   6   26.32    0.65
  -1   3   6   27.62    0.61
   0  -3  -6   39.66    0.90
   0  -3  -6   40.60    0.83
   0   3   6   39.53    0.85
   0   3   6   39.65    0.87
  -1  -3  -6   11.22    0.36
  -1  -3  -6   10.26    0.46
  -1  -3  -6   11.15    0.43
   1   3   6   10.98    0.43
  -2  -3  -6   13.79    0.51
  -2  -3  -6   14.00    0.42
  -2  -3  -6   14.49    0.54
   2   3   6   13.87    0.55
  -3  -3  -6    0.70    0.25
  -3  -3  -6    0.57    0.26
   3   3   6    0.94    0.31
  -4  -3  -6    0.14    0.30
  -4  -3  -6    0.09    0.30
   4   3   6    0.41    0.35
  -5  -3  -6    0.91    0.38
   5   3   6    0.99    0.45
   8  -4  -6   -0.04    0.32
  -8   4   6    0.33    0.34
  -8   4   6    0.30    0.31
   7  -4  -6    0.42    0.26
  -7   4   6    0.40    0.26
  -7   4   6    0.28    0.30
   6  -4  -6    0.20    0.25
  -6   4   6    0.36    0.23
  -6   4   6    0.42    0.24
   5  -4  -6    3.30    0.32
   5  -4  -6    2.91    0.29
  -5   4   6    2.68    0.31
  -5   4   6    2.71    0.32
   4  -4  -6    7.65    0.36
   4  -4  -6    6.88    0.35
  -4   4   6    8.11    0.36
  -4   4   6    7.34    0.37
   3  -4  -6   13.81    0.46
   3  -4  -6   13.98    0.47
  -3   4   6   13.09    0.42
  -3   4   6   13.28    0.45
   2  -4  -6    0.74    0.19
   2  -4  -6    0.80    0.18
  -2   4   6    0.66    0.17
  -2   4   6    0.65    0.17
   1  -4  -6    0.06    0.14
   1  -4  -6    0.34    0.20
  -1   4   6    0.03    0.17
  -1   4   6   -0.01    0.16
   0  -4  -6   10.64    0.48
   0  -4  -6    9.76    0.37
   0   4   6   10.32    0.44
   0   4   6   10.03    0.42
  -1  -4  -6    0.67    0.25
  -1  -4  -6    0.75    0.16
  -1  -4  -6    0.77    0.24
   1   4   6    0.78    0.23
  -2  -4  -6    1.08    0.26
  -2  -4  -6    0.56    0.26
   2   4   6    0.97    0.29
  -3  -4  -6    0.13    0.26
  -3  -4  -6    0.32    0.27
   3   4   6    0.63    0.30
  -4  -4  -6    4.48    0.55
   4   4   6    3.54    0.50
   8  -5  -6    0.10    0.33
  -8   5   6    0.48    0.35
  -8   5   6    0.41    0.34
   7  -5  -6    1.52    0.32
  -7   5   6    1.39    0.33
  -7   5   6    1.44    0.32
   6  -5  -6    2.14    0.33
  -6   5   6    2.38    0.33
  -6   5   6    1.80    0.29
   5  -5  -6   -0.05    0.19
   5  -5  -6   -0.33    0.21
  -5   5   6    0.26    0.24
  -5   5   6    0.09    0.20
   4  -5  -6    5.67    0.36
   4  -5  -6    4.91    0.37
  -4   5   6    5.34    0.39
  -4   5   6    5.51    0.35
   3  -5  -6    2.06    0.28
   3  -5  -6    1.70    0.24
  -3   5   6    1.63    0.24
  -3   5   6    1.72    0.23
   2  -5  -6    2.92    0.31
   2  -5  -6    2.94    0.29
  -2   5   6    2.80    0.26
  -2   5   6    3.08    0.30
   1  -5  -6   26.69    0.64
   1  -5  -6   24.73    0.72
  -1   5   6   26.15    0.69
  -1   5   6   25.37    0.69
   0  -5  -6    0.80    0.25
   0  -5  -6    0.74    0.17
   0   5   6    0.29    0.21
   0   5   6    0.50    0.24
  -1  -5  -6    0.42    0.25
  -1  -5  -6    0.22    0.24
   1   5   6    0.19    0.24
  -2  -5  -6   -0.01    0.28
  -2  -5  -6   -0.50    0.26
   2   5   6    0.04    0.31
  -3  -5  -6    0.04    0.32
  -3  -5  -6    0.10    0.29
   3   5   6    0.21    0.36
   8  -6  -6    3.17    0.42
  -8   6   6    2.54    0.43
  -8   6   6    2.70    0.44
   7  -6  -6    0.01    0.27
  -7   6   6    0.06    0.29
  -7   6   6    0.34    0.31
   6  -6  -6    3.71    0.46
  -6   6   6    4.19    0.46
  -6   6   6    3.66    0.41
   5  -6  -6    0.68    0.24
   5  -6  -6    0.94    0.24
  -5   6   6    0.95    0.27
  -5   6   6    1.02    0.26
   4  -6  -6    4.66    0.36
   4  -6  -6    4.58    0.39
  -4   6   6    4.29    0.37
  -4   6   6    5.17    0.40
   3  -6  -6    8.78    0.44
   3  -6  -6    7.16    0.37
  -3   6   6    6.89    0.39
  -3   6   6    8.12    0.42
   2  -6  -6    0.00    0.17
   2  -6  -6    0.21    0.25
  -2   6   6    0.17    0.21
  -2   6   6    0.10    0.23
   1  -6  -6    6.69    0.44
   1  -6  -6    6.62    0.36
  -1   6   6    7.92    0.46
  -1   6   6    6.74    0.40
   0  -6  -6    0.40    0.18
   0  -6  -6    0.32    0.25
   0   6   6    0.17    0.22
   0   6   6    0.41    0.28
  -1  -6  -6    1.94    0.36
  -1  -6  -6    2.27    0.35
   1   6   6    1.98    0.34
  -2  -6  -6   -0.14    0.32
  -2  -6  -6    0.05    0.29
   2   6   6    0.27    0.37
  -3  -6  -6    1.45    0.42
  -3  -6  -6    0.54    0.34
   3   6   6    0.31    0.43
   7  -7  -6    2.20    0.40
  -7   7   6    2.52    0.40
  -7   7   6    2.08    0.38
   6  -7  -6    2.19    0.38
  -6   7   6    2.20    0.36
  -6   7   6    2.56    0.37
   5  -7  -6   11.49    0.57
   5  -7  -6   11.10    0.53
  -5   7   6   10.51    0.55
  -5   7   6   11.19    0.51
   4  -7  -6    1.22    0.29
   4  -7  -6    1.12    0.25
  -4   7   6    1.04    0.27
  -4   7   6    0.98    0.28
   3  -7  -6    0.69    0.23
   3  -7  -6    0.84    0.29
  -3   7   6    0.55    0.27
  -3   7   6    1.03    0.27
   2  -7  -6    0.17    0.21
   2  -7  -6    0.29    0.29
  -2   7   6   -0.11    0.25
  -2   7   6    0.00    0.24
   1  -7  -6   -0.09    0.25
   1  -7  -6    0.14    0.19
  -1   7   6   -0.14    0.29
  -1   7   6    0.00    0.23
   0  -7  -6    0.47    0.31
   0   7   6    0.03    0.32
   0   7   6    0.43    0.26
  -1  -7  -6    0.56    0.33
   1   7   6    0.97    0.38
  -2  -7  -6    0.52    0.35
  -2  -7  -6    0.48    0.39
   2   7   6    0.02    0.36
   7  -8  -6   -0.14    0.34
  -7   8   6   -0.05    0.36
  -7   8   6   -0.01    0.30
   6  -8  -6    3.37    0.43
  -6   8   6    3.03    0.40
  -6   8   6    1.85    0.39
   5  -8  -6   16.62    0.66
   5  -8  -6   18.63    0.70
  -5   8   6   16.67    0.71
  -5   8   6   18.59    0.70
   4  -8  -6    0.14    0.30
   4  -8  -6    0.00    0.23
  -4   8   6    0.22    0.28
  -4   8   6    0.13    0.30
   3  -8  -6    7.43    0.47
   3  -8  -6    8.44    0.58
  -3   8   6    8.87    0.55
  -3   8   6    8.51    0.53
   2  -8  -6    0.68    0.35
   2  -8  -6    0.39    0.24
  -2   8   6    0.70    0.29
  -2   8   6    0.37    0.29
   1  -8  -6   -0.06    0.31
  -1   8   6    0.37    0.31
  -1   8   6    0.15    0.30
   0  -8  -6    0.20    0.38
   0   8   6    0.36    0.34
   0   8   6    0.16    0.36
  -1  -8  -6    6.64    0.61
   1   8   6    7.36    0.69
   1   8   6    6.16    0.62
   6  -9  -6   12.55    0.72
  -6   9   6   13.22    0.67
  -6   9   6   12.74    0.68
   5  -9  -6    4.80    0.54
   5  -9  -6    3.99    0.55
  -5   9   6    3.29    0.45
  -5   9   6    4.42    0.57
   4  -9  -6    0.42    0.35
   4  -9  -6   -0.07    0.26
  -4   9   6   -0.02    0.30
  -4   9   6    0.29    0.35
   3  -9  -6    0.58    0.34
   3  -9  -6    1.15    0.30
  -3   9   6    0.72    0.33
  -3   9   6    0.59    0.33
   2  -9  -6    3.22    0.45
  -2   9   6    3.72    0.51
  -2   9   6    3.55    0.42
   1  -9  -6    2.75    0.45
  -1   9   6    3.96    0.46
  -1   9   6    3.55    0.47
  -1 -10   7    0.76    0.43
   0  10  -7   13.06    0.68
   0 -10   7   14.04    0.73
  -1  10  -7   13.05    0.67
   1 -10   7   14.40    0.77
  -2  10  -7    0.52    0.34
   2 -10   7    0.10    0.37
   2 -10   7    0.51    0.32
  -3  10  -7    6.09    0.56
   3 -10   7    5.83    0.59
   3 -10   7    6.21    0.56
  -4  10  -7   21.89    0.87
   4 -10   7   24.33    0.88
  -2  -9   7    2.43    0.44
   1   9  -7    0.96    0.32
  -1  -9   7    1.29    0.42
   0   9  -7    4.32    0.50
   0  -9   7    5.88    0.58
  -1   9  -7    3.16    0.38
   1  -9   7    3.81    0.52
   1  -9   7    3.49    0.40
  -2   9  -7   19.01    0.70
   2  -9   7   19.41    0.69
   2  -9   7   19.47    0.76
  -3   9  -7    7.80    0.53
   3  -9   7    8.33    0.56
   3  -9   7    7.77    0.55
  -4   9  -7    2.81    0.39
   4  -9   7    2.70    0.39
  -5   9  -7    2.12    0.41
   5  -9   7    2.23    0.43
  -3  -8   7    8.88    0.62
   2   8  -7   -0.06    0.27
  -2  -8   7    0.26    0.36
   1   8  -7   13.78    0.55
  -1  -8   7   14.12    0.69
   0   8  -7    0.31    0.24
   0  -8   7    0.47    0.28
   0  -8   7    0.97    0.23
  -1   8  -7   12.08    0.52
   1  -8   7   12.05    0.58
   1  -8   7   12.91    0.52
  -2   8  -7    5.07    0.41
   2  -8   7    5.57    0.44
   2  -8   7    6.55    0.51
  -3   8  -7    6.72    0.47
   3  -8   7    5.83    0.43
   3  -8   7    6.17    0.49
  -4   8  -7    2.43    0.36
   4  -8   7    2.27    0.34
  -5   8  -7   -0.11    0.31
   5  -8   7    0.62    0.31
  -4  -7   7    1.83    0.36
  -4  -7   7    1.65    0.40
  -3  -7   7   30.71    0.93
  -3  -7   7   29.94    0.84
   2   7  -7    0.26    0.24
  -2  -7   7    0.06    0.19
  -2  -7   7    0.36    0.28
   1   7  -7   27.92    0.73
  -1  -7   7   30.24    0.72
  -1  -7   7   28.81    0.88
   0   7  -7   44.80    0.99
   0  -7   7   45.60    1.13
   0  -7   7   44.62    0.98
  -1   7  -7   27.04    0.70
   1  -7   7   25.57    0.79
   1  -7   7   25.23    0.70
  -2   7  -7    8.12    0.41
   2  -7   7    6.89    0.42
   2  -7   7    7.66    0.44
  -3   7  -7    1.59    0.27
   3  -7   7    1.57    0.27
   3  -7   7    1.64    0.27
  -4   7  -7    0.74    0.28
   4  -7   7    0.75    0.31
  -5   7  -7    3.17    0.41
   5  -7   7    2.53    0.36
  -6   7  -7    5.11    0.51
   6  -7   7    6.37    0.63
  -5  -6   7    0.87    0.36
  -5  -6   7    0.69    0.38
  -4  -6   7    0.12    0.28
  -4  -6   7    0.22    0.28
   3   6  -7   12.60    0.50
  -3  -6   7   13.60    0.64
  -3  -6   7   12.47    0.52
   2   6  -7    0.52    0.21
  -2  -6   7    0.23    0.19
  -2  -6   7    0.35    0.24
   1   6  -7    7.60    0.34
  -1  -6   7    8.14    0.37
  -1  -6   7    8.03    0.45
  -1  -6   7    8.31    0.32
   0   6  -7   12.80    0.44
   0  -6   7   12.18    0.44
   0  -6   7   12.54    0.52
  -1   6  -7   21.48    0.58
   1  -6   7   21.73    0.66
   1  -6   7   21.51    0.60
  -2   6  -7    6.43    0.35
   2  -6   7    6.59    0.42
   2  -6   7    6.58    0.40
  -3   6  -7   -0.05    0.19
   3  -6   7    0.19    0.21
   3  -6   7   -0.11    0.19
  -4   6  -7   22.88    0.72
   4  -6   7   22.11    0.74
  -5   6  -7    0.45    0.29
   5  -6   7    0.44    0.31
  -6   6  -7   -0.01    0.29
   6  -6   7    0.03    0.34
  -6  -5   7    3.48    0.46
  -5  -5   7    1.36    0.35
  -5  -5   7    0.87    0.32
  -4  -5   7   12.59    0.60
  -4  -5   7   12.53    0.54
   3   5  -7   20.27    0.57
  -3  -5   7   19.31    0.68
  -3  -5   7   20.10    0.60
   2   5  -7   88.42    1.62
   2   5  -7   88.87    1.61
  -2  -5   7   90.02    1.64
  -2  -5   7   89.09    1.77
   1   5  -7   86.77    1.58
   1   5  -7   85.42    1.54
  -1  -5   7   83.65    1.69
  -1  -5   7   85.93    1.52
   0   5  -7    2.00    0.22
   0  -5   7    1.75    0.24
   0  -5   7    1.80    0.16
   0  -5   7    2.04    0.23
  -1   5  -7    0.16    0.13
   1  -5   7   -0.05    0.17
   1  -5   7    0.37    0.16
  -2   5  -7   64.21    1.22
   2  -5   7   59.37    1.26
   2  -5   7   62.32    1.28
  -3   5  -7    1.01    0.21
   3  -5   7    0.69    0.22
   3  -5   7    1.53    0.25
  -4   5  -7    9.75    0.48
   4  -5   7    8.95    0.46
  -5   5  -7    2.36    0.32
   5  -5   7    2.48    0.35
  -6   5  -7   -0.26    0.28
   6  -5   7    0.07    0.31
  -6  -4   7    0.53    0.31
  -5  -4   7    4.57    0.46
  -5  -4   7    3.77    0.43
   4   4  -7   61.16    1.25
  -4  -4   7   61.91    1.32
  -4  -4   7   62.43    1.34
   3   4  -7   32.08    0.72
   3   4  -7   33.66    0.72
  -3  -4   7   34.04    0.86
  -3  -4   7   31.67    0.79
   2   4  -7    3.26    0.26
   2   4  -7    3.47    0.22
  -2  -4   7    3.72    0.28
  -2  -4   7    3.15    0.32
   1   4  -7    3.51    0.26
   1   4  -7    3.74    0.20
  -1  -4   7    4.07    0.23
  -1  -4   7    4.09    0.32
   0   4  -7    4.01    0.21
   0   4  -7    4.11    0.29
   0  -4   7    4.07    0.18
   0  -4   7    3.95    0.33
  -1   4  -7    3.01    0.21
   1  -4   7    3.47    0.31
  -2   4  -7    1.12    0.18
   2  -4   7    0.72    0.20
   2  -4   7    0.81    0.19
  -3   4  -7   35.69    0.83
   3  -4   7   35.61    0.82
   3  -4   7   35.66    0.87
  -4   4  -7    2.23    0.29
   4  -4   7    2.75    0.33
  -5   4  -7    3.63    0.44
   5  -4   7    4.77    0.45
  -6   4  -7   -0.04    0.33
   6  -4   7    0.49    0.32
  -7  -3   7    0.22    0.34
  -6  -3   7    5.27    0.52
  -5  -3   7    2.39    0.31
  -5  -3   7    2.03    0.32
   4   3  -7   39.72    0.84
   4   3  -7   39.51    0.83
  -4  -3   7   40.99    0.95
  -4  -3   7   40.11    0.95
   3   3  -7  119.17    2.06
   3   3  -7  120.75    2.10
  -3  -3   7  121.34    2.22
  -3  -3   7  120.39    2.17
   2   3  -7   21.09    0.44
   2   3  -7   20.55    0.52
  -2  -3   7   20.99    0.59
  -2  -3   7   20.40    0.52
   1   3  -7    1.01    0.17
   1   3  -7    0.97    0.12
  -1  -3   7    0.84    0.18
  -1  -3   7    0.87    0.14
   0   3  -7    0.34    0.09
   0   3  -7    0.48    0.14
   0  -3   7    0.23    0.17
   0  -3   7    0.18    0.10
  -1   3  -7   37.70    0.84
  -1   3  -7   38.99    0.76
   1  -3   7   38.94    0.70
  -2   3  -7   17.46    0.46
   2  -3   7   15.30    0.49
   2  -3   7   16.85    0.37
  -3   3  -7    0.86    0.20
   3  -3   7    0.62    0.20
  -4   3  -7    0.91    0.25
   4  -3   7    1.28    0.26
  -5   3  -7    2.77    0.38
   5  -3   7    2.41    0.31
  -6   3  -7    1.80    0.37
   6  -3   7    1.48    0.34
  -7  -2   7    1.00    0.34
  -6  -2   7   14.04    0.65
   5   2  -7   66.86    1.51
  -5  -2   7   63.36    1.37
  -5  -2   7   63.68    1.32
   4   2  -7   46.70    0.96
   4   2  -7   48.02    0.94
  -4  -2   7   49.46    1.05
  -4  -2   7   45.84    1.05
   3   2  -7    4.72    0.28
   3   2  -7    4.44    0.20
  -3  -2   7    4.69    0.33
  -3  -2   7    4.91    0.31
   2   2  -7    2.05    0.23
   2   2  -7    2.21    0.10
  -2  -2   7    2.12    0.23
  -2  -2   7    2.03    0.24
   1   2  -7   75.37    1.40
  -1  -2   7   75.59    1.35
   0   2  -7   10.40    0.25
   0   2  -7   10.63    0.38
   0  -2   7   10.13    0.29
  -1   2  -7    3.44    0.20
  -1   2  -7    3.61    0.26
   1  -2   7    4.11    0.18
  -2   2  -7    1.82    0.23
  -2   2  -7    1.53    0.19
   2  -2   7    1.84    0.18
  -3   2  -7    7.64    0.37
  -3   2  -7    7.47    0.32
   3  -2   7    7.37    0.39
  -4   2  -7    3.05    0.32
  -4   2  -7    3.48    0.35
   4  -2   7    3.24    0.34
  -5   2  -7   28.63    0.84
   5  -2   7   27.24    0.77
  -6   2  -7    0.14    0.30
  -7  -1   7   12.14    0.63
  -6  -1   7   -0.16    0.24
   5   1  -7    6.58    0.35
  -5  -1   7    6.68    0.37
  -5  -1   7    7.14    0.34
  -5  -1   7    7.52    0.45
   4   1  -7    6.33    0.32
  -4  -1   7    6.42    0.35
  -4  -1   7    6.08    0.26
  -4  -1   7    7.59    0.39
   3   1  -7   20.19    0.53
   3   1  -7   20.98    0.41
  -3  -1   7   19.64    0.55
   2   1  -7    0.44    0.15
  -2  -1   7    0.26    0.14
  -1  -1   7    2.46    0.20
   0   1  -7   25.85    0.62
   0   1  -7   27.15    0.50
   0  -1   7   26.36    0.57
  -1   1  -7    3.24    0.24
  -1   1  -7    2.99    0.19
   1  -1   7    2.87    0.20
  -2   1  -7   34.06    0.78
  -2   1  -7   34.78    0.76
  -3   1  -7    0.58    0.20
  -3   1  -7    0.89    0.19
   3  -1   7    0.56    0.19
  -4   1  -7    0.49    0.24
  -4   1  -7    0.17    0.21
   4  -1   7   -0.07    0.18
  -5   1  -7    1.53    0.30
  -5   1  -7    1.26    0.30
   5  -1   7    1.46    0.26
  -6   1  -7    1.37    0.39
  -7   0   7   21.69    0.77
   6   0  -7   33.44    0.82
  -6   0   7   35.00    0.94
   5   0  -7   22.89    0.62
  -5   0   7   23.74    0.71
  -5   0   7   23.00    0.58
  -5   0   7   24.20    0.63
   4   0  -7    0.28    0.16
  -4   0   7    0.33    0.12
  -4   0   7   -0.04    0.18
   3   0  -7   -0.13    0.13
  -3   0   7    0.06    0.15
  -3   0   7   -0.03    0.07
  -2   0   7    2.77    0.25
   1   0  -7    0.53    0.14
  -1   0   7    0.61    0.06
  -1   0   7    0.52    0.05
  -1   0   7    0.81    0.15
   0   0  -7    4.27    0.26
   0   0  -7    4.30    0.28
   0   0   7    4.41    0.25
   0   0   7    4.91    0.20
  -1   0  -7    0.29    0.12
  -1   0  -7    0.13    0.16
  -1   0  -7    0.27    0.15
   1   0   7    0.28    0.12
  -2   0  -7    1.35    0.20
  -2   0  -7    1.10    0.18
  -2   0  -7    0.95    0.19
  -2   0  -7    1.38    0.21
  -3   0  -7    1.16    0.22
  -3   0  -7    1.35    0.24
  -3   0  -7    1.33    0.23
  -4   0  -7   40.12    0.97
  -4   0  -7   41.75    1.04
   4   0   7   41.60    0.93
  -5   0  -7    2.65    0.35
  -5   0  -7    2.84    0.39
  -8   1   7   11.21    0.64
   7  -1  -7   -0.11    0.24
  -7   1   7    0.14    0.30
   6  -1  -7    7.08    0.41
  -6   1   7    7.34    0.39
  -6   1   7    6.58    0.48
   5  -1  -7   34.21    0.82
  -5   1   7   35.17    0.88
  -5   1   7   35.11    0.77
   4  -1  -7   17.21    0.52
  -4   1   7   17.44    0.43
   3  -1  -7   15.97    0.47
  -3   1   7   14.74    0.46
  -3   1   7   15.53    0.34
   2  -1  -7   30.37    0.73
   2  -1  -7   31.15    0.71
  -2   1   7   32.04    0.71
  -2   1   7   31.51    0.57
   1  -1  -7   34.86    0.76
   1  -1  -7   35.64    0.80
  -1   1   7   35.56    0.65
  -1   1   7   35.20    0.75
   0  -1  -7   25.87    0.63
   0  -1  -7   26.97    0.67
   0   1   7   26.86    0.56
   0   1   7   27.11    0.63
  -1  -1  -7    4.25    0.30
  -1  -1  -7    4.62    0.27
   1   1   7    3.74    0.25
   1   1   7    4.39    0.28
  -2  -1  -7    5.22    0.35
  -2  -1  -7    4.91    0.30
  -2  -1  -7    4.78    0.34
  -3  -1  -7    0.16    0.21
  -3  -1  -7   -0.26    0.20
  -3  -1  -7    0.11    0.20
  -4  -1  -7    1.99    0.30
  -4  -1  -7    1.65    0.30
  -5  -1  -7    1.85    0.37
  -5  -1  -7    2.77    0.42
  -8   2   7    0.95    0.34
   7  -2  -7    0.86    0.28
  -7   2   7    0.44    0.28
   6  -2  -7   28.89    0.78
  -6   2   7   29.73    0.84
  -6   2   7   27.88    0.73
   5  -2  -7    0.62    0.21
  -5   2   7    0.91    0.25
  -5   2   7    1.19    0.19
   4  -2  -7   10.94    0.41
  -4   2   7   11.69    0.46
  -4   2   7   11.54    0.35
   3  -2  -7    7.85    0.36
   3  -2  -7    7.52    0.33
  -3   2   7    7.26    0.25
   2  -2  -7    4.00    0.31
   2  -2  -7    5.00    0.28
  -2   2   7    4.91    0.21
  -2   2   7    4.48    0.28
   1  -2  -7    5.72    0.32
   1  -2  -7    5.69    0.30
  -1   2   7    5.88    0.32
  -1   2   7    5.40    0.24
   0  -2  -7    8.07    0.38
   0  -2  -7    7.95    0.34
   0   2   7    7.78    0.35
   0   2   7    7.86    0.30
  -1  -2  -7    0.30    0.20
  -1  -2  -7    0.09    0.14
   1   2   7    0.12    0.16
   1   2   7   -0.02    0.15
  -2  -2  -7    1.85    0.27
  -2  -2  -7    2.18    0.25
  -2  -2  -7    1.94    0.28
   2   2   7    1.83    0.27
  -3  -2  -7    4.66    0.40
  -3  -2  -7    5.14    0.43
   3   2   7    4.45    0.43
  -4  -2  -7    0.09    0.28
   4   2   7   -0.17    0.28
  -5  -2  -7    0.09    0.33
   5   2   7    0.02    0.40
   8  -3  -7   10.80    0.63
  -8   3   7   11.41    0.62
   7  -3  -7    2.11    0.33
  -7   3   7    2.27    0.37
   6  -3  -7    0.15    0.21
  -6   3   7   -0.08    0.19
  -6   3   7    0.44    0.24
   5  -3  -7    0.25    0.21
  -5   3   7   -0.03    0.23
  -5   3   7    0.05    0.17
   4  -3  -7    3.81    0.33
   4  -3  -7    3.74    0.30
  -4   3   7    3.69    0.26
  -4   3   7    3.42    0.31
   3  -3  -7    0.12    0.17
   3  -3  -7   -0.08    0.18
  -3   3   7   -0.03    0.16
  -3   3   7   -0.05    0.12
   2  -3  -7    0.17    0.19
   2  -3  -7   -0.07    0.15
  -2   3   7    0.13    0.16
  -2   3   7    0.05    0.13
   1  -3  -7   65.42    1.27
   1  -3  -7   66.01    1.34
  -1   3   7   67.26    1.25
  -1   3   7   66.34    1.31
   0  -3  -7   20.75    0.62
   0  -3  -7   20.79    0.55
   0   3   7   20.98    0.56
   0   3   7   20.00    0.59
  -1  -3  -7    7.91    0.33
  -1  -3  -7    6.62    0.43
   1   3   7    6.43    0.38
  -2  -3  -7    4.52    0.38
  -2  -3  -7    3.87    0.29
  -2  -3  -7    3.88    0.40
   2   3   7    4.06    0.36
  -3  -3  -7    4.99    0.45
  -3  -3  -7    5.11    0.48
   3   3   7    5.68    0.50
  -4  -3  -7   -0.24    0.32
   4   3   7   -0.23    0.36
   8  -4  -7    1.37    0.37
  -8   4   7    2.03    0.40
   7  -4  -7    3.10    0.38
  -7   4   7    3.35    0.40
  -7   4   7    2.86    0.40
   6  -4  -7    1.65    0.30
  -6   4   7    1.22    0.26
  -6   4   7    1.21    0.27
   5  -4  -7    9.67    0.45
   5  -4  -7    9.50    0.42
  -5   4   7   10.77    0.48
  -5   4   7   10.22    0.41
   4  -4  -7   -0.11    0.18
   4  -4  -7   -0.11    0.18
  -4   4   7    0.03    0.17
  -4   4   7   -0.16    0.20
   3  -4  -7    0.10    0.18
   3  -4  -7    0.00    0.17
  -3   4   7    0.01    0.16
  -3   4   7   -0.25    0.19
   2  -4  -7    6.12    0.40
   2  -4  -7    5.84    0.34
  -2   4   7    5.80    0.34
  -2   4   7    5.68    0.30
   1  -4  -7   20.81    0.66
   1  -4  -7   21.50    0.57
  -1   4   7   20.70    0.61
  -1   4   7   21.02    0.58
   0  -4  -7    0.40    0.24
   0  -4  -7    0.32    0.18
   0   4   7    0.23    0.19
   0   4   7    0.46    0.22
  -1  -4  -7   -0.09    0.25
  -1  -4  -7    0.02    0.17
   1   4   7   -0.06    0.24
  -2  -4  -7    0.35    0.26
  -2  -4  -7    0.00    0.28
   2   4   7    0.50    0.30
  -3  -4  -7    8.29    0.56
  -3  -4  -7    8.86    0.59
   3   4   7    7.28    0.59
  -4  -4  -7    3.13    0.42
   4   4   7    4.35    0.55
   8  -5  -7    0.14    0.34
  -8   5   7   -0.06    0.35
   7  -5  -7   14.81    0.62
  -7   5   7   13.82    0.61
  -7   5   7   14.19    0.63
   6  -5  -7    1.76    0.32
  -6   5   7    1.37    0.32
  -6   5   7    1.77    0.29
   5  -5  -7    0.33    0.24
   5  -5  -7    0.27    0.22
  -5   5   7    0.08    0.22
  -5   5   7    0.46    0.21
   4  -5  -7    5.55    0.40
   4  -5  -7    4.65    0.34
  -4   5   7    5.09    0.42
  -4   5   7    5.38    0.35
   3  -5  -7    2.52    0.33
   3  -5  -7    1.79    0.24
  -3   5   7    1.68    0.24
  -3   5   7    1.76    0.25
   2  -5  -7    0.94    0.21
   2  -5  -7    1.22    0.28
  -2   5   7    0.67    0.21
  -2   5   7    1.23    0.25
   1  -5  -7    0.35    0.22
   1  -5  -7    0.02    0.17
  -1   5   7    0.22    0.22
  -1   5   7    0.32    0.21
   0  -5  -7    4.59    0.41
   0  -5  -7    5.09    0.34
   0   5   7    5.24    0.39
   0   5   7    4.92    0.37
  -1  -5  -7   -0.03    0.26
   1   5   7    0.58    0.30
  -2  -5  -7    2.09    0.35
  -2  -5  -7    1.58    0.36
   2   5   7    1.92    0.40
  -3  -5  -7    4.64    0.50
  -3  -5  -7    4.78    0.57
   3   5   7    4.23    0.54
   7  -6  -7    2.29    0.37
  -7   6   7    3.11    0.40
  -7   6   7    2.61    0.40
   6  -6  -7    1.50    0.29
  -6   6   7    1.85    0.32
  -6   6   7    1.93    0.35
   5  -6  -7    3.52    0.41
   5  -6  -7    3.62    0.39
  -5   6   7    4.45    0.44
  -5   6   7    3.45    0.38
   4  -6  -7    0.53    0.24
   4  -6  -7    0.61    0.27
  -4   6   7    0.36    0.25
  -4   6   7    0.28    0.22
   3  -6  -7   16.64    0.61
   3  -6  -7   16.13    0.58
  -3   6   7   16.88    0.57
  -3   6   7   16.64    0.58
   2  -6  -7    0.99    0.24
   2  -6  -7    0.50    0.26
  -2   6   7    1.21    0.25
  -2   6   7    0.98    0.26
   1  -6  -7    0.74    0.28
   1  -6  -7    0.55    0.20
  -1   6   7    0.35    0.27
  -1   6   7    0.70    0.25
   0  -6  -7    0.98    0.31
   0   6   7    0.60    0.27
   0   6   7    0.65    0.29
  -1  -6  -7    3.99    0.54
   1   6   7    4.08    0.46
   1   6   7    4.63    0.50
  -2  -6  -7    8.54    0.60
  -2  -6  -7    8.92    0.65
   2   6   7    9.44    0.62
   7  -7  -7    0.62    0.36
  -7   7   7    0.98    0.36
  -7   7   7    0.11    0.36
   6  -7  -7    9.02    0.58
  -6   7   7    7.18    0.56
  -6   7   7    7.45    0.58
   5  -7  -7    1.08    0.31
   5  -7  -7    0.24    0.30
  -5   7   7    0.99    0.28
  -5   7   7    0.87    0.30
   4  -7  -7    2.25    0.36
   4  -7  -7    1.48    0.29
  -4   7   7    1.36    0.31
  -4   7   7    1.51    0.32
   3  -7  -7    2.47    0.37
   3  -7  -7    2.50    0.31
  -3   7   7    2.84    0.34
  -3   7   7    2.52    0.35
   2  -7  -7    2.55    0.30
   2  -7  -7    1.96    0.34
  -2   7   7    2.58    0.35
  -2   7   7    2.33    0.35
   1  -7  -7    3.07    0.34
   1  -7  -7    3.32    0.43
  -1   7   7    3.80    0.40
  -1   7   7    3.70    0.49
   0  -7  -7    2.39    0.42
   0   7   7    3.00    0.43
   0   7   7    2.26    0.35
  -1  -7  -7    4.35    0.61
   1   7   7    4.85    0.60
   1   7   7    5.61    0.59
   6  -8  -7    0.11    0.34
  -6   8   7   -0.31    0.33
  -6   8   7    0.41    0.34
   5  -8  -7    0.69    0.34
   5  -8  -7    0.11    0.30
  -5   8   7    0.35    0.32
  -5   8   7    0.59    0.33
   4  -8  -7    6.20    0.56
   4  -8  -7    5.71    0.48
  -4   8   7    6.01    0.53
  -4   8   7    4.98    0.46
   3  -8  -7    2.12    0.32
   3  -8  -7    2.09    0.40
  -3   8   7    2.04    0.37
  -3   8   7    1.98    0.35
   2  -8  -7   -0.01    0.35
   2  -8  -7    0.00    0.25
  -2   8   7   -0.06    0.33
  -2   8   7    0.60    0.31
   1  -8  -7    3.86    0.52
  -1   8   7    3.38    0.44
  -1   8   7    5.00    0.51
   0  -8  -7    5.22    0.66
   0   8   7    6.20    0.57
   0   8   7    7.88    0.64
   5  -9  -7    1.85    0.41
   5  -9  -7    0.86    0.32
  -5   9   7    1.48    0.41
  -5   9   7    1.36    0.37
   4  -9  -7    0.08    0.29
   4  -9  -7    0.17    0.36
  -4   9   7    0.00    0.35
  -4   9   7    0.32    0.34
   3  -9  -7    0.01    0.39
   3  -9  -7   -0.05    0.29
  -3   9   7    0.66    0.35
  -3   9   7   -0.22    0.34
   2  -9  -7    0.70    0.43
  -2   9   7    0.17    0.39
  -2   9   7   -0.15    0.30
   0 -10   8    0.24    0.38
   1 -10   8    2.47    0.44
  -2  10  -8    0.50    0.34
   2 -10   8    0.78    0.36
   2 -10   8    0.51    0.33
  -3  10  -8    8.00    0.59
   3 -10   8    7.69    0.65
   3 -10   8    7.79    0.63
  -2  -9   8    9.53    0.75
  -1  -9   8    0.87    0.38
   0  -9   8   13.18    0.68
  -1   9  -8    0.64    0.33
   1  -9   8    0.91    0.33
   1  -9   8    0.49    0.26
  -2   9  -8    0.19    0.26
   2  -9   8    0.21    0.30
   2  -9   8   -0.22    0.25
  -3   9  -8    8.63    0.56
   3  -9   8   10.31    0.61
   3  -9   8    9.03    0.60
  -4   9  -8    8.65    0.60
   4  -9   8    6.83    0.61
  -3  -8   8    0.69    0.42
  -2  -8   8    0.60    0.38
  -1  -8   8    0.56    0.35
   0  -8   8    1.09    0.35
   0  -8   8    1.01    0.25
  -1   8  -8    2.86    0.33
   1  -8   8    3.37    0.39
   1  -8   8    3.52    0.43
  -2   8  -8   45.46    1.09
   2  -8   8   48.02    1.19
   2  -8   8   46.72    1.12
  -3   8  -8    2.70    0.33
   3  -8   8    2.02    0.35
   3  -8   8    3.45    0.40
  -4   8  -8    2.66    0.38
   4  -8   8    2.58    0.37
  -5   8  -8    9.55    0.62
   5  -8   8    8.80    0.66
  -4  -7   8   -0.23    0.33
  -4  -7   8    0.05    0.31
  -3  -7   8    0.35    0.29
  -3  -7   8    0.84    0.37
  -2  -7   8    3.81    0.52
  -1  -7   8    0.31    0.26
  -1  -7   8    0.31    0.20
   0   7  -8   15.71    0.53
   0  -7   8   16.68    0.55
   0  -7   8   15.52    0.67
  -1   7  -8    0.39    0.21
   1  -7   8    0.14    0.27
   1  -7   8    0.74    0.24
  -2   7  -8   17.20    0.56
   2  -7   8   16.54    0.62
   2  -7   8   16.90    0.62
  -3   7  -8    7.42    0.45
   3  -7   8    8.08    0.51
   3  -7   8    8.45    0.49
  -4   7  -8    0.83    0.29
   4  -7   8    1.44    0.34
  -5   7  -8    1.27    0.34
   5  -7   8    1.38    0.39
  -5  -6   8   35.36    1.06
  -5  -6   8   36.79    1.09
  -4  -6   8    9.48    0.61
  -4  -6   8    9.61    0.58
  -3  -6   8   -0.06    0.22
  -3  -6   8    0.55    0.31
  -2  -6   8    8.79    0.55
  -2  -6   8    8.44    0.40
  -2  -6   8    8.45    0.38
  -1  -6   8    8.52    0.39
  -1  -6   8    8.62    0.53
   0   6  -8    3.04    0.29
   0  -6   8    3.72    0.38
   0  -6   8    3.29    0.32
  -1   6  -8    2.71    0.27
   1  -6   8    2.08    0.27
   1  -6   8    1.89    0.28
  -2   6  -8    5.92    0.34
   2  -6   8    6.49    0.39
   2  -6   8    5.94    0.41
  -3   6  -8    4.53    0.37
   3  -6   8    4.89    0.39
   3  -6   8    4.75    0.41
  -4   6  -8    5.10    0.43
   4  -6   8    5.98    0.45
  -5   6  -8    1.63    0.31
   5  -6   8    1.53    0.36
  -6   6  -8    6.06    0.54
   6  -6   8    6.75    0.63
  -5  -5   8    0.71    0.35
  -5  -5   8    0.62    0.30
  -4  -5   8    4.02    0.42
  -4  -5   8    3.87    0.48
  -3  -5   8    5.13    0.37
  -3  -5   8    4.94    0.42
   2   5  -8    1.72    0.22
  -2  -5   8    1.72    0.29
  -2  -5   8    2.08    0.22
   1   5  -8   12.23    0.44
  -1  -5   8   11.14    0.36
  -1  -5   8   10.72    0.49
   0   5  -8    4.47    0.25
   0  -5   8    4.44    0.37
  -1   5  -8    4.97    0.28
   1  -5   8    6.18    0.42
   1  -5   8    5.62    0.34
  -2   5  -8    5.38    0.31
   2  -5   8    5.04    0.35
   2  -5   8    4.41    0.35
  -3   5  -8    8.79    0.42
   3  -5   8    9.02    0.45
   3  -5   8    9.73    0.46
  -4   5  -8    6.94    0.43
   4  -5   8    5.97    0.47
  -5   5  -8    0.81    0.28
   5  -5   8    1.61    0.35
  -6   5  -8    1.29    0.38
   6  -5   8    1.91    0.39
  -6  -4   8    9.40    0.64
  -5  -4   8    0.36    0.28
  -5  -4   8    0.50    0.29
  -4  -4   8    0.29    0.27
  -4  -4   8    0.15    0.21
   3   4  -8   11.03    0.41
  -3  -4   8   10.25    0.44
  -3  -4   8   10.37    0.49
   2   4  -8    1.21    0.19
  -2  -4   8    1.35    0.25
  -2  -4   8    1.40    0.20
   1   4  -8   23.01    0.61
  -1  -4   8   23.25    0.67
  -1  -4   8   22.77    0.54
   0   4  -8   55.66    1.01
   0   4  -8   54.90    1.13
   0  -4   8   56.00    1.00
   0  -4   8   54.08    1.18
  -1   4  -8    1.39    0.17
  -1   4  -8    1.41    0.22
   1  -4   8    1.12    0.22
  -2   4  -8    2.77    0.27
   2  -4   8    2.71    0.33
   2  -4   8    2.61    0.33
  -3   4  -8   35.09    0.83
   3  -4   8   34.65    0.89
   3  -4   8   35.07    0.85
  -4   4  -8   -0.09    0.23
   4  -4   8   -0.23    0.24
  -5   4  -8    3.30    0.39
   5  -4   8    3.77    0.40
  -6   4  -8    0.41    0.37
   6  -4   8    0.77    0.35
  -6  -3   8    3.54    0.42
  -5  -3   8    0.28    0.26
  -5  -3   8    0.43    0.26
   4   3  -8    1.04    0.20
  -4  -3   8    0.83    0.27
  -4  -3   8    1.46    0.27
   3   3  -8    1.16    0.19
  -3  -3   8    0.84    0.21
  -3  -3   8    1.60    0.27
   2   3  -8    7.51    0.34
  -2  -3   8    8.47    0.40
  -2  -3   8    7.91    0.34
   1   3  -8   13.08    0.43
  -1  -3   8   12.48    0.49
  -1  -3   8   12.57    0.37
   0   3  -8    0.70    0.19
   0   3  -8    0.98    0.11
   0  -3   8    0.73    0.18
   0  -3   8    0.73    0.13
  -1   3  -8   15.22    0.39
  -1   3  -8   13.74    0.49
   1  -3   8   15.26    0.35
  -2   3  -8   42.91    0.90
  -3   3  -8    7.13    0.39
   3  -3   8    7.36    0.43
  -4   3  -8    1.47    0.28
   4  -3   8    1.62    0.29
  -5   3  -8    0.18    0.28
   5  -3   8    0.40    0.26
  -6   3  -8    1.78    0.37
   6  -3   8    1.92    0.37
  -7  -2   8    0.67    0.37
  -6  -2   8    4.14    0.49
   5   2  -8    0.02    0.18
  -5  -2   8   -0.06    0.21
  -5  -2   8   -0.21    0.22
   4   2  -8    4.01    0.31
  -4  -2   8    4.31    0.37
  -4  -2   8    4.26    0.34
   3   2  -8   21.06    0.56
  -3  -2   8   21.06    0.63
  -3  -2   8   20.86    0.59
   2   2  -8    1.25    0.19
  -2  -2   8    0.98    0.19
  -2  -2   8    1.21    0.18
   1   2  -8    5.40    0.29
  -1  -2   8    5.23    0.26
   0   2  -8    3.39    0.15
   0   2  -8    2.99    0.25
   0  -2   8    3.08    0.20
  -1   2  -8    0.07    0.16
  -1   2  -8    0.22    0.11
   1  -2   8    0.03    0.10
  -2   2  -8    8.54    0.41
  -2   2  -8    8.76    0.35
   2  -2   8    8.91    0.31
  -3   2  -8    4.70    0.33
   3  -2   8    4.63    0.32
   3  -2   8    4.27    0.37
  -4   2  -8   33.26    0.88
   4  -2   8   33.69    0.87
  -5   2  -8    2.53    0.38
   5  -2   8    2.11    0.32
  -6   2  -8   -0.06    0.31
  -7  -1   8    3.78    0.46
  -6  -1   8    0.79    0.30
   5   1  -8    7.58    0.40
  -5  -1   8    8.69    0.48
  -5  -1   8    8.15    0.45
   4   1  -8   13.08    0.45
  -4  -1   8   11.15    0.48
  -4  -1   8   12.01    0.47
   3   1  -8   49.05    1.01
  -3  -1   8   48.57    1.03
   2   1  -8    3.11    0.24
  -2  -1   8    2.99    0.26
  -1  -1   8   24.26    0.57
   0   1  -8   39.71    0.86
   0  -1   8   38.27    0.79
  -1   1  -8    8.18    0.38
  -1   1  -8    9.27    0.30
   1  -1   8    8.32    0.30
  -2   1  -8    4.16    0.30
  -2   1  -8    4.43    0.30
   2  -1   8    4.08    0.25
  -3   1  -8    2.55    0.29
  -3   1  -8    2.25    0.27
   3  -1   8    1.92    0.25
  -4   1  -8    7.75    0.45
  -4   1  -8    8.19    0.46
   4  -1   8    8.28    0.45
  -5   1  -8    2.01    0.34
  -7   0   8    0.66    0.34
   6   0  -8    6.00    0.40
  -6   0   8    6.58    0.45
   5   0  -8    0.56    0.20
  -5   0   8    0.28    0.25
  -5   0   8    0.64    0.21
   4   0  -8    8.33    0.38
  -4   0   8    7.98    0.42
   3   0  -8   10.74    0.39
  -3   0   8   10.57    0.40
   2   0  -8    1.06    0.18
  -2   0   8    1.17    0.19
   1   0  -8    4.86    0.30
  -1   0   8    5.88    0.27
  -1   0   8    5.37    0.14
   0   0  -8    4.56    0.29
   0   0   8    4.22    0.25
   0   0   8    4.49    0.21
  -1   0  -8    2.37    0.24
  -1   0  -8    2.09    0.27
   1   0   8    2.13    0.23
  -2   0  -8    2.22    0.28
  -2   0  -8    1.89    0.25
  -2   0  -8    2.01    0.24
   2   0   8    1.73    0.21
  -3   0  -8    0.59    0.23
  -3   0  -8    0.24    0.21
  -4   0  -8    4.23    0.42
  -4   0  -8    4.15    0.44
   4   0   8    5.00    0.38
  -5   0  -8    2.63    0.38
  -5   0  -8    2.21    0.39
   7  -1  -8    0.82    0.28
  -7   1   8    0.86    0.31
   6  -1  -8    0.13    0.22
  -6   1   8    0.18    0.24
   5  -1  -8    2.88    0.33
  -5   1   8    2.48    0.31
   4  -1  -8   53.24    1.12
  -4   1   8   53.51    1.15
   3  -1  -8   18.32    0.54
  -3   1   8   17.79    0.54
   2  -1  -8   28.88    0.70
  -2   1   8   30.07    0.53
  -2   1   8   28.85    0.70
   1  -1  -8   36.16    0.87
   1  -1  -8   37.53    0.83
  -1   1   8   38.39    0.70
  -1   1   8   38.63    0.83
   0  -1  -8    0.43    0.20
   0  -1  -8    0.45    0.15
   0   1   8    0.42    0.13
   0   1   8    0.19    0.15
  -1  -1  -8    0.78    0.17
  -1  -1  -8    0.87    0.20
   1   1   8    1.06    0.19
   1   1   8    0.94    0.19
  -2  -1  -8   11.63    0.44
  -2  -1  -8   11.68    0.47
   2   1   8   11.70    0.47
  -3  -1  -8   22.71    0.69
  -3  -1  -8   21.27    0.69
  -3  -1  -8   20.50    0.62
  -4  -1  -8    5.98    0.49
  -5  -1  -8   -0.01    0.34
  -8   2   8    8.10    0.65
   7  -2  -8   11.97    0.57
  -7   2   8   11.68    0.59
   6  -2  -8    0.83    0.25
  -6   2   8    0.57    0.26
   5  -2  -8    0.02    0.20
  -5   2   8   -0.05    0.20
   4  -2  -8    6.59    0.38
  -4   2   8    6.20    0.37
   3  -2  -8    6.09    0.37
   3  -2  -8    5.91    0.35
  -3   2   8    5.91    0.33
  -3   2   8    6.44    0.24
   2  -2  -8    2.28    0.31
   2  -2  -8    1.45    0.21
  -2   2   8    1.92    0.24
  -2   2   8    2.06    0.18
   1  -2  -8   23.46    0.66
   1  -2  -8   23.30    0.62
  -1   2   8   24.06    0.63
  -1   2   8   23.93    0.53
   0  -2  -8    2.82    0.28
   0  -2  -8    2.91    0.31
   0   2   8    3.02    0.28
   0   2   8    3.18    0.24
  -1  -2  -8   10.84    0.48
  -1  -2  -8   11.67    0.43
   1   2   8   10.78    0.46
   1   2   8   10.87    0.42
  -2  -2  -8    2.76    0.34
  -2  -2  -8    2.44    0.31
  -2  -2  -8    2.22    0.30
   2   2   8    2.49    0.30
  -3  -2  -8    5.69    0.46
  -3  -2  -8    5.36    0.48
   3   2   8    5.29    0.48
  -4  -2  -8    6.08    0.55
   4   2   8    6.37    0.58
   8  -3  -8    0.17    0.32
  -8   3   8    0.24    0.36
   7  -3  -8    3.94    0.47
  -7   3   8    4.45    0.53
   6  -3  -8    0.42    0.26
  -6   3   8    0.54    0.29
   5  -3  -8   17.53    0.61
  -5   3   8   17.49    0.63
   4  -3  -8   73.14    1.47
   4  -3  -8   75.37    1.49
  -4   3   8   74.31    1.36
  -4   3   8   72.22    1.49
   3  -3  -8    0.47    0.19
   3  -3  -8    0.52    0.22
  -3   3   8    0.46    0.20
  -3   3   8    0.50    0.15
   2  -3  -8    3.21    0.27
   2  -3  -8    3.36    0.33
  -2   3   8    2.50    0.32
  -2   3   8    3.12    0.24
   1  -3  -8    9.30    0.44
   1  -3  -8    8.59    0.39
  -1   3   8    9.05    0.34
  -1   3   8    8.49    0.42
   0  -3  -8    7.25    0.36
   0  -3  -8    6.38    0.45
   0   3   8    6.16    0.34
   0   3   8    6.88    0.37
  -1  -3  -8    1.30    0.21
  -1  -3  -8    1.18    0.29
   1   3   8    1.45    0.26
   1   3   8    0.88    0.25
  -2  -3  -8   10.40    0.55
  -2  -3  -8    9.11    0.46
  -2  -3  -8   10.78    0.56
   2   3   8   10.38    0.52
  -3  -3  -8    5.42    0.53
  -3  -3  -8    4.29    0.49
   3   3   8    5.77    0.54
  -4  -3  -8    4.46    0.57
   4   3   8    4.94    0.62
   7  -4  -8   12.46    0.62
  -7   4   8   12.28    0.66
   6  -4  -8   21.55    0.70
  -6   4   8   21.05    0.72
   5  -4  -8    8.04    0.46
   5  -4  -8    8.51    0.48
  -5   4   8    7.64    0.46
   4  -4  -8    0.78    0.25
   4  -4  -8    1.22    0.24
  -4   4   8    0.94    0.24
  -4   4   8    1.07    0.20
   3  -4  -8   15.06    0.57
   3  -4  -8   15.35    0.54
  -3   4   8   15.31    0.47
  -3   4   8   14.19    0.52
   2  -4  -8   10.99    0.49
   2  -4  -8   11.29    0.44
  -2   4   8   10.99    0.41
  -2   4   8   10.88    0.48
   1  -4  -8    6.69    0.45
   1  -4  -8    6.57    0.37
  -1   4   8    5.43    0.41
  -1   4   8    6.21    0.35
   0  -4  -8   39.34    0.89
   0  -4  -8   36.63    0.97
   0   4   8   38.41    0.93
   0   4   8   38.40    0.91
  -1  -4  -8    3.55    0.33
  -1  -4  -8    3.45    0.40
   1   4   8    3.74    0.41
   1   4   8    3.58    0.38
  -2  -4  -8    0.84    0.32
  -2  -4  -8    1.54    0.32
   2   4   8    1.75    0.36
  -3  -4  -8    1.56    0.37
  -3  -4  -8    1.75    0.40
   3   4   8    1.42    0.37
   7  -5  -8    4.49    0.52
  -7   5   8    4.63    0.55
   6  -5  -8   15.13    0.61
  -6   5   8   13.81    0.65
   5  -5  -8   20.32    0.69
   5  -5  -8   19.61    0.65
  -5   5   8   20.36    0.61
  -5   5   8   19.05    0.69
   4  -5  -8    2.51    0.33
   4  -5  -8    2.47    0.30
  -4   5   8    2.98    0.34
  -4   5   8    3.05    0.36
   3  -5  -8    0.47    0.20
   3  -5  -8    0.49    0.24
  -3   5   8    0.48    0.21
  -3   5   8    0.00    0.21
   2  -5  -8   11.38    0.53
   2  -5  -8   11.57    0.48
  -2   5   8   11.44    0.46
  -2   5   8   11.93    0.52
   1  -5  -8    3.01    0.39
   1  -5  -8    1.82    0.25
  -1   5   8    1.96    0.28
  -1   5   8    1.74    0.30
   0  -5  -8    1.80    0.25
   0  -5  -8    1.98    0.35
   0   5   8    1.72    0.31
   0   5   8    1.46    0.28
  -1  -5  -8   -0.06    0.31
   1   5   8    0.16    0.28
   1   5   8    0.05    0.30
  -2  -5  -8    0.74    0.35
   2   5   8    1.17    0.39
   7  -6  -8   25.38    0.89
  -7   6   8   25.69    0.86
   6  -6  -8    0.21    0.30
  -6   6   8    0.31    0.29
   5  -6  -8    7.23    0.46
   5  -6  -8    7.44    0.50
  -5   6   8    6.99    0.46
  -5   6   8    6.74    0.47
   4  -6  -8    0.14    0.29
   4  -6  -8    0.19    0.25
  -4   6   8    0.05    0.23
  -4   6   8    0.00    0.22
   3  -6  -8    2.93    0.38
   3  -6  -8    1.97    0.29
  -3   6   8    3.12    0.36
  -3   6   8    2.44    0.31
   2  -6  -8    2.03    0.33
   2  -6  -8    2.96    0.36
  -2   6   8    3.36    0.38
  -2   6   8    3.41    0.39
   1  -6  -8    9.57    0.46
   1  -6  -8    9.55    0.56
  -1   6   8    9.85    0.53
  -1   6   8    8.98    0.51
   0  -6  -8    9.53    0.58
   0   6   8    9.47    0.52
   0   6   8    9.42    0.53
  -1  -6  -8    2.26    0.43
   1   6   8    2.08    0.36
   1   6   8    2.58    0.43
  -2  -6  -8    1.07    0.41
   2   6   8    0.91    0.43
   6  -7  -8    0.67    0.30
  -6   7   8    0.64    0.35
   5  -7  -8    1.40    0.30
   5  -7  -8    1.62    0.36
  -5   7   8    2.16    0.34
  -5   7   8    1.19    0.31
   4  -7  -8    3.27    0.41
   4  -7  -8    2.35    0.32
  -4   7   8    3.38    0.39
  -4   7   8    2.50    0.35
   3  -7  -8    1.02    0.29
   3  -7  -8    1.19    0.33
  -3   7   8    0.67    0.30
  -3   7   8    1.01    0.33
   2  -7  -8    3.42    0.44
   2  -7  -8    3.57    0.40
  -2   7   8    3.43    0.40
  -2   7   8    3.93    0.42
   1  -7  -8    0.67    0.38
  -1   7   8    1.08    0.36
  -1   7   8    0.52    0.29
   0  -7  -8    2.55    0.45
   0   7   8    2.75    0.44
   0   7   8    2.63    0.42
  -1  -7  -8    0.59    0.37
   1   7   8    0.07    0.37
   5  -8  -8    1.50    0.35
   5  -8  -8    1.62    0.39
  -5   8   8    1.32    0.37
  -5   8   8    1.18    0.37
   4  -8  -8    1.52    0.35
   4  -8  -8    1.43    0.40
  -4   8   8    1.00    0.31
  -4   8   8    1.96    0.38
   3  -8  -8   10.08    0.68
   3  -8  -8    9.86    0.56
  -3   8   8   10.21    0.61
  -3   8   8    8.91    0.57
   2  -8  -8    0.80    0.30
   2  -8  -8    0.81    0.38
  -2   8   8    1.46    0.39
  -2   8   8    1.64    0.39
   1  -8  -8    2.85    0.49
  -1   8   8    3.55    0.48
  -1   8   8    4.16    0.52
   1 -10   9    1.88    0.47
  -1  -9   9    1.79    0.42
   0  -9   9   -0.23    0.37
   1  -9   9    0.04    0.28
   1  -9   9    0.07    0.37
   2  -9   9    1.04    0.38
   2  -9   9    2.41    0.38
   3  -9   9    3.99    0.48
   3  -9   9    4.03    0.47
  -3  -8   9    0.92    0.44
  -2  -8   9    2.70    0.44
  -1  -8   9    4.86    0.58
   0  -8   9    0.30    0.25
   0  -8   9   -0.30    0.33
   1  -8   9    2.38    0.36
   1  -8   9    2.41    0.33
   2  -8   9    0.62    0.28
   2  -8   9    0.45    0.28
   3  -8   9    0.64    0.31
   3  -8   9    0.33    0.27
  -4   8  -9    2.98    0.39
   4  -8   9    3.25    0.40
  -4  -7   9    6.84    0.67
  -3  -7   9    0.26    0.34
  -2  -7   9   -0.05    0.31
  -1  -7   9    0.13    0.23
  -1  -7   9    0.18    0.28
   0  -7   9    1.07    0.26
   0  -7   9    0.96    0.34
   1  -7   9    4.18    0.41
   1  -7   9    3.55    0.43
   2  -7   9    0.04    0.22
   2  -7   9    0.11    0.28
  -3   7  -9    0.00    0.24
   3  -7   9   -0.12    0.28
   3  -7   9    0.06    0.27
  -4   7  -9    1.27    0.31
   4  -7   9    1.60    0.34
  -5   7  -9    2.18    0.39
   5  -7   9    2.50    0.39
  -5  -6   9   -0.08    0.38
  -4  -6   9    1.24    0.40
  -4  -6   9    0.99    0.31
  -3  -6   9   -0.25    0.23
  -3  -6   9    0.20    0.33
  -2  -6   9   11.93    0.59
  -1  -6   9    0.12    0.24
  -1  -6   9   -0.09    0.20
   0  -6   9   32.90    0.91
   0  -6   9   32.25    0.82
   1  -6   9    1.45    0.30
   1  -6   9    1.10    0.24
  -2   6  -9    2.64    0.33
   2  -6   9    2.90    0.35
   2  -6   9    3.13    0.42
  -3   6  -9   15.69    0.57
   3  -6   9   16.90    0.65
   3  -6   9   16.86    0.66
  -4   6  -9    1.08    0.29
   4  -6   9    1.39    0.31
  -5   6  -9    4.71    0.52
   5  -6   9    4.86    0.57
  -5  -5   9    0.31    0.30
  -5  -5   9   -0.15    0.35
  -4  -5   9    4.67    0.46
  -4  -5   9    5.20    0.45
  -3  -5   9    4.27    0.39
  -3  -5   9    4.78    0.45
   2   5  -9    1.85    0.23
  -2  -5   9    1.41    0.29
  -2  -5   9    2.13    0.24
   1   5  -9    6.12    0.37
  -1  -5   9    5.40    0.46
   0   5  -9    0.30    0.20
   0  -5   9    0.10    0.22
   1  -5   9    4.57    0.38
   1  -5   9    5.22    0.43
  -2   5  -9   13.16    0.46
   2  -5   9   13.42    0.55
   2  -5   9   13.47    0.56
  -3   5  -9   28.77    0.77
   3  -5   9   30.28    0.86
   3  -5   9   29.84    0.82
  -4   5  -9    2.97    0.40
   4  -5   9    2.51    0.33
  -5   5  -9    5.01    0.52
   5  -5   9    5.25    0.54
  -6  -4   9    4.63    0.57
  -5  -4   9    0.26    0.30
  -5  -4   9    0.25    0.28
  -4  -4   9    2.91    0.37
  -4  -4   9    3.06    0.33
   3   4  -9    5.97    0.38
  -3  -4   9    5.97    0.41
  -3  -4   9    6.04    0.48
   2   4  -9    0.48    0.19
  -2  -4   9    0.33    0.23
  -2  -4   9    0.57    0.19
   1   4  -9    7.91    0.39
  -1  -4   9    7.64    0.43
  -1  -4   9    8.00    0.32
   0   4  -9   18.21    0.55
   0  -4   9   17.19    0.59
  -1   4  -9    6.09    0.36
   1  -4   9    6.84    0.44
  -2   4  -9    2.82    0.27
   2  -4   9    2.90    0.32
   2  -4   9    3.09    0.37
  -3   4  -9    0.49    0.21
   3  -4   9    0.13    0.22
   3  -4   9    0.47    0.26
  -4   4  -9   -0.02    0.25
   4  -4   9    0.48    0.28
  -5   4  -9   21.44    0.77
   5  -4   9   18.86    0.75
  -6  -3   9    1.97    0.38
  -5  -3   9    8.62    0.52
  -5  -3   9    9.02    0.53
   4   3  -9    0.09    0.19
  -4  -3   9    0.12    0.23
  -4  -3   9    0.04    0.23
   3   3  -9   26.09    0.67
  -3  -3   9   25.08    0.68
  -3  -3   9   24.95    0.74
   2   3  -9    2.29    0.29
  -2  -3   9    2.65    0.32
  -2  -3   9    1.90    0.21
   1   3  -9    1.19    0.21
  -1  -3   9    1.70    0.18
  -1  -3   9    1.22    0.24
   0   3  -9   29.73    0.74
   0  -3   9   28.83    0.62
  -1   3  -9    1.46    0.22
  -2   3  -9   82.67    1.54
  -3   3  -9   68.53    1.37
   3  -3   9   66.17    1.41
  -4   3  -9    0.11    0.23
   4  -3   9    0.34    0.24
  -5   3  -9    3.66    0.49
   5  -3   9    4.75    0.49
  -7  -2   9    0.09    0.33
  -6  -2   9    4.14    0.50
   5   2  -9    0.38    0.22
  -5  -2   9    0.65    0.28
  -5  -2   9    0.75    0.29
   4   2  -9   10.67    0.44
  -4  -2   9   10.77    0.50
  -4  -2   9   12.62    0.53
   3   2  -9    3.84    0.32
  -3  -2   9    4.41    0.38
  -3  -2   9    4.09    0.34
   2   2  -9    0.92    0.19
  -2  -2   9    0.83    0.18
   1   2  -9    4.71    0.33
  -1  -2   9    4.54    0.27
   0   2  -9    5.83    0.33
   0  -2   9    6.31    0.27
  -1   2  -9   49.48    1.08
  -1   2  -9   49.46    0.94
   1  -2   9   48.79    0.95
  -2   2  -9    1.45    0.26
  -2   2  -9    1.51    0.21
   2  -2   9    1.45    0.18
  -3   2  -9   13.21    0.51
   3  -2   9   12.87    0.54
  -4   2  -9    1.01    0.28
   4  -2   9    0.75    0.26
  -5   2  -9    7.21    0.57
   5  -2   9    9.05    0.57
  -7  -1   9    1.11    0.34
  -6  -1   9    0.39    0.31
   5   1  -9   12.16    0.49
  -5  -1   9   12.34    0.52
  -5  -1   9   12.49    0.57
   4   1  -9   16.56    0.53
  -4  -1   9   16.95    0.58
  -4  -1   9   15.75    0.58
   3   1  -9   24.98    0.65
  -3  -1   9   24.26    0.66
   2   1  -9    2.62    0.26
  -2  -1   9    3.11    0.28
   1   1  -9    3.13    0.26
  -1  -1   9    3.25    0.25
   0   1  -9   10.20    0.40
   0  -1   9   10.11    0.36
  -1   1  -9   44.11    0.88
  -1   1  -9   45.63    1.00
   1  -1   9   43.98    0.91
  -2   1  -9  107.21    2.01
  -2   1  -9  107.43    1.95
   2  -1   9  106.44    1.92
  -3   1  -9    0.53    0.23
   3  -1   9    0.70    0.19
   3  -1   9    0.54    0.24
  -4   1  -9    9.70    0.53
   4  -1   9    9.65    0.51
  -5   1  -9   10.04    0.63
  -7   0   9    4.44    0.50
   6   0  -9    3.62    0.37
  -6   0   9    4.43    0.49
   5   0  -9   -0.25    0.18
  -5   0   9    0.05    0.21
  -5   0   9    0.07    0.22
   4   0  -9    1.33    0.23
  -4   0   9    0.87    0.22
   3   0  -9   11.96    0.46
  -3   0   9   12.92    0.48
   2   0  -9   13.46    0.47
  -2   0   9   13.63    0.45
   1   0  -9   71.01    1.41
  -1   0   9   73.86    1.38
   0   0  -9   70.55    1.39
   0   0   9   70.31    1.34
  -1   0  -9    0.15    0.17
   1   0   9    0.53    0.17
   1   0   9    0.43    0.17
  -2   0  -9   19.10    0.60
   2   0   9   19.59    0.57
  -3   0  -9    0.80    0.26
  -4   0  -9    0.13    0.28
  -4   0  -9    0.23    0.29
   4   0   9    0.18    0.25
  -5   0  -9    3.33    0.46
   7  -1  -9    0.07    0.27
  -7   1   9    0.00    0.32
   6  -1  -9    3.61    0.40
  -6   1   9    4.31    0.48
   5  -1  -9    4.84    0.36
  -5   1   9    4.69    0.43
   4  -1  -9   13.64    0.51
  -4   1   9   13.19    0.51
   3  -1  -9   -0.03    0.16
  -3   1   9   -0.25    0.18
   2  -1  -9    8.07    0.38
  -2   1   9    7.76    0.38
   1  -1  -9   28.06    0.77
   1  -1  -9   28.70    0.71
  -1   1   9   29.36    0.72
   0  -1  -9    8.37    0.37
   0  -1  -9    8.55    0.43
   0   1   9    8.12    0.31
   0   1   9    8.66    0.39
  -1  -1  -9   19.85    0.67
  -1  -1  -9   20.23    0.59
   1   1   9   20.89    0.60
   1   1   9   20.62    0.56
  -2  -1  -9   11.93    0.47
  -2  -1  -9   11.27    0.54
   2   1   9   11.53    0.47
   2   1   9    9.96    0.46
  -3  -1  -9    0.63    0.24
  -3  -1  -9    0.61    0.28
  -3  -1  -9    0.37    0.28
   3   1   9    0.62    0.28
  -4  -1  -9    8.29    0.57
   4   1   9    7.41    0.57
   7  -2  -9   -0.07    0.29
  -7   2   9    0.29    0.33
   6  -2  -9    0.16    0.23
  -6   2   9    0.09    0.26
   5  -2  -9    3.01    0.33
  -5   2   9    3.27    0.35
   4  -2  -9    0.61    0.21
  -4   2   9    0.21    0.23
   3  -2  -9    4.48    0.35
  -3   2   9    4.62    0.34
   2  -2  -9   87.73    1.71
   2  -2  -9   90.72    1.76
  -2   2   9   89.44    1.70
   1  -2  -9   59.68    1.23
   1  -2  -9   60.74    1.29
  -1   2   9   59.20    1.20
  -1   2   9   57.74    1.21
   0  -2  -9    4.33    0.38
   0  -2  -9    4.96    0.35
   0   2   9    4.67    0.31
   0   2   9    4.32    0.33
  -1  -2  -9    1.03    0.28
  -1  -2  -9    1.00    0.23
   1   2   9    0.74    0.22
   1   2   9    0.76    0.21
  -2  -2  -9    5.27    0.37
  -2  -2  -9    5.90    0.48
   2   2   9    6.01    0.45
   2   2   9    5.23    0.42
  -3  -2  -9    5.65    0.50
  -3  -2  -9    7.11    0.54
   3   2   9    6.04    0.52
  -4  -2  -9    0.15    0.36
   4   2   9    0.36    0.35
   7  -3  -9    1.18    0.33
  -7   3   9    1.03    0.38
   6  -3  -9    1.15    0.30
  -6   3   9    1.28    0.30
   5  -3  -9    2.70    0.34
  -5   3   9    1.72    0.29
   4  -3  -9   18.71    0.63
   4  -3  -9   17.54    0.58
  -4   3   9   17.54    0.60
   3  -3  -9    7.91    0.43
   3  -3  -9    7.66    0.40
  -3   3   9    6.41    0.39
   2  -3  -9   11.99    0.52
   2  -3  -9   11.65    0.46
  -2   3   9   12.45    0.51
   1  -3  -9    0.07    0.19
   1  -3  -9    0.13    0.22
  -1   3   9    0.12    0.17
  -1   3   9    0.05    0.21
   0  -3  -9    5.33    0.46
   0  -3  -9    6.19    0.37
   0   3   9    5.49    0.34
   0   3   9    5.49    0.38
  -1  -3  -9   13.33    0.50
  -1  -3  -9   14.50    0.60
   1   3   9   13.53    0.54
   1   3   9   13.58    0.56
  -2  -3  -9    7.73    0.56
   2   3   9    7.64    0.51
   2   3   9    9.29    0.52
  -3  -3  -9    2.41    0.40
  -3  -3  -9    1.75    0.39
   3   3   9    1.95    0.41
   7  -4  -9    0.03    0.29
  -7   4   9   -0.25    0.33
   6  -4  -9    3.30    0.38
  -6   4   9    3.73    0.44
   5  -4  -9   11.54    0.53
  -5   4   9   13.45    0.57
   4  -4  -9    6.84    0.41
   4  -4  -9    7.05    0.43
  -4   4   9    6.44    0.42
   3  -4  -9    0.89    0.24
   3  -4  -9    0.62    0.25
  -3   4   9    0.82    0.25
   2  -4  -9   29.54    0.78
   2  -4  -9   29.78    0.86
  -2   4   9   28.78    0.72
  -2   4   9   27.72    0.78
   1  -4  -9    1.04    0.24
   1  -4  -9    1.25    0.31
  -1   4   9    1.84    0.26
  -1   4   9    0.97    0.24
   0  -4  -9    1.09    0.24
   0  -4  -9    1.09    0.33
   0   4   9    0.99    0.27
   0   4   9    1.23    0.26
  -1  -4  -9    0.33    0.23
  -1  -4  -9    0.08    0.31
   1   4   9    0.36    0.25
   1   4   9    0.28    0.29
  -2  -4  -9    6.96    0.59
   2   4   9    6.45    0.55
   2   4   9    7.09    0.59
  -3  -4  -9    0.48    0.37
   3   4   9    0.45    0.40
   7  -5  -9    1.51    0.38
  -7   5   9    1.88    0.42
   6  -5  -9    8.64    0.53
  -6   5   9    8.26    0.60
   5  -5  -9   10.63    0.53
   5  -5  -9   11.41    0.56
  -5   5   9   10.44    0.58
   4  -5  -9    5.15    0.44
   4  -5  -9    4.75    0.43
  -4   5   9    5.75    0.44
   3  -5  -9    1.14    0.32
   3  -5  -9    1.21    0.25
  -3   5   9    1.36    0.30
   2  -5  -9    0.22    0.23
   2  -5  -9    0.32    0.27
  -2   5   9    0.49    0.24
  -2   5   9    0.05    0.25
   1  -5  -9    9.81    0.47
   1  -5  -9    9.82    0.59
  -1   5   9    9.53    0.51
  -1   5   9    9.70    0.50
   0  -5  -9   14.29    0.56
   0  -5  -9   15.44    0.67
   0   5   9   15.35    0.61
   0   5   9   14.49    0.65
  -1  -5  -9    2.26    0.38
   1   5   9    3.16    0.42
   1   5   9    2.26    0.35
  -2  -5  -9    0.50    0.39
   2   5   9    0.69    0.39
   2   5   9    0.86    0.33
   7  -6  -9    0.36    0.37
  -7   6   9    0.27    0.38
   6  -6  -9    2.05    0.38
  -6   6   9    2.17    0.37
   5  -6  -9    1.34    0.34
   5  -6  -9    1.94    0.36
  -5   6   9    2.09    0.37
   4  -6  -9    6.22    0.53
   4  -6  -9    6.61    0.50
  -4   6   9    5.88    0.52
   3  -6  -9   -0.05    0.24
   3  -6  -9    0.11    0.32
  -3   6   9   -0.18    0.28
   2  -6  -9   13.33    0.63
   2  -6  -9   13.22    0.56
  -2   6   9   12.85    0.56
  -2   6   9   13.51    0.63
   1  -6  -9    0.19    0.24
   1  -6  -9   -0.27    0.34
  -1   6   9   -0.10    0.29
  -1   6   9    0.29    0.31
   0  -6  -9    0.59    0.38
   0   6   9    0.83    0.35
   0   6   9    0.88    0.34
  -1  -6  -9    3.00    0.45
   1   6   9    5.07    0.60
   1   6   9    3.17    0.44
   6  -7  -9    0.11    0.32
  -6   7   9    0.73    0.38
   5  -7  -9    1.51    0.40
   5  -7  -9    1.48    0.37
  -5   7   9    1.98    0.39
   4  -7  -9    7.90    0.56
   4  -7  -9    6.92    0.54
  -4   7   9    7.43    0.59
   3  -7  -9   -0.04    0.27
   3  -7  -9    0.02    0.31
  -3   7   9   -0.30    0.30
   2  -7  -9    4.40    0.53
   2  -7  -9    4.80    0.45
  -2   7   9    4.62    0.48
  -2   7   9    4.44    0.53
   1  -7  -9    7.07    0.61
  -1   7   9    7.22    0.59
  -1   7   9    6.56    0.61
   0  -7  -9    0.28    0.41
   0   7   9    0.65    0.38
   0   7   9    0.85    0.39
   4  -8  -9    0.00    0.31
   4  -8  -9   -0.20    0.38
  -4   8   9    0.25    0.34
   3  -8  -9    0.29    0.30
   3  -8  -9    0.85    0.43
  -3   8   9    0.42    0.36
   2  -8  -9    0.11    0.37
  -2   8   9    0.23    0.35
  -2   8   9    0.17    0.38
  -1  -9  10    0.93    0.40
   0  -9  10    1.08    0.43
   1  -9  10    0.41    0.32
   1  -9  10    0.09    0.38
   2  -9  10    2.24    0.39
   2  -9  10    1.75    0.42
  -2  -8  10    2.21    0.48
  -1  -8  10    1.13    0.38
   0  -8  10    1.63    0.41
   0  -8  10    1.97    0.32
   1  -8  10    0.48    0.31
   1  -8  10    0.17    0.29
   2  -8  10    6.58    0.53
   2  -8  10    6.26    0.53
   3  -8  10    0.72    0.35
   3  -8  10    0.33    0.32
   4  -8  10   -0.12    0.36
  -3  -7  10   -0.06    0.34
  -2  -7  10    3.39    0.47
  -1  -7  10    2.25    0.40
  -1  -7  10    2.13    0.30
   0  -7  10    4.93    0.54
   0  -7  10    4.06    0.43
   1  -7  10    1.46    0.33
   1  -7  10    0.32    0.27
   2  -7  10    0.33    0.29
   2  -7  10    0.18    0.31
   3  -7  10    1.10    0.34
   3  -7  10    0.82    0.29
   4  -7  10    3.22    0.42
  -4  -6  10    0.13    0.38
  -4  -6  10    0.29    0.29
  -3  -6  10   -0.10    0.34
   2   6 -10    0.50    0.23
  -2  -6  10    0.68    0.34
  -1  -6  10    0.59    0.28
   0  -6  10   15.65    0.69
   0  -6  10   16.11    0.60
   1  -6  10    0.60    0.27
   1  -6  10    0.64    0.24
   2  -6  10    2.19    0.31
   2  -6  10    2.54    0.37
   3  -6  10    3.66    0.40
   3  -6  10    3.73    0.47
   4  -6  10    5.28    0.54
  -5  -5  10    8.67    0.65
  -5  -5  10    8.22    0.59
  -4  -5  10    0.22    0.28
  -4  -5  10    0.31    0.35
   3   5 -10    0.28    0.22
  -3  -5  10    0.16    0.23
  -3  -5  10    0.39    0.32
   2   5 -10    3.82    0.36
  -2  -5  10    3.61    0.41
   1   5 -10    0.87    0.23
  -1  -5  10    0.40    0.25
   0   5 -10    0.23    0.24
   0  -5  10    0.02    0.23
   1  -5  10   11.04    0.52
   1  -5  10   10.66    0.52
   2  -5  10    8.13    0.49
   2  -5  10    6.05    0.47
   3  -5  10    1.05    0.28
   3  -5  10    1.30    0.29
   4  -5  10    3.66    0.43
   5  -5  10    0.26    0.36
  -5  -4  10    1.86    0.37
  -5  -4  10    1.84    0.37
  -4  -4  10    7.05    0.50
  -4  -4  10    7.05    0.48
   3   4 -10    4.68    0.40
  -3  -4  10    4.28    0.37
  -3  -4  10    4.82    0.45
   2   4 -10    0.94    0.22
  -2  -4  10    0.89    0.29
  -2  -4  10    0.67    0.20
   1   4 -10   29.06    0.77
  -1  -4  10   27.88    0.81
   0   4 -10    0.22    0.20
   0  -4  10    0.02    0.22
  -1   4 -10    3.94    0.35
   1  -4  10    4.11    0.38
   2  -4  10    0.45    0.25
   2  -4  10    1.00    0.24
   3  -4  10    2.05    0.31
   3  -4  10    2.17    0.34
   4  -4  10   11.80    0.62
  -5   4 -10    0.55    0.34
   5  -4  10    0.65    0.34
  -6  -3  10    0.48    0.33
  -5  -3  10    7.31    0.54
  -5  -3  10    6.78    0.54
   4   3 -10   10.67    0.46
  -4  -3  10   10.89    0.52
  -4  -3  10   10.20    0.58
   3   3 -10   13.95    0.52
  -3  -3  10   14.60    0.61
  -3  -3  10   14.55    0.52
   2   3 -10    6.15    0.36
  -2  -3  10    6.74    0.46
  -2  -3  10    7.43    0.38
   1   3 -10    2.71    0.29
  -1  -3  10    1.81    0.27
  -1  -3  10    2.20    0.26
   0   3 -10   12.08    0.50
   0  -3  10   13.00    0.44
  -1   3 -10    3.57    0.37
  -2   3 -10    1.48    0.26
   3  -3  10    9.07    0.53
  -4   3 -10    3.41    0.45
   4  -3  10    3.83    0.43
  -5   3 -10   17.00    0.75
   5  -3  10   17.34    0.76
  -6  -2  10    2.81    0.42
   5   2 -10    6.68    0.42
  -5  -2  10    6.88    0.51
  -5  -2  10    6.78    0.50
   4   2 -10   13.65    0.52
  -4  -2  10   12.79    0.58
  -4  -2  10   12.94    0.55
   3   2 -10    9.81    0.45
  -3  -2  10   10.07    0.48
  -3  -2  10    9.92    0.45
   2   2 -10    7.18    0.39
  -2  -2  10    6.36    0.35
   1   2 -10   -0.07    0.17
  -1  -2  10    0.10    0.16
   0   2 -10    0.15    0.20
   0  -2  10    0.21    0.14
  -1   2 -10    0.87    0.24
   1  -2  10    1.08    0.17
  -2   2 -10    0.40    0.21
  -3   2 -10   21.35    0.90
   3  -2  10   22.61    0.73
  -4   2 -10    0.86    0.31
   4  -2  10    0.82    0.31
  -7  -1  10    4.58    0.50
   6   1 -10    0.10    0.27
  -6  -1  10   -0.36    0.29
   5   1 -10    1.75    0.27
  -5  -1  10    2.27    0.33
  -5  -1  10    2.10    0.34
   4   1 -10   28.55    0.77
  -4  -1  10   29.01    0.82
  -4  -1  10   28.40    0.80
   3   1 -10    1.78    0.26
  -3  -1  10    1.93    0.26
   2   1 -10    0.47    0.18
  -2  -1  10    0.41    0.18
   1   1 -10    0.49    0.17
  -1  -1  10    0.61    0.17
   0   1 -10   47.49    1.06
   0  -1  10   46.97    0.98
  -1   1 -10   26.64    0.73
   1  -1  10   27.50    0.66
  -2   1 -10   12.72    0.54
   2  -1  10   13.24    0.46
  -3   1 -10    0.80    0.25
   3  -1  10    0.89    0.27
  -4   1 -10    3.40    0.39
   4  -1  10    2.85    0.36
  -7   0  10    0.73    0.34
   6   0 -10    2.79    0.34
  -6   0  10    3.08    0.41
   5   0 -10    1.28    0.27
  -5   0  10    1.61    0.28
  -5   0  10    1.02    0.30
   4   0 -10   10.57    0.48
  -4   0  10    9.41    0.49
   3   0 -10    4.26    0.36
  -3   0  10    4.44    0.38
   2   0 -10    7.13    0.40
  -2   0  10    7.26    0.38
   1   0 -10   21.99    0.65
  -1   0  10   22.46    0.61
   0   0 -10    0.59    0.20
   0   0  10    0.33    0.18
  -1   0 -10    1.89    0.27
   1   0  10    1.51    0.22
  -2   0 -10    0.29    0.24
   2   0  10    0.65    0.21
   3   0  10    5.83    0.42
   7  -1 -10   13.98    0.63
  -7   1  10   13.09    0.67
   6  -1 -10    7.11    0.48
  -6   1  10    7.12    0.51
   5  -1 -10    0.19    0.22
  -5   1  10    0.07    0.24
   4  -1 -10   23.46    0.71
  -4   1  10   23.48    0.72
   3  -1 -10    7.80    0.40
  -3   1  10    8.95    0.45
   2  -1 -10    1.67    0.26
  -2   1  10    2.48    0.32
   1  -1 -10   30.71    0.79
  -1   1  10   32.00    0.79
   0  -1 -10   26.72    0.73
   0  -1 -10   28.56    0.82
   0   1  10   26.12    0.71
  -1  -1 -10   18.74    0.69
  -1  -1 -10   20.04    0.64
   1   1  10   19.32    0.61
  -2  -1 -10    6.11    0.43
  -2  -1 -10    7.46    0.48
   2   1  10    6.27    0.45
   2   1  10    5.61    0.41
  -3  -1 -10    0.32    0.27
  -3  -1 -10    0.61    0.30
   3   1  10    0.13    0.26
   3   1  10    0.04    0.29
   4   1  10    3.54    0.46
   7  -2 -10    3.86    0.49
  -7   2  10    3.85    0.47
   6  -2 -10    0.85    0.30
  -6   2  10    1.06    0.32
   5  -2 -10    2.36    0.33
  -5   2  10    2.44    0.32
   4  -2 -10   12.52    0.54
  -4   2  10   13.26    0.53
   3  -2 -10   83.24    1.66
  -3   2  10   84.70    1.66
   2  -2 -10    9.64    0.48
   2  -2 -10    9.00    0.45
  -2   2  10    9.53    0.47
   1  -2 -10   -0.15    0.24
   1  -2 -10    0.49    0.22
  -1   2  10    0.10    0.19
   0  -2 -10    0.19    0.26
   0  -2 -10    0.09    0.21
   0   2  10    0.04    0.21
  -1  -2 -10    1.15    0.26
  -1  -2 -10    0.78    0.31
   1   2  10    0.67    0.26
  -2  -2 -10    6.69    0.46
  -2  -2 -10    7.05    0.54
   2   2  10    5.94    0.48
   2   2  10    7.19    0.48
  -3  -2 -10    3.16    0.42
   3   2  10    2.65    0.41
   3   2  10    2.61    0.37
   7  -3 -10    3.81    0.46
  -7   3  10    4.49    0.58
   6  -3 -10    0.01    0.28
  -6   3  10    0.40    0.32
   5  -3 -10   17.03    0.62
  -5   3  10   17.41    0.68
   4  -3 -10   11.96    0.52
  -4   3  10   12.57    0.54
   3  -3 -10    1.14    0.24
   3  -3 -10    1.54    0.28
  -3   3  10    1.49    0.28
   2  -3 -10   11.78    0.54
   2  -3 -10   11.73    0.51
  -2   3  10   12.37    0.55
   1  -3 -10    4.08    0.41
   1  -3 -10    3.45    0.33
  -1   3  10    4.37    0.41
   0  -3 -10    4.26    0.38
   0  -3 -10    3.21    0.41
   0   3  10    3.24    0.37
  -1  -3 -10    0.98    0.34
  -1  -3 -10    1.41    0.28
   1   3  10    1.31    0.30
  -2  -3 -10    1.18    0.36
   2   3  10    0.86    0.34
   2   3  10    0.59    0.32
  -3  -3 -10    0.23    0.37
   3   3  10    0.46    0.33
   3   3  10    0.01    0.38
   7  -4 -10    3.76    0.44
  -7   4  10    4.12    0.49
   6  -4 -10    1.46    0.32
  -6   4  10    2.09    0.35
   5  -4 -10    3.81    0.40
  -5   4  10    3.58    0.39
   4  -4 -10   82.61    1.69
   4  -4 -10   83.84    1.71
  -4   4  10   78.66    1.68
   3  -4 -10    7.22    0.52
   3  -4 -10    6.10    0.45
  -3   4  10    7.82    0.50
   2  -4 -10    0.47    0.30
   2  -4 -10    0.34    0.24
  -2   4  10    0.26    0.25
   1  -4 -10    0.21    0.24
   1  -4 -10   -0.19    0.27
  -1   4  10    0.17    0.27
   0  -4 -10    1.35    0.28
   0  -4 -10    1.43    0.33
   0   4  10    1.55    0.30
  -1  -4 -10    0.56    0.35
   1   4  10    0.97    0.38
   1   4  10    1.10    0.33
  -2  -4 -10    5.26    0.61
   2   4  10    6.09    0.64
   2   4  10    5.03    0.57
   6  -5 -10   17.97    0.72
  -6   5  10   19.75    0.79
   5  -5 -10    0.51    0.32
   5  -5 -10    0.71    0.30
  -5   5  10    0.64    0.32
   4  -5 -10    0.84    0.26
   4  -5 -10    0.75    0.30
  -4   5  10    1.04    0.32
   3  -5 -10    0.45    0.32
   3  -5 -10    0.03    0.24
  -3   5  10    0.43    0.29
   2  -5 -10    4.09    0.46
   2  -5 -10    3.41    0.41
  -2   5  10    3.26    0.41
   1  -5 -10    4.47    0.43
   1  -5 -10    3.67    0.46
  -1   5  10    4.89    0.51
   0  -5 -10    3.13    0.40
   0  -5 -10    2.82    0.41
   0   5  10    3.53    0.43
  -1  -5 -10    0.02    0.34
   1   5  10    0.95    0.43
   1   5  10    0.28    0.35
   6  -6 -10    2.39    0.37
  -6   6  10    2.79    0.45
   5  -6 -10    1.09    0.34
   5  -6 -10    1.93    0.39
  -5   6  10    1.28    0.33
   4  -6 -10    6.24    0.51
   4  -6 -10    7.29    0.54
  -4   6  10    7.52    0.57
   3  -6 -10    1.05    0.37
   3  -6 -10    1.32    0.32
  -3   6  10    2.57    0.39
   2  -6 -10    3.20    0.36
   2  -6 -10    4.54    0.52
  -2   6  10    4.33    0.46
   1  -6 -10    1.35    0.31
   1  -6 -10    0.47    0.39
  -1   6  10    0.79    0.34
   0  -6 -10    6.82    0.61
   0   6  10    5.63    0.60
   5  -7 -10    2.51    0.42
   5  -7 -10    2.73    0.45
  -5   7  10    2.84    0.44
   4  -7 -10   -0.07    0.33
   4  -7 -10    0.06    0.30
  -4   7  10    0.42    0.31
   3  -7 -10    0.06    0.39
   3  -7 -10    0.75    0.31
  -3   7  10    1.23    0.37
   2  -7 -10    1.23    0.32
   2  -7 -10    1.34    0.45
  -2   7  10    1.45    0.39
  -2  -8  11    4.50    0.61
  -1  -8  11    0.92    0.43
   0  -8  11    4.14    0.55
   0  -8  11    5.40    0.53
   1  -8  11    1.69    0.35
   1  -8  11    1.75    0.39
   2  -8  11    1.53    0.40
   2  -8  11    1.67    0.37
   3  -8  11   10.71    0.68
   3  -8  11   11.07    0.69
  -3  -7  11    0.23    0.38
  -2  -7  11    1.46    0.39
  -1  -7  11    0.65    0.40
  -1  -7  11    1.08    0.30
   0  -7  11    1.93    0.34
   0  -7  11    3.07    0.46
   1  -7  11   13.04    0.60
   1  -7  11   12.90    0.70
   2  -7  11    1.44    0.32
   2  -7  11    1.82    0.38
   3  -7  11   -0.01    0.32
   3  -7  11   -0.02    0.33
  -4  -6  11    0.37    0.37
  -3  -6  11    9.38    0.69
   2   6 -11   -0.03    0.25
  -2  -6  11   -0.22    0.30
  -1  -6  11    0.34    0.30
   0  -6  11    0.81    0.32
   0  -6  11    1.08    0.29
   1  -6  11    2.31    0.39
   1  -6  11    1.60    0.30
   2  -6  11    4.27    0.52
   2  -6  11    3.74    0.44
   3  -6  11    0.42    0.33
   3  -6  11    0.42    0.34
   4  -6  11    2.75    0.43
  -4  -5  11    4.00    0.49
  -4  -5  11    2.63    0.37
   3   5 -11    0.00    0.24
  -3  -5  11    0.26    0.35
   2   5 -11    0.96    0.27
  -2  -5  11    0.73    0.35
   1   5 -11    8.47    0.49
  -1  -5  11    8.33    0.53
   0   5 -11    3.56    0.42
   0  -5  11    3.76    0.43
   1  -5  11    1.32    0.33
   1  -5  11    0.57    0.25
   2  -5  11   -0.17    0.23
   2  -5  11    0.07    0.25
   3  -5  11    7.50    0.54
   3  -5  11    7.58    0.57
   4  -5  11    0.98    0.33
  -5  -4  11    6.21    0.55
  -5  -4  11    6.93    0.62
  -4  -4  11    2.99    0.36
  -4  -4  11    2.64    0.39
   3   4 -11    1.03    0.27
  -3  -4  11    0.58    0.30
  -3  -4  11    0.96    0.26
   2   4 -11    3.30    0.33
  -2  -4  11    3.00    0.40
  -2  -4  11    2.53    0.33
   1   4 -11    2.09    0.28
  -1  -4  11    2.59    0.35
   0   4 -11    6.37    0.42
   0  -4  11    6.31    0.46
  -1   4 -11    3.36    0.42
   1  -4  11    3.34    0.38
   2  -4  11   -0.14    0.26
   2  -4  11    0.15    0.27
   3  -4  11    2.00    0.34
   3  -4  11    1.50    0.34
   4  -4  11   14.10    0.66
  -6  -3  11   -0.10    0.34
  -5  -3  11    0.23    0.33
  -5  -3  11    0.42    0.32
   4   3 -11    7.59    0.46
  -4  -3  11    7.52    0.52
  -4  -3  11    8.95    0.53
   3   3 -11    0.10    0.21
  -3  -3  11    0.25    0.25
  -3  -3  11   -0.15    0.21
   2   3 -11    8.27    0.43
  -2  -3  11    8.35    0.40
  -2  -3  11    8.40    0.49
   1   3 -11    3.45    0.34
  -1  -3  11    3.83    0.31
  -1  -3  11    4.63    0.45
   0   3 -11   14.87    0.59
  -1   3 -11    0.38    0.22
  -2   3 -11   12.86    0.59
   3  -3  11    0.98    0.29
   4  -3  11    2.26    0.35
  -6  -2  11    3.02    0.43
   5   2 -11    0.78    0.27
  -5  -2  11    1.13    0.34
  -5  -2  11    1.58    0.34
   4   2 -11    5.84    0.43
  -4  -2  11    6.45    0.47
  -4  -2  11    5.48    0.44
   3   2 -11    0.39    0.23
  -3  -2  11    0.74    0.25
  -3  -2  11    0.18    0.22
   2   2 -11    0.33    0.22
  -2  -2  11    0.46    0.21
   1   2 -11    5.25    0.37
  -1  -2  11    4.91    0.32
   0   2 -11    3.32    0.38
   0  -2  11    3.58    0.29
  -1   2 -11    3.54    0.41
  -2   2 -11   11.00    0.55
   3  -2  11   34.88    0.97
   4  -2  11    3.74    0.43
   6   1 -11    4.05    0.44
  -6  -1  11    3.41    0.43
   5   1 -11    1.63    0.30
  -5  -1  11    1.47    0.33
  -5  -1  11    2.27    0.35
   4   1 -11    6.57    0.44
  -4  -1  11    7.07    0.45
  -4  -1  11    6.09    0.46
   3   1 -11    4.22    0.35
  -3  -1  11    4.21    0.38
   2   1 -11   -0.13    0.18
  -2  -1  11   -0.07    0.18
   1   1 -11    0.28    0.20
  -1  -1  11    0.33    0.18
   0   1 -11    5.03    0.41
   0  -1  11    4.79    0.32
  -1   1 -11   45.32    1.06
   1  -1  11   44.38    0.97
  -2   1 -11    3.63    0.42
   3  -1  11    0.98    0.32
   4  -1  11    4.42    0.52
   6   0 -11    1.25    0.32
  -6   0  11    1.52    0.38
   5   0 -11    4.39    0.43
  -5   0  11    4.10    0.49
  -5   0  11    4.72    0.46
   4   0 -11    0.56    0.25
  -4   0  11    0.71    0.27
   3   0 -11    6.95    0.43
  -3   0  11    6.32    0.44
   2   0 -11    3.19    0.37
  -2   0  11    3.71    0.34
   1   0 -11    0.24    0.20
  -1   0  11    0.08    0.19
   0   0 -11   25.33    0.72
   0   0  11   23.89    0.67
  -1   0 -11    6.42    0.45
   1   0  11    6.62    0.39
  -2   0 -11    9.50    0.52
   2   0  11   10.14    0.50
   7  -1 -11    0.49    0.33
  -7   1  11    0.61    0.34
   6  -1 -11   10.67    0.58
  -6   1  11   10.69    0.64
   5  -1 -11   -0.10    0.25
  -5   1  11    0.11    0.25
   4  -1 -11    8.40    0.46
  -4   1  11    9.35    0.52
   3  -1 -11    2.06    0.27
  -3   1  11    2.40    0.31
   2  -1 -11    9.89    0.49
  -2   1  11   10.68    0.49
   1  -1 -11    4.50    0.37
  -1   1  11    4.74    0.36
   0  -1 -11    1.56    0.29
   0   1  11    2.47    0.29
  -1  -1 -11   12.16    0.56
   1   1  11   13.26    0.55
  -2  -1 -11   11.05    0.55
   2   1  11   12.46    0.56
   3   1  11    0.21    0.29
   7  -2 -11    3.58    0.42
  -7   2  11    4.08    0.50
   6  -2 -11    0.89    0.31
  -6   2  11    0.52    0.35
   5  -2 -11    1.22    0.30
  -5   2  11    1.73    0.35
   4  -2 -11    4.31    0.43
  -4   2  11    4.53    0.45
   3  -2 -11    4.62    0.37
  -3   2  11    4.18    0.38
   2  -2 -11    0.97    0.27
  -2   2  11    1.16    0.27
   1  -2 -11    4.88    0.41
   1  -2 -11    5.02    0.44
  -1   2  11    4.59    0.42
   0  -2 -11    1.51    0.32
   0  -2 -11    1.23    0.26
   0   2  11    1.97    0.31
  -1  -2 -11    0.27    0.29
  -1  -2 -11    0.35    0.26
   1   2  11    0.07    0.26
  -2  -2 -11    4.64    0.56
  -2  -2 -11    3.67    0.44
   2   2  11    3.97    0.48
   6  -3 -11    3.36    0.42
  -6   3  11    3.81    0.46
   5  -3 -11    0.04    0.27
  -5   3  11    0.29    0.27
   4  -3 -11   10.94    0.56
  -4   3  11   12.09    0.60
   3  -3 -11    6.33    0.47
   3  -3 -11    5.59    0.45
  -3   3  11    5.29    0.42
   2  -3 -11    5.11    0.46
   2  -3 -11    5.22    0.44
  -2   3  11    5.42    0.47
   1  -3 -11    1.68    0.33
   1  -3 -11    1.61    0.27
  -1   3  11    1.73    0.31
   0  -3 -11    0.60    0.30
   0  -3 -11    0.60    0.25
   0   3  11    0.90    0.30
  -1  -3 -11   11.72    0.67
  -1  -3 -11   12.13    0.56
   1   3  11   11.98    0.58
  -2  -3 -11    0.24    0.37
   2   3  11    0.18    0.32
   6  -4 -11    0.12    0.31
  -6   4  11    0.11    0.35
   5  -4 -11   -0.38    0.29
  -5   4  11    0.40    0.32
   4  -4 -11    5.45    0.43
   4  -4 -11    6.52    0.50
  -4   4  11    6.42    0.53
   3  -4 -11   12.90    0.62
   3  -4 -11   12.13    0.55
  -3   4  11   13.21    0.63
   2  -4 -11    1.27    0.33
   2  -4 -11    1.41    0.31
  -2   4  11    1.38    0.33
   1  -4 -11   10.22    0.54
   1  -4 -11   10.06    0.60
  -1   4  11   10.07    0.58
   0  -4 -11    2.41    0.43
   0  -4 -11    2.44    0.34
   0   4  11    2.29    0.37
  -1  -4 -11    0.17    0.34
   1   4  11    0.33    0.34
   6  -5 -11    0.01    0.32
  -6   5  11    0.25    0.35
   5  -5 -11   19.28    0.78
   5  -5 -11   17.31    0.70
  -5   5  11   18.34    0.77
   4  -5 -11    2.14    0.38
   4  -5 -11    1.27    0.34
  -4   5  11    2.29    0.37
   3  -5 -11    1.36    0.30
   3  -5 -11    0.92    0.35
  -3   5  11    1.50    0.32
   2  -5 -11    1.25    0.36
   2  -5 -11    1.33    0.31
  -2   5  11    1.91    0.38
   1  -5 -11    0.98    0.31
   1  -5 -11    1.62    0.39
  -1   5  11    1.13    0.36
   0  -5 -11    4.07    0.55
   0   5  11    2.74    0.41
   5  -6 -11    0.36    0.34
   5  -6 -11    0.60    0.39
  -5   6  11    0.26    0.37
   4  -6 -11    7.45    0.58
   4  -6 -11    6.33    0.64
  -4   6  11    8.32    0.57
   3  -6 -11    0.46    0.39
   3  -6 -11    0.22    0.30
  -3   6  11    0.12    0.34
   2  -6 -11   -0.36    0.29
   2  -6 -11    0.78    0.37
  -2   6  11    0.21    0.30
   1  -6 -11    3.16    0.40
   1  -6 -11    2.42    0.44
  -1   6  11    4.01    0.52
   0  -8  12    8.76    0.61
   0  -8  12    8.39    0.73
   1  -8  12    6.42    0.60
   1  -8  12    6.16    0.62
  -2  -7  12   14.78    0.78
  -1  -7  12    3.27    0.40
  -1  -7  12    3.20    0.46
   0  -7  12    5.99    0.57
   0  -7  12    4.67    0.52
   1  -7  12   -0.30    0.36
   1  -7  12    0.28    0.33
   2  -7  12    2.07    0.37
   2  -7  12    2.34    0.45
  -3  -6  12    0.29    0.41
   2   6 -12    0.50    0.30
  -2  -6  12    0.44    0.40
   1   6 -12    4.21    0.47
  -1  -6  12    4.32    0.53
   0  -6  12    0.08    0.35
   0  -6  12    0.33    0.30
   1  -6  12    6.04    0.60
   1  -6  12    5.66    0.54
   2  -6  12    0.61    0.36
   2  -6  12    0.38    0.30
   3  -6  12    0.15    0.35
   3  -6  12    0.07    0.30
  -4  -5  12   23.76    0.90
   3   5 -12   14.84    0.63
  -3  -5  12   17.00    0.76
   2   5 -12   -0.22    0.27
  -2  -5  12    0.47    0.36
   1   5 -12    0.02    0.24
  -1  -5  12    0.19    0.31
   0   5 -12    3.90    0.47
   0  -5  12    3.77    0.46
   1  -5  12    1.05    0.34
   2  -5  12    1.99    0.36
   2  -5  12    1.97    0.37
   3  -5  12    0.29    0.32
   3  -5  12    0.61    0.35
  -5  -4  12   11.47    0.66
  -5  -4  12   10.78    0.73
   4   4 -12    0.66    0.33
  -4  -4  12    1.03    0.32
  -4  -4  12    1.33    0.40
   3   4 -12    0.47    0.28
  -3  -4  12    0.33    0.34
  -3  -4  12    0.67    0.43
   2   4 -12    3.75    0.42
  -2  -4  12    3.68    0.46
   1   4 -12    0.39    0.24
  -1  -4  12    0.15    0.28
   0   4 -12    0.16    0.27
   0  -4  12    0.22    0.28
  -1   4 -12    0.94    0.32
   1  -4  12    1.42    0.32
   2  -4  12    6.35    0.50
   2  -4  12    5.85    0.48
   3  -4  12    0.09    0.29
   3  -4  12   -0.40    0.30
  -5  -3  12    6.66    0.57
  -5  -3  12    5.50    0.61
   4   3 -12    3.92    0.45
  -4  -3  12    3.74    0.45
  -4  -3  12    3.98    0.54
   3   3 -12   -0.04    0.22
  -3  -3  12    0.11    0.27
  -3  -3  12   -0.02    0.23
   2   3 -12    4.67    0.45
  -2  -3  12    4.43    0.45
  -2  -3  12    4.23    0.38
   1   3 -12    6.28    0.42
  -1  -3  12    5.87    0.47
   0   3 -12    0.19    0.24
  -1   3 -12    1.07    0.27
  -2   3 -12    0.09    0.25
   3  -3  12    0.65    0.33
   5   2 -12    3.08    0.37
  -5  -2  12    2.60    0.39
  -5  -2  12    3.13    0.41
   4   2 -12    3.43    0.43
  -4  -2  12    3.70    0.49
  -4  -2  12    3.48    0.45
   3   2 -12    0.47    0.25
  -3  -2  12    0.64    0.25
  -3  -2  12    0.98    0.31
   2   2 -12    4.23    0.43
  -2  -2  12    3.96    0.39
   1   2 -12    2.01    0.29
  -1  -2  12    1.87    0.25
   0   2 -12   12.81    0.54
  -1   2 -12    0.49    0.26
  -2   2 -12    0.12    0.30
   3  -2  12    0.45    0.34
   6   1 -12    0.37    0.31
  -6  -1  12    0.77    0.33
   5   1 -12    1.36    0.32
  -5  -1  12    0.88    0.33
  -5  -1  12    1.42    0.34
   4   1 -12    0.09    0.26
  -4  -1  12   -0.28    0.25
   3   1 -12    5.05    0.40
  -3  -1  12    5.26    0.42
   2   1 -12    0.81    0.27
  -2  -1  12    0.90    0.24
   1   1 -12    0.90    0.25
  -1  -1  12    0.78    0.22
   0   1 -12    2.54    0.32
   0  -1  12    2.64    0.32
  -1   1 -12    1.98    0.32
  -2   1 -12    0.96    0.31
   3  -1  12    0.56    0.33
   6   0 -12    0.07    0.28
  -6   0  12   -0.13    0.33
   5   0 -12    4.80    0.47
  -5   0  12    4.84    0.52
   4   0 -12    1.54    0.31
  -4   0  12    1.78    0.33
   3   0 -12    5.86    0.45
  -3   0  12    5.50    0.45
   2   0 -12    0.90    0.26
  -2   0  12    1.05    0.25
   1   0 -12   17.81    0.62
  -1   0  12   17.66    0.59
   0   0 -12    0.34    0.24
   0   0  12    0.51    0.23
  -1   0 -12    0.62    0.29
   1   0  12    0.91    0.25
  -2   0 -12    7.59    0.48
   6  -1 -12   16.38    0.72
  -6   1  12   16.27    0.77
   5  -1 -12   -0.29    0.27
  -5   1  12    0.13    0.31
   4  -1 -12    0.06    0.26
  -4   1  12    0.02    0.28
   3  -1 -12    4.69    0.40
  -3   1  12    5.09    0.45
   2  -1 -12    2.65    0.35
  -2   1  12    2.48    0.32
   1  -1 -12    0.59    0.27
  -1   1  12    0.67    0.25
   0  -1 -12    0.38    0.24
   0   1  12    0.54    0.26
  -1  -1 -12    1.83    0.33
   1   1  12    1.90    0.33
  -2  -1 -12    1.14    0.32
   2   1  12    1.20    0.31
   6  -2 -12    8.25    0.59
  -6   2  12    7.64    0.62
   5  -2 -12    0.17    0.30
  -5   2  12    0.13    0.32
   4  -2 -12    9.30    0.51
  -4   2  12    8.34    0.55
   3  -2 -12   12.21    0.55
  -3   2  12   12.69    0.59
   2  -2 -12    1.03    0.30
  -2   2  12    1.09    0.27
   1  -2 -12    0.34    0.24
  -1   2  12    0.43    0.28
   0  -2 -12    2.95    0.40
   0  -2 -12    4.02    0.46
   0   2  12    2.49    0.34
  -1  -2 -12    0.42    0.30
  -1  -2 -12    0.31    0.36
   1   2  12    0.43    0.30
  -2  -2 -12   12.55    0.69
   2   2  12   11.91    0.65
   6  -3 -12    1.69    0.38
  -6   3  12    1.38    0.40
   5  -3 -12    7.54    0.56
  -5   3  12    7.32    0.59
   4  -3 -12    5.45    0.50
  -4   3  12    4.69    0.46
   3  -3 -12    3.18    0.39
  -3   3  12    3.28    0.42
   2  -3 -12   12.55    0.70
   2  -3 -12   14.80    0.63
  -2   3  12   15.46    0.66
   1  -3 -12    4.90    0.57
   1  -3 -12    4.37    0.47
  -1   3  12    4.05    0.49
   0  -3 -12    0.44    0.38
   0  -3 -12    0.46    0.30
   0   3  12    0.34    0.31
  -1  -3 -12    0.41    0.33
  -1  -3 -12    0.04    0.38
   1   3  12   -0.16    0.31
   5  -4 -12    1.45    0.37
  -5   4  12    1.41    0.39
   4  -4 -12    3.58    0.44
  -4   4  12    2.96    0.38
   3  -4 -12   11.44    0.64
   3  -4 -12    9.68    0.55
  -3   4  12   10.82    0.63
   2  -4 -12    0.04    0.25
   2  -4 -12    0.22    0.37
  -2   4  12   -0.03    0.31
   1  -4 -12    2.95    0.38
   1  -4 -12    2.54    0.42
  -1   4  12    2.44    0.35
   0  -4 -12    0.26    0.31
   0  -4 -12   -0.18    0.38
   0   4  12   -0.09    0.34
   5  -5 -12    7.38    0.55
  -5   5  12    7.55    0.65
   4  -5 -12    5.46    0.62
   4  -5 -12    4.75    0.48
  -4   5  12    4.43    0.58
   3  -5 -12    4.11    0.51
   3  -5 -12    3.07    0.41
  -3   5  12    4.01    0.45
   2  -5 -12    0.21    0.31
   2  -5 -12    0.25    0.40
  -2   5  12   -0.07    0.34
   1  -5 -12    0.14    0.32
   1  -5 -12    0.04    0.36
  -1   5  12    0.37    0.35
  -1  -7  13    0.94    0.41
   0  -7  13    0.24    0.34
   0  -7  13   -0.49    0.36
   2   6 -13    2.89    0.40
  -2  -6  13    2.07    0.44
   1   6 -13   -0.13    0.31
  -1  -6  13   -0.27    0.34
   0  -6  13    0.67    0.41
   0  -6  13    0.57    0.30
   1  -6  13    0.20    0.37
   1  -6  13    0.17    0.33
   2  -6  13    6.32    0.62
   2  -6  13    5.42    0.62
   3   5 -13    0.25    0.33
  -3  -5  13    0.21    0.36
   2   5 -13    0.93    0.33
  -2  -5  13    1.05    0.42
   1   5 -13    0.29    0.31
  -1  -5  13    0.04    0.32
   0   5 -13    1.48    0.37
   0  -5  13    2.01    0.41
   1  -5  13    2.86    0.41
   2  -5  13    4.40    0.58
   2  -5  13    5.37    0.53
   4   4 -13    0.41    0.32
  -4  -4  13    0.05    0.40
   3   4 -13    0.82    0.31
  -3  -4  13    0.79    0.39
   2   4 -13    3.63    0.40
  -2  -4  13    3.60    0.46
   1   4 -13    4.72    0.51
  -1  -4  13    4.91    0.51
   0   4 -13    0.13    0.29
   0  -4  13   -0.26    0.32
  -1   4 -13    3.58    0.43
   1  -4  13    2.38    0.38
   2  -4  13    1.09    0.36
   2  -4  13    0.39    0.36
  -5  -3  13    1.88    0.47
   4   3 -13    2.67    0.37
  -4  -3  13    2.28    0.37
  -4  -3  13    2.70    0.44
   3   3 -13   -0.01    0.24
  -3  -3  13    0.19    0.26
  -3  -3  13    0.31    0.35
   2   3 -13    1.74    0.35
  -2  -3  13    1.85    0.36
   1   3 -13    4.78    0.49
  -1  -3  13    5.57    0.50
   0   3 -13   -0.09    0.28
  -1   3 -13    5.98    0.54
   5   2 -13    0.54    0.33
  -5  -2  13    0.33    0.35
  -5  -2  13    0.65    0.38
   4   2 -13    3.89    0.47
  -4  -2  13    3.68    0.48
  -4  -2  13    3.99    0.54
   3   2 -13    1.29    0.29
  -3  -2  13    1.64    0.34
  -3  -2  13    1.81    0.30
   2   2 -13    0.45    0.28
  -2  -2  13    0.28    0.24
   1   2 -13    4.48    0.43
   0   2 -13   -0.35    0.27
  -1   2 -13   -0.05    0.29
  -2   2 -13    2.23    0.36
   5   1 -13   -0.01    0.30
  -5  -1  13    0.35    0.34
  -5  -1  13    0.24    0.30
   4   1 -13    4.04    0.43
  -4  -1  13    3.57    0.39
   3   1 -13   -0.12    0.24
  -3  -1  13    0.23    0.27
   2   1 -13    1.47    0.29
  -2  -1  13    1.48    0.28
   1   1 -13    0.37    0.26
  -1  -1  13   -0.08    0.22
   0   1 -13    0.00    0.28
  -1   1 -13    1.03    0.31
  -2   1 -13    4.74    0.53
   5   0 -13    0.13    0.30
  -5   0  13   -0.14    0.32
   4   0 -13    3.04    0.39
  -4   0  13    3.28    0.39
   3   0 -13    0.95    0.31
  -3   0  13    0.76    0.30
   2   0 -13    0.82    0.29
  -2   0  13    0.77    0.27
   1   0 -13    0.13    0.27
  -1   0  13    0.05    0.24
   0   0 -13    2.83    0.36
   0   0  13    2.73    0.34
  -1   0 -13    0.40    0.31
  -2   0 -13    0.63    0.34
   5  -1 -13    2.32    0.39
  -5   1  13    2.19    0.40
   4  -1 -13    1.11    0.30
  -4   1  13    1.46    0.34
   3  -1 -13    0.13    0.25
  -3   1  13    0.51    0.29
   2  -1 -13    1.44    0.33
  -2   1  13    0.98    0.29
   1  -1 -13    2.22    0.36
  -1   1  13    2.40    0.34
   0  -1 -13    1.29    0.34
   0   1  13    1.22    0.31
  -1  -1 -13    9.26    0.59
   1   1  13    8.90    0.56
   5  -2 -13   -0.16    0.32
  -5   2  13    0.14    0.35
   4  -2 -13    2.75    0.39
  -4   2  13    2.61    0.39
   3  -2 -13    0.25    0.27
  -3   2  13    0.12    0.26
   2  -2 -13    4.55    0.44
  -2   2  13    5.50    0.50
   1  -2 -13    0.23    0.29
  -1   2  13    0.55    0.30
   0  -2 -13    2.24    0.37
   0   2  13    1.59    0.34
  -1  -2 -13    4.03    0.51
   1   2  13    2.79    0.41
   5  -3 -13    0.16    0.31
  -5   3  13   -0.12    0.31
   4  -3 -13    1.25    0.32
  -4   3  13    1.45    0.36
   3  -3 -13    0.30    0.32
  -3   3  13    0.14    0.32
   2  -3 -13    3.42    0.41
  -2   3  13    2.75    0.40
   1  -3 -13    0.37    0.39
   1  -3 -13    0.56    0.31
  -1   3  13    0.57    0.30
   0  -3 -13    1.86    0.46
   0  -3 -13    2.46    0.39
   0   3  13    2.47    0.41
   4  -4 -13   10.54    0.62
  -4   4  13   12.39    0.70
   3  -4 -13    3.53    0.51
   3  -4 -13    2.95    0.43
  -3   4  13    3.04    0.44
   2  -4 -13    1.43    0.46
   2  -4 -13    1.48    0.36
  -2   4  13    1.08    0.34
   2   5 -14    1.24    0.36
  -2  -5  14    0.52    0.39
   1   5 -14    1.26    0.39
  -1  -5  14    1.17    0.39
   0   5 -14    0.05    0.36
   0  -5  14    0.03    0.34
   1  -5  14   14.22    0.73
   1  -5  14   13.99    0.75
   3   4 -14    1.22    0.36
  -3  -4  14    1.28    0.40
   2   4 -14    6.93    0.57
  -2  -4  14    7.40    0.67
   1   4 -14    0.62    0.36
  -1  -4  14    1.19    0.38
   0   4 -14    4.01    0.46
   0  -4  14    3.53    0.45
  -1   4 -14    1.04    0.39
   1  -4  14    0.68    0.39
   4   3 -14   16.15    0.73
  -4  -3  14   16.92    0.78
   3   3 -14    0.35    0.33
  -3  -3  14    0.27    0.38
   2   3 -14    1.92    0.38
  -2  -3  14    1.01    0.35
   1   3 -14   -0.02    0.27
  -1  -3  14    0.55    0.37
   0   3 -14    1.34    0.34
  -1   3 -14   23.20    0.87
   4   2 -14    0.14    0.31
  -4  -2  14   -0.08    0.31
  -4  -2  14   -0.40    0.35
   3   2 -14    0.98    0.31
  -3  -2  14    1.22    0.31
  -3  -2  14    1.17    0.39
   2   2 -14    1.65    0.34
   1   2 -14    9.45    0.61
   0   2 -14    2.65    0.41
  -1   2 -14    1.48    0.39
   4   1 -14    0.86    0.31
  -4  -1  14    1.38    0.35
   3   1 -14    1.30    0.32
  -3  -1  14    1.36    0.33
   2   1 -14    1.29    0.35
  -2  -1  14    1.52    0.31
   1   1 -14    0.94    0.31
   0   1 -14    0.59    0.34
  -1   1 -14    2.87    0.42
   4   0 -14   -0.30    0.32
  -4   0  14   -0.03    0.30
   3   0 -14    8.00    0.54
  -3   0  14    8.97    0.58
   2   0 -14    7.28    0.55
  -2   0  14    6.34    0.53
   1   0 -14    1.83    0.38
  -1   0  14    1.64    0.32
   0   0 -14    3.78    0.48
   4  -1 -14    1.60    0.38
  -4   1  14    1.24    0.38
   3  -1 -14   -0.15    0.32
  -3   1  14    0.14    0.30
   2  -1 -14    2.17    0.38
  -2   1  14    1.56    0.34
   1  -1 -14    8.04    0.54
  -1   1  14    8.53    0.61
   0  -1 -14    3.34    0.44
   0   1  14    2.51    0.38
   4  -2 -14    0.28    0.31
  -4   2  14    0.01    0.34
   3  -2 -14    1.53    0.38
  -3   2  14    1.38    0.36
   2  -2 -14    0.40    0.30
  -2   2  14    0.36    0.33
   1  -2 -14   10.60    0.64
  -1   2  14   11.21    0.66
   3  -3 -14    0.11    0.31
  -3   3  14    0.30    0.35
   2   3 -15    1.34    0.39
  -2  -3  15    1.10    0.42
   1   3 -15    7.06    0.56
  -1  -3  15    7.83    0.70
   2   2 -15   -0.16    0.30
   1   2 -15   -0.39    0.28
   3   1 -15   -0.10    0.33
  -3  -1  15    0.00    0.33
   2   1 -15    2.15    0.41
   1   1 -15   29.86    0.97
   2   0 -15    1.66    0.42
  -2   0  15    1.87    0.37
   0   0   0    0.00    0.00
;
_shelx_hkl_checksum              99012
#END Tags that were not found in dictionaries
loop_
_space_group_symop_operation_xyz
'x, y, z'
'-x, -y, -z'
loop_
_atom_site_label
_atom_site_type_symbol
_atom_site_fract_x
_atom_site_fract_y
_atom_site_fract_z
_atom_site_U_iso_or_equiv
_atom_site_adp_type
_atom_site_occupancy
_atom_site_site_symmetry_order
_atom_site_calc_flag
_atom_site_refinement_flags_posn
_atom_site_refinement_flags_adp
C1 C 0.3100(2) 0.21128(14) 0.49664(11) 0.0157(3) Uani 1 1 d . .
C2 C 0.2938(2) 0.15504(15) 0.60781(11) 0.0150(3) Uani 1 1 d . .
H2 H 0.1797 0.0569 0.6025 0.018 Uiso 1 1 calc R U
C3 C 0.42593(19) 0.23051(14) 0.71482(11) 0.0134(2) Uani 1 1 d . .
C4 C 0.81820(19) 0.37739(15) 0.74324(11) 0.0165(3) Uani 1 1 d . .
C5 C 0.8592(2) 0.36238(15) 0.62130(11) 0.0173(3) Uani 1 1 d . .
H5A H 1.0058 0.3555 0.6285 0.021 Uiso 1 1 calc R U
H5B H 0.8594 0.4617 0.5924 0.021 Uiso 1 1 calc R U
C6 C 0.6929(2) 0.21685(15) 0.52989(11) 0.0169(3) Uani 1 1 d . .
H6A H 0.7651 0.1829 0.4716 0.020 Uiso 1 1 calc R U
H6B H 0.6445 0.1264 0.5698 0.020 Uiso 1 1 calc R U
C7 C 0.38368(19) 0.18165(14) 0.82482(10) 0.0136(3) Uani 1 1 d . .
C8 C 0.2583(2) 0.02381(15) 0.82506(11) 0.0166(3) Uani 1 1 d . .
H8 H 0.2023 -0.0558 0.7541 0.020 Uiso 1 1 calc R U
C9 C 0.2152(2) -0.01692(16) 0.92845(12) 0.0196(3) Uani 1 1 d . .
H9 H 0.1307 -0.1247 0.9280 0.023 Uiso 1 1 calc R U
C10 C 0.2944(2) 0.09836(16) 1.03271(11) 0.0192(3) Uani 1 1 d . .
H10 H 0.2634 0.0698 1.1032 0.023 Uiso 1 1 calc R U
C11 C 0.4185(2) 0.25498(16) 1.03342(11) 0.0180(3) Uani 1 1 d . .
H11 H 0.4722 0.3344 1.1045 0.022 Uiso 1 1 calc R U
C12 C 0.4648(2) 0.29625(15) 0.93061(11) 0.0161(3) Uani 1 1 d . .
H12 H 0.5527 0.4036 0.9321 0.019 Uiso 1 1 calc R U
C13 C 0.8595(2) 0.24535(17) 0.80373(12) 0.0213(3) Uani 1 1 d . .
H13A H 0.7620 0.1396 0.7561 0.032 Uiso 1 1 calc R U
H13B H 0.8321 0.2589 0.8817 0.032 Uiso 1 1 calc R U
H13C H 1.0112 0.2526 0.8123 0.032 Uiso 1 1 calc R U
C14 C 0.9572(2) 0.54367(17) 0.81794(12) 0.0240(3) Uani 1 1 d . .
H14A H 1.1116 0.5585 0.8280 0.036 Uiso 1 1 calc R U
H14B H 0.9266 0.5535 0.8953 0.036 Uiso 1 1 calc R U
H14C H 0.9231 0.6263 0.7788 0.036 Uiso 1 1 calc R U
C15 C 0.5225(2) 0.31682(18) 0.36424(12) 0.0253(3) Uani 1 1 d . .
H15A H 0.3919 0.3422 0.3336 0.038 Uiso 1 1 calc R U
H15B H 0.5390 0.2394 0.3035 0.038 Uiso 1 1 calc R U
H15C H 0.6508 0.4159 0.3862 0.038 Uiso 1 1 calc R U
N1 N 0.50145(17) 0.24696(13) 0.46745(9) 0.0170(2) Uani 1 1 d . .
O1 O 0.14599(14) 0.22368(12) 0.43322(8) 0.0225(2) Uani 1 1 d . .
O2 O 0.59327(13) 0.37486(10) 0.72974(7) 0.0141(2) Uani 1 1 d . .
loop_
_atom_site_aniso_label
_atom_site_aniso_U_11
_atom_site_aniso_U_22
_atom_site_aniso_U_33
_atom_site_aniso_U_23
_atom_site_aniso_U_13
_atom_site_aniso_U_12
C1 0.0158(6) 0.0127(6) 0.0152(6) -0.0003(4) 0.0022(5) 0.0029(5)
C2 0.0126(6) 0.0144(6) 0.0176(6) 0.0032(5) 0.0044(5) 0.0037(5)
C3 0.0118(6) 0.0113(6) 0.0186(6) 0.0037(4) 0.0053(5) 0.0052(4)
C4 0.0101(6) 0.0167(6) 0.0204(6) 0.0032(5) 0.0025(5) 0.0027(5)
C5 0.0129(6) 0.0176(6) 0.0207(6) 0.0044(5) 0.0058(5) 0.0035(5)
C6 0.0156(6) 0.0171(6) 0.0203(6) 0.0039(5) 0.0075(5) 0.0068(5)
C7 0.0107(6) 0.0154(6) 0.0160(6) 0.0038(5) 0.0036(5) 0.0060(5)
C8 0.0155(6) 0.0146(6) 0.0182(6) 0.0015(5) 0.0038(5) 0.0043(5)
C9 0.0182(6) 0.0162(6) 0.0241(7) 0.0071(5) 0.0071(5) 0.0035(5)
C10 0.0181(6) 0.0232(7) 0.0179(6) 0.0081(5) 0.0063(5) 0.0069(5)
C11 0.0165(6) 0.0198(6) 0.0157(6) 0.0020(5) 0.0027(5) 0.0051(5)
C12 0.0138(6) 0.0151(6) 0.0179(6) 0.0031(5) 0.0032(5) 0.0037(5)
C13 0.0147(6) 0.0267(7) 0.0247(7) 0.0102(6) 0.0038(5) 0.0089(5)
C14 0.0170(7) 0.0226(7) 0.0234(7) -0.0002(5) 0.0019(5) -0.0013(5)
C15 0.0253(7) 0.0318(8) 0.0212(7) 0.0121(6) 0.0091(6) 0.0086(6)
N1 0.0171(5) 0.0184(5) 0.0160(5) 0.0051(4) 0.0053(4) 0.0058(4)
O1 0.0163(5) 0.0304(5) 0.0184(5) 0.0061(4) 0.0009(4) 0.0066(4)
O2 0.0109(4) 0.0120(4) 0.0179(4) 0.0030(3) 0.0034(3) 0.0023(3)
loop_
_atom_type_symbol
_atom_type_description
_atom_type_scat_dispersion_real
_atom_type_scat_dispersion_imag
_atom_type_scat_source
C C 0.0033 0.0016 'International Tables Vol C Tables 4.2.6.8 and 6.1.1.4'
H H 0.0000 0.0000 'International Tables Vol C Tables 4.2.6.8 and 6.1.1.4'
N N 0.0061 0.0033 'International Tables Vol C Tables 4.2.6.8 and 6.1.1.4'
O O 0.0106 0.0060 'International Tables Vol C Tables 4.2.6.8 and 6.1.1.4'
loop_
_geom_angle_atom_site_label_1
_geom_angle_atom_site_label_2
_geom_angle_atom_site_label_3
_geom_angle
O1 C1 N1 122.11(12)
O1 C1 C2 118.57(11)
N1 C1 C2 119.32(11)
C3 C2 C1 125.65(11)
C3 C2 H2 117.2
C1 C2 H2 117.2
C2 C3 O2 120.53(11)
C2 C3 C7 123.21(11)
O2 C3 C7 115.56(10)
O2 C4 C14 103.77(10)
O2 C4 C13 112.11(10)
C14 C4 C13 111.05(11)
O2 C4 C5 107.91(10)
C14 C4 C5 109.97(11)
C13 C4 C5 111.69(11)
C4 C5 C6 114.54(10)
C4 C5 H5A 108.6
C6 C5 H5A 108.6
C4 C5 H5B 108.6
C6 C5 H5B 108.6
H5A C5 H5B 107.6
N1 C6 C5 114.06(10)
N1 C6 H6A 108.7
C5 C6 H6A 108.7
N1 C6 H6B 108.7
C5 C6 H6B 108.7
H6A C6 H6B 107.6
C8 C7 C12 118.71(11)
C8 C7 C3 121.51(11)
C12 C7 C3 119.75(11)
C9 C8 C7 120.21(11)
C9 C8 H8 119.9
C7 C8 H8 119.9
C8 C9 C10 120.59(12)
C8 C9 H9 119.7
C10 C9 H9 119.7
C11 C10 C9 119.67(12)
C11 C10 H10 120.2
C9 C10 H10 120.2
C10 C11 C12 120.10(12)
C10 C11 H11 119.9
C12 C11 H11 119.9
C11 C12 C7 120.71(12)
C11 C12 H12 119.6
C7 C12 H12 119.6
C4 C13 H13A 109.5
C4 C13 H13B 109.5
H13A C13 H13B 109.5
C4 C13 H13C 109.5
H13A C13 H13C 109.5
H13B C13 H13C 109.5
C4 C14 H14A 109.5
C4 C14 H14B 109.5
H14A C14 H14B 109.5
C4 C14 H14C 109.5
H14A C14 H14C 109.5
H14B C14 H14C 109.5
N1 C15 H15A 109.5
N1 C15 H15B 109.5
H15A C15 H15B 109.5
N1 C15 H15C 109.5
H15A C15 H15C 109.5
H15B C15 H15C 109.5
C1 N1 C15 119.05(11)
C1 N1 C6 125.08(11)
C15 N1 C6 115.85(10)
C3 O2 C4 119.89(9)
loop_
_geom_bond_atom_site_label_1
_geom_bond_atom_site_label_2
_geom_bond_distance
C1 O1 1.2403(15)
C1 N1 1.3507(16)
C1 C2 1.4834(17)
C2 C3 1.3374(17)
C2 H2 0.9500
C3 O2 1.3796(14)
C3 C7 1.4824(17)
C4 O2 1.4741(15)
C4 C14 1.5190(17)
C4 C13 1.5221(18)
C4 C5 1.5250(18)
C5 C6 1.5275(17)
C5 H5A 0.9900
C5 H5B 0.9900
C6 N1 1.4616(16)
C6 H6A 0.9900
C6 H6B 0.9900
C7 C8 1.3969(17)
C7 C12 1.3977(17)
C8 C9 1.3847(18)
C8 H8 0.9500
C9 C10 1.3882(18)
C9 H9 0.9500
C10 C11 1.3828(18)
C10 H10 0.9500
C11 C12 1.3866(18)
C11 H11 0.9500
C12 H12 0.9500
C13 H13A 0.9800
C13 H13B 0.9800
C13 H13C 0.9800
C14 H14A 0.9800
C14 H14B 0.9800
C14 H14C 0.9800
C15 N1 1.4568(17)
C15 H15A 0.9800
C15 H15B 0.9800
C15 H15C 0.9800
loop_
_geom_torsion_atom_site_label_1
_geom_torsion_atom_site_label_2
_geom_torsion_atom_site_label_3
_geom_torsion_atom_site_label_4
_geom_torsion
O1 C1 C2 C3 -127.14(14)
N1 C1 C2 C3 52.99(17)
C1 C2 C3 O2 1.00(19)
C1 C2 C3 C7 170.93(11)
O2 C4 C5 C6 -54.07(13)
C14 C4 C5 C6 -166.63(11)
C13 C4 C5 C6 69.60(13)
C4 C5 C6 N1 87.65(13)
C2 C3 C7 C8 25.28(18)
O2 C3 C7 C8 -164.33(10)
C2 C3 C7 C12 -152.75(12)
O2 C3 C7 C12 17.64(16)
C12 C7 C8 C9 0.32(18)
C3 C7 C8 C9 -177.73(11)
C7 C8 C9 C10 0.48(19)
C8 C9 C10 C11 -0.42(19)
C9 C10 C11 C12 -0.44(19)
C10 C11 C12 C7 1.26(19)
C8 C7 C12 C11 -1.19(18)
C3 C7 C12 C11 176.90(11)
O1 C1 N1 C15 6.00(18)
C2 C1 N1 C15 -174.13(11)
O1 C1 N1 C6 -172.15(11)
C2 C1 N1 C6 7.72(17)
C5 C6 N1 C1 -95.84(14)
C5 C6 N1 C15 85.95(13)
C2 C3 O2 C4 -101.17(13)
C7 C3 O2 C4 88.16(12)
C14 C4 O2 C3 -151.19(10)
C13 C4 O2 C3 -31.27(14)
C5 C4 O2 C3 92.14(12)
