#------------------------------------------------------------------------------
#$Date: 2016-02-18 17:37:37 +0200 (Thu, 18 Feb 2016) $
#$Revision: 176729 $
#$URL: svn://www.crystallography.net/cod/cif/1/51/88/1518838.cif $
#------------------------------------------------------------------------------
#
# This file is available in the Crystallography Open Database (COD),
# http://www.crystallography.net/
#
# All data on this site have been placed in the public domain by the
# contributors.
#
data_1518838
loop_
_publ_author_name
'Xu, Long'
'Solowey, Douglas P.'
'Vicic, David A.'
_publ_section_title
;
 Stepwise Conversion of a Platinum Dimethyl Complex to a
 Perfluorometallacyclobutane Derivative
;
_journal_issue                   14
_journal_name_full               Organometallics
_journal_page_first              3474
_journal_paper_doi               10.1021/acs.organomet.5b00045
_journal_volume                  34
_journal_year                    2015
_chemical_formula_sum            'C11 H12 F4 O2 Pt'
_chemical_formula_weight         447.30
_space_group_crystal_system      triclinic
_space_group_IT_number           2
_space_group_name_Hall           '-P 1'
_space_group_name_H-M_alt        'P -1'
_symmetry_space_group_name_Hall  '-P 1'
_symmetry_space_group_name_H-M   'P -1'
_atom_sites_solution_hydrogens   geom
_audit_creation_method           SHELXL-2014/6
_cell_angle_alpha                102.145(6)
_cell_angle_beta                 93.505(5)
_cell_angle_gamma                100.070(5)
_cell_formula_units_Z            2
_cell_length_a                   6.3410(14)
_cell_length_b                   8.327(2)
_cell_length_c                   11.491(3)
_cell_measurement_temperature    142(2)
_cell_volume                     581.0(2)
_computing_structure_refinement  'SHELXL-2014/6 (Sheldrick, 2014)'
_diffrn_ambient_temperature      142(2)
_diffrn_measured_fraction_theta_full 0.841
_diffrn_measured_fraction_theta_max 0.996
_diffrn_radiation_type           MoK\a
_diffrn_radiation_wavelength     0.71073
_diffrn_reflns_av_unetI/netI     0.0454
_diffrn_reflns_Laue_measured_fraction_full 0.841
_diffrn_reflns_Laue_measured_fraction_max 0.996
_diffrn_reflns_limit_h_max       7
_diffrn_reflns_limit_h_min       -7
_diffrn_reflns_limit_k_max       9
_diffrn_reflns_limit_k_min       -9
_diffrn_reflns_limit_l_max       13
_diffrn_reflns_limit_l_min       0
_diffrn_reflns_number            1772
_diffrn_reflns_point_group_measured_fraction_full 0.841
_diffrn_reflns_point_group_measured_fraction_max 0.996
_diffrn_reflns_theta_full        25.242
_diffrn_reflns_theta_max         23.783
_diffrn_reflns_theta_min         3.280
_exptl_absorpt_coefficient_mu    12.119
_exptl_absorpt_correction_T_max  0.744970
_exptl_absorpt_correction_T_min  0.411412
_exptl_absorpt_correction_type   multi-scan
_exptl_absorpt_process_details   Bruker
_exptl_crystal_colour            yellow
_exptl_crystal_density_diffrn    2.557
_exptl_crystal_description       needle
_exptl_crystal_F_000             416
_exptl_crystal_size_max          0.270
_exptl_crystal_size_mid          0.050
_exptl_crystal_size_min          0.010
_refine_diff_density_max         3.148
_refine_diff_density_min         -1.354
_refine_diff_density_rms         0.331
_refine_ls_extinction_method     none
_refine_ls_goodness_of_fit_ref   1.076
_refine_ls_hydrogen_treatment    constr
_refine_ls_matrix_type           full
_refine_ls_number_parameters     164
_refine_ls_number_reflns         1772
_refine_ls_number_restraints     0
_refine_ls_restrained_S_all      1.076
_refine_ls_R_factor_all          0.0515
_refine_ls_R_factor_gt           0.0488
_refine_ls_shift/su_max          0.000
_refine_ls_shift/su_mean         0.000
_refine_ls_structure_factor_coef Fsqd
_refine_ls_weighting_details
'w=1/[\s^2^(Fo^2^)+(0.0822P)^2^+7.0581P] where P=(Fo^2^+2Fc^2^)/3'
_refine_ls_weighting_scheme      calc
_refine_ls_wR_factor_gt          0.1254
_refine_ls_wR_factor_ref         0.1280
_reflns_Friedel_coverage         0.000
_reflns_number_gt                1685
_reflns_number_total             1772
_reflns_threshold_expression     'I > 2\s(I)'
_cod_data_source_file            om5b00045_si_001.cif
_cod_data_source_block           Compound13
_cod_depositor_comments
'Adding full bibliography for 1518835--1518839.cif.'
_cod_database_code               1518838
#BEGIN Tags that were not found in dictionaries:
_shelx_space_group_comment
;
The symmetry employed for this shelxl refinement is uniquely defined
by the following loop, which should always be used as a source of
symmetry information in preference to the above space-group names.
They are only intended as comments.
;
_shelx_estimated_absorpt_t_min   0.138
_shelx_estimated_absorpt_t_max   0.888
_shelxl_version_number           2014/6
_shelx_res_file
;
TITL Compound14.res in P-1
REM Old TITL zzz in P1

REM SHELXT solution in P-1
REM R1 0.118,  Rweak 0.019,  Alpha 0.039,  Orientation as input
REM Formula found by SHELXT:  C11 O4 F2 Pt

CELL  0.71073   6.3410   8.3267  11.4912  102.145   93.505  100.070
ZERR    2.000   0.0014   0.0020   0.0027    0.006    0.005    0.005
LATT  1
SFAC C H O F PT
UNIT 22 24 4 8 2
TEMP -131.130
SIZE 0.010 0.050 0.270
L.S. 10
BOND $H
LIST 6
FMAP 2
PLAN 5
ACTA
WGHT    0.082200    7.058100
BASF   0.42291
FVAR       0.56338
PT1   5    0.288147    0.540563    0.761168    11.00000    0.01907    0.03335 =
         0.02837    0.00422   -0.00033   -0.00175
O1    3   -0.078035    0.158724    0.866706    11.00000    0.04329    0.04279 =
         0.03993    0.01646   -0.00037   -0.01160
O2    3    0.131216    0.407482    0.871987    11.00000    0.02729    0.06979 =
         0.03758    0.02218   -0.00463   -0.01433
F1    4    0.113161    0.342644    0.523182    11.00000    0.04049    0.06095 =
         0.02813    0.00218    0.00008   -0.00888
F2    4    0.303851    0.219659    0.626628    11.00000    0.03156    0.04699 =
         0.07053    0.01270    0.00580    0.00924
F3    4   -0.196132    0.332208    0.662696    11.00000    0.02558    0.05713 =
         0.05873    0.01452   -0.00426    0.00342
F4    4   -0.102421    0.086021    0.624797    11.00000    0.04893    0.04547 =
         0.04620   -0.00063   -0.00285   -0.00706
C1    1    0.160989    0.326672    0.630777    11.00000    0.04065    0.03170 =
         0.05946    0.01615   -0.00225    0.00718
C2    1   -0.033647    0.247374    0.684058    11.00000    0.01716    0.02823 =
         0.02927    0.00267   -0.00841   -0.00574
C3    1    0.006379    0.270411    0.820214    11.00000    0.01662    0.05756 =
         0.04412    0.01977   -0.00998   -0.00530
C4    1    0.730261    0.720416    0.876251    11.00000    0.03272    0.04616 =
         0.02351   -0.00946   -0.01208   -0.00156
AFIX  23
H4A   2    0.827320    0.819670    0.927321    11.00000   -1.20000
H4B   2    0.785720    0.620362    0.888018    11.00000   -1.20000
AFIX   0
C5    1    0.503515    0.710751    0.921158    11.00000    0.03552    0.05305 =
         0.02243    0.00221   -0.00441   -0.00364
AFIX  13
H5A   2    0.489047    0.676247    0.998999    11.00000   -1.20000
AFIX   0
C6    1    0.353733    0.800145    0.889807    11.00000    0.02438    0.04978 =
         0.03547   -0.00973   -0.00112   -0.00689
AFIX  13
H6A   2    0.243832    0.816553    0.947789    11.00000   -1.20000
AFIX   0
C7    1    0.391360    0.929553    0.819301    11.00000    0.03121    0.03880 =
         0.05179   -0.01181    0.00881   -0.00328
AFIX  23
H7A   2    0.545538    0.983445    0.833723    11.00000   -1.20000
H7B   2    0.307049    1.016582    0.848789    11.00000   -1.20000
AFIX   0
C8    1    0.332145    0.865545    0.684552    11.00000    0.03345    0.02176 =
         0.07373    0.03227    0.01611    0.01249
AFIX  23
H8A   2    0.178634    0.868758    0.665926    11.00000   -1.20000
H8B   2    0.418385    0.942880    0.642984    11.00000   -1.20000
AFIX   0
C9    1    0.366360    0.694060    0.636068    11.00000    0.02673    0.02650 =
         0.02943    0.01227    0.00059    0.00047
AFIX  13
H9A   2    0.293309    0.643736    0.553577    11.00000   -1.20000
AFIX   0
C10   1    0.546572    0.627745    0.662673    11.00000    0.02427    0.04366 =
         0.02724    0.01031    0.01287    0.00418
AFIX  13
H10A  2    0.580731    0.540497    0.596195    11.00000   -1.20000
AFIX   0
C11   1    0.743629    0.730722    0.749557    11.00000    0.01892    0.04229 =
         0.05533    0.02283    0.00045   -0.00220
AFIX  23
H11A  2    0.874669    0.691202    0.722419    11.00000   -1.20000
H11B  2    0.759726    0.849554    0.744880    11.00000   -1.20000

AFIX   0
HKLF 5

REM  Compound14.res in P-1
REM R1 =  0.0488 for    1685 Fo > 4sig(Fo)  and  0.0515 for all    1772 data
REM    164 parameters refined using      0 restraints

END

WGHT      0.0820      7.0918

REM Highest difference peak  3.148,  deepest hole -1.354,  1-sigma level  0.331
Q1    1   0.2510  0.5765  0.8422  11.00000  0.05    3.15
Q2    1   0.2694  0.4664  0.8170  11.00000  0.05    2.53
Q3    1   0.2951  0.6289  0.7122  11.00000  0.05    2.44
Q4    1  -0.0405  0.8675  0.6427  11.00000  0.05    1.98
Q5    1   0.4595  1.0499  0.8321  11.00000  0.05    1.93
;
_shelx_res_checksum              97364
_shelx_hkl_file
;
   1   0   0 37.4883 1.83580   1
   2   0   0 3912.66 105.013   1
   3  -1   1 2263.07 198.623  -2
   3   0   0 2263.07 198.623   1
   4  -1   1 1256.17 36.6594  -2
   4   0   0 1256.17 36.6594   1
   5   0   0 1401.28 48.8604   1
   6   0   0 -9.5494 6.04362   1
   7  -2   2 778.790 40.0057  -2
   7   0   0 778.790 40.0057   1
  -7   1   0 630.983 29.1461   1
  -6   1   0 -9.5500 28.9629  -2
  -6   1   0 -9.5500 28.9629   1
  -5   1   0 1508.77 58.5905  -2
  -5   1   0 1508.77 58.5905   1
  -4   1   0 1228.82 38.4433   1
  -3   1   0 429.929 11.5194   1
  -2   0   1 6399.92 227.416  -2
  -2   1   0 6399.92 227.416   1
  -1   0   1 4337.23 189.865  -2
  -1   1   0 4337.23 189.865   1
   1   1   0 578.640 19.1075   1
   2  -1   2 5032.45 156.712  -2
   2   1   0 5032.45 156.712   1
   3  -1   2 1220.60 65.8600  -2
   3   1   0 1220.60 65.8600   1
   4   1   0 256.372 9.34820   1
   5  -2   3 1328.80 95.2066  -2
   5   1   0 1328.80 95.2066   1
   6  -2   3 371.939 19.3883  -2
   6   1   0 371.939 19.3883   1
  -7   1   1 486.849 24.0157  -2
  -7   2   0 486.849 24.0157   1
  -6   1   1 552.557 21.9081  -2
  -6   2   0 552.557 21.9081   1
  -5   2   0 362.309 12.6530   1
  -4   2   0 746.552 24.0045   1
  -3   0   2 1249.72 31.9934  -2
  -3   2   0 1249.72 31.9934   1
  -2   2   0 3380.24 90.4774   1
  -1   2   0 18.8196 1.44812   1
   0  -1   3 447.543 19.0880  -2
   0   2   0 447.543 19.0880   1
   1  -1   3 1951.66 52.5804  -2
   1   2   0 1951.66 52.5804   1
   2   2   0 181.056 5.74096   1
   3   2   0 2883.29 89.3616   1
   4  -2   4 571.826 21.5108  -2
   4   2   0 571.826 21.5108   1
   5  -2   4 1480.59 51.9880  -2
   5   2   0 1480.59 51.9880   1
   6   2   0 17.4280 6.53667   1
  -7   3   0 169.677 12.6167   1
  -6   3   0 482.601 18.5728   1
  -5   0   3 554.350 18.9715  -2
  -5   3   0 554.350 18.9715   1
  -4   0   3 2182.15 63.8492  -2
  -4   3   0 2182.15 63.8492   1
  -3   3   0 14.2113 1.94767   1
  -2   3   0 2179.33 54.8753   1
  -1  -1   4 1390.41 43.5354  -2
  -1   3   0 1390.41 43.5354   1
   0   3   0 540.102 19.0240   1
   1   3   0 2733.77 77.3825   1
   2   3   0 138.456 5.19758   1
   3  -2   5 3619.96 112.123  -2
   3   3   0 3619.96 112.123   1
   4   3   0 94.6001 6.35193   1
   5   3   0 936.928 37.8549   1
   6  -3   6 264.959 21.2097  -2
   6   3   0 264.959 21.2097   1
  -6   0   4 563.721 30.3471  -2
  -6   4   0 563.721 30.3471   1
  -5   4   0 -1.8866 3.77911   1
  -4   4   0 1545.28 50.6762   1
  -3  -1   5 1044.76 32.0955  -2
  -3   4   0 1044.76 32.0955   1
  -2  -1   5 1357.52 43.4062  -2
  -2   4   0 1357.52 43.4062   1
  -1   4   0 504.431 15.1381   1
   0   4   0 349.805 10.9304   1
   1  -2   6 1918.89 60.4365  -2
   1   4   0 1918.89 60.4365   1
   2  -2   6 727.852 29.0357  -2
   2   4   0 727.852 29.0357   1
   3   4   0 1888.92 72.5860   1
   4   4   0 51.7800 6.02276   1
   5  -3   7 553.296 24.5087  -2
   5   4   0 553.296 24.5087   1
  -6   5   0 376.711 17.7211   1
  -5  -1   6 381.152 19.4550  -2
  -5   5   0 381.152 19.4550   1
  -4  -1   6 844.829 28.6291  -2
  -4   5   0 844.829 28.6291   1
  -3  -1   6 254.728 20.6172  -2
  -3   5   0 254.728 20.6172   1
  -2   5   0 401.569 15.9500   1
  -1  -2   7 1960.18 105.248  -2
  -1   5   0 1960.18 105.248   1
   0  -2   7 345.091 13.6938  -2
   0   5   0 345.091 13.6938   1
   1   5   0 1020.85 34.8969   1
   2   5   0 21.4757 4.43902   1
   3  -3   8 620.494 26.5609  -2
   3   5   0 620.494 26.5609   1
   4  -3   8 621.327 29.3270  -2
   4   5   0 621.327 29.3270   1
   5   5   0 160.106 11.7395   1
  -6  -1   7 586.449 24.1123  -2
  -6   6   0 586.449 24.1123   1
  -5  -1   7 186.886 14.7120  -2
  -5   6   0 186.886 14.7120   1
  -4   6   0 306.306 13.7410   1
  -3   6   0 389.472 17.3237   1
  -2  -2   8 426.508 21.6139  -2
  -2   6   0 426.508 21.6139   1
  -1  -2   8 1003.80 55.5086  -2
  -1   6   0 1003.80 55.5086   1
   0   6   0 3.51555 4.52891   1
   1   6   0 1135.63 49.1252   1
   2  -3   9 201.510 11.3917  -2
   2   6   0 201.510 11.3917   1
   3  -3   9 627.994 36.2332  -2
   3   6   0 627.994 36.2332   1
   4   6   0 420.408 19.7541   1
  -5   7   0 88.9926 10.1731   1
  -4  -2   9 288.150 20.9843  -2
  -4   7   0 288.150 20.9843   1
  -3  -2   9 833.569 46.1634  -2
  -3   7   0 833.569 46.1634   1
  -2   7   0 60.1673 6.91116   1
  -1   7   0 662.474 30.1285   1
   0  -3  10 486.253 23.9216  -2
   0   7   0 486.253 23.9216   1
   1  -3  10 685.175 29.0724  -2
   1   7   0 685.175 29.0724   1
   2   7   0 272.878 14.6681   1
   3   7   0 142.957 11.4211   1
  -4  -2  10 256.803 31.7571  -2
  -4   8   0 256.803 31.7571   1
  -3   8   0 193.754 14.3933   1
  -2  -3  11 94.8021 22.1468  -2
  -2   8   0 94.8021 22.1468   1
  -1  -3  11 718.572 54.0738  -2
  -1   8   0 718.572 54.0738   1
   0   8   0 57.4859 9.95009   1
   1   8   0 258.442 16.7725   1
   2  -4  12 555.725 35.9687  -2
   2   8   0 555.725 35.9687   1
  -2  -3  12 408.040 28.5653  -2
  -2   9   0 408.040 28.5653   1
  -1   9   0 93.7086 11.4581   1
   0   9   0 117.177 11.0428   1
   0  -9   1 132.434 16.6089   1
  -1  -4  12 41.8939 15.1921  -2
   1  -9   1 41.8939 15.1921   1
  -2  -4  12 599.019 55.6202  -2
   2  -9   1 599.019 55.6202   1
   3  -9   1 7.66638 7.87625   1
  -2  -8   1 90.6157 9.92100   1
   1  -4  11 528.493 24.9571  -2
  -1  -8   1 528.493 24.9571   1
   0  -4  11 286.309 20.1167  -2
   0  -8   1 286.309 20.1167   1
   1  -8   1 6.32670 6.79471   1
   2  -8   1 158.942 16.6635   1
  -3  -3  10 239.161 19.7793  -2
   3  -8   1 239.161 19.7793   1
  -4  -3  10 275.844 22.9667  -2
   4  -8   1 275.844 22.9667   1
   3  -4  10 362.739 43.1723  -2
  -3  -7   1 362.739 43.1723   1
   2  -4  10 635.627 39.9358  -2
  -2  -7   1 635.627 39.9358   1
  -1  -7   1 28.1441 6.34303   1
   0  -7   1 711.929 33.0274   1
  -1  -3   9 215.848 13.2672  -2
   1  -7   1 215.848 13.2672   1
  -2  -3   9 747.454 56.5753  -2
   2  -7   1 747.454 56.5753   1
   3  -7   1 163.073 10.6285   1
   4  -7   1 141.273 10.7802   1
  -5  -2   8 604.047 35.4828  -2
   5  -7   1 604.047 35.4828   1
   4  -4   9 405.317 24.1251  -2
  -4  -6   1 405.317 24.1251   1
   3  -4   9 431.959 21.4849  -2
  -3  -6   1 431.959 21.4849   1
  -2  -6   1 863.946 34.4376   1
  -1  -6   1 76.9495 7.05320   1
   0  -3   8 1667.78 65.5567  -2
   0  -6   1 1667.78 65.5567   1
  -1  -3   8 231.830 17.8499  -2
   1  -6   1 231.830 17.8499   1
   2  -6   1 1018.90 46.7306   1
   3  -6   1 322.388 13.0195   1
  -4  -2   7 458.210 19.7282  -2
   4  -6   1 458.210 19.7282   1
  -5  -2   7 535.749 31.5484  -2
   5  -6   1 535.749 31.5484   1
   6  -6   1 -0.3101 5.60303   1
   5  -4   8 432.535 21.6438  -2
  -5  -5   1 432.535 21.6438   1
  -4  -5   1 230.341 12.6339   1
  -3  -5   1 18.2169 5.30968   1
   2  -3   7 2492.86 95.6586  -2
  -2  -5   1 2492.86 95.6586   1
   1  -3   7 1126.57 48.7647  -2
  -1  -5   1 1126.57 48.7647   1
   0  -5   1 1563.52 68.3613   1
   1  -5   1 112.691 6.90105   1
  -2  -2   6 1112.97 50.6827  -2
   2  -5   1 1112.97 50.6827   1
  -3  -2   6 910.274 33.0368  -2
   3  -5   1 910.274 33.0368   1
   4  -5   1 19.0713 4.14411   1
   5  -5   1 395.845 15.6242   1
  -6  -1   5 415.200 20.0089  -2
   6  -5   1 415.200 20.0089   1
  -5  -4   1 127.357 10.1477   1
  -4  -4   1 932.377 36.9767   1
   3  -3   6 66.9323 6.86938  -2
  -3  -4   1 66.9323 6.86938   1
  -2  -4   1 2027.60 68.4535   1
  -1  -4   1 621.306 18.7940   1
   0  -2   5 945.896 84.3883  -2
   0  -4   1 945.896 84.3883   1
  -1  -2   5 2611.59 70.4275  -2
   1  -4   1 2611.59 70.4275   1
   2  -4   1 229.841 7.46601   1
   3  -4   1 1214.64 36.8098   1
  -4  -1   4 298.951 12.7387  -2
   4  -4   1 298.951 12.7387   1
  -5  -1   4 1280.31 45.2777  -2
   5  -4   1 1280.31 45.2777   1
   6  -4   1 121.436 9.31105   1
  -6  -3   1 260.071 14.7282   1
   5  -3   5 234.098 14.8262  -2
  -5  -3   1 234.098 14.8262   1
   4  -3   5 1967.29 66.9779  -2
  -4  -3   1 1967.29 66.9779   1
  -3  -3   1 13.0343 3.10344   1
  -2  -3   1 2165.59 58.4472   1
   1  -2   4 408.522 13.7297  -2
  -1  -3   1 408.522 13.7297   1
   0  -2   4 2447.81 129.089  -2
   0  -3   1 2447.81 129.089   1
   1  -3   1 3224.87 86.6546   1
   2  -3   1 8.15905 1.44807   1
  -3  -1   3 4832.75 154.093  -2
   3  -3   1 4832.75 154.093   1
  -4  -1   3 624.873 29.3741  -2
   4  -3   1 624.873 29.3741   1
   5  -3   1 832.780 26.6884   1
  -6   0   2 314.822 21.8116  -2
   6  -3   1 314.822 21.8116   1
  -7   0   2 442.833 22.5462  -2
   7  -3   1 442.833 22.5462   1
   6  -3   4 893.919 36.5436  -2
  -6  -2   1 893.919 36.5436   1
   5  -3   4 149.672 18.3265  -2
  -5  -2   1 149.672 18.3265   1
  -4  -2   1 1687.87 52.7369   1
   3  -2   3 1242.89 53.2305  -2
  -3  -2   1 1242.89 53.2305   1
   2  -2   3 717.890 22.7583  -2
  -2  -2   1 717.890 22.7583   1
  -1  -2   1 1885.89 57.8004   1
   0  -2   1 377.178 12.5971   1
  -1  -1   2 4407.55 180.678  -2
   1  -2   1 4407.55 180.678   1
  -2  -1   2 2789.92 78.3847  -2
   2  -2   1 2789.92 78.3847   1
   3  -2   1 2150.15 49.6827   1
   4  -2   1 121.792 4.83142   1
  -5   0   1 1175.67 37.0747  -2
   5  -2   1 1175.67 37.0747   1
  -6   0   1 1002.86 61.9936  -2
   6  -2   1 1002.86 61.9936   1
   7  -2   1 33.7834 6.94329   1
  -6  -1   1 979.738 39.4368   1
  -5  -1   1 29.1230 4.34388   1
   4  -2   2 2547.13 87.7522  -2
  -4  -1   1 2547.13 87.7522   1
   3  -2   2 491.163 37.0199  -2
  -3  -1   1 491.163 37.0199   1
  -2  -1   1 726.870 19.8275   1
  -1  -1   1 742.670 20.1274   1
   1  -1   1 9999.99 250.102   1
   2  -1   1 18.3819 1.24232   1
   3   0   0 2509.92 155.005  -2
   3  -1   1 2509.92 155.005   1
   4   0   0 1517.96 47.1126  -2
   4  -1   1 1517.96 47.1126   1
   5  -1   1 270.521 10.6506   1
   6  -1   1 723.163 29.1659   1
   7  -1   1 -9.5115 10.9815  -2
   7  -1   1 -9.5115 10.9815   1
  -7   0   1 17.9429 8.82337   1
   6  -2   1 1102.80 54.1726  -2
  -6   0   1 1102.80 54.1726   1
   5  -2   1 766.065 25.5294  -2
  -5   0   1 766.065 25.5294   1
  -4   0   1 973.913 28.5614   1
  -3   0   1 1715.90 46.3502   1
  -2   1   0 5025.03 182.975  -2
  -2   0   1 5025.03 182.975   1
  -1   1   0 7342.50 273.558  -2
  -1   0   1 7342.50 273.558   1
   1   0   1 4645.96 141.878   1
   2   0   1 3369.06 103.187  -2
   2   0   1 3369.06 103.187   1
   3   0   1 1894.34 111.794  -2
   3   0   1 1894.34 111.794   1
   4   0   1 2038.74 64.4298   1
   5   0   1 8.62016 3.70417   1
   6  -1   2 855.480 39.7276  -2
   6   0   1 855.480 39.7276   1
  -7   2   0 340.469 18.3799  -2
  -7   1   1 340.469 18.3799   1
  -6   2   0 657.722 41.0083  -2
  -6   1   1 657.722 41.0083   1
  -5   1   1 637.233 23.2912   1
  -4   1   1 782.334 63.1469  -2
  -4   1   1 782.334 63.1469   1
  -3   1   1 4309.40 114.780  -2
  -3   1   1 4309.40 114.780   1
  -2   1   1 117.620 3.76984   1
  -1   1   1 5762.13 213.215   1
   0   1   1 155.099 8.34501   1
   1   0   2 892.929 29.0473  -2
   1   1   1 892.929 29.0473   1
   2   1   1 1316.78 35.5385   1
   3   1   1 497.625 14.6568   1
   4  -1   3 2487.98 85.7338  -2
   4   1   1 2487.98 85.7338   1
   5  -1   3 124.671 8.97094  -2
   5   1   1 124.671 8.97094   1
   6   1   1 784.526 36.9773   1
  -7   2   1 130.105 10.7479   1
  -6   2   1 205.616 10.2493   1
  -5   1   2 1667.04 52.3268  -2
  -5   2   1 1667.04 52.3268   1
  -4   1   2 891.806 28.5721  -2
  -4   2   1 891.806 28.5721   1
  -3   2   1 2834.77 71.2261   1
  -2   2   1 13.6464 1.49951   1
  -1   0   3 4099.98 152.263  -2
  -1   2   1 4099.98 152.263   1
   0   2   1 989.356 30.7020   1
   1   2   1 2020.87 57.1531   1
   2   2   1 2168.00 58.4127   1
   3  -1   4 682.802 21.7103  -2
   3   2   1 682.802 21.7103   1
   4   2   1 1339.98 46.7238   1
   5   2   1 44.2674 5.74802   1
   6  -2   5 1093.24 51.7620  -2
   6   2   1 1093.24 51.7620   1
  -7   1   3 166.999 16.3671  -2
  -7   3   1 166.999 16.3671   1
  -6   1   3 517.137 20.2790  -2
  -6   3   1 517.137 20.2790   1
  -5   3   1 469.392 17.5062   1
  -4   3   1 56.4739 3.62028   1
  -3   0   4 2625.61 90.3296  -2
  -3   3   1 2625.61 90.3296   1
  -2   0   4 1209.06 47.5775  -2
  -2   3   1 1209.06 47.5775   1
  -1   3   1 2194.04 62.7078   1
   0   3   1 2383.08 74.6104   1
   1  -1   5 2079.27 76.7548  -2
   1   3   1 2079.27 76.7548   1
   2  -1   5 2387.69 67.7596  -2
   2   3   1 2387.69 67.7596   1
   3   3   1 10.7331 3.69155   1
   4   3   1 1036.92 36.6263   1
   5  -2   6 522.315 24.5341  -2
   5   3   1 522.315 24.5341   1
   6  -2   6 403.380 27.8368  -2
   6   3   1 403.380 27.8368   1
  -6   4   1 106.233 7.81472   1
  -5   0   5 893.365 40.5245  -2
  -5   4   1 893.365 40.5245   1
  -4   0   5 264.504 10.4835  -2
  -4   4   1 264.504 10.4835   1
  -3   0   5 1304.41 114.395  -2
  -3   4   1 1304.41 114.395   1
  -2   4   1 682.514 20.0388   1
  -1  -1   6 332.373 15.9812  -2
  -1   4   1 332.373 15.9812   1
   0  -1   6 2781.19 85.8035  -2
   0   4   1 2781.19 85.8035   1
   1   4   1 102.639 4.61343   1
   2   4   1 1338.89 46.5693   1
   3  -2   7 564.576 24.0210  -2
   3   4   1 564.576 24.0210   1
   4  -2   7 1063.95 42.2955  -2
   4   4   1 1063.95 42.2955   1
   5   4   1 253.137 13.6189   1
  -6   0   6 -7.2521 42.4853  -2
  -6   5   1 -7.2521 42.4853   1
  -5   0   6 912.702 37.7154  -2
  -5   5   1 912.702 37.7154   1
  -4   5   1 214.625 10.1814   1
  -3   5   1 230.616 10.0739   1
  -2  -1   7 958.085 34.2166  -2
  -2   5   1 958.085 34.2166   1
  -1  -1   7 1722.58 54.1609  -2
  -1   5   1 1722.58 54.1609   1
   0   5   1 933.539 31.8515   1
   1   5   1 56.9655 4.34713   1
   2  -2   8 1562.86 60.3404  -2
   2   5   1 1562.86 60.3404   1
   3  -2   8 554.307 31.4976  -2
   3   5   1 554.307 31.4976   1
   4   5   1 539.497 23.1495   1
   5   5   1 312.924 18.8018   1
  -6   6   1 -2.8057 7.27785   1
  -5   6   1 405.232 17.2351   1
  -4  -1   8 513.765 29.6240  -2
  -4   6   1 513.765 29.6240   1
  -3  -1   8 497.273 27.9942  -2
  -3   6   1 497.273 27.9942   1
  -2   6   1 546.981 18.6342   1
  -1   6   1 79.6106 5.51457   1
   0  -2   9 978.295 36.7028  -2
   0   6   1 978.295 36.7028   1
   1  -2   9 607.697 25.2614  -2
   1   6   1 607.697 25.2614   1
   2   6   1 788.365 31.7539   1
   3   6   1 401.050 18.9204   1
   4  -3  10 415.646 34.5609  -2
   4   6   1 415.646 34.5609   1
  -5  -1   9 298.077 16.6899  -2
  -5   7   1 298.077 16.6899   1
  -4  -1   9 388.381 28.4731  -2
  -4   7   1 388.381 28.4731   1
  -3   7   1 201.949 11.5298   1
  -2   7   1 296.483 19.0629   1
  -1  -2  10 6.83956 8.87799  -2
  -1   7   1 6.83956 8.87799   1
   0   7   1 411.618 19.8004   1
   1   7   1 172.723 10.6878   1
   2  -3  11 497.354 41.4266  -2
   2   7   1 497.354 41.4266   1
   3  -3  11 560.147 30.2138  -2
   3   7   1 560.147 30.2138   1
  -4   8   1 171.807 11.7917   1
  -3  -2  11 309.941 17.5817  -2
  -3   8   1 309.941 17.5817   1
  -2  -2  11 434.360 23.4824  -2
  -2   8   1 434.360 23.4824   1
  -1   8   1 76.1160 8.16683   1
   0   8   1 203.519 13.3754   1
   1  -3  12 269.691 15.7387  -2
   1   8   1 269.691 15.7387   1
   2  -3  12 270.777 28.7410  -2
   2   8   1 270.777 28.7410   1
  -2   9   1 158.749 18.2811   1
  -1   9   1 95.4790 26.0208   1
   0  -5  12 387.079 29.7024  -2
   0  -9   2 387.079 29.7024   1
   1  -9   2 326.410 23.7509   1
   2  -9   2 5.39187 8.02629   1
  -3  -4  11 338.301 35.7410  -2
   3  -9   2 338.301 35.7410   1
   2  -5  11 198.426 23.4208  -2
  -2  -8   2 198.426 23.4208   1
  -1  -8   2 249.352 14.6071   1
   0  -8   2 -2.8293 7.20668   1
  -1  -4  10 700.515 43.7134  -2
   1  -8   2 700.515 43.7134   1
  -2  -4  10 314.321 21.9949  -2
   2  -8   2 314.321 21.9949   1
   3  -8   2 367.180 34.9731   1
   4  -8   2 54.3939 13.1947   1
   3  -5  10 287.761 26.1910  -2
  -3  -7   2 287.761 26.1910   1
  -2  -7   2 120.031 10.4944   1
  -1  -7   2 633.498 26.3639   1
   0  -4   9 69.8846 10.9290  -2
   0  -7   2 69.8846 10.9290   1
  -1  -4   9 1012.50 56.1809  -2
   1  -7   2 1012.50 56.1809   1
   2  -7   2 54.4151 7.54735   1
  -3  -3   8 924.633 68.7202  -2
   3  -7   2 924.633 68.7202   1
  -4  -3   8 275.327 17.9967  -2
   4  -7   2 275.327 17.9967   1
  -5  -3   8 496.734 31.3172  -2
   5  -7   2 496.734 31.3172   1
  -4  -6   2 246.035 14.3546   1
  -3  -6   2 124.516 9.78232   1
   2  -4   8 752.240 31.5341  -2
  -2  -6   2 752.240 31.5341   1
   1  -4   8 1314.35 51.4911  -2
  -1  -6   2 1314.35 51.4911   1
   0  -6   2 -4.2989 5.06239   1
   1  -6   2 858.175 39.7688   1
  -2  -3   7 542.475 31.0205  -2
   2  -6   2 542.475 31.0205   1
  -3  -3   7 601.111 28.2918  -2
   3  -6   2 601.111 28.2918   1
   4  -6   2 614.463 28.0071   1
   5  -6   2 10.8217 5.46143   1
  -6  -2   6 384.171 21.0671  -2
   6  -6   2 384.171 21.0671   1
  -5  -5   2 286.759 15.7226   1
   4  -4   7 274.245 27.7435  -2
  -4  -5   2 274.245 27.7435   1
   3  -4   7 1645.53 63.7194  -2
  -3  -5   2 1645.53 63.7194   1
  -2  -5   2 41.7372 5.30135   1
  -1  -5   2 1219.84 38.9643   1
   0  -3   6 1973.19 109.819  -2
   0  -5   2 1973.19 109.819   1
  -1  -3   6 856.252 38.4298  -2
   1  -5   2 856.252 38.4298   1
   2  -5   2 1039.81 44.9413   1
   3  -5   2 13.7004 4.09354   1
  -4  -2   5 1512.81 58.8189  -2
   4  -5   2 1512.81 58.8189   1
  -5  -2   5 64.9429 9.09312  -2
   5  -5   2 64.9429 9.09312   1
   6  -5   2 367.228 16.3574   1
   5  -4   6 735.659 31.4426  -2
  -5  -4   2 735.659 31.4426   1
   4  -4   6 330.814 16.9233  -2
  -4  -4   2 330.814 16.9233   1
  -3  -4   2 2375.58 80.1495   1
  -2  -4   2 59.7471 5.21406   1
   1  -3   5 3176.26 101.581  -2
  -1  -4   2 3176.26 101.581   1
   0  -3   5 483.343 18.9625  -2
   0  -4   2 483.343 18.9625   1
   1  -4   2 544.097 17.1047   1
   2  -4   2 1434.42 47.6409   1
  -3  -2   4 711.512 23.4643  -2
   3  -4   2 711.512 23.4643   1
  -4  -2   4 1069.03 60.8578  -2
   4  -4   2 1069.03 60.8578   1
   5  -4   2 28.6901 4.04961   1
  -6  -1   3 992.761 47.0271  -2
   6  -4   2 992.761 47.0271   1
   6  -4   5 181.477 15.5188  -2
  -6  -3   2 181.477 15.5188   1
  -5  -3   2 914.349 43.8520   1
  -4  -3   2 30.0207 4.45178   1
   3  -3   4 1629.04 69.7149  -2
  -3  -3   2 1629.04 69.7149   1
   2  -3   4 1619.38 51.2118  -2
  -2  -3   2 1619.38 51.2118   1
  -1  -3   2 1409.81 38.2115   1
   0  -3   2 1042.98 32.4387   1
  -1  -2   3 3151.29 94.4162  -2
   1  -3   2 3151.29 94.4162   1
  -2  -2   3 2578.18 77.3688  -2
   2  -3   2 2578.18 77.3688   1
   3  -3   2 -0.4745 2.20987   1
   4  -3   2 844.191 25.6113   1
  -5  -1   2 809.265 28.9490  -2
   5  -3   2 809.265 28.9490   1
  -6  -1   2 406.957 23.6380  -2
   6  -3   2 406.957 23.6380   1
  -6  -2   2 0.73059 6.68244   1
  -5  -2   2 992.090 34.5862   1
   4  -3   3 307.786 12.2959  -2
  -4  -2   2 307.786 12.2959   1
   3  -3   3 2366.11 100.614  -2
  -3  -2   2 2366.11 100.614   1
  -2  -2   2 1822.29 52.2827   1
  -1  -2   2 478.486 13.3445   1
   0  -2   2 3625.59 120.209  -2
   0  -2   2 3625.59 120.209   1
   1  -2   2 39.2306 2.48215   1
   2  -2   2 2255.95 54.3888   1
  -3  -1   1 291.187 19.8610  -2
   3  -2   2 291.187 19.8610   1
  -4  -1   1 2047.14 59.7396  -2
   4  -2   2 2047.14 59.7396   1
   5  -2   2 534.621 21.2693   1
   6  -2   2 56.5463 6.11686   1
   7   0   0 805.983 36.3573  -2
   7  -2   2 805.983 36.3573   1
   6  -3   2 208.324 15.8692  -2
  -6  -1   2 208.324 15.8692   1
   5  -3   2 1029.67 41.0022  -2
  -5  -1   2 1029.67 41.0022   1
  -4  -1   2 472.927 15.5053   1
  -3  -1   2 649.952 18.9010   1
   2  -2   1 4179.38 124.551  -2
  -2  -1   2 4179.38 124.551   1
   1  -2   1 3182.89 115.364  -2
  -1  -1   2 3182.89 115.364   1
   0  -1   2 4433.58 165.186   1
   1  -1   2 56.7380 2.62888   1
   2   1   0 5680.88 159.211  -2
   2  -1   2 5680.88 159.211   1
   3   1   0 1385.95 54.9656  -2
   3  -1   2 1385.95 54.9656   1
   4  -1   2 1178.75 44.0873   1
   5  -1   2 1155.21 43.6300   1
   6   0   1 517.147 21.4331  -2
   6  -1   2 517.147 21.4331   1
   7  -3   1 594.143 45.2778  -2
  -7   0   2 594.143 45.2778   1
   6  -3   1 250.233 23.5231  -2
  -6   0   2 250.233 23.5231   1
  -5   0   2 600.720 21.6729   1
  -4   2   0 949.953 53.9960  -2
  -4   0   2 949.953 53.9960   1
  -3   2   0 1770.60 50.9237  -2
  -3   0   2 1770.60 50.9237   1
  -2   0   2 2505.79 64.3147   1
  -1   0   2 97.9554 3.30862   1
   0   0   2 6033.19 185.966   1
   1   1   1 921.485 28.4632  -2
   1   0   2 921.485 28.4632   1
   2   0   2 3976.49 111.403   1
   3   0   2 1462.37 45.1943   1
   4   0   2 1492.25 65.7942  -2
   4   0   2 1492.25 65.7942   1
   5   0   2 1618.94 60.7910  -2
   5   0   2 1618.94 60.7910   1
   6   0   2 -1.7005 4.99334   1
  -7   1   2 528.799 26.6370   1
  -6   1   2 197.773 11.9336   1
  -5   2   1 1354.47 53.3023  -2
  -5   1   2 1354.47 53.3023   1
  -4   2   1 1322.11 38.8028  -2
  -4   1   2 1322.11 38.8028   1
  -3   1   2 422.229 10.8628   1
  -2   1   2 1295.21 37.3201   1
  -1   1   2 371.868 12.8780  -2
  -1   1   2 371.868 12.8780   1
   0   1   2 1096.29 46.8644   1
   1   1   2 1330.08 39.8511   1
   2   1   2 1136.66 32.7541   1
   3   0   3 2092.97 79.8869  -2
   3   1   2 2092.97 79.8869   1
   4   1   2 102.983 7.83028   1
   5   1   2 911.588 41.2887   1
   6  -1   4 103.908 15.4340  -2
   6   1   2 103.908 15.4340   1
  -7   2   2 560.449 24.8265  -2
  -7   2   2 560.449 24.8265   1
  -6   2   2 977.804 37.1970  -2
  -6   2   2 977.804 37.1970   1
  -5   2   2 436.684 19.2839   1
  -4   2   2 1011.68 31.9818   1
  -3   1   3 1577.96 44.6278  -2
  -3   2   2 1577.96 44.6278   1
  -2   1   3 1085.57 44.0870  -2
  -2   2   2 1085.57 44.0870   1
  -1   2   2 478.269 18.1464   1
   0   2   2 1991.35 63.8097   1
   1   0   4 5062.25 174.320  -2
   1   2   2 5062.25 174.320   1
   2   0   4 1487.41 42.3296  -2
   2   2   2 1487.41 42.3296   1
   3   2   2 1619.58 55.9164   1
   4   2   2 134.654 6.68199   1
   5  -1   5 981.815 44.6114  -2
   5   2   2 981.815 44.6114   1
   6  -1   5 777.018 44.0774  -2
   6   2   2 777.018 44.0774   1
  -7   2   3 267.614 15.8366  -2
  -7   3   2 267.614 15.8366   1
  -6   3   2 329.871 14.0852   1
  -5   3   2 286.474 16.8665   1
  -4   1   4 1759.46 51.7070  -2
  -4   3   2 1759.46 51.7070   1
  -3   1   4 57.4191 14.5708  -2
  -3   3   2 57.4191 14.5708   1
  -2   3   2 1949.17 60.1244   1
  -1   3   2 877.750 25.6951   1
   0   0   5 1664.21 44.9464  -2
   0   3   2 1664.21 44.9464   1
   1   3   2 2098.02 59.4337   1
   2   3   2 36.3292 2.80509   1
   3  -1   6 2341.84 80.9680  -2
   3   3   2 2341.84 80.9680   1
   4  -1   6 176.990 10.6442  -2
   4   3   2 176.990 10.6442   1
   5   3   2 693.672 28.2993   1
  -6   1   5 704.988 30.8525  -2
  -6   4   2 704.988 30.8525   1
  -5   1   5 379.279 20.6285  -2
  -5   4   2 379.279 20.6285   1
  -4   4   2 937.095 33.1685   1
  -3   4   2 480.574 17.6560   1
  -2   0   6 2516.47 78.5841  -2
  -2   4   2 2516.47 78.5841   1
  -1   0   6 1633.44 66.1627  -2
  -1   4   2 1633.44 66.1627   1
   0   4   2 650.507 19.3607   1
   1   4   2 486.234 15.6104   1
   2  -1   7 367.168 15.3740  -2
   2   4   2 367.168 15.3740   1
   3  -1   7 1054.85 46.1144  -2
   3   4   2 1054.85 46.1144   1
   4   4   2 310.862 14.4651   1
   5  -2   8 702.096 54.6903  -2
   5   4   2 702.096 54.6903   1
  -6   1   6 544.978 43.9500  -2
  -6   5   2 544.978 43.9500   1
  -5   5   2 106.827 7.60879   1
  -4   0   7 662.696 36.5215  -2
  -4   5   2 662.696 36.5215   1
  -3   0   7 1072.10 45.7117  -2
  -3   5   2 1072.10 45.7117   1
  -2   5   2 476.667 15.1561   1
  -1   5   2 871.819 29.6798   1
   0  -1   8 937.946 36.6805  -2
   0   5   2 937.946 36.6805   1
   1  -1   8 1375.53 53.2473  -2
   1   5   2 1375.53 53.2473   1
   2   5   2 36.8253 4.79583   1
   3   5   2 485.917 20.6745   1
   4  -2   9 606.999 26.2175  -2
   4   5   2 606.999 26.2175   1
  -6   6   2 206.020 12.6772   1
  -5   0   8 363.311 22.3357  -2
  -5   6   2 363.311 22.3357   1
  -4   0   8 563.440 32.0398  -2
  -4   6   2 563.440 32.0398   1
  -3   6   2 385.510 15.4956   1
  -2  -1   9 328.493 19.8044  -2
  -2   6   2 328.493 19.8044   1
  -1  -1   9 1296.73 44.0182  -2
  -1   6   2 1296.73 44.0182   1
   0   6   2 5.70725 4.71163   1
   1   6   2 670.609 27.0997   1
   2  -2  10 632.603 36.2191  -2
   2   6   2 632.603 36.2191   1
   3  -2  10 886.823 36.2604  -2
   3   6   2 886.823 36.2604   1
   4   6   2 357.333 22.0579   1
  -5   7   2 108.269 8.42375   1
  -4   7   2 85.4548 10.1119   1
  -3  -1  10 204.687 21.6046  -2
  -3   7   2 204.687 21.6046   1
  -2  -1  10 583.301 32.9969  -2
  -2   7   2 583.301 32.9969   1
  -1   7   2 603.555 27.4779   1
   0   7   2 95.1897 7.79808   1
   1  -2  11 965.574 69.6657  -2
   1   7   2 965.574 69.6657   1
   2  -2  11 603.495 47.9181  -2
   2   7   2 603.495 47.9181   1
   3   7   2 94.4997 12.3656   1
  -4  -1  11 131.852 13.6771  -2
  -4   8   2 131.852 13.6771   1
  -3   8   2 233.456 14.7997   1
  -2   8   2 18.0259 6.86239   1
  -1  -2  12 297.461 18.6703  -2
  -1   8   2 297.461 18.6703   1
   0  -2  12 502.083 24.8894  -2
   0   8   2 502.083 24.8894   1
   1   8   2 218.719 13.2988   1
   0  -9   3 127.894 12.2471   1
  -1  -5  11 186.947 21.4026  -2
   1  -9   3 186.947 21.4026   1
  -2  -5  11 608.125 36.8942  -2
   2  -9   3 608.125 36.8942   1
   3  -9   3 4.49444 10.7439   1
  -2  -8   3 284.411 18.9413   1
  -1  -8   3 32.8042 10.6377   1
   0  -5  10 787.780 32.7179  -2
   0  -8   3 787.780 32.7179   1
  -1  -5  10 201.508 20.6755  -2
   1  -8   3 201.508 20.6755   1
   2  -8   3 230.246 17.9485   1
  -3  -4   9 128.968 28.6537  -2
   3  -8   3 128.968 28.6537   1
  -4  -4   9 478.028 28.9019  -2
   4  -8   3 478.028 28.9019   1
  -3  -7   3 223.296 13.8800   1
   2  -5   9 299.314 20.6706  -2
  -2  -7   3 299.314 20.6706   1
   1  -5   9 166.487 20.1132  -2
  -1  -7   3 166.487 20.1132   1
   0  -7   3 585.216 25.7132   1
   1  -7   3 5.40005 5.97810   1
  -3  -4   8 598.661 35.6242  -2
   3  -7   3 598.661 35.6242   1
   4  -7   3 180.896 12.0984   1
  -5  -3   7 263.290 28.9880  -2
   5  -7   3 263.290 28.9880   1
  -4  -6   3 322.536 16.5873   1
   3  -5   8 130.202 10.9568  -2
  -3  -6   3 130.202 10.9568   1
  -2  -6   3 788.805 31.7845   1
  -1  -6   3 7.93743 5.60491   1
   0  -4   7 730.084 43.7286  -2
   0  -6   3 730.084 43.7286   1
  -1  -4   7 538.291 30.8898  -2
   1  -6   3 538.291 30.8898   1
   2  -6   3 846.802 44.3437   1
   3  -6   3 412.387 19.5947   1
  -4  -3   6 128.525 11.9672  -2
   4  -6   3 128.525 11.9672   1
  -5  -3   6 718.641 42.2202  -2
   5  -6   3 718.641 42.2202   1
   6  -6   3 2.55889 8.76613   1
   5  -5   7 563.053 38.0610  -2
  -5  -5   3 563.053 38.0610   1
   4  -5   7 443.462 25.8462  -2
  -4  -5   3 443.462 25.8462   1
  -3  -5   3 26.8197 5.69266   1
  -2  -5   3 1595.50 54.2369   1
   1  -4   6 362.075 13.4032  -2
  -1  -5   3 362.075 13.4032   1
   0  -4   6 1987.26 97.3751  -2
   0  -5   3 1987.26 97.3751   1
   1  -5   3 849.976 37.3413   1
   2  -5   3 390.621 18.1111   1
  -3  -3   5 882.320 38.7225  -2
   3  -5   3 882.320 38.7225   1
  -4  -3   5 469.992 27.1700  -2
   4  -5   3 469.992 27.1700   1
   5  -5   3 370.199 18.3861   1
  -6  -2   4 79.6580 16.4724  -2
   6  -5   3 79.6580 16.4724   1
  -5  -4   3 202.924 12.5782   1
  -4  -4   3 849.040 29.6156   1
   3  -4   5 1074.20 42.8741  -2
  -3  -4   3 1074.20 42.8741   1
   2  -4   5 1159.50 44.9667  -2
  -2  -4   3 1159.50 44.9667   1
  -1  -4   3 754.140 22.8094   1
   0  -4   3 887.436 26.0022   1
  -1  -3   4 2514.14 93.6993  -2
   1  -4   3 2514.14 93.6993   1
  -2  -3   4 619.543 24.4602  -2
   2  -4   3 619.543 24.4602   1
   3  -4   3 1414.92 53.4829   1
   4  -4   3 11.0796 3.55709   1
  -5  -2   3 818.951 37.0215  -2
   5  -4   3 818.951 37.0215   1
  -6  -2   3 669.970 38.7954  -2
   6  -4   3 669.970 38.7954   1
  -6  -3   3 278.833 18.2887   1
  -5  -3   3 26.0434 6.28127   1
   4  -4   4 1332.13 45.6086  -2
  -4  -3   3 1332.13 45.6086   1
   3  -4   4 33.5809 7.36684  -2
  -3  -3   3 33.5809 7.36684   1
  -2  -3   3 1047.13 29.4035   1
  -1  -3   3 1332.68 38.4655   1
   0  -3   3 1771.32 48.4014  -2
   0  -3   3 1771.32 48.4014   1
   1  -3   3 1494.19 45.0460   1
   2  -3   3 2.22546 1.98380   1
  -3  -2   2 2319.59 108.588  -2
   3  -3   3 2319.59 108.588   1
  -4  -2   2 312.961 11.4591  -2
   4  -3   3 312.961 11.4591   1
   5  -3   3 918.951 41.3966   1
   6  -3   3 239.965 15.2875   1
   6  -4   3 786.678 45.3313  -2
  -6  -2   3 786.678 45.3313   1
   5  -4   3 479.224 24.3457  -2
  -5  -2   3 479.224 24.3457   1
  -4  -2   3 1279.78 58.7038   1
  -3  -2   3 687.110 27.7144   1
   2  -3   2 2763.35 87.9224  -2
  -2  -2   3 2763.35 87.9224   1
   1  -3   2 4088.07 141.601  -2
  -1  -2   3 4088.07 141.601   1
   0  -2   3 35.9250 2.44049   1
   1  -2   3 1924.41 57.7200   1
  -2  -2   1 668.099 19.7930  -2
   2  -2   3 668.099 19.7930   1
  -3  -2   1 1636.07 91.2414  -2
   3  -2   3 1636.07 91.2414   1
   4  -2   3 644.122 22.9250   1
   5  -2   3 382.826 15.9203   1
   6   1   0 577.812 23.4944  -2
   6  -2   3 577.812 23.4944   1
   6  -4   2 1168.07 84.8081  -2
  -6  -1   3 1168.07 84.8081   1
  -5  -1   3 182.063 8.92078   1
   4  -3   1 1020.05 54.8495  -2
  -4  -1   3 1020.05 54.8495   1
   3  -3   1 4126.80 161.391  -2
  -3  -1   3 4126.80 161.391   1
  -2  -1   3 1891.24 60.2641   1
  -1  -1   3 2034.67 71.6304   1
   0   2   0 325.226 15.5716  -2
   0  -1   3 325.226 15.5716   1
   1   2   0 2277.05 65.1617  -2
   1  -1   3 2277.05 65.1617   1
   2  -1   3 1229.04 34.7450   1
   3  -1   3 1613.65 55.1562   1
   4   1   1 2161.29 80.1916  -2
   4  -1   3 2161.29 80.1916   1
   5   1   1 198.870 11.0643  -2
   5  -1   3 198.870 11.0643   1
   6  -1   3 661.246 26.4557   1
  -7   0   3 -1.9498 9.12769   1
  -6   0   3 406.424 20.4204   1
  -5   3   0 659.898 27.0451  -2
  -5   0   3 659.898 27.0451   1
  -4   3   0 1925.14 74.1601  -2
  -4   0   3 1925.14 74.1601   1
  -3   0   3 1564.22 40.0382   1
  -2   0   3 270.179 7.43334   1
  -1   2   1 3818.79 123.496  -2
  -1   0   3 3818.79 123.496   1
   0   0   3 33.3330 1.73120   1
   1   0   3 2828.02 74.6951   1
   2   0   3 723.740 21.8657   1
   3   1   2 1556.55 53.2121  -2
   3   0   3 1556.55 53.2121   1
   4   0   3 1202.35 45.0059   1
   5   0   3 38.6381 4.85485   1
   6   0   3 1563.61 65.4843  -2
   6   0   3 1563.61 65.4843   1
  -7   3   1 216.615 19.9450  -2
  -7   1   3 216.615 19.9450   1
  -6   3   1 566.272 26.7825  -2
  -6   1   3 566.272 26.7825   1
  -5   1   3 900.764 31.5964   1
  -4   1   3 489.641 16.5437   1
  -3   2   2 2364.97 85.1920  -2
  -3   1   3 2364.97 85.1920   1
  -2   2   2 893.407 28.4519  -2
  -2   1   3 893.407 28.4519   1
  -1   1   3 1085.67 29.0144   1
   0   1   3 814.389 27.8428   1
   1   1   3 6831.46 229.033  -2
   1   1   3 6831.46 229.033   1
   2   1   3 4111.83 125.889  -2
   2   1   3 4111.83 125.889   1
   3   1   3 503.792 22.9763   1
   4   1   3 1035.90 46.0396   1
   5   0   4 759.132 35.1192  -2
   5   1   3 759.132 35.1192   1
   6   0   4 668.215 32.6022  -2
   6   1   3 668.215 32.6022   1
  -7   3   2 343.195 19.7529  -2
  -7   2   3 343.195 19.7529   1
  -6   2   3 234.802 13.0749   1
  -5   2   3 461.475 30.7219   1
  -4   2   3 260.093 10.1593  -2
  -4   2   3 260.093 10.1593   1
  -3   2   3 1325.62 38.4134   1
  -2   2   3 306.479 9.24710   1
  -1   2   3 3715.97 118.886   1
   0   1   4 3458.31 110.749  -2
   0   2   3 3458.31 110.749   1
   1   2   3 1596.38 43.0375   1
   2   2   3 2257.48 69.6083   1
   3   0   5 150.088 8.32845  -2
   3   2   3 150.088 8.32845   1
   4   0   5 2072.24 71.6218  -2
   4   2   3 2072.24 71.6218   1
   5   2   3 94.7859 9.63801   1
   6   2   3 252.182 16.6820   1
  -6   2   4 486.780 22.3762  -2
  -6   3   3 486.780 22.3762   1
  -5   2   4 644.466 26.8623  -2
  -5   3   3 644.466 26.8623   1
  -4   3   3 12.9002 3.42407   1
  -3   3   3 802.412 23.1872   1
  -2   1   5 547.570 19.6858  -2
  -2   3   3 547.570 19.6858   1
  -1   1   5 2478.34 115.699  -2
  -1   3   3 2478.34 115.699   1
   0   3   3 2044.25 65.6646   1
   1   3   3 458.942 14.6124   1
   2   0   6 1007.15 31.4676  -2
   2   3   3 1007.15 31.4676   1
   3   0   6 546.175 44.8521  -2
   3   3   3 546.175 44.8521   1
   4   3   3 830.382 29.7324   1
   5   3   3 297.385 22.4269   1
  -6   2   5 104.287 14.8124  -2
  -6   4   3 104.287 14.8124   1
  -5   4   3 531.911 19.9294   1
  -4   1   6 1089.86 48.7337  -2
  -4   4   3 1089.86 48.7337   1
  -3   1   6 947.828 31.8224  -2
  -3   4   3 947.828 31.8224   1
  -2   4   3 498.561 17.1877   1
  -1   4   3 302.412 15.1704   1
   0   0   7 1885.82 86.1362  -2
   0   4   3 1885.82 86.1362   1
   1   0   7 443.558 15.8606  -2
   1   4   3 443.558 15.8606   1
   2   4   3 1199.41 40.6706   1
   3   4   3 104.943 7.38876   1
   4  -1   8 495.823 21.8627  -2
   4   4   3 495.823 21.8627   1
   5  -1   8 773.427 38.3094  -2
   5   4   3 773.427 38.3094   1
  -6   1   7 183.242 17.9074  -2
  -6   5   3 183.242 17.9074   1
  -5   1   7 795.834 33.6953  -2
  -5   5   3 795.834 33.6953   1
  -4   1   7 234.934 14.4644  -2
  -4   5   3 234.934 14.4644   1
  -3   5   3 353.951 18.0238   1
  -2   0   8 1825.30 146.308  -2
  -2   5   3 1825.30 146.308   1
  -1   0   8 359.949 18.2028  -2
  -1   5   3 359.949 18.2028   1
   0   5   3 756.285 29.6039   1
   1   5   3 55.9912 4.53035   1
   2  -1   9 974.951 38.8990  -2
   2   5   3 974.951 38.8990   1
   3  -1   9 587.415 27.1068  -2
   3   5   3 587.415 27.1068   1
   4   5   3 397.291 18.2970   1
  -5   6   3 307.966 13.6038   1
  -4   6   3 126.511 8.22854   1
  -3   0   9 702.336 40.0007  -2
  -3   6   3 702.336 40.0007   1
  -2   0   9 333.719 17.1570  -2
  -2   6   3 333.719 17.1570   1
  -1   6   3 3.65492 5.50920   1
   0   6   3 599.644 24.2097   1
   1  -1  10 224.457 12.0136  -2
   1   6   3 224.457 12.0136   1
   2  -1  10 787.746 32.8756  -2
   2   6   3 787.746 32.8756   1
   3   6   3 317.920 15.6955   1
  -5   7   3 94.9146 10.5545   1
  -4   0  10 486.856 28.0400  -2
  -4   7   3 486.856 28.0400   1
  -3   7   3 20.8988 6.50464   1
  -2   7   3 341.936 18.2547   1
  -1  -1  11 487.086 43.2210  -2
  -1   7   3 487.086 43.2210   1
   0  -1  11 332.734 41.4562  -2
   0   7   3 332.734 41.4562   1
   1   7   3 219.451 12.1717   1
   2   7   3 165.491 11.0406   1
  -3   8   3 4.92026 11.7613   1
  -2  -1  12 500.521 41.8433  -2
  -2   8   3 500.521 41.8433   1
  -1  -1  12 87.1714 21.8726  -2
  -1   8   3 87.1714 21.8726   1
   0   8   3 156.843 17.6261   1
   0  -6  11 186.532 19.4446  -2
   0  -9   4 186.532 19.4446   1
  -1  -6  11 335.033 27.5113  -2
   1  -9   4 335.033 27.5113   1
   2  -9   4 8.30777 10.2569   1
   3  -9   4 207.651 19.1019   1
   2  -6  10 218.120 30.5695  -2
  -2  -8   4 218.120 30.5695   1
   1  -6  10 485.998 35.4670  -2
  -1  -8   4 485.998 35.4670   1
   0  -8   4 0.59515 8.59215   1
   1  -8   4 502.823 30.4045   1
  -2  -5   9 400.063 37.1102  -2
   2  -8   4 400.063 37.1102   1
   4  -8   4 118.053 10.9105   1
   3  -6   9 609.359 26.9758  -2
  -3  -7   4 609.359 26.9758   1
   2  -6   9 154.898 31.0503  -2
  -2  -7   4 154.898 31.0503   1
  -1  -7   4 242.549 17.6651   1
   0  -5   8 356.124 27.3513  -2
   0  -7   4 356.124 27.3513   1
  -1  -5   8 717.599 40.3772  -2
   1  -7   4 717.599 40.3772   1
   2  -7   4 80.3684 8.42753   1
   3  -7   4 336.378 20.9321   1
  -4  -4   7 716.569 43.1880  -2
   4  -7   4 716.569 43.1880   1
  -5  -4   7 89.8209 12.2679  -2
   5  -7   4 89.8209 12.2679   1
   4  -6   8 508.124 29.5867  -2
  -4  -6   4 508.124 29.5867   1
  -3  -6   4 362.566 17.2833   1
  -2  -6   4 22.2849 6.34248   1
   1  -5   7 1205.17 73.4988  -2
  -1  -6   4 1205.17 73.4988   1
   0  -5   7 250.444 14.7476  -2
   0  -6   4 250.444 14.7476   1
   1  -6   4 587.117 26.9719   1
   2  -6   4 400.437 19.3790   1
  -3  -4   6 574.772 26.8356  -2
   3  -6   4 574.772 26.8356   1
  -4  -4   6 504.109 29.8743  -2
   4  -6   4 504.109 29.8743   1
   5  -6   4 2.17984 5.80872   1
  -5  -5   4 355.210 20.7680   1
  -4  -5   4 192.293 13.0404   1
   3  -5   6 1106.50 52.7365  -2
  -3  -5   4 1106.50 52.7365   1
   2  -5   6 467.910 17.9750  -2
  -2  -5   4 467.910 17.9750   1
  -1  -5   4 1253.34 41.4999   1
   0  -5   4 520.650 16.5047   1
  -1  -4   5 702.449 32.1115  -2
   1  -5   4 702.449 32.1115   1
  -2  -4   5 1421.47 61.5311  -2
   2  -5   4 1421.47 61.5311   1
   3  -5   4 3.51159 4.09957   1
   4  -5   4 742.177 29.2929   1
  -5  -3   4 322.949 29.1224  -2
   5  -5   4 322.949 29.1224   1
  -6  -3   4 452.566 29.9052  -2
   6  -5   4 452.566 29.9052   1
  -5  -4   4 499.533 26.2518   1
   4  -5   5 5.78686 7.97091  -2
  -4  -4   4 5.78686 7.97091   1
   3  -5   5 1624.22 63.2494  -2
  -3  -4   4 1624.22 63.2494   1
  -2  -4   4 128.821 6.79418   1
  -1  -4   4 1261.96 51.5246   1
   0  -4   4 1865.86 54.7967  -2
   0  -4   4 1865.86 54.7967   1
   1  -4   4 772.892 26.4693   1
   2  -4   4 737.643 28.4863   1
  -3  -3   3 26.3836 18.9065  -2
   3  -4   4 26.3836 18.9065   1
  -4  -3   3 1268.47 45.0330  -2
   4  -4   4 1268.47 45.0330   1
   5  -4   4 170.451 11.5113   1
   6  -4   4 314.292 17.9986   1
   6  -5   4 385.881 34.1466  -2
  -6  -3   4 385.881 34.1466   1
   5  -5   4 447.952 47.4027  -2
  -5  -3   4 447.952 47.4027   1
  -4  -3   4 83.1873 8.85039   1
  -3  -3   4 926.643 42.9730   1
   2  -4   3 829.571 27.7965  -2
  -2  -3   4 829.571 27.7965   1
   1  -4   3 2758.89 96.4848  -2
  -1  -3   4 2758.89 96.4848   1
   0  -3   4 1553.85 42.1061   1
   1  -3   4 94.8210 5.14786   1
  -2  -3   2 2162.65 81.1416  -2
   2  -3   4 2162.65 81.1416   1
  -3  -3   2 1038.21 40.5418  -2
   3  -3   4 1038.21 40.5418   1
   4  -3   4 701.152 28.6745   1
   5  -3   4 190.839 11.8854   1
  -6  -2   1 609.070 29.1711  -2
   6  -3   4 609.070 29.1711   1
   6  -5   3 126.269 20.2621  -2
  -6  -2   4 126.269 20.2621   1
  -5  -2   4 838.025 39.7684   1
   4  -4   2 1046.13 56.6325  -2
  -4  -2   4 1046.13 56.6325   1
   3  -4   2 1034.23 47.6011  -2
  -3  -2   4 1034.23 47.6011   1
  -2  -2   4 2892.41 92.0055   1
  -1  -2   4 849.135 23.1702   1
   0  -3   1 3922.09 149.212  -2
   0  -2   4 3922.09 149.212   1
  -1  -3   1 218.972 6.78885  -2
   1  -2   4 218.972 6.78885   1
   2  -2   4 1879.78 47.2899   1
   3  -2   4 940.500 37.1997   1
   4   2   0 759.621 34.5712  -2
   4  -2   4 759.621 34.5712   1
   5   2   0 1142.99 51.3456  -2
   5  -2   4 1142.99 51.3456   1
   6  -2   4 26.1355 5.41070   1
  -6  -1   4 11.6016 7.03514   1
   5  -4   1 1354.71 62.8681  -2
  -5  -1   4 1354.71 62.8681   1
   4  -4   1 498.267 25.3559  -2
  -4  -1   4 498.267 25.3559   1
  -3  -1   4 1165.68 42.2729   1
  -2  -1   4 1307.25 44.9672   1
  -1   3   0 934.069 32.0158  -2
  -1  -1   4 934.069 32.0158   1
   0  -1   4 1986.82 59.5236   1
   1  -1   4 193.689 5.93433   1
   2  -1   4 2713.11 76.1714   1
   3   2   1 790.296 27.5433  -2
   3  -1   4 790.296 27.5433   1
   4  -1   4 324.351 13.4940   1
   5  -1   4 771.872 29.7740   1
   6   1   2 85.2909 11.7802  -2
   6  -1   4 85.2909 11.7802   1
  -6   4   0 501.599 44.6735  -2
  -6   0   4 501.599 44.6735   1
  -5   0   4 377.792 14.5041   1
  -4   0   4 824.195 34.3657   1
  -3   3   1 2159.93 75.2676  -2
  -3   0   4 2159.93 75.2676   1
  -2   3   1 1965.16 60.7289  -2
  -2   0   4 1965.16 60.7289   1
  -1   0   4 33.6978 2.20884   1
   0   0   4 354.275 10.9760   1
   1   2   2 4141.68 109.476  -2
   1   0   4 4141.68 109.476   1
   2   2   2 2147.98 79.9375  -2
   2   0   4 2147.98 79.9375   1
   3   0   4 1166.86 43.5359   1
   4   0   4 350.117 14.4589   1
   5   1   3 1149.90 48.1010  -2
   5   0   4 1149.90 48.1010   1
   6   1   3 368.868 19.7801  -2
   6   0   4 368.868 19.7801   1
  -6   1   4 329.649 16.5168   1
  -5   1   4 457.316 23.0855   1
  -4   3   2 1649.86 58.2338  -2
  -4   1   4 1649.86 58.2338   1
  -3   1   4 20.6828 2.01733   1
  -2   1   4 1584.27 42.3420   1
  -1   1   4 366.564 22.6472   1
   0   2   3 4337.89 126.329  -2
   0   1   4 4337.89 126.329   1
   1   1   4 1205.54 32.5708   1
   2   1   4 250.523 7.64389   1
   3   1   4 4052.60 149.428  -2
   3   1   4 4052.60 149.428   1
   4   1   4 11.5648 6.49938  -2
   4   1   4 11.5648 6.49938   1
   5   1   4 1244.22 47.0902   1
   6   1   4 175.069 10.7785   1
  -6   3   3 556.910 32.4952  -2
  -6   2   4 556.910 32.4952   1
  -5   3   3 553.806 28.2974  -2
  -5   2   4 553.806 28.2974   1
  -4   2   4 1101.68 39.4346   1
  -3   2   4 26.4604 2.64796   1
  -2   2   4 2389.57 75.0142  -2
  -2   2   4 2389.57 75.0142   1
  -1   2   4 776.862 37.1235  -2
  -1   2   4 776.862 37.1235   1
   0   2   4 1510.56 48.6274   1
   1   2   4 2216.10 62.4827   1
   2   1   5 1562.99 53.9490  -2
   2   2   4 1562.99 53.9490   1
   3   1   5 1595.87 70.2413  -2
   3   2   4 1595.87 70.2413   1
   4   2   4 41.0460 6.26614   1
   5   0   6 1407.79 71.4333  -2
   5   2   4 1407.79 71.4333   1
  -6   3   4 592.690 32.9792  -2
  -6   3   4 592.690 32.9792   1
  -5   3   4 13.9759 4.49354   1
  -4   2   5 687.528 35.4040  -2
  -4   3   4 687.528 35.4040   1
  -3   2   5 1098.32 31.4500  -2
  -3   3   4 1098.32 31.4500   1
  -2   3   4 1152.46 45.9170   1
  -1   3   4 417.296 17.4038   1
   0   1   6 1097.26 43.9216  -2
   0   3   4 1097.26 43.9216   1
   1   1   6 2075.30 82.1162  -2
   1   3   4 2075.30 82.1162   1
   2   3   4 2.74325 2.76220   1
   3   3   4 979.676 34.4734   1
   4   0   7 563.428 27.7695  -2
   4   3   4 563.428 27.7695   1
   5   0   7 346.883 28.5844  -2
   5   3   4 346.883 28.5844   1
  -6   2   6 714.306 40.9862  -2
  -6   4   4 714.306 40.9862   1
  -5   2   6 7.12706 8.00207  -2
  -5   4   4 7.12706 8.00207   1
  -4   2   6 1606.93 64.8674  -2
  -4   4   4 1606.93 64.8674   1
  -3   4   4 326.157 10.9890   1
  -2   4   4 474.063 23.0068   1
  -1   1   7 1872.97 85.4744  -2
  -1   4   4 1872.97 85.4744   1
   0   4   4 132.518 8.58121   1
   1   4   4 1244.67 42.0705   1
   2   0   8 349.718 13.9349  -2
   2   4   4 349.718 13.9349   1
   3   0   8 923.831 36.6202  -2
   3   4   4 923.831 36.6202   1
   4   4   4 400.008 18.3791   1
  -6   2   7 385.167 25.4654  -2
  -6   5   4 385.167 25.4654   1
  -5   5   4 15.9244 5.02702   1
  -4   5   4 464.095 16.8331   1
  -3   1   8 398.336 17.6256  -2
  -3   5   4 398.336 17.6256   1
  -2   1   8 1052.50 57.6692  -2
  -2   5   4 1052.50 57.6692   1
  -1   5   4 930.226 43.3973   1
   0   5   4 12.5884 5.00114   1
   1   0   9 1245.85 42.5006  -2
   1   5   4 1245.85 42.5006   1
   2   0   9 475.115 20.8278  -2
   2   5   4 475.115 20.8278   1
   3   5   4 315.709 15.5433   1
   4  -1  10 330.795 23.7767  -2
   4   5   4 330.795 23.7767   1
  -5   1   9 276.633 15.2068  -2
  -5   6   4 276.633 15.2068   1
  -4   1   9 112.244 9.87624  -2
  -4   6   4 112.244 9.87624   1
  -3   6   4 391.102 23.9912   1
  -2   6   4 18.7199 6.00354   1
  -1   0  10 710.434 35.4089  -2
  -1   6   4 710.434 35.4089   1
   0   0  10 350.464 19.4446  -2
   0   6   4 350.464 19.4446   1
   1   6   4 366.901 16.5218   1
   2   6   4 205.869 11.4398   1
   3  -1  11 227.848 15.5869  -2
   3   6   4 227.848 15.5869   1
  -4   7   4 36.0546 6.57170   1
  -3   0  11 721.128 61.7612  -2
  -3   7   4 721.128 61.7612   1
  -2   0  11 42.3755 9.41670  -2
  -2   7   4 42.3755 9.41670   1
  -1   0  11 753.530 43.7840  -2
  -1   7   4 753.530 43.7840   1
   0   7   4 89.0917 12.9920   1
   1  -1  12 462.440 43.5139  -2
   1   7   4 462.440 43.5139   1
   2  -1  12 334.620 32.5728  -2
   2   7   4 334.620 32.5728   1
  -2   8   4 17.3363 8.00435   1
  -1   8   4 146.370 21.0152   1
   0  -9   5 262.878 18.1611   1
   1  -9   5 21.0730 8.27116   1
  -2  -6  10 356.560 27.1268  -2
   2  -9   5 356.560 27.1268   1
  -2  -8   5 314.161 26.6705   1
  -1  -8   5 72.1791 8.92834   1
   0  -6   9 657.096 41.8826  -2
   0  -8   5 657.096 41.8826   1
  -1  -6   9 65.3128 20.0916  -2
   1  -8   5 65.3128 20.0916   1
   2  -8   5 365.361 26.4441   1
   3  -8   5 50.0784 9.69331   1
  -4  -5   8 88.9372 19.9836  -2
   4  -8   5 88.9372 19.9836   1
  -3  -7   5 86.4042 13.7420   1
  -2  -7   5 506.434 35.2789   1
   1  -6   8 193.500 15.1647  -2
  -1  -7   5 193.500 15.1647   1
   0  -6   8 692.755 34.9421  -2
   0  -7   5 692.755 34.9421   1
   1  -7   5 62.7257 8.03668   1
   2  -7   5 264.183 15.3056   1
  -3  -5   7 204.466 14.4438  -2
   3  -7   5 204.466 14.4438   1
  -4  -5   7 629.478 38.0971  -2
   4  -7   5 629.478 38.0971   1
   5  -7   5 195.615 13.4659   1
  -4  -6   5 351.104 20.7465   1
   3  -6   7 368.467 53.9441  -2
  -3  -6   5 368.467 53.9441   1
   2  -6   7 443.027 25.3283  -2
  -2  -6   5 443.027 25.3283   1
  -1  -6   5 49.7284 7.05491   1
   0  -6   5 951.254 39.2692   1
  -1  -5   6 952.064 42.6753  -2
   1  -6   5 952.064 42.6753   1
  -2  -5   6 255.361 15.9262  -2
   2  -6   5 255.361 15.9262   1
   3  -6   5 434.867 24.9444   1
   4  -6   5 16.5617 6.00022   1
  -5  -4   5 505.870 30.8730  -2
   5  -6   5 505.870 30.8730   1
  -5  -5   5 214.585 16.3259   1
   4  -6   6 1158.78 66.6022  -2
  -4  -5   5 1158.78 66.6022   1
   3  -6   6 47.9646 9.90021  -2
  -3  -5   5 47.9646 9.90021   1
  -2  -5   5 749.156 26.4462   1
  -1  -5   5 179.212 10.0263   1
   0  -5   5 1321.85 46.9265  -2
   0  -5   5 1321.85 46.9265   1
   1  -5   5 1003.13 55.0065   1
   2  -5   5 232.928 12.6124   1
  -3  -4   4 1521.16 58.3407  -2
   3  -5   5 1521.16 58.3407   1
  -4  -4   4 1.99506 7.56086  -2
   4  -5   5 1.99506 7.56086   1
   5  -5   5 476.123 22.7658   1
   6  -5   5 75.5002 9.64699   1
   5  -6   5 367.747 23.4354  -2
  -5  -4   5 367.747 23.4354   1
  -4  -4   5 469.250 24.7159   1
  -3  -4   5 43.5880 7.33235   1
   2  -5   4 1404.74 48.0376  -2
  -2  -4   5 1404.74 48.0376   1
   1  -5   4 623.030 30.9213  -2
  -1  -4   5 623.030 30.9213   1
   0  -4   5 398.829 13.7189   1
   1  -4   5 769.760 26.4894   1
  -2  -4   3 739.880 28.7544  -2
   2  -4   5 739.880 28.7544   1
  -3  -4   3 1571.60 67.7933  -2
   3  -4   5 1571.60 67.7933   1
   4  -4   5 25.9718 3.82288   1
   5  -4   5 392.297 27.2506   1
  -6  -3   2 170.424 13.0998  -2
   6  -4   5 170.424 13.0998   1
  -6  -3   5 314.720 20.0767   1
  -5  -3   5 1.58223 7.31417   1
   4  -5   3 733.281 41.8825  -2
  -4  -3   5 733.281 41.8825   1
   3  -5   3 656.502 31.5470  -2
  -3  -3   5 656.502 31.5470   1
  -2  -3   5 704.930 33.1684   1
  -1  -3   5 1550.54 50.0549   1
   0  -4   2 403.001 12.9913  -2
   0  -3   5 403.001 12.9913   1
  -1  -4   2 2876.82 90.2825  -2
   1  -3   5 2876.82 90.2825   1
   2  -3   5 -1.2699 3.36529   1
   3  -3   5 742.328 24.2369   1
  -4  -3   1 1602.71 63.4692  -2
   4  -3   5 1602.71 63.4692   1
  -5  -3   1 327.029 18.1109  -2
   5  -3   5 327.029 18.1109   1
   6  -3   5 304.070 17.1883   1
  -6  -2   5 351.599 21.4128   1
   5  -5   2 71.5766 11.4420  -2
  -5  -2   5 71.5766 11.4420   1
   4  -5   2 1805.40 82.6991  -2
  -4  -2   5 1805.40 82.6991   1
  -3  -2   5 542.439 25.9534   1
  -2  -2   5 1260.72 46.3524   1
   1  -4   1 2839.78 80.5051  -2
  -1  -2   5 2839.78 80.5051   1
   0  -4   1 616.642 46.3106  -2
   0  -2   5 616.642 46.3106   1
   1  -2   5 2719.34 73.1753   1
   2  -2   5 122.094 6.08357   1
   3   3   0 2651.33 115.216  -2
   3  -2   5 2651.33 115.216   1
   4  -2   5 718.413 32.3639   1
   5  -2   5 67.9020 6.90830   1
   6   2   1 1073.52 49.6680  -2
   6  -2   5 1073.52 49.6680   1
   6  -5   1 596.462 38.3427  -2
  -6  -1   5 596.462 38.3427   1
  -5  -1   5 135.373 10.6547   1
  -4  -1   5 518.851 25.3815   1
  -3   4   0 1611.64 65.3503  -2
  -3  -1   5 1611.64 65.3503   1
  -2   4   0 1189.08 38.2867  -2
  -2  -1   5 1189.08 38.2867   1
  -1  -1   5 3329.49 94.1289   1
   0  -1   5 151.488 5.33324   1
   1   3   1 1939.98 61.9988  -2
   1  -1   5 1939.98 61.9988   1
   2   3   1 1767.46 54.2323  -2
   2  -1   5 1767.46 54.2323   1
   3  -1   5 408.573 18.9891   1
   4  -1   5 556.532 25.5665   1
   5   2   2 658.917 30.7396  -2
   5  -1   5 658.917 30.7396   1
   6   2   2 884.701 41.8123  -2
   6  -1   5 884.701 41.8123   1
  -6   0   5 380.968 21.6179   1
  -5   4   1 862.693 47.4363  -2
  -5   0   5 862.693 47.4363   1
  -4   4   1 353.740 18.2402  -2
  -4   0   5 353.740 18.2402   1
  -3   0   5 1228.48 43.1092   1
  -2   0   5 18.6313 2.06575   1
  -1   0   5 2067.46 52.7257   1
   0   3   2 1024.06 27.8258  -2
   0   0   5 1024.06 27.8258   1
   1   0   5 1229.34 31.0381   1
   2   0   5 554.304 19.4876   1
   3   2   3 156.394 10.6852  -2
   3   0   5 156.394 10.6852   1
   4   2   3 1871.04 82.0499  -2
   4   0   5 1871.04 82.0499   1
   5   0   5 37.0081 5.33502   1
   6   0   5 504.729 21.1632   1
  -6   4   2 624.126 33.0489  -2
  -6   1   5 624.126 33.0489   1
  -5   4   2 601.227 25.3505  -2
  -5   1   5 601.227 25.3505   1
  -4   1   5 42.3085 3.57936   1
  -3   1   5 1721.94 52.4536   1
  -2   3   3 421.875 14.7324  -2
  -2   1   5 421.875 14.7324   1
  -1   3   3 2565.59 119.731  -2
  -1   1   5 2565.59 119.731   1
   0   1   5 813.500 23.5816   1
   1   1   5 1304.61 35.7496   1
   2   2   4 2222.60 70.1564  -2
   2   1   5 2222.60 70.1564   1
   3   2   4 859.916 36.1755  -2
   3   1   5 859.916 36.1755   1
   4   1   5 1415.43 53.0410   1
   5   1   5 12.0535 12.3107  -2
   5   1   5 12.0535 12.3107   1
  -6   4   3 244.565 26.4431  -2
  -6   2   5 244.565 26.4431   1
  -5   2   5 455.566 18.1186   1
  -4   3   4 726.023 26.4136  -2
  -4   2   5 726.023 26.4136   1
  -3   3   4 1498.02 45.9150  -2
  -3   2   5 1498.02 45.9150   1
  -2   2   5 174.616 6.18229   1
  -1   2   5 989.030 31.6583   1
   0   2   5 2360.03 83.4388  -2
   0   2   5 2360.03 83.4388   1
   1   2   5 348.905 11.8564  -2
   1   2   5 348.905 11.8564   1
   2   2   5 1743.31 58.6448   1
   3   2   5 23.7402 3.94345   1
   4   1   6 817.482 31.8776  -2
   4   2   5 817.482 31.8776   1
   5   1   6 488.921 34.8472  -2
   5   2   5 488.921 34.8472   1
  -6   3   5 34.6818 11.3929  -2
  -6   3   5 34.6818 11.3929   1
  -5   3   5 1227.61 39.7898  -2
  -5   3   5 1227.61 39.7898   1
  -4   3   5 10.7627 8.46145  -2
  -4   3   5 10.7627 8.46145   1
  -3   3   5 628.772 18.3201   1
  -2   3   5 441.180 18.4740   1
  -1   2   6 527.753 21.6869  -2
  -1   3   5 527.753 21.6869   1
   0   3   5 989.277 45.6216   1
   1   3   5 28.6799 2.15758   1
   2   1   7 1803.07 65.7107  -2
   2   3   5 1803.07 65.7107   1
   3   1   7 7.81927 5.15352  -2
   3   3   5 7.81927 5.15352   1
   4   3   5 441.963 16.8547   1
   5   3   5 296.697 14.7384   1
  -6   3   6 280.342 14.1070  -2
  -6   4   5 280.342 14.1070   1
  -5   4   5 457.944 18.4032   1
  -4   4   5 20.4776 3.28635   1
  -3   2   7 1356.26 63.1393  -2
  -3   4   5 1356.26 63.1393   1
  -2   2   7 826.240 33.8850  -2
  -2   4   5 826.240 33.8850   1
  -1   4   5 218.227 12.0930   1
   0   4   5 1132.06 52.2755   1
   1   1   8 303.460 10.2082  -2
   1   4   5 303.460 10.2082   1
   2   1   8 1172.06 36.0352  -2
   2   4   5 1172.06 36.0352   1
   3   4   5 276.168 14.1295   1
   4   0   9 677.548 53.7201  -2
   4   4   5 677.548 53.7201   1
  -5   2   8 377.061 26.0869  -2
  -5   5   5 377.061 26.0869   1
  -4   2   8 483.756 28.4990  -2
  -4   5   5 483.756 28.4990   1
  -3   5   5 278.319 14.7206   1
  -2   5   5 529.693 26.1141   1
  -1   1   9 513.739 26.4011  -2
  -1   5   5 513.739 26.4011   1
   0   1   9 1343.25 62.2974  -2
   0   5   5 1343.25 62.2974   1
   1   5   5 32.7562 6.11676   1
   2   5   5 248.322 13.3244   1
   3   0  10 685.202 29.1616  -2
   3   5   5 685.202 29.1616   1
  -5   2   9 594.178 30.3522  -2
  -5   6   5 594.178 30.3522   1
  -4   6   5 330.102 18.4056   1
  -3   1  10 79.0413 19.2001  -2
  -3   6   5 79.0413 19.2001   1
  -2   1  10 721.873 35.3216  -2
  -2   6   5 721.873 35.3216   1
  -1   1  10 124.570 18.2225  -2
  -1   6   5 124.570 18.2225   1
   0   6   5 396.485 27.2472   1
   1   6   5 125.264 13.7005   1
   2   0  11 419.196 22.9018  -2
   2   6   5 419.196 22.9018   1
  -3   1  11 223.550 19.1424  -2
  -3   7   5 223.550 19.1424   1
  -2   7   5 442.440 26.9857   1
  -1   7   5 13.5454 7.04129   1
   0   0  12 480.805 26.5357  -2
   0   7   5 480.805 26.5357   1
   1   0  12 479.328 27.4789  -2
   1   7   5 479.328 27.4789   1
  -1  -7  10 756.871 44.1214  -2
   1  -9   6 756.871 44.1214   1
  -2  -8   6 55.4369 9.72135   1
   1  -7   9 730.931 31.4327  -2
  -1  -8   6 730.931 31.4327   1
   0  -7   9 278.467 19.2313  -2
   0  -8   6 278.467 19.2313   1
   1  -8   6 438.514 27.4964   1
   2  -8   6 65.7711 9.32283   1
  -3  -6   8 515.348 32.5818  -2
   3  -8   6 515.348 32.5818   1
   3  -7   8 342.762 30.1510  -2
  -3  -7   6 342.762 30.1510   1
   2  -7   8 98.7169 13.1578  -2
  -2  -7   6 98.7169 13.1578   1
  -1  -7   6 511.462 22.3534   1
   0  -7   6 10.6323 7.75242   1
  -1  -6   7 633.294 38.1168  -2
   1  -7   6 633.294 38.1168   1
  -2  -6   7 461.604 30.2271  -2
   2  -7   6 461.604 30.2271   1
   3  -7   6 30.8047 8.43657   1
   4  -7   6 281.411 16.2929   1
   4  -7   7 139.052 16.4050  -2
  -4  -6   6 139.052 16.4050   1
   3  -7   7 1086.03 52.7400  -2
  -3  -6   6 1086.03 52.7400   1
  -2  -6   6 6.29443 7.73440   1
  -1  -6   6 593.889 24.7909   1
   0  -6   6 175.475 11.3381  -2
   0  -6   6 175.475 11.3381   1
   1  -6   6 238.611 14.1770   1
   2  -6   6 379.234 19.1548   1
  -3  -5   5 62.1998 12.7048  -2
   3  -6   6 62.1998 12.7048   1
  -4  -5   5 1039.45 46.4028  -2
   4  -6   6 1039.45 46.4028   1
  -5  -5   5 157.982 24.4223  -2
   5  -6   6 157.982 24.4223   1
  -5  -5   6 274.158 22.5535   1
  -4  -5   6 14.6042 8.73663   1
  -3  -5   6 643.216 31.9745   1
   2  -6   5 182.158 12.0038  -2
  -2  -5   6 182.158 12.0038   1
   1  -6   5 1205.97 50.3457  -2
  -1  -5   6 1205.97 50.3457   1
   0  -5   6 282.140 12.0158   1
   1  -5   6 123.242 11.7540   1
  -2  -5   4 584.114 27.2834  -2
   2  -5   6 584.114 27.2834   1
  -3  -5   4 700.567 32.5612  -2
   3  -5   6 700.567 32.5612   1
   4  -5   6 639.222 29.1052   1
  -5  -4   3 183.136 22.5000  -2
   5  -5   6 183.136 22.5000   1
  -5  -4   6 526.554 28.3609   1
   4  -6   4 332.582 38.0224  -2
  -4  -4   6 332.582 38.0224   1
   3  -6   4 681.055 33.4537  -2
  -3  -4   6 681.055 33.4537   1
  -2  -4   6 153.747 11.2621   1
  -1  -4   6 344.928 13.8414   1
   0  -5   3 1939.14 91.0250  -2
   0  -4   6 1939.14 91.0250   1
  -1  -5   3 286.744 18.3814  -2
   1  -4   6 286.744 18.3814   1
   2  -4   6 1296.21 49.1756   1
   3  -4   6 20.9170 4.96216   1
  -4  -4   2 339.492 18.1387  -2
   4  -4   6 339.492 18.1387   1
  -5  -4   2 552.312 31.4126  -2
   5  -4   6 552.312 31.4126   1
   6  -4   6 136.339 13.3659   1
   5  -6   3 818.857 49.2733  -2
  -5  -3   6 818.857 49.2733   1
   4  -6   3 116.787 14.6093  -2
  -4  -3   6 116.787 14.6093   1
  -3  -3   6 817.445 38.5364   1
  -2  -3   6 597.550 28.6692   1
   1  -5   2 949.595 37.1405  -2
  -1  -3   6 949.595 37.1405   1
   0  -5   2 2574.67 223.618  -2
   0  -3   6 2574.67 223.618   1
   1  -3   6 22.7837 2.68741   1
   2  -3   6 1667.15 58.3857   1
  -3  -4   1 87.7992 5.94701  -2
   3  -3   6 87.7992 5.94701   1
   4  -3   6 402.943 17.9291   1
   5  -3   6 261.303 14.6833   1
   6   3   0 233.813 17.0542  -2
   6  -3   6 233.813 17.0542   1
   6  -6   2 266.868 18.8508  -2
  -6  -2   6 266.868 18.8508   1
  -5  -2   6 661.745 37.1632   1
  -4  -2   6 46.8456 6.79971   1
   3  -5   1 940.194 44.1443  -2
  -3  -2   6 940.194 44.1443   1
   2  -5   1 1510.08 61.0779  -2
  -2  -2   6 1510.08 61.0779   1
  -1  -2   6 131.145 4.80195   1
   0  -2   6 2439.35 71.1980   1
   1   4   0 1316.91 38.0038  -2
   1  -2   6 1316.91 38.0038   1
   2   4   0 1096.05 38.2331  -2
   2  -2   6 1096.05 38.2331   1
   3  -2   6 619.331 25.3766   1
   4  -2   6 343.574 16.9921   1
   5   3   1 525.440 52.2462  -2
   5  -2   6 525.440 52.2462   1
   6   3   1 270.683 18.5545  -2
   6  -2   6 270.683 18.5545   1
  -6  -1   6 10.1494 7.66769   1
  -5   5   0 525.780 31.4174  -2
  -5  -1   6 525.780 31.4174   1
  -4   5   0 774.073 36.5339  -2
  -4  -1   6 774.073 36.5339   1
  -3  -1   6 196.994 10.2029   1
  -2  -1   6 1033.26 39.5614   1
  -1   4   1 204.150 12.3943  -2
  -1  -1   6 204.150 12.3943   1
   0   4   1 2707.71 76.7202  -2
   0  -1   6 2707.71 76.7202   1
   1  -1   6 362.833 10.2966   1
   2  -1   6 473.984 14.5910   1
   3   3   2 2041.41 89.2083  -2
   3  -1   6 2041.41 89.2083   1
   4   3   2 175.777 11.8108  -2
   4  -1   6 175.777 11.8108   1
   5  -1   6 648.869 30.1575   1
   6  -1   6 14.7832 7.19064   1
  -6   5   1 58.0918 19.2873  -2
  -6   0   6 58.0918 19.2873   1
  -5   5   1 769.534 38.1850  -2
  -5   0   6 769.534 38.1850   1
  -4   0   6 872.939 36.4221   1
  -3   0   6 42.7517 4.58493   1
  -2   4   2 3072.13 102.739  -2
  -2   0   6 3072.13 102.739   1
  -1   4   2 931.956 37.2995  -2
  -1   0   6 931.956 37.2995   1
   0   0   6 773.364 21.4708   1
   1   0   6 955.558 25.8616   1
   2   3   3 832.969 26.0890  -2
   2   0   6 832.969 26.0890   1
   3   3   3 1447.28 80.0657  -2
   3   0   6 1447.28 80.0657   1
   4   0   6 38.3906 5.70579   1
   5   2   4 1361.57 77.1855  -2
   5   0   6 1361.57 77.1855   1
  -6   1   6 207.662 20.8278   1
  -5   1   6 221.490 10.4912   1
  -4   4   3 1179.35 46.3954  -2
  -4   1   6 1179.35 46.3954   1
  -3   4   3 584.660 20.4417  -2
  -3   1   6 584.660 20.4417   1
  -2   1   6 1846.93 56.1005   1
  -1   1   6 57.5848 2.98236   1
   0   3   4 1269.66 50.5186  -2
   0   1   6 1269.66 50.5186   1
   1   3   4 1834.07 56.7150  -2
   1   1   6 1834.07 56.7150   1
   2   1   6 330.661 11.0232   1
   3   1   6 1256.87 47.0353   1
   4   2   5 568.768 27.2878  -2
   4   1   6 568.768 27.2878   1
   5   2   5 714.767 56.8257  -2
   5   1   6 714.767 56.8257   1
  -6   4   4 695.401 40.2661  -2
  -6   2   6 695.401 40.2661   1
  -5   4   4 34.7143 6.73673  -2
  -5   2   6 34.7143 6.73673   1
  -4   4   4 1343.00 56.8473  -2
  -4   2   6 1343.00 56.8473   1
  -3   2   6 17.7289 2.90843   1
  -2   2   6 918.446 36.9031   1
  -1   3   5 634.593 29.7383  -2
  -1   2   6 634.593 29.7383   1
   0   2   6 275.475 10.8074   1
   1   2   6 615.115 18.1010   1
   2   2   6 47.0187 9.65263  -2
   2   2   6 47.0187 9.65263   1
   3   2   6 1495.44 64.1254  -2
   3   2   6 1495.44 64.1254   1
   4   2   6 9.51777 5.21881   1
   5   2   6 197.657 12.5957   1
  -6   4   5 559.041 23.0486  -2
  -6   3   6 559.041 23.0486   1
  -5   3   6 31.6276 4.75782   1
  -4   3   6 616.823 21.9587   1
  -3   3   6 438.056 14.1197  -2
  -3   3   6 438.056 14.1197   1
  -2   3   6 539.557 22.9110  -2
  -2   3   6 539.557 22.9110   1
  -1   3   6 787.103 31.8369   1
   0   3   6 312.074 15.2905   1
   1   2   7 995.590 33.7939  -2
   1   3   6 995.590 33.7939   1
   2   2   7 461.227 23.3863  -2
   2   3   6 461.227 23.3863   1
   3   3   6 505.432 18.2645   1
   4   1   8 303.610 20.4017  -2
   4   3   6 303.610 20.4017   1
  -5   3   7 447.651 22.3923  -2
  -5   4   6 447.651 22.3923   1
  -4   3   7 413.999 20.7617  -2
  -4   4   6 413.999 20.7617   1
  -3   3   7 743.118 56.7744  -2
  -3   4   6 743.118 56.7744   1
  -2   4   6 401.924 19.3473   1
  -1   2   8 1238.51 50.0131  -2
  -1   4   6 1238.51 50.0131   1
   0   2   8 212.220 14.8231  -2
   0   4   6 212.220 14.8231   1
   1   4   6 1527.14 70.3090   1
   2   4   6 56.2078 4.92188   1
   3   1   9 472.219 18.3363  -2
   3   4   6 472.219 18.3363   1
   4   1   9 720.320 29.7498  -2
   4   4   6 720.320 29.7498   1
  -5   3   8 45.5096 14.3656  -2
  -5   5   6 45.5096 14.3656   1
  -4   5   6 240.680 13.6052   1
  -3   2   9 1196.51 69.2649  -2
  -3   5   6 1196.51 69.2649   1
  -2   2   9 187.262 10.7582  -2
  -2   5   6 187.262 10.7582   1
  -1   2   9 935.329 44.7740  -2
  -1   5   6 935.329 44.7740   1
   0   5   6 5.84686 5.57987   1
   1   1  10 940.807 77.4219  -2
   1   5   6 940.807 77.4219   1
   2   1  10 217.155 14.2017  -2
   2   5   6 217.155 14.2017   1
   3   5   6 196.749 14.0003   1
  -4   2  10 490.394 25.7197  -2
  -4   6   6 490.394 25.7197   1
  -3   2  10 446.627 28.7373  -2
  -3   6   6 446.627 28.7373   1
  -2   6   6 3.89148 5.18946   1
  -1   6   6 386.154 21.2727   1
   0   1  11 442.423 24.0671  -2
   0   6   6 442.423 24.0671   1
   1   1  11 270.623 23.7976  -2
   1   6   6 270.623 23.7976   1
   2   6   6 163.454 12.6269   1
  -3   7   6 227.632 25.1694   1
  -2   1  12 151.342 18.1439  -2
  -2   7   6 151.342 18.1439   1
  -1   1  12 370.655 26.7557  -2
  -1   7   6 370.655 26.7557   1
   0   7   6 137.870 11.8555   1
  -1  -8   7 38.7701 8.96641   1
   0  -8   7 474.514 29.5373   1
  -1  -7   8 388.606 27.1672  -2
   1  -8   7 388.606 27.1672   1
  -2  -7   8 378.723 22.8685  -2
   2  -8   7 378.723 22.8685   1
   3  -8   7 49.6541 9.53747   1
  -3  -7   7 18.9818 13.7433   1
  -2  -7   7 337.733 22.9702   1
  -1  -7   7 -1.9718 7.16181   1
   0  -7   7 607.749 57.3457  -2
   0  -7   7 607.749 57.3457   1
   1  -7   7 226.709 14.5307   1
   2  -7   7 78.4884 10.8241   1
  -3  -6   6 876.839 50.6092  -2
   3  -7   7 876.839 50.6092   1
  -4  -6   6 89.5963 13.4892  -2
   4  -7   7 89.5963 13.4892   1
  -4  -6   7 345.943 21.5552   1
  -3  -6   7 -2.2038 9.05834   1
   2  -7   6 777.874 76.5263  -2
  -2  -6   7 777.874 76.5263   1
   1  -7   6 419.404 24.4807  -2
  -1  -6   7 419.404 24.4807   1
   0  -6   7 499.216 21.2326   1
   1  -6   7 477.377 23.0890   1
  -2  -6   5 430.192 22.7267  -2
   2  -6   7 430.192 22.7267   1
  -3  -6   5 506.049 33.7223  -2
   3  -6   7 506.049 33.7223   1
   4  -6   7 32.9746 7.25253   1
  -5  -5   4 599.312 48.2253  -2
   5  -6   7 599.312 48.2253   1
   4  -7   5 779.604 47.8435  -2
  -4  -5   7 779.604 47.8435   1
   3  -7   5 112.533 19.6197  -2
  -3  -5   7 112.533 19.6197   1
  -2  -5   7 471.443 32.9233   1
  -1  -5   7 124.332 7.69465   1
   0  -6   4 359.595 19.9878  -2
   0  -5   7 359.595 19.9878   1
  -1  -6   4 946.736 50.1198  -2
   1  -5   7 946.736 50.1198   1
   2  -5   7 90.4047 8.82013   1
   3  -5   7 732.009 29.1359   1
  -4  -5   3 302.924 29.0524  -2
   4  -5   7 302.924 29.0524   1
  -5  -5   3 590.180 34.5137  -2
   5  -5   7 590.180 34.5137   1
   5  -7   4 26.4262 22.7753  -2
  -5  -4   7 26.4262 22.7753   1
   4  -7   4 787.876 53.9906  -2
  -4  -4   7 787.876 53.9906   1
  -3  -4   7 48.6785 8.18598   1
  -2  -4   7 433.427 22.4469   1
   1  -6   3 473.849 21.3676  -2
  -1  -4   7 473.849 21.3676   1
   0  -6   3 581.304 30.1189  -2
   0  -4   7 581.304 30.1189   1
   1  -4   7 869.766 38.1524   1
  -2  -5   2 -17.415 16.0038  -2
   2  -4   7 -17.415 16.0038   1
  -3  -5   2 1248.23 47.5279  -2
   3  -4   7 1248.23 47.5279   1
   4  -4   7 167.706 14.1379   1
   5  -4   7 159.059 11.4610   1
  -5  -3   7 0.83700 7.94919   1
  -4  -3   7 652.060 32.0922   1
   3  -6   2 614.849 31.1107  -2
  -3  -3   7 614.849 31.1107   1
   2  -6   2 629.154 30.9435  -2
  -2  -3   7 629.154 30.9435   1
  -1  -3   7 995.735 33.0076   1
   0  -3   7 35.9471 3.65570   1
  -1  -5   1 1419.14 49.4014  -2
   1  -3   7 1419.14 49.4014   1
  -2  -5   1 1452.88 55.2724  -2
   2  -3   7 1452.88 55.2724   1
   3  -3   7 419.290 16.1090   1
   4  -3   7 449.945 21.4682   1
   5   4   0 421.218 21.5636  -2
   5  -3   7 421.218 21.5636   1
  -5  -2   7 48.1735 23.4268   1
   4  -6   1 596.626 29.4779  -2
  -4  -2   7 596.626 29.4779   1
  -3  -2   7 716.827 33.9659   1
  -2  -2   7 319.806 14.7110   1
  -1   5   0 1431.96 72.8554  -2
  -1  -2   7 1431.96 72.8554   1
   0   5   0 303.390 10.0553  -2
   0  -2   7 303.390 10.0553   1
   1  -2   7 1267.45 40.8800   1
   2  -2   7 102.949 6.40374   1
   3   4   1 659.646 30.5695  -2
   3  -2   7 659.646 30.5695   1
   4   4   1 996.015 44.8652  -2
   4  -2   7 996.015 44.8652   1
   5  -2   7 101.403 8.89109   1
  -6   6   0 590.729 31.6680  -2
  -6  -1   7 590.729 31.6680   1
  -5   6   0 243.656 22.1634  -2
  -5  -1   7 243.656 22.1634   1
  -4  -1   7 301.131 15.0076   1
  -3  -1   7 686.117 28.7306   1
  -2   5   1 751.717 25.8925  -2
  -2  -1   7 751.717 25.8925   1
  -1   5   1 2529.40 110.007  -2
  -1  -1   7 2529.40 110.007   1
   0  -1   7 24.6963 2.32743   1
   1  -1   7 973.723 26.8870   1
   2   4   2 451.042 16.1992  -2
   2  -1   7 451.042 16.1992   1
   3   4   2 776.318 35.6125  -2
   3  -1   7 776.318 35.6125   1
   4  -1   7 437.024 20.9835   1
   5   3   3 216.069 21.7870  -2
   5  -1   7 216.069 21.7870   1
  -6   6   1 322.201 32.8128  -2
  -6   0   7 322.201 32.8128   1
  -5   0   7 246.397 14.6131   1
  -4   5   2 581.785 32.8482  -2
  -4   0   7 581.785 32.8482   1
  -3   5   2 1299.22 59.4991  -2
  -3   0   7 1299.22 59.4991   1
  -2   0   7 3.12949 2.64725   1
  -1   0   7 1446.62 55.4220   1
   0   4   3 1579.69 45.6915  -2
   0   0   7 1579.69 45.6915   1
   1   4   3 666.013 21.1841  -2
   1   0   7 666.013 21.1841   1
   2   0   7 881.224 30.7273   1
   3   0   7 188.972 10.8882   1
   4   3   4 658.371 38.8782  -2
   4   0   7 658.371 38.8782   1
   5   3   4 188.572 25.9771  -2
   5   0   7 188.572 25.9771   1
  -6   5   3 208.298 28.9883  -2
  -6   1   7 208.298 28.9883   1
  -5   5   3 735.747 32.3899  -2
  -5   1   7 735.747 32.3899   1
  -4   5   3 127.255 10.6112  -2
  -4   1   7 127.255 10.6112   1
  -3   1   7 751.521 25.8835   1
  -2   4   4 405.726 34.5785  -2
  -2   1   7 405.726 34.5785   1
  -1   4   4 1835.74 61.6141  -2
  -1   1   7 1835.74 61.6141   1
   0   1   7 857.849 26.8521   1
   1   1   7 500.298 16.0663   1
   2   3   5 1844.98 62.1894  -2
   2   1   7 1844.98 62.1894   1
   3   3   5 9.97320 5.04933  -2
   3   1   7 9.97320 5.04933   1
   4   1   7 813.315 37.0017   1
   5   1   7 45.5306 7.38419   1
  -6   5   4 305.027 20.1491  -2
  -6   2   7 305.027 20.1491   1
  -5   2   7 509.095 20.1947   1
  -4   2   7 -3.3366 4.28861   1
  -3   4   5 1339.16 45.4712  -2
  -3   2   7 1339.16 45.4712   1
  -2   4   5 754.136 35.8210  -2
  -2   2   7 754.136 35.8210   1
  -1   2   7 268.818 12.1782   1
   0   2   7 902.936 36.3319   1
   1   3   6 821.120 28.1529  -2
   1   2   7 821.120 28.1529   1
   2   3   6 1061.03 41.5301  -2
   2   2   7 1061.03 41.5301   1
   3   2   7 17.1966 4.20333   1
   4   2   7 765.351 57.0869  -2
   4   2   7 765.351 57.0869   1
  -5   4   6 519.739 21.4254  -2
  -5   3   7 519.739 21.4254   1
  -4   4   6 319.462 17.0842  -2
  -4   3   7 319.462 17.0842   1
  -3   4   6 797.395 59.8141  -2
  -3   3   7 797.395 59.8141   1
  -2   3   7 454.510 21.5623   1
  -1   3   7 532.460 22.9608  -2
  -1   3   7 532.460 22.9608   1
   0   3   7 500.801 21.3447  -2
   0   3   7 500.801 21.3447   1
   1   3   7 -3.0598 3.86292   1
   2   3   7 1021.25 35.8839   1
   3   2   8 581.123 21.9491  -2
   3   3   7 581.123 21.9491   1
   4   2   8 528.568 27.0453  -2
   4   3   7 528.568 27.0453   1
  -5   4   7 463.284 34.8382  -2
  -5   4   7 463.284 34.8382   1
  -4   4   7 35.5890 7.32874   1
  -3   4   7 260.976 19.3041   1
  -2   3   8 537.106 23.0967  -2
  -2   4   7 537.106 23.0967   1
  -1   3   8 591.044 25.6272  -2
  -1   4   7 591.044 25.6272   1
   0   4   7 608.315 28.3140   1
   1   2   9 35.9217 10.8504  -2
   1   4   7 35.9217 10.8504   1
   2   2   9 721.722 42.7258  -2
   2   4   7 721.722 42.7258   1
   3   2   9 356.635 33.0012  -2
   3   4   7 356.635 33.0012   1
  -4   3   9 329.581 21.1427  -2
  -4   5   7 329.581 21.1427   1
  -3   3   9 491.925 24.8017  -2
  -3   5   7 491.925 24.8017   1
  -2   5   7 347.677 17.7931   1
  -1   5   7 23.8249 8.54523   1
   0   2  10 855.642 49.9763  -2
   0   5   7 855.642 49.9763   1
   1   2  10 618.950 31.4911  -2
   1   5   7 618.950 31.4911   1
   2   5   7 224.388 14.5025   1
  -3   6   7 7.60475 5.83275   1
  -2   2  11 599.043 30.0113  -2
  -2   6   7 599.043 30.0113   1
  -1   2  11 177.816 12.5427  -2
  -1   6   7 177.816 12.5427   1
   0   6   7 371.174 20.5429   1
   1   6   7 130.824 14.7993   1
  -1  -8   8 430.958 22.7864   1
   0  -8   8 48.4337 13.7132  -2
   0  -8   8 48.4337 13.7132   1
   1  -8   8 212.530 17.7318   1
   2  -8   8 82.9904 12.0921   1
   2  -8   7 201.295 23.0957  -2
  -2  -7   8 201.295 23.0957   1
   1  -8   7 538.261 27.5577  -2
  -1  -7   8 538.261 27.5577   1
   0  -7   8 31.5552 8.02716   1
   1  -7   8 300.845 17.4682   1
  -2  -7   6 254.279 21.7748  -2
   2  -7   8 254.279 21.7748   1
  -3  -7   6 247.522 21.2700  -2
   3  -7   8 247.522 21.2700   1
   3  -8   6 655.585 44.6864  -2
  -3  -6   8 655.585 44.6864   1
  -2  -6   8 -11.971 12.5187   1
  -1  -6   8 374.109 21.7098   1
   0  -7   5 541.233 32.2682  -2
   0  -6   8 541.233 32.2682   1
  -1  -7   5 279.639 17.3027  -2
   1  -6   8 279.639 17.3027   1
   2  -6   8 248.939 18.9770   1
   3  -6   8 3.91949 7.88919   1
  -4  -6   4 480.435 30.6337  -2
   4  -6   8 480.435 30.6337   1
   4  -8   5 2.96054 27.7932  -2
  -4  -5   8 2.96054 27.7932   1
  -3  -5   8 408.837 23.2619   1
  -2  -5   8 115.376 17.2501   1
   1  -7   4 682.603 24.9994  -2
  -1  -5   8 682.603 24.9994   1
   0  -7   4 361.479 27.6978  -2
   0  -5   8 361.479 27.6978   1
   1  -5   8 148.521 11.5595   1
   2  -5   8 613.613 28.3579   1
  -3  -6   3 59.0633 9.61166  -2
   3  -5   8 59.0633 9.61166   1
  -4  -6   3 584.373 47.0554  -2
   4  -5   8 584.373 47.0554   1
   5  -5   8 80.2183 10.1665   1
  -5  -4   8 436.498 36.6009   1
  -4  -4   8 -9.0515 9.06026   1
   3  -7   3 706.836 44.4302  -2
  -3  -4   8 706.836 44.4302   1
   2  -7   3 1080.91 67.1193  -2
  -2  -4   8 1080.91 67.1193   1
  -1  -4   8 426.571 16.4280   1
   0  -4   8 762.021 28.0770   1
  -1  -6   2 790.880 31.8927  -2
   1  -4   8 790.880 31.8927   1
  -2  -6   2 1087.93 48.7388  -2
   2  -4   8 1087.93 48.7388   1
   3  -4   8 24.4296 5.13366   1
   4  -4   8 367.529 19.1749   1
  -5  -5   1 321.237 20.6746  -2
   5  -4   8 321.237 20.6746   1
   5  -7   2 644.833 39.9475  -2
  -5  -3   8 644.833 39.9475   1
   4  -7   2 242.891 16.6712  -2
  -4  -3   8 242.891 16.6712   1
   3  -7   2 823.948 81.9309  -2
  -3  -3   8 823.948 81.9309   1
  -2  -3   8 564.159 24.5114   1
   1  -6   1 201.141 14.0079  -2
  -1  -3   8 201.141 14.0079   1
   0  -6   1 1948.61 66.0163  -2
   0  -3   8 1948.61 66.0163   1
   1  -3   8 0.99892 4.90940   1
   2  -3   8 579.631 22.9656   1
   3   5   0 467.651 19.8153  -2
   3  -3   8 467.651 19.8153   1
   4   5   0 560.263 53.5033  -2
   4  -3   8 560.263 53.5033   1
   5  -3   8 212.772 13.3656   1
   5  -7   1 608.740 33.1792  -2
  -5  -2   8 608.740 33.1792   1
  -4  -2   8 271.474 15.3465   1
  -3  -2   8 311.974 15.4345   1
  -2   6   0 449.758 20.3191  -2
  -2  -2   8 449.758 20.3191   1
  -1   6   0 623.397 25.3581  -2
  -1  -2   8 623.397 25.3581   1
   0  -2   8 829.378 28.6815   1
   1  -2   8 160.144 7.86371   1
   2   5   1 1406.13 44.7419  -2
   2  -2   8 1406.13 44.7419   1
   3   5   1 506.665 30.6469  -2
   3  -2   8 506.665 30.6469   1
   4  -2   8 249.918 14.0701   1
   5   4   2 633.125 31.6776  -2
   5  -2   8 633.125 31.6776   1
  -5  -1   8 283.416 17.5439   1
  -4   6   1 618.042 38.6000  -2
  -4  -1   8 618.042 38.6000   1
  -3   6   1 414.771 19.4463  -2
  -3  -1   8 414.771 19.4463   1
  -2  -1   8 794.689 27.3847   1
  -1  -1   8 0.08883 3.24066   1
   0   5   2 1229.11 41.8591  -2
   0  -1   8 1229.11 41.8591   1
   1   5   2 1280.88 40.9465  -2
   1  -1   8 1280.88 40.9465   1
   2  -1   8 447.651 18.1195   1
   3  -1   8 842.989 37.8279   1
   4   4   3 346.452 18.7590  -2
   4  -1   8 346.452 18.7590   1
   5   4   3 755.156 36.0681  -2
   5  -1   8 755.156 36.0681   1
  -5   6   2 433.016 23.3555  -2
  -5   0   8 433.016 23.3555   1
  -4   6   2 677.722 35.5882  -2
  -4   0   8 677.722 35.5882   1
  -3   0   8 21.5044 5.14238   1
  -2   5   3 2085.20 166.849  -2
  -2   0   8 2085.20 166.849   1
  -1   5   3 352.448 14.8660  -2
  -1   0   8 352.448 14.8660   1
   0   0   8 1257.57 48.3237   1
   1   0   8 405.655 13.0710   1
   2   4   4 414.396 20.6544  -2
   2   0   8 414.396 20.6544   1
   3   4   4 892.884 40.3033  -2
   3   0   8 892.884 40.3033   1
   4   0   8 29.5708 6.21919   1
   5   0   8 459.341 23.0213   1
  -5   1   8 55.7621 7.16327   1
  -4   1   8 426.194 17.1956   1
  -3   5   4 279.530 11.7331  -2
  -3   1   8 279.530 11.7331   1
  -2   5   4 1219.82 41.6824  -2
  -2   1   8 1219.82 41.6824   1
  -1   1   8 235.116 10.3161   1
   0   1   8 508.666 17.7604   1
   1   4   5 416.637 15.2076  -2
   1   1   8 416.637 15.2076   1
   2   4   5 707.666 32.8262  -2
   2   1   8 707.666 32.8262   1
   3   1   8 401.156 19.6730   1
   4   3   6 242.815 25.5705  -2
   4   1   8 242.815 25.5705   1
  -5   5   5 288.089 20.4909  -2
  -5   2   8 288.089 20.4909   1
  -4   5   5 555.432 24.9876  -2
  -4   2   8 555.432 24.9876   1
  -3   2   8 184.026 8.70901   1
  -2   2   8 767.343 42.1755   1
  -1   4   6 1146.68 53.5062  -2
  -1   2   8 1146.68 53.5062   1
   0   4   6 276.040 15.3334  -2
   0   2   8 276.040 15.3334   1
   1   2   8 329.009 14.1299   1
   2   2   8 79.9189 10.6369   1
   3   3   7 690.856 37.1078  -2
   3   2   8 690.856 37.1078   1
   4   3   7 325.468 19.3377  -2
   4   2   8 325.468 19.3377   1
  -5   5   6 32.5944 12.4393  -2
  -5   3   8 32.5944 12.4393   1
  -4   3   8 444.114 19.3207   1
  -3   3   8 218.549 16.7776   1
  -2   4   7 481.839 20.9997  -2
  -2   3   8 481.839 20.9997   1
  -1   4   7 776.806 46.0427  -2
  -1   3   8 776.806 46.0427   1
   0   3   8 48.6629 5.45673   1
   1   3   8 1593.14 71.5689  -2
   1   3   8 1593.14 71.5689   1
   2   3   8 91.9648 9.70570  -2
   2   3   8 91.9648 9.70570   1
   3   3   8 494.737 20.9679   1
  -4   4   8 492.942 27.5679  -2
  -4   4   8 492.942 27.5679   1
  -3   4   8 422.216 26.2927  -2
  -3   4   8 422.216 26.2927   1
  -2   4   8 194.315 11.6309   1
  -1   4   8 357.251 18.0691   1
   0   3   9 356.817 23.1517  -2
   0   4   8 356.817 23.1517   1
   1   3   9 1099.03 60.8341  -2
   1   4   8 1099.03 60.8341   1
   2   4   8 88.4446 8.11253   1
  -4   4   9 248.536 25.8292  -2
  -4   5   8 248.536 25.8292   1
  -3   5   8 265.754 16.2647   1
  -2   3  10 148.712 15.4820  -2
  -2   5   8 148.712 15.4820   1
  -1   3  10 902.095 74.7892  -2
  -1   5   8 902.095 74.7892   1
   0   5   8 44.1807 6.10534   1
   1   5   8 247.638 15.7204   1
  -2   3  11 133.065 28.9614  -2
  -2   6   8 133.065 28.9614   1
  -1   6   8 394.179 25.5468   1
   1  -8   9 49.6340 9.52869   1
  -2  -7   9 297.339 19.4177   1
  -1  -7   9 30.9856 10.3170   1
   0  -8   6 350.364 22.1283  -2
   0  -7   9 350.364 22.1283   1
  -1  -8   6 651.601 31.7349  -2
   1  -7   9 651.601 31.7349   1
   2  -7   9 174.846 22.9683   1
   3  -7   9 247.979 17.0514   1
  -3  -6   9 -0.7331 15.8267   1
  -2  -6   9 463.526 33.7842   1
   1  -8   5 129.209 14.2330  -2
  -1  -6   9 129.209 14.2330   1
   0  -8   5 607.420 53.7283  -2
   0  -6   9 607.420 53.7283   1
   1  -6   9 266.760 16.1115   1
  -2  -7   4 98.1919 31.9988  -2
   2  -6   9 98.1919 31.9988   1
  -3  -7   4 596.005 29.2967  -2
   3  -6   9 596.005 29.2967   1
   4  -6   9 3.09505 10.0369   1
  -4  -5   9 269.416 19.4695   1
   3  -8   4 174.899 22.6268  -2
  -3  -5   9 174.899 22.6268   1
   2  -8   4 478.308 36.6701  -2
  -2  -5   9 478.308 36.6701   1
  -1  -5   9 232.369 13.2883   1
   0  -5   9 395.435 21.5768   1
  -1  -7   3 226.672 16.3518  -2
   1  -5   9 226.672 16.3518   1
  -2  -7   3 240.496 23.0246  -2
   2  -5   9 240.496 23.0246   1
   3  -5   9 361.503 19.9315   1
   4  -5   9 22.5405 8.82310   1
   4  -8   3 726.312 36.7892  -2
  -4  -4   9 726.312 36.7892   1
   3  -8   3 179.071 33.4037  -2
  -3  -4   9 179.071 33.4037   1
  -2  -4   9 484.358 33.6083   1
   1  -7   2 818.356 30.9627  -2
  -1  -4   9 818.356 30.9627   1
   0  -7   2 118.129 9.86652  -2
   0  -4   9 118.129 9.86652   1
   1  -4   9 613.249 28.3769   1
   2  -4   9 48.0435 6.08723   1
  -3  -6   1 386.374 21.0474  -2
   3  -4   9 386.374 21.0474   1
  -4  -6   1 362.085 23.5528  -2
   4  -4   9 362.085 23.5528   1
  -5  -3   9 50.4320 13.5935   1
  -4  -3   9 492.430 26.7287   1
  -3  -3   9 606.528 26.9821   1
   2  -7   1 773.539 33.3285  -2
  -2  -3   9 773.539 33.3285   1
   1  -7   1 342.452 18.0987  -2
  -1  -3   9 342.452 18.0987   1
   0  -3   9 4.48721 5.10202   1
   1  -3   9 816.470 38.4856   1
   2   6   0 156.119 9.54069  -2
   2  -3   9 156.119 9.54069   1
   3   6   0 697.770 38.6862  -2
   3  -3   9 697.770 38.6862   1
   4  -3   9 135.910 10.9018   1
  -5  -2   9 89.0367 11.7960   1
  -4   7   0 398.428 26.3872  -2
  -4  -2   9 398.428 26.3872   1
  -3   7   0 795.772 39.8201  -2
  -3  -2   9 795.772 39.8201   1
  -2  -2   9 46.9256 6.27502   1
  -1  -2   9 708.604 28.2711   1
   0   6   1 701.330 28.3085  -2
   0  -2   9 701.330 28.3085   1
   1   6   1 943.956 37.5061  -2
   1  -2   9 943.956 37.5061   1
   2  -2   9 137.196 7.39428   1
   3  -2   9 492.764 23.4292   1
   4   5   2 556.935 34.9472  -2
   4  -2   9 556.935 34.9472   1
  -5   7   1 323.984 26.2102  -2
  -5  -1   9 323.984 26.2102   1
  -4   7   1 521.342 32.0214  -2
  -4  -1   9 521.342 32.0214   1
  -3  -1   9 258.879 13.4625   1
  -2   6   2 209.068 23.0568  -2
  -2  -1   9 209.068 23.0568   1
  -1   6   2 1569.46 60.4650  -2
  -1  -1   9 1569.46 60.4650   1
   0   6   2 315.314 27.8279  -2
   0  -1   9 315.314 27.8279   1
   1  -1   9 975.717 38.1044   1
   2   5   3 783.344 31.2864  -2
   2  -1   9 783.344 31.2864   1
   3   5   3 435.553 27.1773  -2
   3  -1   9 435.553 27.1773   1
   4  -1   9 389.964 19.5490   1
  -5   0   9 159.995 11.7141   1
  -4   0   9 31.5279 6.36683   1
  -3   6   3 757.995 36.1796  -2
  -3   0   9 757.995 36.1796   1
  -2   6   3 289.950 12.5732  -2
  -2   0   9 289.950 12.5732   1
  -1   0   9 845.424 33.1285   1
   0   0   9 367.045 15.2722   1
   1   5   4 1059.06 41.4461  -2
   1   0   9 1059.06 41.4461   1
   2   5   4 766.125 35.4681  -2
   2   0   9 766.125 35.4681   1
   3   0   9 19.3788 5.88232   1
   4   4   5 700.327 54.0265  -2
   4   0   9 700.327 54.0265   1
  -5   6   4 317.937 22.5005  -2
  -5   1   9 317.937 22.5005   1
  -4   6   4 83.4081 10.2787  -2
  -4   1   9 83.4081 10.2787   1
  -3   1   9 485.506 20.1842   1
  -2   1   9 157.299 8.32219   1
  -1   5   5 609.832 24.7739  -2
  -1   1   9 609.832 24.7739   1
   0   5   5 1058.71 32.6591  -2
   0   1   9 1058.71 32.6591   1
   1   1   9 126.391 7.16859   1
   2   1   9 548.769 22.3209   1
   3   4   6 363.697 22.2084  -2
   3   1   9 363.697 22.2084   1
   4   4   6 775.870 36.8153  -2
   4   1   9 775.870 36.8153   1
  -5   6   5 594.373 35.8702  -2
  -5   2   9 594.373 35.8702   1
  -4   2   9 19.4045 5.35366   1
  -3   5   6 1196.04 97.4914  -2
  -3   2   9 1196.04 97.4914   1
  -2   5   6 194.086 12.6054  -2
  -2   2   9 194.086 12.6054   1
  -1   5   6 669.343 32.6395  -2
  -1   2   9 669.343 32.6395   1
   0   2   9 521.117 29.6958   1
   1   4   7 12.9706 10.8312  -2
   1   2   9 12.9706 10.8312   1
   2   4   7 886.153 45.8796  -2
   2   2   9 886.153 45.8796   1
   3   4   7 220.450 19.9612  -2
   3   2   9 220.450 19.9612   1
  -4   5   7 244.549 17.5434  -2
  -4   3   9 244.549 17.5434   1
  -3   5   7 407.929 27.7315  -2
  -3   3   9 407.929 27.7315   1
  -2   3   9 219.316 14.3419   1
  -1   3   9 154.571 11.4537   1
   0   4   8 410.957 25.2055  -2
   0   3   9 410.957 25.2055   1
   1   4   8 498.762 32.2969  -2
   1   3   9 498.762 32.2969   1
   2   3   9 440.988 22.9080   1
  -4   5   8 149.944 22.4358  -2
  -4   4   9 149.944 22.4358   1
  -3   4   9 59.2997 11.0191   1
  -2   4   9 718.554 41.8438  -2
  -2   4   9 718.554 41.8438   1
  -1   4   9 0.74354 10.1184  -2
  -1   4   9 0.74354 10.1184   1
   0   4   9 720.730 57.2527  -2
   0   4   9 720.730 57.2527   1
   1   4   9 88.7071 8.81451   1
  -2   4  10 454.113 32.5502  -2
  -2   5   9 454.113 32.5502   1
  -1   5   9 10.3650 6.05557   1
   0   3  11 929.656 55.7106  -2
   0   5   9 929.656 55.7106   1
   1  -9   6 722.113 42.2015  -2
  -1  -7  10 722.113 42.2015   1
   0  -7  10 43.9083 8.80552   1
   1  -7  10 272.766 20.2632   1
  -2  -8   5 348.094 29.6595  -2
   2  -7  10 348.094 29.6595   1
   2  -9   5 205.363 20.0661  -2
  -2  -6  10 205.363 20.0661   1
  -1  -6  10 316.479 19.8163   1
   0  -6  10 176.355 12.9185   1
  -1  -8   4 587.238 35.7434  -2
   1  -6  10 587.238 35.7434   1
  -2  -8   4 317.742 35.0942  -2
   2  -6  10 317.742 35.0942   1
   3  -6  10 13.9393 9.29290   1
  -3  -5  10 156.991 22.3038   1
  -2  -5  10 128.927 19.2572   1
   1  -8   3 111.250 35.6063  -2
  -1  -5  10 111.250 35.6063   1
   0  -8   3 720.559 46.5085  -2
   0  -5  10 720.559 46.5085   1
   1  -5  10 50.5332 7.73312   1
   2  -5  10 558.884 27.1427   1
  -3  -7   2 159.896 19.7002  -2
   3  -5  10 159.896 19.7002   1
  -4  -4  10 7.66875 9.92395   1
  -3  -4  10 453.685 25.4006   1
   2  -8   2 335.113 27.1868  -2
  -2  -4  10 335.113 27.1868   1
   1  -8   2 846.528 43.3745  -2
  -1  -4  10 846.528 43.3745   1
   0  -4  10 383.352 15.9589   1
   1  -4  10 8.48938 7.24201   1
  -2  -7   1 828.111 37.5655  -2
   2  -4  10 828.111 37.5655   1
  -3  -7   1 254.249 21.9976  -2
   3  -4  10 254.249 21.9976   1
   4  -4  10 290.258 19.4373   1
   4  -8   1 147.702 24.6413  -2
  -4  -3  10 147.702 24.6413   1
   3  -8   1 335.518 21.1458  -2
  -3  -3  10 335.518 21.1458   1
  -2  -3  10 272.758 15.3122   1
  -1  -3  10 0.48924 5.42953   1
   0   7   0 660.528 27.6100  -2
   0  -3  10 660.528 27.6100   1
   1   7   0 425.590 19.8415  -2
   1  -3  10 425.590 19.8415   1
   2  -3  10 319.587 15.3517   1
   3  -3  10 108.029 10.2715   1
   4   6   1 370.282 20.7620  -2
   4  -3  10 370.282 20.7620   1
  -4   8   0 338.827 30.7890  -2
  -4  -2  10 338.827 30.7890   1
  -3  -2  10 186.942 12.3582   1
  -2   7   1 597.711 35.4521  -2
  -2  -2  10 597.711 35.4521   1
  -1   7   1 3.90349 7.89304  -2
  -1  -2  10 3.90349 7.89304   1
   0   7   1 873.957 51.0121  -2
   0  -2  10 873.957 51.0121   1
   1  -2  10 150.901 9.66982   1
   2   6   2 532.720 23.3620  -2
   2  -2  10 532.720 23.3620   1
   3   6   2 670.893 31.6955  -2
   3  -2  10 670.893 31.6955   1
   4  -2  10 59.8553 8.08352   1
  -4  -1  10 274.461 15.3231   1
  -3   7   2 282.043 16.2228  -2
  -3  -1  10 282.043 16.2228   1
  -2   7   2 1000.33 47.2715  -2
  -2  -1  10 1000.33 47.2715   1
  -1  -1  10 13.3008 5.15454   1
   0  -1  10 751.953 30.0995   1
   1   6   3 232.324 13.7722  -2
   1  -1  10 232.324 13.7722   1
   2   6   3 577.175 24.6773  -2
   2  -1  10 577.175 24.6773   1
   3  -1  10 460.430 22.5731   1
   4   5   4 212.307 27.2573  -2
   4  -1  10 212.307 27.2573   1
  -4   7   3 595.254 26.9199  -2
  -4   0  10 595.254 26.9199   1
  -3   0  10 3.66428 5.00821   1
  -2   0  10 636.603 25.6512   1
  -1   6   4 557.125 28.0748  -2
  -1   0  10 557.125 28.0748   1
   0   6   4 534.865 26.6648  -2
   0   0  10 534.865 26.6648   1
   1   0  10 274.005 13.2850   1
   2   0  10 114.526 8.44216   1
   3   5   5 642.253 35.4762  -2
   3   0  10 642.253 35.4762   1
  -4   1  10 360.939 19.6356   1
  -3   6   5 31.7239 15.7025  -2
  -3   1  10 31.7239 15.7025   1
  -2   6   5 681.229 40.5663  -2
  -2   1  10 681.229 40.5663   1
  -1   6   5 187.262 13.6198  -2
  -1   1  10 187.262 13.6198   1
   0   1  10 200.528 10.6556   1
   1   5   6 865.331 48.3475  -2
   1   1  10 865.331 48.3475   1
   2   5   6 156.782 10.6018  -2
   2   1  10 156.782 10.6018   1
   3   5   6 582.558 37.2196  -2
   3   1  10 582.558 37.2196   1
  -4   6   6 501.866 35.4020  -2
  -4   2  10 501.866 35.4020   1
  -3   6   6 234.556 16.0943  -2
  -3   2  10 234.556 16.0943   1
  -2   2  10 252.262 17.1064   1
  -1   2  10 471.827 27.5079   1
   0   5   7 618.336 35.5042  -2
   0   2  10 618.336 35.5042   1
   1   5   7 887.370 55.1846  -2
   1   2  10 887.370 55.1846   1
   2   2  10 1.58355 6.54936   1
  -3   3  10 115.554 10.6975   1
  -2   5   8 127.156 15.1354  -2
  -2   3  10 127.156 15.1354   1
  -1   5   8 656.754 39.6331  -2
  -1   3  10 656.754 39.6331   1
   0   5   8 55.6706 23.1156  -2
   0   3  10 55.6706 23.1156   1
   1   3  10 530.198 31.0791   1
  -2   5   9 240.780 23.0545  -2
  -2   4  10 240.780 23.0545   1
  -1   4  10 344.463 24.1214   1
   0   4  10 14.2348 15.6105  -2
   0   4  10 14.2348 15.6105   1
   1  -9   4 290.408 25.7011  -2
  -1  -6  11 290.408 25.7011   1
   0  -9   4 210.188 19.5142  -2
   0  -6  11 210.188 19.5142   1
   1  -6  11 189.965 14.7050   1
   2  -6  11 31.9171 10.0062   1
   2  -9   3 440.194 26.1838  -2
  -2  -5  11 440.194 26.1838   1
   1  -9   3 149.128 28.3148  -2
  -1  -5  11 149.128 28.3148   1
   0  -5  11 120.305 10.1860   1
  -1  -8   2 448.233 32.2378  -2
   1  -5  11 448.233 32.2378   1
  -2  -8   2 176.008 27.9894  -2
   2  -5  11 176.008 27.9894   1
   3  -9   2 181.353 19.7366  -2
  -3  -4  11 181.353 19.7366   1
  -2  -4  11 221.487 18.8831   1
  -1  -4  11 392.945 19.8366   1
   0  -8   1 272.355 15.8831  -2
   0  -4  11 272.355 15.8831   1
  -1  -8   1 658.269 34.4969  -2
   1  -4  11 658.269 34.4969   1
   2  -4  11 20.0382 7.87999   1
   3  -4  11 244.427 18.6353   1
  -3  -3  11 245.869 17.2611   1
  -2   8   0 92.5972 24.7362  -2
  -2  -3  11 92.5972 24.7362   1
  -1   8   0 727.786 39.0566  -2
  -1  -3  11 727.786 39.0566   1
   0   8   0 59.5034 17.7672  -2
   0  -3  11 59.5034 17.7672   1
   1  -3  11 447.587 20.0424   1
   2   7   1 300.929 21.4327  -2
   2  -3  11 300.929 21.4327   1
   3   7   1 425.208 23.1402  -2
   3  -3  11 425.208 23.1402   1
  -4  -2  11 100.285 10.5227   1
  -3   8   1 480.205 26.3851  -2
  -3  -2  11 480.205 26.3851   1
  -2   8   1 303.383 20.9530  -2
  -2  -2  11 303.383 20.9530   1
  -1  -2  11 591.057 29.0639   1
   0   7   2 51.1491 18.4724  -2
   0  -2  11 51.1491 18.4724   1
   1   7   2 820.897 33.3676  -2
   1  -2  11 820.897 33.3676   1
   2   7   2 452.349 26.1290  -2
   2  -2  11 452.349 26.1290   1
   3  -2  11 136.931 12.1551   1
  -4   8   2 144.934 15.6433  -2
  -4  -1  11 144.934 15.6433   1
  -3  -1  11 489.444 22.6100   1
  -2  -1  11 11.1908 5.74707   1
  -1   7   3 555.485 29.0761  -2
  -1  -1  11 555.485 29.0761   1
   0   7   3 335.767 16.6571  -2
   0  -1  11 335.767 16.6571   1
   1  -1  11 236.469 12.6830   1
   2  -1  11 388.378 17.6558   1
   3   6   4 219.139 17.0601  -2
   3  -1  11 219.139 17.0601   1
  -4   0  11 19.9359 7.02910   1
  -3   7   4 793.900 67.0689  -2
  -3   0  11 793.900 67.0689   1
  -2   7   4 37.3216 7.76006  -2
  -2   0  11 37.3216 7.76006   1
  -1   7   4 538.751 34.5489  -2
  -1   0  11 538.751 34.5489   1
   0   0  11 206.303 13.0452   1
   1   6   5 227.523 16.1004  -2
   1   0  11 227.523 16.1004   1
   2   6   5 497.927 28.5727  -2
   2   0  11 497.927 28.5727   1
  -3   7   5 309.057 18.5456  -2
  -3   1  11 309.057 18.5456   1
  -2   1  11 36.5585 6.95016   1
  -1   1  11 184.360 13.3978   1
   0   6   6 521.355 30.9782  -2
   0   1  11 521.355 30.9782   1
   1   6   6 196.932 15.6689  -2
   1   1  11 196.932 15.6689   1
   2   1  11 409.057 27.0673   1
  -3   2  11 186.497 13.8628   1
  -2   6   7 489.471 30.5167  -2
  -2   2  11 489.471 30.5167   1
  -1   6   7 206.851 14.5740  -2
  -1   2  11 206.851 14.5740   1
   0   6   7 784.724 62.0333  -2
   0   2  11 784.724 62.0333   1
   1   2  11 8.86747 7.18852   1
  -2   6   8 263.132 39.2376  -2
  -2   3  11 263.132 39.2376   1
  -1   3  11 30.1460 8.03243   1
   0   5   9 858.818 49.9143  -2
   0   3  11 858.818 49.9143   1
  -1  -5  12 84.0259 11.6041   1
   0  -9   2 304.993 28.4039  -2
   0  -5  12 304.993 28.4039   1
   1  -5  12 32.0101 10.2916   1
   2  -9   1 482.306 48.6694  -2
  -2  -4  12 482.306 48.6694   1
   1  -9   1 90.0612 13.2988  -2
  -1  -4  12 90.0612 13.2988   1
   0  -9   1 449.273 28.8226  -2
   0  -4  12 449.273 28.8226   1
   1  -4  12 3.43405 8.65247   1
   2   8   0 418.559 30.6322  -2
   2  -4  12 418.559 30.6322   1
  -2   9   0 497.640 49.3479  -2
  -2  -3  12 497.640 49.3479   1
  -1  -3  12 7.47124 8.78855   1
   0  -3  12 347.501 19.7259   1
   1   8   1 217.714 14.0912  -2
   1  -3  12 217.714 14.0912   1
   2   8   1 326.984 45.7042  -2
   2  -3  12 326.984 45.7042   1
  -3  -2  12 70.9236 9.36939   1
  -2  -2  12 582.625 29.6080   1
  -1   8   2 188.280 15.5296  -2
  -1  -2  12 188.280 15.5296   1
   0   8   2 529.015 27.3364  -2
   0  -2  12 529.015 27.3364   1
   1  -2  12 100.507 8.79764   1
   2  -2  12 119.134 11.9917   1
  -3   8   3 19.5802 20.3826  -2
  -3  -1  12 19.5802 20.3826   1
  -2   8   3 735.775 36.3253  -2
  -2  -1  12 735.775 36.3253   1
  -1   8   3 73.0705 15.5481  -2
  -1  -1  12 73.0705 15.5481   1
   0  -1  12 227.499 13.2732   1
   1   7   4 357.186 35.9713  -2
   1  -1  12 357.186 35.9713   1
   2   7   4 256.982 20.1058  -2
   2  -1  12 256.982 20.1058   1
  -3   0  12 132.658 27.6305   1
  -2   0  12 210.099 14.2095   1
  -1   7   5 64.9385 18.5763  -2
  -1   0  12 64.9385 18.5763   1
   0   7   5 387.097 28.2881  -2
   0   0  12 387.097 28.2881   1
   1   7   5 554.403 29.7913  -2
   1   0  12 554.403 29.7913   1
  -2   7   6 152.171 16.2123  -2
  -2   1  12 152.171 16.2123   1
  -1   7   6 408.702 27.8107  -2
  -1   1  12 408.702 27.8107   1
   0   7   6 204.865 23.1942  -2
   0   1  12 204.865 23.1942   1
   0  -2  13 75.5770 14.3840   1
   0   0   0    0.00    0.00   0
;
_shelx_hkl_checksum              34105
#END Tags that were not found in dictionaries
loop_
_space_group_symop_operation_xyz
'x, y, z'
'-x, -y, -z'
loop_
_atom_site_label
_atom_site_type_symbol
_atom_site_fract_x
_atom_site_fract_y
_atom_site_fract_z
_atom_site_U_iso_or_equiv
_atom_site_adp_type
_atom_site_occupancy
_atom_site_site_symmetry_order
_atom_site_calc_flag
_atom_site_refinement_flags_posn
_atom_site_refinement_flags_adp
Pt1 Pt 0.28815(9) 0.54056(8) 0.76117(5) 0.0283(3) Uani 1 1 d . .
O1 O -0.078(2) 0.1587(15) 0.8667(11) 0.044(3) Uani 1 1 d . .
O2 O 0.1312(19) 0.4075(18) 0.8720(11) 0.047(3) Uani 1 1 d . .
F1 F 0.1132(16) 0.3426(14) 0.5232(9) 0.047(3) Uani 1 1 d . .
F2 F 0.3039(16) 0.2197(13) 0.6266(11) 0.050(3) Uani 1 1 d . .
F3 F -0.1961(16) 0.3322(14) 0.6627(10) 0.048(3) Uani 1 1 d . .
F4 F -0.1024(19) 0.0860(14) 0.6248(10) 0.051(3) Uani 1 1 d . .
C1 C 0.161(3) 0.327(2) 0.6308(18) 0.043(5) Uani 1 1 d . .
C2 C -0.034(2) 0.2474(19) 0.6841(14) 0.027(3) Uani 1 1 d . .
C3 C 0.006(3) 0.270(3) 0.8202(17) 0.040(4) Uani 1 1 d . .
C4 C 0.730(3) 0.720(2) 0.8763(14) 0.039(4) Uani 1 1 d . .
H4A H 0.8273 0.8197 0.9273 0.046 Uiso 1 1 calc R U
H4B H 0.7857 0.6204 0.8880 0.046 Uiso 1 1 calc R U
C5 C 0.504(3) 0.711(2) 0.9212(14) 0.040(4) Uani 1 1 d . .
H5A H 0.4890 0.6762 0.9990 0.048 Uiso 1 1 calc R U
C6 C 0.354(3) 0.800(2) 0.8898(16) 0.041(4) Uani 1 1 d . .
H6A H 0.2438 0.8166 0.9478 0.050 Uiso 1 1 calc R U
C7 C 0.391(3) 0.930(2) 0.8193(17) 0.045(5) Uani 1 1 d . .
H7A H 0.5455 0.9834 0.8337 0.054 Uiso 1 1 calc R U
H7B H 0.3070 1.0166 0.8488 0.054 Uiso 1 1 calc R U
C8 C 0.332(3) 0.866(2) 0.6846(18) 0.038(4) Uani 1 1 d . .
H8A H 0.1786 0.8688 0.6659 0.046 Uiso 1 1 calc R U
H8B H 0.4184 0.9429 0.6430 0.046 Uiso 1 1 calc R U
C9 C 0.366(3) 0.6941(19) 0.6361(14) 0.027(3) Uani 1 1 d . .
H9A H 0.2933 0.6437 0.5536 0.033 Uiso 1 1 calc R U
C10 C 0.547(3) 0.628(2) 0.6627(14) 0.031(4) Uani 1 1 d . .
H10A H 0.5807 0.5405 0.5962 0.037 Uiso 1 1 calc R U
C11 C 0.744(3) 0.731(2) 0.7496(17) 0.038(4) Uani 1 1 d . .
H11A H 0.8747 0.6912 0.7224 0.046 Uiso 1 1 calc R U
H11B H 0.7597 0.8496 0.7449 0.046 Uiso 1 1 calc R U
loop_
_atom_site_aniso_label
_atom_site_aniso_U_11
_atom_site_aniso_U_22
_atom_site_aniso_U_33
_atom_site_aniso_U_23
_atom_site_aniso_U_13
_atom_site_aniso_U_12
Pt1 0.0191(3) 0.0334(4) 0.0284(4) 0.0042(2) -0.0003(2) -0.0018(3)
O1 0.043(7) 0.043(7) 0.040(7) 0.016(6) 0.000(6) -0.012(6)
O2 0.027(7) 0.070(9) 0.038(7) 0.022(7) -0.005(5) -0.014(6)
F1 0.040(6) 0.061(7) 0.028(5) 0.002(5) 0.000(4) -0.009(5)
F2 0.032(6) 0.047(6) 0.071(7) 0.013(5) 0.006(5) 0.009(5)
F3 0.026(5) 0.057(7) 0.059(7) 0.015(5) -0.004(5) 0.003(5)
F4 0.049(6) 0.045(6) 0.046(6) -0.001(5) -0.003(5) -0.007(5)
C1 0.041(10) 0.032(9) 0.059(13) 0.016(9) -0.002(9) 0.007(8)
C2 0.017(8) 0.028(8) 0.029(8) 0.003(7) -0.008(6) -0.006(6)
C3 0.017(8) 0.058(12) 0.044(11) 0.020(9) -0.010(7) -0.005(8)
C4 0.033(9) 0.046(10) 0.024(8) -0.009(7) -0.012(7) -0.002(7)
C5 0.036(9) 0.053(11) 0.022(8) 0.002(7) -0.004(7) -0.004(9)
C6 0.024(9) 0.050(11) 0.035(10) -0.010(8) -0.001(7) -0.007(8)
C7 0.031(10) 0.039(10) 0.052(12) -0.012(9) 0.009(8) -0.003(8)
C8 0.033(9) 0.022(8) 0.074(13) 0.032(8) 0.016(8) 0.012(7)
C9 0.027(8) 0.027(8) 0.029(8) 0.012(7) 0.001(6) 0.000(6)
C10 0.024(9) 0.044(10) 0.027(8) 0.010(7) 0.013(7) 0.004(7)
C11 0.019(8) 0.042(10) 0.055(11) 0.023(9) 0.000(8) -0.002(7)
loop_
_atom_type_symbol
_atom_type_description
_atom_type_scat_dispersion_real
_atom_type_scat_dispersion_imag
_atom_type_scat_source
C C 0.0033 0.0016 'International Tables Vol C Tables 4.2.6.8 and 6.1.1.4'
H H 0.0000 0.0000 'International Tables Vol C Tables 4.2.6.8 and 6.1.1.4'
O O 0.0106 0.0060 'International Tables Vol C Tables 4.2.6.8 and 6.1.1.4'
F F 0.0171 0.0103 'International Tables Vol C Tables 4.2.6.8 and 6.1.1.4'
Pt Pt -1.7033 8.3905 'International Tables Vol C Tables 4.2.6.8 and 6.1.1.4'
loop_
_geom_angle_atom_site_label_1
_geom_angle_atom_site_label_2
_geom_angle_atom_site_label_3
_geom_angle
O2 Pt1 C1 83.2(7)
O2 Pt1 C9 164.3(6)
C1 Pt1 C9 94.5(7)
O2 Pt1 C10 157.6(6)
C1 Pt1 C10 95.2(7)
C9 Pt1 C10 38.0(6)
O2 Pt1 C5 90.3(6)
C1 Pt1 C5 159.1(7)
C9 Pt1 C5 96.9(7)
C10 Pt1 C5 83.3(7)
O2 Pt1 C6 97.9(6)
C1 Pt1 C6 165.6(7)
C9 Pt1 C6 80.5(7)
C10 Pt1 C6 89.1(7)
C5 Pt1 C6 35.1(7)
C3 O2 Pt1 115.8(11)
F1 C1 F2 108.5(16)
F1 C1 C2 112.3(15)
F2 C1 C2 106.0(14)
F1 C1 Pt1 118.4(12)
F2 C1 Pt1 107.7(12)
C2 C1 Pt1 103.1(12)
F4 C2 F3 106.7(12)
F4 C2 C1 110.2(14)
F3 C2 C1 106.1(13)
F4 C2 C3 113.8(14)
F3 C2 C3 107.2(13)
C1 C2 C3 112.4(13)
O1 C3 O2 127.4(17)
O1 C3 C2 118.8(16)
O2 C3 C2 113.8(15)
C11 C4 C5 116.4(14)
C11 C4 H4A 108.2
C5 C4 H4A 108.2
C11 C4 H4B 108.2
C5 C4 H4B 108.2
H4A C4 H4B 107.3
C6 C5 C4 124.2(17)
C6 C5 Pt1 73.5(10)
C4 C5 Pt1 102.4(10)
C6 C5 H5A 115.6
C4 C5 H5A 115.6
Pt1 C5 H5A 115.6
C5 C6 C7 125.5(16)
C5 C6 Pt1 71.4(10)
C7 C6 Pt1 108.8(11)
C5 C6 H6A 114.2
C7 C6 H6A 114.2
Pt1 C6 H6A 114.2
C6 C7 C8 114.9(14)
C6 C7 H7A 108.5
C8 C7 H7A 108.5
C6 C7 H7B 108.5
C8 C7 H7B 108.5
H7A C7 H7B 107.5
C9 C8 C7 114.8(14)
C9 C8 H8A 108.6
C7 C8 H8A 108.6
C9 C8 H8B 108.6
C7 C8 H8B 108.6
H8A C8 H8B 107.5
C10 C9 C8 126.7(15)
C10 C9 Pt1 71.6(9)
C8 C9 Pt1 110.1(11)
C10 C9 H9A 113.5
C8 C9 H9A 113.5
Pt1 C9 H9A 113.5
C9 C10 C11 122.9(15)
C9 C10 Pt1 70.4(9)
C11 C10 Pt1 110.5(11)
C9 C10 H10A 114.9
C11 C10 H10A 114.9
Pt1 C10 H10A 114.9
C4 C11 C10 114.5(13)
C4 C11 H11A 108.6
C10 C11 H11A 108.6
C4 C11 H11B 108.6
C10 C11 H11B 108.6
H11A C11 H11B 107.6
loop_
_geom_bond_atom_site_label_1
_geom_bond_atom_site_label_2
_geom_bond_distance
Pt1 O2 2.050(12)
Pt1 C1 2.07(2)
Pt1 C9 2.141(15)
Pt1 C10 2.156(15)
Pt1 C5 2.274(16)
Pt1 C6 2.301(17)
O1 C3 1.23(2)
O2 C3 1.27(2)
F1 C1 1.29(2)
F2 C1 1.37(2)
F3 C2 1.385(19)
F4 C2 1.354(18)
C1 C2 1.52(3)
C2 C3 1.54(2)
C4 C11 1.48(2)
C4 C5 1.55(2)
C4 H4A 0.9900
C4 H4B 0.9900
C5 C6 1.38(3)
C5 H5A 1.0000
C6 C7 1.47(3)
C6 H6A 1.0000
C7 C8 1.53(3)
C7 H7A 0.9900
C7 H7B 0.9900
C8 C9 1.48(2)
C8 H8A 0.9900
C8 H8B 0.9900
C9 C10 1.40(2)
C9 H9A 1.0000
C10 C11 1.55(2)
C10 H10A 1.0000
C11 H11A 0.9900
C11 H11B 0.9900
