#------------------------------------------------------------------------------
#$Date: 2015-07-05 14:25:59 +0300 (Sun, 05 Jul 2015) $
#$Revision: 140290 $
#$URL: svn://www.crystallography.net/cod/cif/1/51/96/1519697.cif $
#------------------------------------------------------------------------------
#
# This file is available in the Crystallography Open Database (COD),
# http://www.crystallography.net/
#
# All data on this site have been placed in the public domain by the
# contributors.
#
data_1519697
loop_
_publ_author_name
'Witten, Michael R.'
'Jacobsen, Eric N.'
_publ_section_title
;
 A Simple Primary Amine Catalyst for Enantioselective \a-Hydroxylations
 and \a-Fluorinations of Branched Aldehydes.
;
_journal_issue                   11
_journal_name_full               'Organic letters'
_journal_page_first              2772
_journal_page_last               2775
_journal_paper_doi               10.1021/acs.orglett.5b01193
_journal_volume                  17
_journal_year                    2015
_chemical_absolute_configuration ad
_chemical_formula_sum            'C9 H10 Br F O'
_chemical_formula_weight         233.08
_space_group_crystal_system      monoclinic
_space_group_IT_number           4
_space_group_name_Hall           'P 2yb'
_space_group_name_H-M_alt        'P 1 21 1'
_symmetry_space_group_name_Hall  'P 2yb'
_symmetry_space_group_name_H-M   'P 1 21 1'
_atom_sites_solution_hydrogens   mixed
_audit_creation_method           SHELXL-2014/6
_cell_angle_alpha                90
_cell_angle_beta                 93.376(5)
_cell_angle_gamma                90
_cell_formula_units_Z            2
_cell_length_a                   8.013(3)
_cell_length_b                   5.1662(18)
_cell_length_c                   10.972(4)
_cell_measurement_reflns_used    7469
_cell_measurement_temperature    100(2)
_cell_measurement_theta_max      27.3
_cell_measurement_theta_min      3.06
_cell_volume                     453.4(3)
_computing_cell_refinement       'SAINT 8.34C (Bruker-AXS, 2014)'
_computing_data_collection       'APEX2 v2014.3.0 (Bruker-AXS, 2014)'
_computing_data_reduction        'SAINT 8.34C (Bruker-AXS, 2014)'
_computing_molecular_graphics    'Bruker SHELXTL (Sheldrick, 2008)'
_computing_publication_material  'Bruker SHELXTL (Sheldrick, 2008)'
_computing_structure_refinement  'SHELXL-2014 (Sheldrick, 2008)'
_computing_structure_solution    'SHELXS-2014 (Sheldrick, 2008)'
_diffrn_ambient_temperature      100(2)
_diffrn_measured_fraction_theta_full 1.000
_diffrn_measured_fraction_theta_max 0.987
_diffrn_measurement_device_type
;
Bruker D8 goniometer with CCD area detector  
;
_diffrn_measurement_method       'omega and phi scans'
_diffrn_radiation_monochromator  graphite
_diffrn_radiation_source         'fine-focus sealed tube'
_diffrn_radiation_type           MoK\a
_diffrn_radiation_wavelength     0.71073
_diffrn_reflns_av_R_equivalents  0.0371
_diffrn_reflns_av_unetI/netI     0.0276
_diffrn_reflns_laue_measured_fraction_full 1.000
_diffrn_reflns_laue_measured_fraction_max 0.987
_diffrn_reflns_limit_h_max       10
_diffrn_reflns_limit_h_min       -10
_diffrn_reflns_limit_k_max       6
_diffrn_reflns_limit_k_min       -6
_diffrn_reflns_limit_l_max       14
_diffrn_reflns_limit_l_min       -14
_diffrn_reflns_number            10136
_diffrn_reflns_point_group_measured_fraction_full 0.996
_diffrn_reflns_point_group_measured_fraction_max 0.976
_diffrn_reflns_theta_full        25.242
_diffrn_reflns_theta_max         27.348
_diffrn_reflns_theta_min         1.859
_exptl_absorpt_coefficient_mu    4.496
_exptl_absorpt_correction_T_max  0.7455
_exptl_absorpt_correction_T_min  0.5084
_exptl_absorpt_correction_type   multi-scan
_exptl_absorpt_process_details   SADABS
_exptl_crystal_colour            colorless
_exptl_crystal_density_diffrn    1.707
_exptl_crystal_description       block
_exptl_crystal_F_000             232
_exptl_crystal_size_max          0.140
_exptl_crystal_size_mid          0.120
_exptl_crystal_size_min          0.100
_refine_diff_density_max         0.317
_refine_diff_density_min         -0.203
_refine_diff_density_rms         0.053
_refine_ls_abs_structure_details
;
 Flack x determined using 805 quotients [(I+)-(I-)]/[(I+)+(I-)]
 (Parsons, Flack and Wagner, Acta Cryst. B69 (2013) 249-259).
;
_refine_ls_abs_structure_Flack   -0.008(9)
_refine_ls_extinction_method     none
_refine_ls_goodness_of_fit_ref   1.044
_refine_ls_hydrogen_treatment    mixed
_refine_ls_matrix_type           full
_refine_ls_number_parameters     114
_refine_ls_number_reflns         2018
_refine_ls_number_restraints     1
_refine_ls_restrained_S_all      1.044
_refine_ls_R_factor_all          0.0207
_refine_ls_R_factor_gt           0.0187
_refine_ls_shift/su_max          0.001
_refine_ls_shift/su_mean         0.000
_refine_ls_structure_factor_coef Fsqd
_refine_ls_weighting_details
'w=1/[\s^2^(Fo^2^)+(0.0243P)^2^+0.0210P] where P=(Fo^2^+2Fc^2^)/3'
_refine_ls_weighting_scheme      calc
_refine_ls_wR_factor_gt          0.0456
_refine_ls_wR_factor_ref         0.0465
_reflns_Friedel_coverage         0.778
_reflns_friedel_fraction_full    0.990
_reflns_friedel_fraction_max     0.962
_reflns_number_gt                1898
_reflns_number_total             2018
_reflns_threshold_expression     'I > 2\s(I)'
_cod_data_source_file            ol5b01193_si_004.cif
_cod_data_source_block           fluoro-p-bromo
_cod_depositor_comments
'Adding full bibliography for 1519696--1519698.cif.'
_cod_database_code               1519697
_shelx_space_group_comment
;
The symmetry employed for this shelxl refinement is uniquely defined
by the following loop, which should always be used as a source of
symmetry information in preference to the above space-group names.
They are only intended as comments.
;
_shelx_estimated_absorpt_t_min   0.572
_shelx_estimated_absorpt_t_max   0.662
_shelxl_version_number           2014/6
_shelx_res_file
;
TITL zsl in P2(1)
CELL 0.71073 8.0128 5.1662 10.9722 90 93.376 90
ZERR 2 0.0027 0.0018 0.0037 0 0.0051 0
LATT -1
SYMM -X,0.5+Y,-Z

SFAC C H Br F O
UNIT 18 20 2 2 2
EQIV $1 1-X,0.5+Y,2-Z

L.S. 10
PLAN  -1
SIZE 0.1 0.12 0.14
TEMP -173
HTAB  O1 O1_$1
BOND $H
CONF
LIST 4
fmap 2
acta
REM <HKL>G:/zsl/Jacobsen/MWitten1401/work/zsl.hkl</HKL>

WGHT    0.024300    0.021000
FVAR       0.28887
C1    1    0.675194    0.655747    0.598175    11.00000    0.01630    0.01123 =
         0.01772   -0.00150    0.00170    0.00166
AFIX  43
H1    2    0.617055    0.793006    0.634705    11.00000   -1.20000
AFIX   0
C2    1    0.670864    0.637364    0.471600    11.00000    0.01818    0.01277 =
         0.01612    0.00301    0.00152    0.00183
AFIX  43
H2    2    0.611417    0.760759    0.421685    11.00000   -1.20000
AFIX   0
C3    1    0.755360    0.434700    0.420041    11.00000    0.01350    0.01656 =
         0.00942    0.00128    0.00035   -0.00473
C4    1    0.842558    0.253430    0.491354    11.00000    0.01508    0.01388 =
         0.01570   -0.00268    0.00335   -0.00038
AFIX  43
H4    2    0.899583    0.115606    0.454346    11.00000   -1.20000
AFIX   0
C5    1    0.845865    0.275065    0.617755    11.00000    0.01543    0.01356 =
         0.01430    0.00160    0.00011    0.00069
AFIX  43
H5    2    0.905212    0.150876    0.667270    11.00000   -1.20000
AFIX   0
C6    1    0.762691    0.477802    0.672570    11.00000    0.01074    0.01203 =
         0.01411    0.00017    0.00156   -0.00310
C7    1    0.755111    0.495894    0.810488    11.00000    0.02074    0.00862 =
         0.01375   -0.00284    0.00206   -0.00159
C8    1    0.590265    0.374939    0.844682    11.00000    0.01612    0.01364 =
         0.01168   -0.00030    0.00286   -0.00071
AFIX  23
H8A   2    0.496866    0.464376    0.799053    11.00000   -1.20000
H8B   2    0.588111    0.191128    0.819127    11.00000   -1.20000
AFIX   0
C9    1    0.904629    0.387601    0.884412    11.00000    0.01828    0.02125 =
         0.01573    0.00026   -0.00062   -0.00098
AFIX 137
H9A   2    1.007339    0.463529    0.855773    11.00000   -1.50000
H9B   2    0.907931    0.199180    0.874504    11.00000   -1.50000
H9C   2    0.895405    0.429989    0.970814    11.00000   -1.50000
AFIX   0
O1    5    0.564579    0.388499    0.971569    11.00000    0.02647    0.01813 =
         0.01266   -0.00086    0.00788    0.00258
H1A   2    0.531662    0.518085    0.984720    11.00000    0.02356
F1    4    0.745148    0.764080    0.840174    11.00000    0.03088    0.00909 =
         0.01638   -0.00239    0.00336   -0.00176
BR1   3    0.749940    0.404749    0.246788    11.00000    0.01792    0.02314 =
         0.01097   -0.00122    0.00145   -0.00100
HKLF 4

REM  zsl in P2(1)
REM R1 =  0.0187 for    1898 Fo > 4sig(Fo)  and  0.0207 for all    2018 data
REM    114 parameters refined using      1 restraints

END

WGHT      0.0243      0.0252

REM Highest difference peak  0.317,  deepest hole -0.203,  1-sigma level  0.053
Q1    1   0.6810  0.4047  0.8317  11.00000  0.05    0.32
;
_shelx_res_checksum              99431
_shelx_hkl_file
;
   1   0   0    9.86    0.54
   1   0   0    7.84    0.53
   1   0   0   10.81    0.63
   1   0   0    9.74    0.53
   2   0   0  719.87   35.58
   2   0   0  720.18   35.99
   2   0   0  803.54   35.67
   3   0   0    4.00    0.32
   3   0   0    4.00    0.29
   3   0   0    3.60    0.31
   3   0   0    2.83    0.50
   4   0   0  202.16   10.07
   4   0   0  205.37   10.06
   4   0   0  201.55   10.40
   4   0   0  228.35   10.04
   5   0   0   -0.05    0.18
   5   0   0   -0.12    0.18
   5   0   0   -0.15    0.34
   5   0   0   -0.22    0.14
   6   0   0  199.97    8.82
   6   0   0  160.46    8.80
   6   0   0  176.65    9.35
   6   0   0  187.40    8.75
   7   0   0    1.51    0.38
   7   0   0    2.77    0.43
   7   0   0    3.14    1.02
   7   0   0    1.65    0.32
   8   0   0   76.27    3.88
   8   0   0   73.31    4.63
  -9   0   0    2.31    0.38
 -10   0   0   53.62    3.76
   0  -1   0   -0.57    0.07
   0  -1   0   -0.48    0.06
   0  -1   0   -0.31    0.12
   0   1   0   -0.36    0.06
   0   1   0   -0.48    0.07
   0   1   0   -0.45    0.07
   0   1   0   -0.53    0.07
   0   1   0   -0.38    0.07
   1  -1   0  913.89   41.77
   1  -1   0  881.21   42.32
  -1  -1   0  849.70   41.72
   1  -1   0  834.79   41.75
  -1  -1   0  930.44   41.74
   1  -1   0  922.47   41.76
  -1  -1   0  828.57   41.73
   1  -1   0  864.00   41.76
  -1   1   0  963.92   45.19
   1   1   0  896.39   44.43
   1   1   0  946.70   44.34
   1   1   0  911.06   44.34
   1   1   0  966.30   44.33
  -1   1   0 1000.00   44.34
   1   1   0  932.41   44.37
   1   1   0  915.86   44.35
  -1   1   0  877.99   44.34
  -1   1   0  918.45   44.38
   2  -1   0   67.27    3.36
   2  -1   0   71.06    3.36
   2  -1   0   61.56    3.63
   2  -1   0   75.11    3.36
   2  -1   0   72.11    3.36
   2  -1   0   70.58    3.36
   2   1   0   68.67    3.34
   2   1   0   70.89    3.35
   2   1   0   67.96    3.41
   2   1   0   67.38    3.40
  -2   1   0   72.64    3.37
  -2   1   0   69.19    3.38
   2   1   0   65.12    3.42
   2   1   0   72.92    3.35
   2   1   0   66.94    3.41
   2   1   0   72.79    3.35
   3  -1   0  151.80    7.26
   3  -1   0  153.20    7.23
   3  -1   0  155.59    7.24
   3  -1   0  144.76    7.23
   3   1   0  189.74    9.44
   3   1   0  204.60    9.55
  -3   1   0  212.46    9.44
   3   1   0  182.79    9.44
   3   1   0  197.87    9.64
  -3   1   0  203.61    9.49
  -3   1   0  190.30    9.50
   3   1   0  199.17    9.51
   3   1   0  198.14    9.44
   3   1   0  199.07    9.44
   3   1   0  200.80    9.54
   4  -1   0   40.73    2.00
   4  -1   0   42.67    2.01
   4  -1   0   40.71    2.53
   4  -1   0   37.93    2.00
   4  -1   0   43.72    2.06
  -4   1   0   40.69    2.04
   4   1   0   39.34    1.98
   4   1   0   40.86    1.98
   4   1   0   41.66    2.31
   4   1   0   40.29    1.98
   4   1   0   44.44    2.14
   4   1   0   40.17    2.12
   4   1   0   41.57    1.98
  -4   1   0   41.21    1.98
   4   1   0   40.00    2.06
  -4   1   0   39.70    2.07
   5  -1   0  196.59    9.04
   5  -1   0  190.97    9.13
   5  -1   0  186.09    9.73
   5  -1   0  191.98    9.04
   5  -1   0  190.17    9.04
   5  -1   0  181.13    9.04
   5   1   0  203.88    9.45
  -5   1   0  191.59    9.45
   5   1   0  202.77    9.45
   5   1   0  205.23    9.45
   5   1   0  189.68    9.89
   5   1   0  192.26    9.62
   5   1   0  205.03    9.64
  -5   1   0  183.24    9.57
   5   1   0  207.79    9.45
  -5   1   0  203.89    9.54
   5   1   0  197.26    9.55
   6  -1   0    1.14    0.26
   6  -1   0    0.65    0.58
   6  -1   0    0.82    0.12
   6  -1   0    0.75    0.12
   6  -1   0    0.61    0.12
   6  -1   0    0.66    0.12
   6   1   0    0.80    0.11
   6   1   0    0.77    0.09
   6   1   0    0.76    0.47
  -6   1   0    0.88    0.12
  -6   1   0    0.53    0.25
  -6   1   0    0.75    0.21
   6   1   0    0.58    0.10
   6   1   0    0.66    0.31
   6   1   0    0.86    0.13
   6   1   0    0.98    0.32
   6   1   0    0.76    0.22
   7  -1   0   97.93    4.92
   7  -1   0  103.14    5.96
   7  -1   0  107.47    5.09
   7  -1   0  100.82    4.92
   7  -1   0  102.27    4.90
   7  -1   0  104.46    4.90
  -7   1   0   95.52    5.05
   7   1   0   98.73    5.20
   7   1   0  101.61    5.08
  -7   1   0   99.06    5.14
  -7   1   0  112.55    4.94
   7   1   0  105.29    5.22
   7   1   0  106.55    4.93
   8  -1   0    3.70    0.30
  -8  -1   0    4.52    0.92
   8  -1   0    3.73    1.26
  -8   1   0    3.71    0.49
   8   1   0    3.38    0.51
  -8   1   0    3.89    0.29
   8   1   0    4.46    0.28
   8   1   0    3.62    0.28
   8   1   0    4.73    0.73
   9  -1   0   36.01    1.95
  -9  -1   0   46.02    2.33
  -9   1   0   40.19    2.21
   9   1   0   41.62    2.01
  -9   1   0   42.16    2.02
   9   1   0   40.57    2.45
  10  -1   0    2.57    0.30
 -10  -1   0    2.44    0.60
 -10   1   0    3.66    1.19
  10   1   0    4.46    0.79
  10   1   0    2.38    0.23
 -10   1   0    2.90    0.45
   0  -2   0  463.02   21.10
   0  -2   0  440.22   21.23
   0  -2   0  433.70   21.08
   0  -2   0  433.59   21.09
   0   2   0  425.21   19.94
   0   2   0  414.47   19.91
   0   2   0  420.45   19.93
   0   2   0  416.79   19.92
   0   2   0  413.77   19.91
   1  -2   0    2.37    0.25
   1  -2   0    2.47    0.24
   1  -2   0    2.63    0.46
  -1  -2   0    2.47    0.24
   1  -2   0    2.80    0.25
  -1  -2   0    2.97    0.30
   1   2   0    2.49    0.25
  -1   2   0    2.50    0.25
   1   2   0    2.33    0.28
   1   2   0    2.17    0.24
   1   2   0    2.71    0.25
  -1   2   0    2.96    0.25
  -1   2   0    2.62    0.24
  -1   2   0    2.49    0.24
  -2  -2   0  121.75    6.07
   2  -2   0  121.81    6.07
  -2  -2   0  116.47    6.13
   2  -2   0  134.17    6.09
  -2  -2   0  130.87    6.07
   2  -2   0  122.99    6.08
   2  -2   0  129.47    6.47
  -2  -2   0  129.43    6.06
   2  -2   0  129.96    6.08
   2   2   0  134.94    6.03
  -2   2   0  126.12    6.04
  -2   2   0  129.12    6.03
   2   2   0  132.75    6.05
  -2   2   0  123.86    6.04
   2   2   0  122.95    6.03
   2   2   0  124.36    6.04
   2   2   0  132.20    6.11
  -2   2   0  122.19    6.03
  -2   2   0  117.09    6.02
   2   2   0  114.86    6.03
   3  -2   0   21.32    1.05
  -3  -2   0   20.77    1.03
   3  -2   0   21.17    1.06
   3  -2   0   18.56    1.48
   3  -2   0   19.80    1.05
   3  -2   0   19.86    1.05
  -3  -2   0   18.31    1.14
   3   2   0   21.24    1.07
   3   2   0   20.40    1.14
  -3   2   0   18.70    1.05
   3   2   0   21.49    1.07
   3   2   0   19.64    1.06
  -3   2   0   20.62    1.08
  -3   2   0   20.49    1.09
   3   2   0   21.27    1.06
   4  -2   0  167.48    9.24
   4  -2   0  196.08    8.63
   4  -2   0  179.68    8.63
   4  -2   0  201.62    8.65
   4  -2   0  175.58    8.63
   4  -2   0  171.56    8.63
  -4  -2   0  170.85    8.61
  -4  -2   0  177.23    8.76
   4   2   0  200.11    9.23
   4   2   0  186.94    9.36
   4   2   0  200.26    9.23
   4   2   0  186.40    9.23
   4   2   0  190.26    9.22
  -4   2   0  191.54    9.28
  -4   2   0  193.68    9.27
   4   2   0  193.02    9.32
   5  -2   0    6.53    0.45
   5  -2   0    6.95    0.44
   5  -2   0    5.27    0.43
   5  -2   0    5.92    0.43
  -5  -2   0    6.05    0.39
   5  -2   0    6.43    1.09
  -5  -2   0    6.71    0.61
  -5   2   0    5.87    0.52
   5   2   0    5.97    0.42
   5   2   0    6.80    0.54
   5   2   0    5.95    0.42
  -5   2   0    6.56    0.49
   5   2   0    7.12    0.63
   5   2   0    5.89    0.41
   5   2   0    6.63    0.42
   6  -2   0  203.80    9.77
  -6  -2   0  202.76    9.96
   6  -2   0  208.30    9.77
   6  -2   0  199.72   10.72
  -6   2   0  204.85    9.66
   6   2   0  192.84    9.66
  -6   2   0  211.63    9.75
   6   2   0  200.73    9.88
  -6   2   0  194.60    9.80
   6   2   0  202.04    9.66
   6   2   0  211.54    9.77
   6   2   0  197.64    9.66
   7  -2   0    7.03    1.42
   7  -2   0    4.72    0.42
  -7  -2   0    5.81    0.74
   7  -2   0    5.48    0.43
  -7   2   0    5.50    0.40
  -7   2   0    4.85    0.51
   7   2   0    5.15    0.41
   7   2   0    5.76    0.56
   7   2   0    5.17    0.39
   7   2   0    5.32    0.72
  -8  -2   0   62.37    3.32
   8  -2   0   63.82    4.38
   8  -2   0   60.13    3.01
   8  -2   0   60.20    3.03
  -8   2   0   73.96    3.29
  -8   2   0   63.02    3.13
   8   2   0   60.84    3.26
   8   2   0   61.62    3.13
   8   2   0   63.14    3.47
   8   2   0   62.78    3.09
   9  -2   0    2.13    0.30
   9  -2   0    1.56    1.08
  -9  -2   0    3.43    0.65
   9  -2   0    2.44    0.29
  -9   2   0    2.71    0.33
   9   2   0    1.87    0.60
   9   2   0    2.41    0.35
  -9   2   0    2.41    0.42
   0  -3   0   -0.24    0.23
   0  -3   0   -0.16    0.14
   0  -3   0   -0.03    0.15
   0  -3   0   -0.09    0.13
   0   3   0   -0.10    0.14
   0   3   0   -0.32    0.12
   0   3   0   -0.23    0.14
   0   3   0   -0.10    0.13
  -1  -3   0  242.23   11.06
   1  -3   0  235.95   11.07
   1  -3   0  236.88   11.05
   1  -3   0  235.66   11.06
   1  -3   0  220.83   11.40
  -1  -3   0  224.38   11.05
  -1  -3   0  218.12   11.09
   1   3   0  243.14   11.34
  -1   3   0  238.14   11.32
  -1   3   0  240.21   11.34
   1   3   0  232.09   11.41
   1   3   0  228.59   11.38
   1   3   0  235.20   11.35
  -1   3   0  234.12   11.34
  -1   3   0  240.05   11.34
   1   3   0  238.11   11.34
  -1   3   0  235.53   11.35
  -2  -3   0   11.99    0.77
  -2  -3   0   10.96    0.66
   2  -3   0   10.31    1.07
   2  -3   0   11.43    0.67
  -2  -3   0   10.58    0.66
   2  -3   0   10.72    0.67
   2  -3   0   11.12    0.69
   2   3   0   11.95    0.68
  -2   3   0   10.28    0.64
  -2   3   0   11.41    0.67
  -2   3   0   10.44    0.65
   2   3   0   10.67    0.68
   2   3   0   11.05    0.75
   2   3   0   10.96    0.68
  -2   3   0   10.42    0.66
  -2   3   0   11.12    0.68
  -3  -3   0  111.56    5.48
   3  -3   0  117.07    5.39
   3  -3   0  107.21    5.36
   3  -3   0  105.96    5.97
   3  -3   0  112.12    5.39
   3   3   0  137.73    6.67
   3   3   0  134.27    6.60
  -3   3   0  136.85    6.58
  -3   3   0  133.42    6.55
  -3   3   0  130.59    6.55
   3   3   0  136.42    6.57
   3   3   0  141.12    6.58
   4  -3   0    1.10    0.21
  -4  -3   0    0.43    0.29
   4  -3   0    0.37    0.18
   4  -3   0    0.83    0.57
   4   3   0    0.48    0.20
   4   3   0    0.39    0.19
   4   3   0    0.75    0.32
  -4   3   0    0.44    0.17
  -4   3   0    0.94    0.24
   4   3   0    0.42    0.28
  -4   3   0    0.76    0.19
  -5  -3   0  186.24    9.31
   5  -3   0  180.45    9.15
   5  -3   0  190.51    9.16
   5  -3   0  203.61   10.15
   5   3   0  218.94   10.13
  -5   3   0  218.28   10.05
  -5   3   0  202.82    9.98
   5   3   0  212.44   10.00
   5   3   0  203.07   10.17
   5   3   0  192.87    9.99
   6  -3   0    1.28    0.25
   6  -3   0    1.60    0.28
  -6  -3   0    1.06    0.43
   6  -3   0    1.51    0.83
   6   3   0    1.49    0.45
   6   3   0    0.85    0.24
  -6   3   0    1.55    0.32
   6   3   0    1.76    0.28
  -6   3   0    1.00    0.22
   6   3   0    1.21    0.33
   7  -3   0  103.64    4.86
   7  -3   0   97.39    6.10
  -7  -3   0   98.19    5.09
   7  -3   0   95.57    4.85
   7   3   0  116.24    5.38
   7   3   0  113.39    5.55
  -7   3   0  109.70    5.35
  -7   3   0  102.14    5.24
   7   3   0  104.80    5.25
   7   3   0  102.30    5.26
   8  -3   0    0.72    0.28
   8  -3   0    0.69    0.25
   8  -3   0    1.67    1.03
  -8  -3   0    0.49    0.50
  -8   3   0    0.69    0.23
  -8   3   0    0.89    0.36
   8   3   0    0.91    0.50
   8   3   0    0.59    0.24
   8   3   0    0.73    0.26
   9  -3   0   14.93    0.98
   9  -3   0   19.30    1.06
  -9  -3   0   16.98    1.41
  -9   3   0   24.72    1.53
   9   3   0   25.10    1.33
  -9   3   0   25.44    1.37
   9   3   0   27.07    1.86
   9   3   0   23.76    1.38
   0  -4   0  105.87    5.14
   0  -4   0  103.08    5.14
   0   4   0  117.01    5.71
   0   4   0  116.93    5.73
   0   4   0  115.47    5.74
   0   4   0  118.29    5.72
  -1  -4   0    8.88    0.70
   1  -4   0    8.28    1.01
   1  -4   0    8.72    0.63
   1  -4   0    8.62    0.64
   1  -4   0    8.78    0.65
  -1  -4   0    8.67    0.74
   1   4   0    6.95    0.62
  -1   4   0    8.32    0.63
  -1   4   0    9.35    0.63
   1   4   0    8.33    0.68
   1   4   0    9.22    0.65
   1   4   0    9.09    0.64
  -1   4   0    8.96    0.63
  -1   4   0    8.76    0.61
  -1   4   0    8.27    0.62
  -2  -4   0   39.47    2.12
   2  -4   0   38.07    2.60
   2  -4   0   39.78    2.05
   2  -4   0   37.61    2.04
   2  -4   0   39.97    2.03
   2   4   0   54.43    2.80
  -2   4   0   56.47    2.77
   2   4   0   53.57    2.80
  -2   4   0   54.93    2.79
   2   4   0   55.01    2.88
  -2   4   0   54.02    2.77
   2   4   0   56.14    2.80
  -3  -4   0    7.37    0.74
   3  -4   0    7.59    0.62
   3  -4   0    7.99    0.62
   3  -4   0    7.00    1.18
  -3   4   0    7.09    0.60
  -3   4   0    7.59    0.55
  -3   4   0    6.48    0.56
   3   4   0    6.81    0.71
   3   4   0    6.99    0.60
   3   4   0    7.51    0.62
   3   4   0    8.27    0.66
   4  -4   0   36.49    2.81
  -4  -4   0   39.15    2.15
   4  -4   0   36.62    1.99
   4  -4   0   37.45    2.00
   4   4   0   45.78    2.45
   4   4   0   44.20    2.36
   4   4   0   48.02    2.38
   4   4   0   44.44    2.51
  -4   4   0   46.33    2.38
  -4   4   0   44.69    2.33
  -5  -4   0    0.90    0.46
   5  -4   0    0.30    0.27
   5  -4   0    0.68    0.29
   5  -4   0    0.32    0.69
   5   4   0    0.61    0.43
  -5   4   0    0.61    0.30
   5   4   0    0.78    0.29
   5   4   0    0.86    0.39
   5   4   0    0.96    0.29
  -5   4   0    0.63    0.24
   6  -4   0   40.82    3.34
   6  -4   0   45.42    2.28
   6  -4   0   42.59    2.27
   6   4   0   48.10    2.52
   6   4   0   41.30    2.36
  -6   4   0   46.51    2.35
  -6   4   0   45.13    2.41
   6   4   0   45.20    2.62
   6   4   0   46.21    2.37
   7  -4   0    0.55    0.31
   7  -4   0    0.38    0.89
  -7  -4   0    0.36    0.52
   7  -4   0    0.20    0.29
   7   4   0    0.72    0.32
  -7   4   0    0.34    0.34
  -7   4   0    0.28    0.26
   7   4   0    0.60    0.50
   7   4   0    0.64    0.31
   8  -4   0    8.36    0.75
   8  -4   0    8.75    0.74
  -8  -4   0    7.72    1.15
   8   4   0   12.79    1.30
  -8   4   0   11.97    0.85
   8   4   0   11.18    0.90
   8   4   0   13.27    0.89
  -8   4   0   13.99    1.02
   0  -5   0   -0.38    0.28
   0   5   0    0.54    0.31
   0   5   0    0.18    0.29
  -1  -5   0   54.20    2.85
   1  -5   0   53.91    2.84
  -1   5   0   59.05    3.12
   1   5   0   60.73    3.12
  -1   5   0   59.13    3.11
   1   5   0   62.38    3.13
   1   5   0   62.83    3.19
   1   5   0   59.36    3.11
  -2  -5   0    2.51    0.47
   2  -5   0    2.32    0.40
   2   5   0    2.74    0.45
   2   5   0    2.12    0.40
   2   5   0    2.12    0.40
  -2   5   0    2.42    0.40
   2   5   0    2.47    0.48
   3  -5   0   16.87    1.14
  -3  -5   0   17.77    1.24
   3   5   0   24.08    1.37
   3   5   0   24.57    1.37
   3   5   0   19.59    1.45
   3   5   0   21.95    1.39
  -3   5   0   22.08    1.35
  -4  -5   0    0.36    0.43
   4  -5   0    0.40    0.73
   4  -5   0    0.37    0.31
   4  -5   0   -0.35    0.28
   4   5   0    0.45    0.43
  -4   5   0    0.29    0.30
  -4   5   0   -0.01    0.26
   4   5   0    0.43    0.34
   4   5   0    1.13    0.41
   4   5   0    0.74    0.34
  -5  -5   0   43.22    2.43
   5  -5   0   37.95    2.23
   5  -5   0   43.39    3.38
   5  -5   0   39.78    2.23
   5   5   0   35.08    1.96
   5   5   0   31.27    2.13
   5   5   0   42.11    2.00
  -5   5   0   33.02    1.89
   5   5   0   33.52    2.07
  -5   5   0   34.01    1.96
  -6  -5   0   -0.77    0.44
   6  -5   0    0.54    0.35
   6   5   0    0.15    0.51
   6   5   0    0.12    0.35
   6   5   0    0.06    0.34
  -6   5   0    0.52    0.38
   0   6   0   34.08    1.97
   0   6   0   32.51    1.93
   1   6   0    1.73    0.48
   1   6   0    1.10    0.44
  -1   6   0    0.20    0.41
  -2  -6   0   12.64    1.10
  -2   6   0   22.09    1.40
   2   6   0   21.87    1.46
   2   6   0   21.24    1.48
  -3  -6   0    3.04    0.60
   3   6   0    2.58    0.54
  -3   6   0    2.61    0.51
   3   6   0    2.71    0.52
   3   6   0    3.05    0.63
   3   6   0    3.62    0.56
   4  -6   0   11.91    1.02
  -4  -6   0   11.31    1.17
   4   6   0   15.57    1.15
  -4   6   0   15.37    1.11
   4   6   0   13.45    1.14
   4   6   0   14.94    1.32
   4   6   0   13.32    1.24
 -10   0   1    4.23    0.61
  -9   0   1   27.21    1.74
   9   0  -1   29.44    2.63
   9   0  -1   27.87    1.36
  -8   0   1    0.09    0.29
   8   0  -1    0.09    0.07
   8   0  -1    0.13    0.64
   8   0  -1   -0.04    0.27
   8   0  -1    0.05    0.10
   7   0  -1   46.35    2.30
   7   0  -1   48.74    2.51
   7   0  -1   48.05    2.30
   7   0  -1   50.24    3.22
   6   0  -1   31.98    1.86
   6   0  -1   35.53    2.40
   6   0  -1   37.14    1.85
   5   0  -1   60.41    2.98
   5   0  -1   60.92    2.82
   5   0  -1   59.33    2.96
   5   0  -1   57.38    2.82
   5   0  -1   57.96    3.41
   4   0  -1    0.63    0.35
   4   0  -1    1.40    0.14
   4   0  -1    1.55    0.26
   4   0  -1    1.21    0.11
   4   0  -1    1.06    0.20
   4   0  -1    1.54    0.30
   3   0  -1  170.77    7.75
   3   0  -1  164.76    7.85
   3   0  -1  153.88    7.75
   3   0  -1  165.11    7.81
   3   0  -1  157.82    7.81
  -2   0   1   89.47    4.20
   2   0  -1   85.36    4.17
   2   0  -1   77.74    4.17
   2   0  -1   90.32    4.21
   2   0  -1   81.74    4.23
   2   0  -1   90.53    4.15
   2   0  -1   87.11    4.15
   2   0  -1   91.89    4.39
  -1   0   1   73.98    3.50
   1   0  -1   72.22    3.48
  -1   0   1   71.08    3.49
   1   0  -1   73.39    3.51
   1   0  -1   65.55    3.50
   1   0  -1   73.98    3.50
   1   0  -1   80.75    3.62
   1   0  -1   72.12    3.48
  -1   0   1   70.13    3.48
   0   0   1    5.68    0.32
   0   0  -1    5.19    0.30
   0   0   1    6.21    0.33
   1   0   1    2.11    0.17
   1   0   1    2.38    0.16
  -1   0  -1    1.74    0.15
   1   0   1    2.00    0.15
   1   0   1    2.13    0.19
   1   0   1    2.04    0.19
  -1   0  -1    2.17    0.18
  -1   0  -1    2.07    0.15
  -1   0  -1    1.42    0.26
  -1   0  -1    2.09    0.15
   1   0   1    1.83    0.19
   2   0   1   78.42    3.60
  -2   0  -1   73.64    3.82
   2   0   1   81.00    3.60
   2   0   1   74.86    3.62
   2   0   1   73.84    3.66
   2   0   1   69.93    3.62
   2   0   1   73.97    3.62
   2   0   1   74.94    3.64
   3   0   1  228.67   10.37
   3   0   1  214.18   10.38
   3   0   1  233.33   10.45
   3   0   1  217.43   10.73
   3   0   1  214.61   10.40
   3   0   1  198.29   10.42
   4   0   1    9.44    0.50
   4   0   1   10.17    0.97
   4   0   1    9.00    0.60
   4   0   1    9.26    0.51
   4   0   1   10.89    0.65
   4   0   1   10.47    0.58
   5   0   1   86.46    4.75
   5   0   1   88.33    4.23
   5   0   1   87.14    4.28
   5   0   1   85.36    4.12
   5   0   1   86.40    4.12
   5   0   1   85.47    4.29
   6   0   1   26.69    1.49
   6   0   1   25.76    1.49
   7   0   1   31.40    1.51
   7   0   1   32.27    1.79
   7   0   1   29.96    1.78
   7   0   1   31.64    1.51
  -7   0  -1   33.17    1.65
  -7   0  -1   28.68    2.21
   8   0   1   -0.18    0.12
   8   0   1    0.05    0.33
  -8   0  -1   -0.27    0.49
   8   0   1   -0.10    0.09
  -8   0  -1   -0.20    0.20
   8   0   1   -0.05    0.34
   9   0   1   34.95    1.69
   9   0   1   35.87    2.08
  -9   0  -1   32.24    2.67
 -10   0  -1    0.44    0.75
 -10  -1   1   23.66    1.59
  10  -1  -1   23.16    2.72
  10  -1  -1   22.80    1.18
 -10   1   1   27.88    1.56
  10   1  -1   25.13    1.29
  -9  -1   1    7.60    0.83
   9  -1  -1    6.64    0.44
   9  -1  -1    5.49    1.67
   9   1  -1    6.55    0.95
   9   1  -1    6.30    0.69
   9   1  -1    6.68    0.40
  -9   1   1    4.96    0.63
   8  -1  -1   44.84    3.22
  -8  -1   1   41.83    2.00
  -8  -1   1   35.73    2.25
   8  -1  -1   41.78    2.02
   8   1  -1   49.88    2.64
  -8   1   1   45.76    2.41
   8   1  -1   44.67    2.44
  -8   1   1   44.68    2.53
   8   1  -1   45.51    3.66
   8   1  -1   45.65    2.23
   7  -1  -1    0.18    0.12
   7  -1  -1    0.22    0.25
  -7  -1   1    0.21    0.31
  -7  -1   1    0.35    0.09
   7  -1  -1    0.16    0.10
   7  -1  -1    0.22    0.12
   7  -1  -1   -0.05    0.59
   7  -1  -1    0.32    0.11
  -7   1   1    0.43    0.30
   7   1  -1   -0.11    0.49
   7   1  -1    0.32    0.34
   7   1  -1    0.32    0.11
  -7   1   1    0.03    0.23
   7   1  -1    0.22    0.11
   7   1  -1    0.30    0.25
  -7   1   1    0.13    0.10
   6  -1  -1   89.98    4.58
   6  -1  -1  102.04    4.58
   6  -1  -1   94.56    4.58
  -6  -1   1   94.63    4.56
   6  -1  -1   90.23    4.58
   6  -1  -1   99.68    4.70
  -6  -1   1  100.60    4.77
   6  -1  -1   92.21    5.40
   6   1  -1   89.66    4.16
  -6   1   1   84.14    4.34
   6   1  -1   93.69    4.78
  -6   1   1   76.79    4.15
   6   1  -1   84.66    4.15
   6   1  -1   89.28    4.15
   6   1  -1   89.84    4.16
   6   1  -1   82.30    4.29
  -6   1   1   87.00    4.27
   6   1  -1   90.23    4.41
   5  -1  -1    1.63    0.16
   5  -1  -1    1.43    0.17
   5  -1  -1    1.00    0.51
  -5  -1   1    1.47    0.13
  -5  -1   1    1.14    0.28
   5  -1  -1    1.53    0.18
   5  -1  -1    0.60    0.19
   5  -1  -1    1.70    0.17
  -5   1   1    1.37    0.23
   5   1  -1    1.22    0.29
   5   1  -1    1.50    0.16
   5   1  -1    1.34    0.25
   5   1  -1    1.48    0.15
  -5   1   1    1.33    0.15
   5   1  -1    1.11    0.41
   5   1  -1    1.18    0.15
  -5   1   1    1.65    0.29
   5   1  -1    1.39    0.17
   4  -1  -1  252.49   12.82
   4  -1  -1  277.68   12.86
   4  -1  -1  288.38   12.83
   4  -1  -1  251.52   12.82
  -4  -1   1  299.32   12.81
  -4  -1   1  254.90   12.93
   4  -1  -1  246.65   13.34
   4  -1  -1  281.79   12.82
   4   1  -1  214.82   10.42
  -4   1   1  215.65   10.34
   4   1  -1  212.03   10.37
   4   1  -1  207.91   10.57
   4   1  -1  220.61   10.28
  -4   1   1  217.22   10.39
   4   1  -1  210.91   10.27
   4   1  -1  208.48   10.27
  -4   1   1  222.91   10.27
   4   1  -1  225.89   10.28
  -3  -1   1  110.41    5.21
   3  -1  -1  113.33    5.23
   3  -1  -1  109.02    5.65
   3  -1  -1  109.71    5.23
   3  -1  -1  112.08    5.23
   3  -1  -1  101.02    5.23
  -3  -1   1  112.72    5.32
   3  -1  -1  105.75    5.23
   3   1  -1  109.51    4.95
  -3   1   1  106.94    4.94
  -3   1   1  103.68    5.03
   3   1  -1   96.86    4.94
   3   1  -1  102.92    4.95
   3   1  -1  103.22    5.14
   3   1  -1  106.35    5.03
   3   1  -1   99.49    5.04
  -3   1   1  102.76    4.99
   3   1  -1  101.92    4.95
   2  -1  -1  702.86   34.30
   2  -1  -1  693.24   34.84
   2  -1  -1  693.44   34.29
  -2  -1   1  829.66   34.29
   2  -1  -1  692.49   34.30
  -2  -1   1  647.45   34.34
   2  -1  -1  759.40   34.31
   2  -1  -1  751.08   34.27
   2   1  -1  576.98   28.38
   2   1  -1  612.74   28.22
   2   1  -1  599.28   28.21
  -2   1   1  578.05   28.27
   2   1  -1  540.04   28.25
   2   1  -1  619.29   28.22
  -2   1   1  624.85   28.24
   2   1  -1  632.54   28.23
  -2   1   1  555.89   28.19
   1  -1  -1    5.76    0.32
   1  -1  -1    6.06    0.37
   1  -1  -1    7.46    0.57
  -1  -1   1    5.56    0.35
   1  -1  -1    5.93    0.37
   1  -1  -1    6.38    0.32
   1  -1  -1    6.01    0.37
  -1  -1   1    5.92    0.36
  -1  -1   1    5.82    0.36
   1   1  -1    6.20    0.37
   1   1  -1    6.07    0.38
  -1   1   1    6.47    0.37
   1   1  -1    6.24    0.45
  -1   1   1    6.65    0.41
  -1   1   1    5.45    0.36
   1   1  -1    5.94    0.37
   1   1  -1    6.40    0.35
   1   1  -1    6.02    0.36
  -1   1   1    6.25    0.37
   1   1  -1    6.32    0.37
   0  -1  -1  154.49    6.99
   0  -1   1  141.83    6.88
   0  -1   1  141.90    6.89
   0  -1   1  138.69    6.90
   0  -1  -1  146.69    6.89
   0  -1  -1  139.39    6.88
   0   1  -1  112.43    5.64
   0   1   1  116.72    5.64
   0   1  -1  117.86    5.63
   0   1   1  119.06    5.65
   0   1   1  120.73    5.64
   0   1  -1  118.42    5.63
   0   1   1  116.29    5.62
   0   1  -1  118.98    5.74
   0   1  -1  116.04    5.63
   0   1   1  118.41    5.64
   1  -1   1    8.04    0.41
   1  -1   1    7.22    0.44
  -1  -1  -1    7.68    0.43
  -1  -1  -1    7.97    0.54
   1  -1   1    7.26    0.48
   1  -1   1    7.14    0.44
  -1  -1  -1    7.63    0.44
   1  -1   1    7.05    0.43
   1   1   1    7.12    0.47
   1   1   1    7.79    0.42
   1   1   1    7.47    0.43
  -1   1  -1    7.05    0.43
   1   1   1    6.64    0.43
   1   1   1    7.60    0.47
  -1   1  -1    7.62    0.42
   1   1   1    7.25    0.43
   1   1   1    7.13    0.43
  -1   1  -1    7.90    0.44
  -1   1  -1    9.11    0.44
  -1   1  -1    7.50    0.40
  -2  -1  -1  178.79    9.35
   2  -1   1  187.26    9.26
   2  -1   1  194.17    9.26
   2  -1   1  196.20    9.29
   2  -1   1  222.29    9.27
   2  -1   1  194.56    9.60
   2  -1   1  186.04    9.26
   2   1   1  201.14    9.32
   2   1   1  186.72    9.32
  -2   1  -1  222.90    9.34
  -2   1  -1  192.61    9.32
   2   1   1  188.87    9.37
   2   1   1  172.05    9.38
   2   1   1  188.58    9.32
   2   1   1  210.57    9.33
  -3  -1  -1   35.58    1.93
   3  -1   1   36.52    1.79
   3  -1   1   35.45    1.75
   3  -1   1   33.55    2.17
   3  -1   1   36.31    1.75
   3  -1   1   34.75    1.74
   3  -1   1   37.06    1.75
   3   1   1   38.78    1.91
   3   1   1   37.58    1.81
   3   1   1   37.37    1.92
   3   1   1   36.64    1.81
  -3   1  -1   37.43    1.84
   3   1   1   37.05    1.81
   3   1   1   36.30    1.84
   3   1   1   36.67    1.81
  -3   1  -1   36.77    1.84
   4  -1   1  206.74   10.45
   4  -1   1  230.04   10.52
  -4  -1  -1  233.24   10.76
   4  -1   1  225.64   11.06
   4  -1   1  220.42   10.45
   4  -1   1  201.15   10.45
   4  -1   1  217.90   10.45
   4   1   1  219.85   10.60
   4   1   1  228.82   10.64
   4   1   1  218.49   10.59
  -4   1  -1  215.69   10.65
   4   1   1  226.42   10.59
   4   1   1  224.93   10.72
  -4   1  -1  219.38   10.64
   4   1   1  233.11   10.74
   4   1   1  215.27   10.58
   5  -1   1    5.41    0.35
   5  -1   1    6.39    0.36
   5  -1   1    5.69    1.00
   5  -1   1    5.81    0.35
  -5  -1  -1    6.01    0.72
   5  -1   1    5.86    0.35
   5  -1   1    5.47    0.47
   5   1   1    6.91    0.54
   5   1   1    5.54    0.33
  -5   1  -1    6.25    0.42
   5   1   1    5.78    0.41
   5   1   1    5.33    0.55
   5   1   1    5.46    0.33
   5   1   1    5.16    0.33
  -5   1  -1    5.45    0.45
   5   1   1    5.58    0.32
   6  -1   1   70.60    3.41
   6  -1   1   65.75    3.26
  -6  -1  -1   63.21    3.75
   6  -1   1   67.08    3.27
   6  -1   1   64.19    4.10
   6  -1   1   68.49    3.26
   6  -1   1   73.22    3.26
   6   1   1   57.83    3.03
  -6   1  -1   58.35    2.92
  -6   1  -1   57.19    2.96
   6   1   1   58.65    2.92
   6   1   1   58.79    3.05
   6   1   1   56.04    2.81
   6   1   1   56.81    2.82
   6   1   1   63.09    2.81
   6   1   1   58.82    2.82
   7  -1   1    2.36    0.24
  -7  -1  -1    2.72    0.76
   7  -1   1    1.58    0.79
   7  -1   1    1.95    0.20
   7  -1   1    2.44    0.24
   7  -1   1    2.20    0.26
   7  -1   1    1.33    0.35
   7   1   1    2.53    0.34
   7   1   1    2.41    0.46
   7   1   1    2.43    0.22
  -7   1  -1    2.77    0.39
  -7   1  -1    2.40    0.40
   7   1   1    2.45    0.21
   7   1   1    2.65    0.46
  -8  -1  -1   75.14    4.30
   8  -1   1   70.69    3.79
  -8   1  -1   63.05    2.85
   8   1   1   60.77    3.18
   8   1   1   56.19    3.03
  -8   1  -1   58.47    3.84
   8   1   1   59.70    2.84
  -8   1  -1   55.55    2.97
   8   1   1   55.12    3.16
   9  -1   1    5.28    0.40
   9   1   1    5.48    0.90
  -9   1  -1    5.42    1.34
   9   1   1    4.75    0.34
   9   1   1    5.55    0.85
  -9   1  -1    6.21    0.59
  -9   1  -1    4.89    0.36
  10  -1   1   37.73    1.86
 -10  -1  -1   36.47    2.26
 -10   1  -1   32.59    2.88
  10   1   1   30.35    1.55
 -10   1  -1   32.24    1.57
  -9  -2   1   23.91    1.65
   9  -2  -1   25.21    1.32
   9  -2  -1   23.98    2.77
   9  -2  -1   24.44    1.25
  -9   2   1   27.69    1.59
   9   2  -1   27.66    1.89
   9   2  -1   27.16    1.41
   9   2  -1   25.42    1.85
   8  -2  -1    6.73    0.49
  -8  -2   1    6.41    0.83
   8  -2  -1    8.21    0.53
   8  -2  -1    6.67    1.67
   8   2  -1    6.88    0.44
   8   2  -1    5.29    0.85
   8   2  -1    6.83    0.67
  -8   2   1    5.97    0.62
   8   2  -1    6.24    0.47
  -7  -2   1   60.74    3.08
   7  -2  -1   52.20    3.85
   7  -2  -1   58.74    2.85
   7  -2  -1   57.85    2.84
  -7   2   1   63.71    3.50
  -7   2   1   65.14    3.14
   7   2  -1   60.41    3.02
  -7   2   1   61.03    3.01
   7   2  -1   61.68    3.32
   7   2  -1   57.90    3.00
   7   2  -1   62.89    3.17
  -6  -2   1   13.44    1.03
   6  -2  -1   17.29    1.77
   6  -2  -1   14.21    0.83
   6  -2  -1   15.10    0.83
   6   2  -1   15.11    0.82
  -6   2   1   15.14    0.80
   6   2  -1   14.59    1.07
   6   2  -1   13.95    0.82
   6   2  -1   15.38    0.82
  -6   2   1   14.77    0.92
  -6   2   1   13.50    1.01
   6   2  -1   16.66    0.98
   5  -2  -1  108.78    5.35
   5  -2  -1  106.76    6.10
  -5  -2   1  106.90    5.50
   5  -2  -1  121.23    5.36
  -5  -2   1  112.84    5.33
   5  -2  -1  107.68    5.35
  -5   2   1   99.86    5.01
  -5   2   1  101.52    5.08
   5   2  -1  107.75    5.07
   5   2  -1   98.04    5.19
   5   2  -1  113.07    5.15
   5   2  -1   98.01    4.94
   5   2  -1  101.31    4.95
   5   2  -1  105.41    4.94
   5   2  -1   98.57    4.94
  -4  -2   1   31.76    1.58
   4  -2  -1   32.45    1.57
  -4  -2   1   32.25    1.73
   4  -2  -1   29.71    1.61
   4  -2  -1   33.36    1.62
   4  -2  -1   32.92    1.62
   4  -2  -1   30.32    1.61
  -4   2   1   27.66    1.49
  -4   2   1   29.64    1.54
   4   2  -1   31.95    1.66
  -4   2   1   30.30    1.60
   4   2  -1   29.49    1.50
   4   2  -1   29.22    1.63
   4   2  -1   28.89    1.50
   4   2  -1   30.15    1.50
   4   2  -1   29.42    1.49
   4   2  -1   30.12    1.63
   3  -2  -1  276.69   13.03
   3  -2  -1  270.70   13.03
   3  -2  -1  270.46   12.97
  -3  -2   1  269.27   13.11
   3  -2  -1  275.51   13.03
   3  -2  -1  270.33   13.54
  -3  -2   1  268.57   13.00
   3  -2  -1  280.38   13.03
   3   2  -1  237.53   11.83
  -3   2   1  260.73   11.89
   3   2  -1  247.18   11.93
   3   2  -1  259.93   11.92
  -3   2   1  255.97   11.86
   3   2  -1  237.18   11.83
  -3   2   1  239.93   11.82
   3   2  -1  238.88   11.84
   3   2  -1  252.35   11.83
   2  -2  -1    7.19    0.48
   2  -2  -1    7.69    0.79
  -2  -2   1    8.19    0.48
  -2  -2   1    7.90    0.56
  -2  -2   1    8.02    0.47
   2  -2  -1    8.05    0.48
  -2  -2   1    7.25    0.47
   2  -2  -1    7.75    0.48
   2   2  -1    7.74    0.48
   2   2  -1    8.06    0.55
   2   2  -1    7.14    0.41
  -2   2   1    7.51    0.47
  -2   2   1    7.90    0.49
  -2   2   1    7.97    0.46
  -2   2   1    7.59    0.50
   2   2  -1    8.62    0.49
  -2   2   1    7.61    0.48
   2   2  -1    8.25    0.51
   1  -2  -1  276.25   13.18
  -1  -2   1  271.12   13.21
   1  -2  -1  265.64   13.18
  -1  -2   1  272.74   13.17
   1  -2  -1  280.68   13.45
   1  -2  -1  274.92   13.15
  -1  -2   1  290.16   13.18
   1   2  -1  281.11   13.51
   1   2  -1  289.69   13.56
   1   2  -1  281.44   13.48
  -1   2   1  283.66   13.50
   1   2  -1  278.38   13.53
   1   2  -1  300.66   13.51
  -1   2   1  270.48   13.50
  -1   2   1  283.20   13.50
   1   2  -1  281.02   13.51
  -1   2   1  278.77   13.52
   0  -2  -1   76.15    3.52
   0  -2   1   69.72    3.51
   0  -2  -1   73.39    3.52
   0  -2   1   74.93    3.54
   0  -2  -1   71.00    3.67
   0  -2   1   70.18    3.51
   0  -2  -1   70.47    3.52
   0   2  -1   71.38    3.56
   0   2  -1   72.78    3.57
   0   2  -1   74.46    3.73
   0   2   1   73.21    3.58
   0   2  -1   73.68    3.58
   0   2   1   71.93    3.58
   0   2   1   75.20    3.56
   0   2   1   73.62    3.60
   0   2  -1   75.28    3.57
   0   2  -1   73.60    3.58
  -1  -2  -1  110.58    5.30
   1  -2   1  110.37    5.32
   1  -2   1  109.14    5.61
   1  -2   1  110.62    5.31
  -1  -2  -1  107.77    5.36
  -1  -2  -1  111.44    5.31
   1  -2   1  111.60    5.33
  -1   2  -1  141.54    6.53
   1   2   1  138.17    6.59
   1   2   1  132.55    6.55
  -1   2  -1  139.44    6.55
  -1   2  -1  138.86    6.55
   1   2   1  128.01    6.55
  -1   2  -1  133.83    6.55
   1   2   1  137.53    6.54
  -2  -2  -1    7.29    0.42
  -2  -2  -1    7.42    0.45
   2  -2   1    7.29    0.46
   2  -2   1    7.14    0.46
   2  -2   1    6.94    0.45
   2  -2   1    7.80    0.84
   2  -2   1    7.78    0.51
  -2   2  -1    6.17    0.43
  -2   2  -1    7.03    0.45
   2   2   1    7.06    0.45
   2   2   1    7.71    0.45
   2   2   1    6.88    0.52
   2   2   1    7.41    0.54
   2   2   1    6.95    0.46
  -2   2  -1    7.61    0.41
   2   2   1    7.23    0.45
  -2   2  -1    7.00    0.44
  -2   2  -1    7.87    0.46
   2   2   1    7.43    0.46
   3  -2   1  169.20    8.04
   3  -2   1  164.01    8.06
   3  -2   1  169.85    8.60
   3  -2   1  168.67    8.04
   3  -2   1  178.46    8.05
  -3  -2  -1  155.02    8.11
   3  -2   1  168.55    8.04
  -3   2  -1  185.00    8.34
   3   2   1  178.63    8.40
   3   2   1  169.82    8.35
   3   2   1  173.37    8.45
  -3   2  -1  160.35    8.34
   3   2   1  174.11    8.47
   3   2   1  179.91    8.36
  -3   2  -1  182.58    8.38
   3   2   1  161.84    8.35
   3   2   1  178.41    8.36
   4  -2   1   11.49    1.26
   4  -2   1   11.49    0.64
   4  -2   1   10.57    0.64
  -4  -2  -1   11.41    0.76
   4  -2   1   11.60    0.64
   4  -2   1   10.62    0.64
   4  -2   1   10.68    0.66
  -4   2  -1   11.20    0.63
   4   2   1   10.95    0.80
   4   2   1   10.86    0.63
   4   2   1   10.69    0.63
   4   2   1   11.57    0.64
   4   2   1   10.53    0.78
   4   2   1   11.44    0.70
   4   2   1   10.57    0.62
  -4   2  -1   10.67    0.67
  -4   2  -1   11.90    0.68
   5  -2   1   65.88    3.92
   5  -2   1   66.97    3.12
   5  -2   1   60.20    3.07
   5  -2   1   61.65    3.07
  -5  -2  -1   57.44    3.27
   5  -2   1   64.73    3.08
   5   2   1   62.50    3.10
   5   2   1   64.12    3.30
   5   2   1   62.95    3.10
  -5   2  -1   64.23    3.16
   5   2   1   62.43    3.10
   5   2   1   62.71    3.10
   5   2   1   65.57    3.17
   5   2   1   61.49    3.28
  -5   2  -1   65.22    3.15
   6  -2   1    2.83    0.89
   6  -2   1    3.24    0.33
   6  -2   1    3.83    0.42
   6  -2   1    3.08    0.33
   6   2   1    3.31    0.32
   6   2   1    3.21    0.31
   6   2   1    3.89    0.65
  -6   2  -1    2.42    0.30
   6   2   1    4.12    0.33
   6   2   1    3.29    0.40
   6   2   1    3.03    0.58
  -6   2  -1    4.33    0.42
   7  -2   1   34.06    1.71
   7  -2   1   34.35    1.70
   7  -2   1   30.80    2.76
   7   2   1   29.49    1.58
   7   2   1   29.55    1.49
  -7   2  -1   29.72    1.58
   7   2   1   30.09    1.81
   7   2   1   31.44    1.78
  -7   2  -1   26.46    1.48
   7   2   1   27.81    1.47
   8  -2   1    5.11    0.41
   8   2   1    4.13    0.76
   8   2   1    5.23    0.37
   8   2   1    5.99    0.44
  -8   2  -1    4.90    0.41
  -8   2  -1    5.06    0.57
  -9  -2  -1   51.91    3.03
   9  -2   1   53.74    2.70
   9  -2   1   55.48    2.66
   9   2   1   45.76    2.91
  -9   2  -1   48.76    2.55
   9   2   1   50.05    2.56
  -9   2  -1   62.24    3.98
  -9   2  -1   53.47    2.71
   9  -3  -1    0.59    0.25
   9  -3  -1    0.30    0.28
   9  -3  -1    0.79    1.08
  -9  -3   1   -0.08    0.50
   9   3  -1    0.29    0.22
   9   3  -1    0.79    0.56
   9   3  -1    0.46    0.28
  -9   3   1    0.71    0.36
   8  -3  -1   46.54    2.29
   8  -3  -1   45.64    3.72
   8  -3  -1   41.34    2.27
   8   3  -1   44.94    2.25
   8   3  -1   47.27    2.42
  -8   3   1   39.43    2.35
   8   3  -1   45.07    2.63
   8   3  -1   42.40    2.22
   7  -3  -1    6.59    0.57
   7  -3  -1    5.39    1.57
   7  -3  -1    7.92    0.58
  -7  -3   1    6.70    0.85
   7   3  -1    6.89    0.58
  -7   3   1    8.39    0.55
   7   3  -1    7.68    0.58
   7   3  -1    5.63    0.71
   7   3  -1    7.10    0.90
  -7   3   1    6.61    0.66
   6  -3  -1   58.59    3.99
   6  -3  -1   56.07    2.99
   6  -3  -1   64.76    3.00
  -6  -3   1   59.25    3.20
  -6   3   1   54.76    2.68
   6   3  -1   52.89    2.70
   6   3  -1   52.74    2.70
   6   3  -1   55.98    2.95
  -6   3   1   50.94    2.76
   6   3  -1   54.93    2.84
   5  -3  -1    8.06    0.56
   5  -3  -1    5.26    1.18
   5  -3  -1    7.43    0.54
  -5  -3   1    5.66    0.71
  -5   3   1    6.96    0.58
   5   3  -1    6.79    0.74
   5   3  -1    6.95    0.55
   5   3  -1    7.15    0.73
  -5   3   1    7.14    0.59
   5   3  -1    7.05    0.53
  -5   3   1    7.65    0.51
   4  -3  -1   45.63    3.34
   4  -3  -1   60.64    2.75
  -4  -3   1   56.89    2.87
   4  -3  -1   54.90    2.74
   4   3  -1   54.68    2.80
  -4   3   1   52.68    2.67
   4   3  -1   52.76    2.64
  -4   3   1   52.92    2.67
  -4   3   1   57.17    2.63
   4   3  -1   50.77    2.75
   4   3  -1   48.12    2.64
   3  -3  -1    4.14    0.87
  -3  -3   1    4.58    0.53
   3  -3  -1    4.89    0.42
  -3   3   1    4.24    0.38
   3   3  -1    5.02    0.42
   3   3  -1    5.33    0.50
  -3   3   1    4.86    0.42
  -3   3   1    4.65    0.41
   3   3  -1    4.48    0.53
   3   3  -1    4.62    0.42
   2  -3  -1  112.34    5.67
  -2  -3   1  113.80    5.73
  -2  -3   1  113.56    5.66
   2  -3  -1  114.82    5.67
  -2  -3   1  121.70    5.66
   2  -3  -1  122.96    5.63
   2  -3  -1  117.21    6.14
   2   3  -1  106.42    5.35
   2   3  -1  108.46    5.31
  -2   3   1  105.82    5.29
  -2   3   1  111.29    5.27
   2   3  -1  111.86    5.30
  -2   3   1  106.87    5.29
  -2   3   1  110.41    5.29
   2   3  -1  107.08    5.29
  -2   3   1  110.89    5.31
   1  -3  -1   26.24    1.42
  -1  -3   1   27.67    1.48
  -1  -3   1   27.32    1.42
   1  -3  -1   26.61    1.75
  -1  -3   1   26.91    1.43
   1  -3  -1   26.33    1.43
   1  -3  -1   28.58    1.40
   1   3  -1   25.55    1.45
   1   3  -1   27.59    1.51
  -1   3   1   26.99    1.42
  -1   3   1   27.51    1.43
  -1   3   1   27.33    1.44
   1   3  -1   26.11    1.42
   1   3  -1   26.09    1.42
   1   3  -1   27.89    1.42
   1   3  -1   26.28    1.39
  -1   3   1   28.42    1.41
   0  -3  -1   81.66    3.99
   0  -3  -1   80.44    4.21
   0  -3  -1   81.21    3.99
   0  -3   1   82.98    4.02
   0  -3  -1   81.86    3.98
   0  -3   1   80.39    3.99
   0   3  -1   74.94    3.82
   0   3   1   72.65    3.58
   0   3  -1   73.16    3.61
   0   3  -1   74.36    3.61
   0   3   1   71.25    3.60
   0   3  -1   73.25    3.60
   0   3  -1   72.17    3.61
   0   3   1   73.76    3.63
   1  -3   1   16.05    0.90
  -1  -3  -1   16.49    0.94
  -1  -3  -1   15.61    0.88
  -1  -3  -1   15.84    0.99
   1  -3   1   14.76    0.89
  -1   3  -1   15.82    0.90
  -1   3  -1   15.45    0.89
   1   3   1   16.11    0.96
   1   3   1   15.45    0.89
   1   3   1   16.56    0.91
  -1   3  -1   15.98    0.92
  -1   3  -1   17.22    0.92
  -1   3  -1   15.99    0.88
  -2  -3  -1  139.85    6.64
  -2  -3  -1  142.30    6.73
   2  -3   1  133.60    6.66
  -2  -3  -1  128.65    6.65
   2  -3   1  142.80    6.68
   2  -3   1  136.94    6.65
   2  -3   1  138.62    7.17
  -2   3  -1  121.65    6.03
   2   3   1  115.84    6.13
   2   3   1  123.75    6.06
   2   3   1  121.02    6.07
  -2   3  -1  136.76    6.08
  -2   3  -1  129.62    6.07
  -2   3  -1  125.78    6.07
   2   3   1  123.58    6.07
  -2   3  -1  128.98    6.05
   3  -3   1   10.82    0.67
   3  -3   1   10.76    0.68
   3  -3   1   10.08    1.18
   3  -3   1   10.32    0.69
  -3  -3  -1   11.02    0.79
  -3   3  -1   11.19    0.69
   3   3   1   10.36    0.68
   3   3   1   10.59    0.68
  -3   3  -1   10.61    0.65
   3   3   1   10.44    0.69
   3   3   1   10.28    0.78
  -3   3  -1   10.92    0.61
  -4  -3  -1  141.88    7.02
   4  -3   1  143.78    6.88
   4  -3   1  142.83    7.68
   4  -3   1  137.15    6.89
   4  -3   1  145.93    6.89
   4   3   1  123.84    6.01
  -4   3  -1  110.52    5.91
  -4   3  -1  119.73    5.96
   4   3   1  124.25    6.08
   4   3   1  128.12    5.95
   4   3   1  128.04    5.95
   5  -3   1    3.32    0.41
  -5  -3  -1    4.15    0.61
   5  -3   1    3.13    0.94
   5  -3   1    3.22    0.39
   5   3   1    2.88    0.41
   5   3   1    3.12    0.38
   5   3   1    3.74    0.41
  -5   3  -1    4.14    0.44
   5   3   1    2.43    0.48
  -5   3  -1    2.81    0.35
   6  -3   1   29.22    1.59
  -6  -3  -1   31.52    1.82
   6  -3   1   27.00    1.57
   6  -3   1   32.79    2.69
   6   3   1   21.22    1.22
   6   3   1   20.42    1.39
  -6   3  -1   19.03    1.18
   6   3   1   19.42    1.14
   6   3   1   20.92    1.14
  -6   3  -1   20.73    1.12
   7  -3   1    1.02    0.27
  -7  -3  -1    1.26    0.49
   7  -3   1    0.65    0.26
  -7   3  -1    0.64    0.23
  -7   3  -1    0.94    0.31
   7   3   1    0.67    0.45
   7   3   1    0.97    0.26
   7   3   1    0.94    0.27
  -8  -3  -1   24.56    1.75
   8  -3   1   27.23    1.41
   8  -3   1   24.85    1.43
   8   3   1   16.27    1.48
  -8   3  -1   23.31    1.30
  -8   3  -1   23.58    1.19
  -8   3  -1   19.45    2.24
   8   3   1   20.31    1.19
   8   3   1   21.52    1.17
   9  -3   1    0.32    0.28
   9  -3   1    0.09    0.23
  -9  -3  -1    0.11    0.53
  -9   3  -1   -0.02    0.81
   9   3   1    0.43    0.23
  -9   3  -1    0.08    0.23
   9   3   1    0.35    0.51
   9   3   1    0.52    0.28
  -9   3  -1    0.20    0.33
   8  -4  -1    1.29    1.16
   8  -4  -1    1.44    0.36
  -8  -4   1    0.96    0.58
   8  -4  -1    1.01    0.36
   8   4  -1    0.88    0.33
  -8   4   1    2.16    0.44
   8   4  -1    1.27    0.36
   8   4  -1    0.91    0.58
   7  -4  -1   70.43    3.41
  -7  -4   1   62.42    3.63
   7  -4  -1   68.96    4.80
   7  -4  -1   65.04    3.40
   7   4  -1   58.84    3.26
   7   4  -1   62.35    3.43
  -7   4   1   62.79    3.20
   7   4  -1   61.48    3.12
   7   4  -1   60.56    3.13
   6  -4  -1    1.43    0.96
  -6  -4   1    1.74    0.53
   6  -4  -1    1.06    0.31
   6  -4  -1    1.50    0.33
   6   4  -1    1.57    0.34
   6   4  -1    1.08    0.33
   6   4  -1    1.27    0.49
   6   4  -1    1.29    0.46
  -6   4   1    1.52    0.37
   5  -4  -1   50.24    2.71
   5  -4  -1   55.40    3.75
  -5  -4   1   47.70    2.86
   5  -4  -1   57.78    2.73
   5   4  -1   46.09    2.69
  -5   4   1   50.86    2.54
   5   4  -1   47.17    2.50
   5   4  -1   48.45    2.66
   5   4  -1   48.97    2.51
  -4  -4   1    3.45    0.63
   4  -4  -1    3.19    0.49
   4  -4  -1    3.12    0.91
   4  -4  -1    3.83    0.48
  -4   4   1    3.23    0.48
   4   4  -1    3.69    0.64
   4   4  -1    3.28    0.47
   4   4  -1    3.77    0.50
   4   4  -1    4.03    0.61
   3  -4  -1   78.60    3.78
  -3  -4   1   75.45    3.86
   3  -4  -1   70.82    3.74
   3  -4  -1   76.01    4.47
  -3   4   1   69.70    3.64
   3   4  -1   71.40    3.75
   3   4  -1   79.86    3.68
   3   4  -1   70.64    3.64
  -3   4   1   73.58    3.66
   3   4  -1   72.62    3.68
   2  -4  -1    3.65    0.45
   2  -4  -1    4.49    0.50
   2  -4  -1    3.90    0.87
  -2  -4   1    3.43    0.56
   2   4  -1    3.50    0.47
  -2   4   1    3.28    0.43
   2   4  -1    3.53    0.45
   2   4  -1    4.57    0.50
  -2   4   1    4.69    0.46
   2   4  -1    4.00    0.52
   1  -4  -1  119.18    5.80
   1  -4  -1  116.46    5.81
   1  -4  -1  123.67    5.78
   1  -4  -1  116.94    6.23
  -1  -4   1  109.69    5.83
  -1  -4   1  125.72    5.98
  -1   4   1  112.10    5.43
  -1   4   1  108.83    5.44
   1   4  -1  108.52    5.43
  -1   4   1  111.81    5.43
   1   4  -1  112.51    5.45
   1   4  -1  111.22    5.43
   1   4  -1  111.87    5.48
  -1   4   1  109.11    5.45
   0  -4  -1    2.63    0.41
   0  -4  -1    2.78    0.42
   0  -4   1    3.00    0.40
   0  -4   1    2.83    0.46
   0  -4   1    2.13    0.33
   0  -4  -1    2.64    0.62
   0  -4  -1    2.19    0.32
   0   4  -1    2.33    0.34
   0   4  -1    2.61    0.35
   0   4   1    2.97    0.38
   0   4  -1    2.53    0.36
   0   4   1    2.70    0.44
   0   4  -1    2.60    0.55
   0   4   1    2.62    0.40
   0   4  -1    2.21    0.35
   0   4  -1    2.74    0.40
   0   4   1    2.59    0.35
  -1  -4  -1  141.10    6.78
   1  -4   1  132.22    6.75
   1  -4   1  140.92    6.75
   1  -4   1  139.84    6.75
  -1   4  -1  137.39    6.52
  -1   4  -1  118.14    6.48
  -1   4  -1  136.31    6.48
   1   4   1  132.62    6.56
   1   4   1  133.06    6.52
   1   4   1  133.37    6.51
  -1   4  -1  140.34    6.53
  -1   4  -1  132.60    6.89
  -1   4  -1  134.83    6.50
   1   4   1  136.35    6.50
  -2  -4  -1   16.08    1.05
   2  -4   1   15.32    0.96
   2  -4   1   15.31    0.97
   2  -4   1   15.36    0.97
  -2   4  -1   15.75    0.97
  -2   4  -1   16.13    0.95
   2   4   1   16.08    0.99
  -2   4  -1   16.78    1.42
   2   4   1   16.08    1.06
  -2   4  -1   15.60    0.92
   2   4   1   17.03    0.99
   2   4   1   14.80    0.97
   3  -4   1  227.80   11.29
  -3  -4  -1  240.32   11.40
   3   4   1  228.10   10.75
   3   4   1  214.28   10.74
  -3   4  -1  226.09   10.71
   3   4   1  224.22   10.74
  -3   4  -1  215.71   10.73
   3   4   1  226.08   10.85
   4  -4   1    7.19    0.62
  -4  -4  -1    6.80    0.78
   4   4   1    6.83    0.62
  -4   4  -1    7.30    0.62
   4   4   1    6.26    0.68
  -4   4  -1    7.48    0.59
   4   4   1    8.18    0.64
   4   4   1    6.15    0.76
  -5  -4  -1   93.09    4.41
   5  -4   1   76.17    4.19
   5   4   1   86.34    4.33
  -5   4  -1   86.78    4.31
   5   4   1   91.19    4.55
   5   4   1   89.12    4.35
   5   4   1   89.67    4.44
  -5   4  -1   80.20    4.35
   6  -4   1    0.10    0.27
  -6  -4  -1    0.38    0.47
  -6   4  -1    0.38    0.30
   6   4   1    0.36    0.30
   6   4   1    0.14    0.27
  -6   4  -1    0.26    0.25
   6   4   1   -0.11    0.42
   7  -4   1   21.25    1.28
   7  -4   1   21.29    1.30
  -7  -4  -1   21.72    1.58
   7   4   1   21.19    1.28
  -7   4  -1   21.79    1.24
  -7   4  -1   22.72    1.34
   7   4   1   19.05    1.56
  -7   4  -1   21.45    2.26
   7   4   1   20.41    1.26
   8  -4   1    0.24    0.33
  -8  -4  -1    0.16    0.55
   8  -4   1    0.21    0.30
   8   4   1    0.34    0.32
  -8   4  -1    0.34    0.28
   8   4   1    0.29    0.56
   8   4   1    1.07    0.33
  -8   4  -1    0.18    0.85
  -8   4  -1   -0.06    0.34
   6  -5  -1   33.10    3.07
  -6  -5   1   28.22    2.00
   6  -5  -1   30.80    1.80
   6  -5  -1   32.14    1.81
   6   5  -1   33.68    1.90
   6   5  -1   33.91    1.89
   6   5  -1   33.13    2.09
   6   5  -1   31.61    2.13
  -6   5   1   33.92    1.93
   5  -5  -1    0.61    0.34
   5  -5  -1    0.80    0.35
   5  -5  -1    0.66    0.87
  -5  -5   1    0.62    0.51
   5   5  -1    0.49    0.46
   5   5  -1    0.44    0.35
   5   5  -1    0.78    0.49
   5   5  -1    0.50    0.35
  -5   5   1    0.26    0.33
   4  -5  -1   42.22    3.15
  -4  -5   1   35.44    2.27
   4  -5  -1   39.08    2.15
   4  -5  -1   40.46    2.16
   4   5  -1   44.47    2.36
  -4   5   1   37.24    2.22
   4   5  -1   39.63    2.39
   4   5  -1   42.44    2.25
   4   5  -1   43.76    2.26
   3  -5  -1    2.19    0.86
  -3  -5   1    2.36    0.52
   3  -5  -1    1.74    0.38
   3  -5  -1    1.75    0.37
   3   5  -1    1.82    0.47
   3   5  -1    2.06    0.40
  -3   5   1    1.68    0.38
   3   5  -1    1.80    0.38
   3   5  -1    1.24    0.40
   2  -5  -1   68.26    4.15
   2  -5  -1   70.79    3.48
  -2  -5   1   62.24    3.51
   2  -5  -1   69.81    3.47
  -2   5   1   65.06    3.37
   2   5  -1   66.08    3.46
   2   5  -1   68.12    3.39
   2   5  -1   63.88    3.39
   2   5  -1   66.20    3.38
  -2   5   1   65.85    3.37
   1  -5  -1   23.21    1.53
  -1  -5   1   21.74    1.39
   1   5  -1   20.18    1.24
   1   5  -1   19.35    1.24
   1   5  -1   19.84    1.26
   1   5  -1   19.94    1.22
  -1   5   1   19.82    1.24
  -1   5   1   19.20    1.20
   0  -5   1   54.27    2.87
   0  -5  -1   54.32    2.84
   0   5   1   56.84    2.90
   0   5  -1   55.87    2.92
   0   5  -1   57.67    2.94
   0   5   1   54.90    2.95
  -1  -5  -1   12.68    0.94
   1  -5   1   12.41    1.02
   1  -5   1   11.89    0.91
  -1   5  -1   11.81    0.85
   1   5   1   13.48    0.91
   1   5   1   11.97    0.89
   1   5   1   12.73    0.88
  -1   5  -1   11.62    0.89
   1   5   1   12.47    0.95
   2  -5   1   69.25    3.52
   2  -5   1   73.47    3.55
  -2  -5  -1   64.43    3.57
  -2   5  -1   69.85    3.62
   2   5   1   69.32    3.65
  -2   5  -1   77.09    3.66
   2   5   1   70.98    3.66
   2   5   1   70.40    3.75
  -2   5  -1   70.55    4.21
   2   5   1   74.58    3.67
   3  -5   1    2.77    0.45
  -3  -5  -1    2.41    0.51
   3  -5   1    3.10    0.46
  -3   5  -1    3.48    1.07
   3   5   1    3.92    0.59
  -3   5  -1    3.87    0.54
   3   5   1    3.72    0.61
  -3   5  -1    3.58    0.49
   3   5   1    3.31    0.52
   3   5   1    3.06    0.47
  -4  -5  -1   65.72    3.38
   4  -5   1   59.72    3.23
   4  -5   1   61.35    3.23
  -4   5  -1   61.62    3.21
   4   5   1   61.26    3.30
   4   5   1   62.02    3.42
   4   5   1   68.03    3.28
  -4   5  -1   57.66    3.99
   4   5   1   66.26    3.27
  -4   5  -1   63.93    3.26
   5  -5   1    0.24    0.33
  -5  -5  -1    0.40    0.48
   5  -5   1    0.07    0.34
   5   5   1    0.10    0.45
   5   5   1    0.43    0.35
  -5   5  -1    0.11    0.28
   5   5   1    0.33    0.34
  -5   5  -1    0.55    0.74
  -5   5  -1    0.03    0.32
   6  -5   1   17.70    1.22
  -6  -5  -1   20.04    1.49
   6  -5   1   16.09    1.19
  -6   5  -1   27.58    1.55
   6   5   1   26.35    1.53
   6   5   1   22.94    1.51
   6   5   1   23.03    1.76
  -6   5  -1   24.52    1.47
  -6   5  -1   24.69    2.50
  -4  -6   1    0.98    0.54
   4  -6  -1    0.78    0.42
   4   6  -1    0.70    0.43
   4   6  -1    0.12    0.50
  -4   6   1    0.60    0.43
   4   6  -1    1.11    0.52
   4   6  -1    0.38    0.41
  -3  -6   1   47.34    2.70
   3   6  -1   53.34    2.95
   3   6  -1   51.84    2.99
   3   6  -1   57.26    3.09
   3   6  -1   58.62    3.02
  -3   6   1   54.14    2.95
  -2  -6   1    0.86    0.48
   2   6  -1    0.24    0.42
  -2   6   1    0.56    0.42
   2   6  -1    0.90    0.45
  -1  -6   1   53.40    3.09
   1   6  -1   45.95    2.59
   1   6  -1   47.82    2.57
  -1   6   1   45.84    2.52
   0   6   1    7.61    0.86
   0   6  -1    7.69    0.85
   0   6   1    7.98    0.81
   1   6   1   22.10    1.45
  -1   6  -1   18.65    1.34
   1   6   1   21.11    1.36
  -2  -6  -1   -0.02    0.42
  -2   6  -1    0.57    0.40
   2   6   1    0.16    0.39
   2   6   1    0.30    0.43
  -3  -6  -1   25.45    1.69
  -3   6  -1   20.35    1.44
   3   6   1   21.72    1.45
   3   6   1   22.95    1.58
   3   6   1   22.72    1.46
   3   6   1   22.19    1.46
   4  -6   1    1.50    0.46
  -4  -6  -1    1.20    0.57
   4   6   1    1.22    0.45
  -4   6  -1    0.55    0.41
   4   6   1    0.52    0.52
   4   6   1    1.11    0.44
 -10   0   2   20.24    1.31
  10   0  -2   23.78    2.95
 -10   0   2   20.65    1.54
  10   0  -2   19.97    1.04
  -9   0   2   -0.15    0.36
   9   0  -2    0.03    0.14
   9   0  -2    0.20    0.36
   9   0  -2    0.01    0.78
   8   0  -2   81.37    4.33
  -8   0   2   89.93    4.60
   8   0  -2   93.62    4.54
  -8   0   2   90.05    4.51
   8   0  -2   95.72    5.40
   7   0  -2    3.99    0.32
  -7   0   2    4.27    0.51
   7   0  -2    4.74    1.07
   7   0  -2    4.55    0.28
   7   0  -2    3.95    0.53
   6   0  -2  154.60    7.47
   6   0  -2  153.51    7.30
  -6   0   2  157.43    7.45
   6   0  -2  150.71    7.31
   6   0  -2  152.83    7.30
   6   0  -2  167.35    7.31
   6   0  -2  134.93    7.96
   5   0  -2   19.18    1.51
   5   0  -2   19.71    0.95
   5   0  -2   20.02    0.98
   5   0  -2   19.58    0.96
   5   0  -2   17.49    1.08
  -5   0   2   19.80    1.08
   5   0  -2   17.72    0.95
  -4   0   2  313.71   15.51
   4   0  -2  344.42   15.94
   4   0  -2  325.63   15.44
   4   0  -2  317.06   15.44
   4   0  -2  340.81   15.46
   4   0  -2  331.83   15.54
   4   0  -2  300.17   15.47
  -3   0   2   -0.01    0.11
   3   0  -2    0.06    0.24
   3   0  -2    0.07    0.12
   3   0  -2    0.07    0.07
   3   0  -2    0.04    0.06
   3   0  -2    0.16    0.11
   3   0  -2    0.13    0.11
   2   0  -2  289.07   14.78
  -2   0   2  292.45   14.81
   2   0  -2  313.29   14.78
   2   0  -2  310.48   14.75
   2   0  -2  328.62   14.81
   2   0  -2  332.43   14.76
   2   0  -2  292.29   14.99
  -2   0   2  321.66   14.78
   1   0  -2   14.56    0.79
   1   0  -2   14.64    0.78
  -1   0   2   14.51    0.78
   1   0  -2   15.39    0.94
   1   0  -2   13.44    0.79
   1   0  -2   14.91    0.77
   1   0  -2   14.78    0.76
  -1   0   2   15.24    0.76
   0   0   2  126.73    6.54
   0   0  -2  143.79    6.55
   0   0  -2  134.88    6.75
   0   0   2  139.33    6.54
   0   0  -2  131.21    6.51
   0   0   2  140.32    6.55
   0   0  -2  138.32    6.53
   1   0   2   63.87    2.96
   1   0   2   58.59    2.96
  -1   0  -2   62.23    2.93
   1   0   2   60.15    2.94
   1   0   2   65.30    2.93
   1   0   2   59.57    2.93
  -1   0  -2   56.73    2.95
   1   0   2   57.15    2.96
   2   0   2  412.83   20.85
   2   0   2  452.72   20.82
   2   0   2  395.01   20.86
  -2   0  -2  462.82   21.09
   2   0   2  486.84   20.84
   2   0   2  445.34   20.82
   2   0   2  425.59   20.85
  -2   0  -2  420.22   20.82
   3   0   2    2.33    0.24
   3   0   2    2.49    0.19
   3   0   2    2.07    0.29
   3   0   2    1.48    0.23
  -3   0  -2    2.70    0.19
   3   0   2    2.23    0.24
  -3   0  -2    2.51    0.46
   3   0   2    2.84    0.18
   4   0   2  257.45   13.42
   4   0   2  280.83   13.39
   4   0   2  288.82   13.42
  -4   0  -2  280.67   13.42
   4   0   2  276.04   13.51
  -4   0  -2  296.02   13.86
   4   0   2  290.29   13.48
   4   0   2  282.21   13.40
   5   0   2   32.53    1.56
  -5   0  -2   31.58    1.61
   5   0   2   36.82    1.70
   5   0   2   33.78    1.74
  -5   0  -2   28.07    2.04
   5   0   2   31.51    1.57
   5   0   2   30.67    1.57
   5   0   2   32.08    1.58
   6   0   2  158.12    7.36
  -6   0  -2  159.44    7.43
   6   0   2  164.98    7.37
   6   0   2  148.80    7.56
   6   0   2  149.94    7.36
   6   0   2  157.47    7.53
   6   0   2  153.98    7.37
  -6   0  -2  140.74    7.98
   7   0   2   18.80    1.29
  -7   0  -2   21.23    1.76
  -7   0  -2   23.10    1.13
   7   0   2   18.67    1.02
   7   0   2   19.82    1.25
   7   0   2   20.38    1.05
   8   0   2   70.71    4.03
   8   0   2   81.51    3.77
  -8   0  -2   80.80    4.66
  -9   0  -2    0.94    0.72
   9   0   2    1.42    0.23
   9   0   2    1.11    0.47
  10   0   2   21.42    1.10
 -10   0  -2   19.88    2.37
  10  -1  -2    4.91    1.49
 -10  -1   2    4.54    0.93
  10  -1  -2    4.49    0.39
 -10   1   2    4.13    0.63
  10   1  -2    3.63    0.58
  10   1  -2    3.97    0.38
   9  -1  -2   40.15    2.00
   9   1  -2   48.22    2.49
   9   1  -2   44.92    2.21
  -9   1   2   44.04    2.60
  -9   1   2   43.01    2.40
   8  -1  -2    6.69    0.40
   8  -1  -2    6.28    0.37
   8  -1  -2    6.27    1.46
   8  -1  -2    6.68    0.44
  -8  -1   2    6.18    0.73
   8   1  -2    5.82    0.64
   8   1  -2    7.70    1.40
   8   1  -2    6.21    0.41
  -8   1   2    5.82    0.79
  -8   1   2    6.19    0.61
   8   1  -2    6.06    0.85
   7  -1  -2   88.56    4.19
   7  -1  -2   83.40    5.15
  -7  -1   2   91.63    4.39
   7  -1  -2   82.91    4.18
   7   1  -2   87.69    4.47
   7   1  -2   88.57    4.31
   7   1  -2   89.61    4.61
   7   1  -2   96.87    5.06
  -7   1   2   86.95    4.43
   7   1  -2   85.36    4.29
   7   1  -2   89.09    4.30
   7   1  -2   92.01    4.27
  -7   1   2   86.92    4.54
  -6  -1   2    1.06    0.13
   6  -1  -2    1.02    0.15
   6  -1  -2    1.02    0.16
  -6  -1   2    1.26    0.30
   6  -1  -2    1.27    0.19
   6  -1  -2    0.80    0.14
   6  -1  -2    0.95    0.61
   6   1  -2    0.67    0.13
   6   1  -2    1.11    0.15
   6   1  -2    0.68    0.46
   6   1  -2    1.17    0.36
   6   1  -2    0.75    0.12
   6   1  -2    0.84    0.17
  -6   1   2    1.20    0.34
   6   1  -2    1.04    0.27
  -6   1   2    0.62    0.21
   5  -1  -2  117.64    5.82
  -5  -1   2  126.05    5.80
   5  -1  -2  121.65    5.83
   5  -1  -2  127.07    6.54
  -5  -1   2  129.04    5.96
   5  -1  -2  113.42    5.82
   5  -1  -2  123.77    5.82
   5  -1  -2  111.78    5.93
   5   1  -2  120.53    5.90
   5   1  -2  119.52    6.03
   5   1  -2  127.96    5.91
  -5   1   2  120.41    6.07
   5   1  -2  126.85    5.92
   5   1  -2  125.86    5.92
  -5   1   2  123.00    5.95
   5   1  -2  117.88    6.33
   5   1  -2  127.39    6.11
  -4  -1   2    0.37    0.20
   4  -1  -2    0.17    0.09
   4  -1  -2    0.37    0.38
   4  -1  -2    0.33    0.11
  -4  -1   2    0.29    0.08
   4  -1  -2    0.33    0.11
   4  -1  -2    0.20    0.15
   4  -1  -2    0.29    0.09
   4   1  -2    0.42    0.21
  -4   1   2    0.17    0.12
   4   1  -2    0.16    0.09
   4   1  -2    0.32    0.20
   4   1  -2    0.02    0.26
   4   1  -2    0.20    0.10
  -4   1   2    0.22    0.19
   4   1  -2    0.35    0.11
   4   1  -2    0.42    0.11
  -3  -1   2  264.45   13.06
   3  -1  -2  278.04   13.08
   3  -1  -2  284.98   13.52
  -3  -1   2  271.81   13.15
   3  -1  -2  270.20   13.08
   3  -1  -2  277.74   13.09
   3  -1  -2  273.90   13.09
   3   1  -2  283.68   13.57
   3   1  -2  277.20   13.58
   3   1  -2  285.87   13.58
   3   1  -2  280.65   13.67
  -3   1   2  278.00   13.55
  -3   1   2  287.21   13.68
   3   1  -2  283.43   13.57
   3   1  -2  273.05   13.66
   3   1  -2  314.07   13.83
   2  -1  -2   29.02    1.38
   2  -1  -2   26.32    1.38
   2  -1  -2   27.46    1.38
   2  -1  -2   28.02    1.38
  -2  -1   2   26.24    1.36
   2  -1  -2   29.69    1.72
  -2  -1   2   26.58    1.38
  -2   1   2   27.53    1.47
  -2   1   2   27.11    1.38
  -2   1   2   28.28    1.34
  -2   1   2   29.10    1.39
  -2   1   2   28.00    1.34
   2   1  -2   29.58    1.39
   2   1  -2   28.46    1.55
   2   1  -2   27.45    1.45
   2   1  -2   24.85    1.38
   2   1  -2   26.25    1.38
   2   1  -2   27.58    1.46
   2   1  -2   27.61    1.38
  -1  -1   2  166.74    7.70
   1  -1  -2  158.71    7.93
  -1  -1   2  163.15    7.70
  -1  -1   2  146.94    7.72
   1  -1  -2  162.29    7.71
   1  -1  -2  167.94    7.71
   1   1  -2  213.66    8.88
   1   1  -2  168.34    9.04
  -1   1   2  184.46    8.91
  -1   1   2  184.19    8.85
   1   1  -2  178.38    8.87
  -1   1   2  189.06    8.86
  -1   1   2  186.16    8.85
   1   1  -2  184.46    8.85
   1   1  -2  180.01    8.85
   1   1  -2  178.50    8.88
  -1   1   2  188.93    8.82
   1   1  -2  186.99    8.86
   1   1  -2  185.70    8.84
   0  -1   2   23.44    1.30
   0  -1   2   26.28    1.29
   0  -1  -2   25.41    1.28
   0  -1   2   26.43    1.28
   0  -1  -2   25.92    1.28
   0   1   2   24.91    1.26
   0   1  -2   24.65    1.25
   0   1  -2   25.11    1.43
   0   1  -2   25.79    1.26
   0   1   2   25.16    1.23
   0   1  -2   25.48    1.26
   0   1   2   25.07    1.29
   0   1   2   24.92    1.25
   0   1  -2   23.58    1.25
   0   1   2   25.06    1.25
   1  -1   2  281.73   12.47
  -1  -1  -2  262.81   12.41
   1  -1   2  275.23   12.37
  -1  -1  -2  245.99   12.62
   1  -1   2  259.43   12.41
  -1  -1  -2  268.73   12.40
   1  -1   2  245.94   12.41
   1  -1   2  242.06   12.41
   1  -1   2  251.54   12.37
   1  -1   2  269.05   12.44
   1   1   2  259.00   12.55
  -1   1  -2  271.66   12.53
   1   1   2  269.39   12.49
   1   1   2  262.42   12.52
   1   1   2  267.11   12.53
  -1   1  -2  266.11   12.52
   1   1   2  253.95   12.55
  -1   1  -2  276.53   12.52
  -1   1  -2  263.51   12.76
   1   1   2  256.50   12.52
   1   1   2  242.14   12.52
   2  -1   2   65.80    3.39
   2  -1   2   77.81    3.41
   2  -1   2   73.93    3.46
   2  -1   2   74.90    3.40
  -2  -1  -2   68.09    3.59
   2  -1   2   60.89    3.39
   2   1   2   59.56    3.37
   2   1   2   68.47    3.39
  -2   1  -2   63.91    3.33
   2   1   2   72.10    3.34
   2   1   2   74.74    3.34
   2   1   2   72.78    3.34
  -2   1  -2   71.57    3.34
   2   1   2   75.03    3.33
  -2   1  -2   61.09    3.61
   3  -1   2  263.92   13.44
   3  -1   2  279.53   13.45
   3  -1   2  288.15   13.45
  -3  -1  -2  290.14   13.70
   3  -1   2  289.17   13.45
   3   1   2  294.07   13.85
   3   1   2  304.62   13.76
   3   1   2  285.32   13.74
   3   1   2  297.40   13.74
  -3   1  -2  272.77   14.15
   3   1   2  282.83   13.75
  -3   1  -2  297.58   13.76
   3   1   2  294.93   13.76
   3   1   2  267.40   13.82
   4  -1   2   34.80    1.70
   4  -1   2   34.03    1.71
   4  -1   2   34.79    1.79
  -4  -1  -2   32.69    2.00
   4  -1   2   34.56    1.71
   4  -1   2   35.87    1.71
   4   1   2   33.57    1.63
   4   1   2   32.80    1.78
   4   1   2   36.56    1.65
   4   1   2   32.96    1.65
  -4   1  -2   27.77    2.08
   4   1   2   35.64    1.76
   4   1   2   34.67    1.65
  -4   1  -2   33.56    1.67
   4   1   2   30.94    1.64
   5  -1   2  101.16    5.08
   5  -1   2  104.46    5.09
   5  -1   2  105.82    5.09
   5  -1   2  109.44    5.20
  -5  -1  -2  107.92    5.51
   5  -1   2  106.08    5.09
   5   1   2  115.31    5.48
   5   1   2  105.73    5.32
  -5   1  -2  115.19    5.96
   5   1   2  110.20    5.28
   5   1   2  107.80    5.29
  -5   1  -2  106.47    5.33
   5   1   2  111.89    5.44
   5   1   2  110.72    5.30
   5   1   2  108.97    5.28
   6  -1   2   10.61    0.62
   6  -1   2   11.36    0.62
   6  -1   2   11.59    0.62
  -6  -1  -2   11.96    1.11
   6  -1   2   10.79    0.63
   6  -1   2    9.92    0.76
   6   1   2   10.13    0.58
   6   1   2   10.74    0.58
   6   1   2   10.29    0.60
  -6   1  -2   11.68    1.26
   6   1   2   11.08    0.81
   6   1   2   10.53    0.66
   6   1   2   10.51    0.62
   6   1   2   11.85    0.88
  -6   1  -2   11.15    0.67
   7  -1   2   80.98    4.03
   7  -1   2   82.35    3.84
   7  -1   2   77.89    3.82
  -7  -1  -2   78.46    4.45
   7  -1   2   76.72    3.85
   7   1   2   83.11    4.15
   7   1   2   86.47    4.13
   7   1   2   83.23    4.16
   7   1   2   84.62    4.43
   7   1   2   82.82    4.37
  -7   1  -2   89.62    5.07
   7   1   2   95.36    4.34
  -7   1  -2   86.30    4.24
   8  -1   2    0.03    0.16
  -8  -1  -2    0.23    0.52
   8  -1   2   -0.04    0.09
   8  -1   2    0.09    0.12
   8  -1   2    0.22    0.34
   8   1   2    0.13    0.36
  -8   1  -2    0.23    0.63
   8   1   2    0.09    0.14
  -8   1  -2    0.03    0.21
   8   1   2   -0.23    0.39
   9  -1   2   26.25    1.36
   9   1   2   33.46    1.75
  -9   1  -2   39.93    2.92
   9   1   2   33.55    2.12
  -9   1  -2   35.61    1.75
   9   1   2   33.66    2.17
   9  -2  -2    1.65    0.27
  -9  -2   2    1.59    0.52
   9  -2  -2    1.26    0.21
   9  -2  -2    0.71    1.02
  -9   2   2    1.06    0.36
   9   2  -2    1.12    0.55
   9   2  -2    1.61    0.44
   9   2  -2    1.69    0.26
  -8  -2   2   47.18    2.62
   8  -2  -2   46.63    3.60
   8  -2  -2   46.37    2.33
   8  -2  -2   47.25    2.36
   8   2  -2   45.16    2.68
   8   2  -2   48.05    2.51
   8   2  -2   45.59    2.30
   8   2  -2   45.91    2.29
  -8   2   2   45.22    2.45
   7  -2  -2    1.18    0.22
   7  -2  -2    0.74    0.76
  -7  -2   2    0.96    0.40
   7  -2  -2    0.97    0.22
   7   2  -2    0.84    0.20
  -7   2   2    0.65    0.29
  -7   2   2    1.17    0.41
   7   2  -2    1.05    0.21
   7   2  -2    1.11    0.42
   7   2  -2    1.49    0.37
  -6  -2   2   30.21    1.99
   6  -2  -2   37.39    1.83
   6  -2  -2   37.29    1.84
   6  -2  -2   39.86    2.81
   6   2  -2   34.51    1.79
   6   2  -2   37.28    1.97
  -6   2   2   34.34    1.89
   6   2  -2   37.80    2.07
  -6   2   2   35.31    2.02
   6   2  -2   35.00    1.80
  -5  -2   2   12.60    0.64
   5  -2  -2   11.46    0.67
  -5  -2   2   10.71    0.83
   5  -2  -2   10.35    1.33
   5  -2  -2   10.98    0.67
  -5   2   2   12.14    0.76
   5   2  -2   10.32    0.86
   5   2  -2   12.95    0.85
   5   2  -2   11.52    0.67
   5   2  -2   11.12    0.93
  -5   2   2   11.26    0.85
   5   2  -2   11.21    0.65
   5   2  -2   11.58    0.66
   4  -2  -2  112.19    5.30
   4  -2  -2  103.04    5.28
   4  -2  -2  110.27    5.29
  -4  -2   2  113.28    5.41
  -4  -2   2  121.02    5.27
   4  -2  -2   95.89    5.84
   4   2  -2  109.79    5.30
   4   2  -2  110.35    5.30
  -4   2   2  104.76    5.42
   4   2  -2  109.11    5.46
   4   2  -2  108.59    5.30
   4   2  -2  111.19    5.44
   4   2  -2  106.88    5.42
  -4   2   2  112.43    5.35
   4   2  -2  114.03    5.31
   3  -2  -2   13.80    0.73
  -3  -2   2   12.37    0.69
  -3  -2   2   13.99    0.83
   3  -2  -2   11.92    1.17
   3  -2  -2   13.14    0.72
   3  -2  -2   12.58    0.73
   3  -2  -2   12.15    0.72
  -3   2   2   12.88    0.73
   3   2  -2   13.65    0.85
  -3   2   2   13.23    0.76
   3   2  -2   12.41    0.73
   3   2  -2   12.78    0.73
   3   2  -2   13.18    0.74
   3   2  -2   14.41    0.75
  -3   2   2   12.81    0.84
   3   2  -2   13.48    0.83
   3   2  -2   13.18    0.84
   2  -2  -2  235.39   11.43
  -2  -2   2  236.15   11.41
  -2  -2   2  243.69   11.42
   2  -2  -2  231.71   11.81
  -2  -2   2  253.98   11.50
   2  -2  -2  231.78   11.42
   2   2  -2  278.96   12.21
  -2   2   2  247.19   12.16
   2   2  -2  253.36   12.16
   2   2  -2  236.81   12.13
   2   2  -2  249.06   12.10
   2   2  -2  247.98   12.10
   2   2  -2  252.09   12.10
  -2   2   2  243.62   12.10
  -2   2   2  251.64   12.10
  -2   2   2  268.13   12.10
   2   2  -2  253.76   12.07
   1  -2  -2   12.55    0.72
   1  -2  -2   12.47    0.72
   1  -2  -2   12.93    0.67
   1  -2  -2   13.16    0.99
  -1  -2   2   12.08    0.76
  -1  -2   2   12.89    0.71
   1   2  -2   12.81    0.75
  -1   2   2   13.22    0.78
  -1   2   2   13.34    0.73
   1   2  -2   13.65    0.74
   1   2  -2   13.03    0.76
   1   2  -2   13.47    0.91
  -1   2   2   13.32    0.74
  -1   2   2   13.50    0.74
   1   2  -2   12.70    0.71
   1   2  -2   13.39    0.74
   0  -2  -2  230.31   10.92
   0  -2   2  225.16   10.91
   0  -2  -2  228.52   10.91
   0  -2   2  230.40   10.94
   0  -2  -2  231.44   11.10
   0  -2   2  221.86   10.91
   0   2   2  241.65   11.57
   0   2  -2  244.36   11.59
   0   2  -2  232.44   11.59
   0   2   2  244.33   11.60
   0   2   2  239.96   11.59
   0   2  -2  240.57   11.58
   0   2  -2  244.84   11.60
   0   2   2  244.81   11.60
   0   2  -2  241.52   11.79
   0   2   2  244.21   11.64
   0   2  -2  247.98   11.60
  -1  -2  -2   14.40    0.91
   1  -2   2   13.83    0.79
   1  -2   2   15.07    0.85
  -1  -2  -2   14.82    0.80
   1  -2   2   15.11    0.81
  -1  -2  -2   13.82    0.79
   1   2   2   14.86    0.86
   1   2   2   14.07    0.83
   1   2   2   15.95    0.88
  -1   2  -2   15.39    1.09
   1   2   2   15.44    0.79
   1   2   2   14.84    0.82
  -1   2  -2   14.98    0.82
  -1   2  -2   15.10    0.78
  -1   2  -2   15.03    0.82
  -1   2  -2   14.56    0.82
  -2  -2  -2  300.08   14.35
   2  -2   2  302.48   14.36
   2  -2   2  300.71   14.40
   2  -2   2  296.61   14.35
  -2  -2  -2  297.63   14.46
  -2  -2  -2  330.97   14.34
   2  -2   2  275.11   14.40
  -2   2  -2  286.40   13.75
  -2   2  -2  298.71   14.24
   2   2   2  284.09   13.88
   2   2   2  287.05   13.82
  -2   2  -2  289.37   13.82
  -2   2  -2  285.94   13.81
   2   2   2  292.08   13.89
  -2   2  -2  296.67   13.81
   2   2   2  292.46   13.82
   2   2   2  283.92   13.81
   2   2   2  289.52   13.79
  -2   2  -2  291.11   13.80
   2   2   2  282.27   13.81
   3  -2   2   22.71    1.21
   3  -2   2   24.01    1.22
   3  -2   2   23.76    1.28
   3  -2   2   22.81    1.21
   3  -2   2   24.30    1.23
  -3  -2  -2   22.64    1.44
  -3   2  -2   23.97    1.19
  -3   2  -2   30.12    1.83
  -3   2  -2   25.52    1.30
   3   2   2   22.35    1.28
   3   2   2   24.05    1.30
  -3   2  -2   24.46    1.27
   3   2   2   26.02    1.28
   3   2   2   25.99    1.39
   3   2   2   23.80    1.28
   3   2   2   23.41    1.29
   3   2   2   24.20    1.39
  -3   2  -2   25.51    1.20
   4  -2   2  108.39    5.40
   4  -2   2  116.78    5.35
   4  -2   2  111.91    5.35
   4  -2   2  109.89    5.34
   4  -2   2  101.90    5.34
  -4  -2  -2  114.18    5.60
  -4   2  -2  107.72    5.08
  -4   2  -2  109.94    5.03
   4   2   2  106.53    5.09
   4   2   2  103.48    5.09
   4   2   2  109.52    5.25
   4   2   2   92.11    5.19
   4   2   2  108.34    5.11
  -4   2  -2  102.31    5.70
   4   2   2  113.38    5.10
   4   2   2  102.15    5.08
  -4   2  -2  101.52    5.11
   5  -2   2    2.99    0.43
   5  -2   2    4.05    0.35
  -5  -2  -2    3.42    0.55
   5  -2   2    4.82    0.36
   5   2   2    3.44    0.55
   5   2   2    4.05    0.33
   5   2   2    3.72    0.33
  -5   2  -2    3.25    0.81
   5   2   2    3.17    0.33
   5   2   2    3.85    0.53
  -5   2  -2    3.52    0.38
   5   2   2    3.99    0.35
   6  -2   2   52.53    2.76
   6  -2   2   53.41    2.68
   6  -2   2   55.76    2.68
   6   2   2   51.03    2.53
   6   2   2   41.76    2.69
  -6   2  -2   53.57    2.49
  -6   2  -2   52.35    2.56
   6   2   2   52.00    2.72
   6   2   2   49.38    2.49
  -6   2  -2   53.77    3.36
   6   2   2   48.33    2.48
   7  -2   2    4.14    0.40
   7  -2   2    3.86    0.39
  -7   2  -2    4.58    0.50
   7   2   2    5.31    0.79
  -7   2  -2    4.54    1.10
   7   2   2    4.98    0.40
   7   2   2    5.21    0.42
   7   2   2    5.46    0.71
  -7   2  -2    4.41    0.40
   8  -2   2   35.81    1.89
   8  -2   2   37.77    1.88
   8   2   2   37.07    1.88
   8   2   2   42.14    2.27
  -8   2  -2   37.20    2.98
   8   2   2   37.68    1.92
  -8   2  -2   36.23    1.91
  -8   2  -2   37.61    2.02
   8   2   2   38.01    2.30
   9  -2   2    1.18    0.27
   9  -2   2    0.96    0.25
   9   2   2    1.36    0.25
   9   2   2    0.66    0.49
  -9   2  -2    0.95    0.84
  -9   2  -2    1.16    0.25
  -9   2  -2    1.40    0.35
   9  -3  -2   24.19    2.95
  -9  -3   2   26.21    1.78
   9  -3  -2   26.67    1.45
   9  -3  -2   25.14    1.40
   9   3  -2   28.56    1.54
   9   3  -2   30.20    1.59
   9   3  -2   29.80    2.07
  -9   3   2   26.60    1.72
   8  -3  -2    1.91    0.32
  -8  -3   2    1.61    0.55
   8  -3  -2    1.17    1.04
   8  -3  -2    1.93    0.33
  -8   3   2    1.36    0.39
   8   3  -2    1.34    0.28
   8   3  -2    1.19    0.29
   8   3  -2    1.66    0.46
   8   3  -2    1.41    0.58
  -7  -3   2   30.34    1.94
   7  -3  -2   32.27    1.72
   7  -3  -2   32.34    1.72
   7  -3  -2   34.48    2.91
   7   3  -2   30.25    1.55
  -7   3   2   26.96    1.63
   7   3  -2   27.80    1.54
   7   3  -2   31.05    1.75
   7   3  -2   27.90    1.84
   6  -3  -2    3.86    0.43
   6  -3  -2    4.52    1.30
  -6  -3   2    3.50    0.55
   6  -3  -2    2.49    0.35
  -6   3   2    3.61    0.49
   6   3  -2    3.72    0.69
   6   3  -2    3.31    0.43
   6   3  -2    3.97    0.61
  -6   3   2    3.26    0.56
   6   3  -2    3.36    0.43
   5  -3  -2   52.67    2.52
  -5  -3   2   50.72    2.67
   5  -3  -2   47.19    3.34
   5  -3  -2   47.20    2.51
   5   3  -2   43.45    2.30
  -5   3   2   45.61    2.35
   5   3  -2   46.72    2.30
   5   3  -2   46.17    2.47
  -5   3   2   49.64    2.42
   5   3  -2   39.37    2.45
   4  -3  -2    3.27    0.38
  -4  -3   2    3.49    0.53
   4  -3  -2    3.02    0.90
   4  -3  -2    2.82    0.38
   4   3  -2    2.98    0.38
   4   3  -2    2.62    0.35
   4   3  -2    1.93    0.39
  -4   3   2    2.66    0.40
   4   3  -2    2.59    0.50
  -4   3   2    2.25    0.41
   3  -3  -2  163.37    7.74
   3  -3  -2  166.18    8.37
   3  -3  -2  163.11    7.74
  -3  -3   2  147.81    7.81
   3   3  -2  176.51    8.42
  -3   3   2  170.35    8.43
  -3   3   2  170.13    8.46
   3   3  -2  173.57    8.48
   3   3  -2  174.49    8.52
   3   3  -2  182.28    8.43
   2  -3  -2   11.19    0.72
  -2  -3   2   12.64    0.82
   2  -3  -2   11.10    1.12
   2  -3  -2   12.07    0.64
  -2  -3   2   10.95    0.71
  -2  -3   2   12.59    0.72
   2  -3  -2   12.04    0.74
   2   3  -2   12.72    0.79
  -2   3   2   10.77    0.71
   2   3  -2   12.61    0.68
  -2   3   2   12.19    0.71
   2   3  -2   11.88    0.72
   2   3  -2   12.15    0.73
  -2   3   2   11.11    0.71
  -2   3   2   11.27    0.75
   2   3  -2   10.85    0.78
   2   3  -2   11.15    0.74
  -1  -3   2  166.11    8.15
   1  -3  -2  166.99    8.16
  -1  -3   2  172.29    8.21
   1  -3  -2  166.51    8.16
  -1  -3   2  168.53    8.16
   1  -3  -2  163.61    8.51
   1  -3  -2  179.04    8.12
   1   3  -2  182.79    9.05
   1   3  -2  182.25    9.02
  -1   3   2  192.06    9.05
   1   3  -2  188.51    9.06
   1   3  -2  186.23    9.21
  -1   3   2  187.50    9.04
   1   3  -2  194.60    9.06
  -1   3   2  188.59    9.09
  -1   3   2  189.93    9.06
   1   3  -2  187.51    9.08
   0  -3   2   42.58    2.20
   0  -3   2   45.69    2.24
   0  -3  -2   45.00    2.20
   0  -3  -2   42.00    2.44
   0  -3   2   41.21    2.19
   0  -3  -2   44.12    2.19
   0  -3  -2   42.07    2.19
   0   3   2   46.57    2.22
   0   3   2   42.99    2.16
   0   3  -2   43.23    2.16
   0   3  -2   43.02    2.15
   0   3   2   42.69    2.16
   0   3   2   41.28    2.13
   0   3  -2   39.33    2.14
   0   3  -2   41.83    2.39
   0   3  -2   41.76    2.16
  -1  -3  -2  159.97    7.68
   1  -3   2  163.60    7.68
   1  -3   2  155.60    7.70
  -1  -3  -2  158.33    7.66
   1  -3   2  154.90    7.66
  -1  -3  -2  157.21    7.81
  -1  -3  -2  162.94    7.70
  -1   3  -2  175.72    8.41
   1   3   2  171.99    8.42
  -1   3  -2  176.98    8.45
  -1   3  -2  179.61    8.45
  -1   3  -2  170.10    8.44
   1   3   2  174.86    8.45
  -1   3  -2  179.76    8.43
   1   3   2  173.87    8.45
   1   3   2  177.42    8.51
  -1   3  -2  171.68    8.78
   2  -3   2    7.19    0.55
   2  -3   2    8.75    0.58
   2  -3   2    8.63    0.64
  -2  -3  -2    7.76    0.55
  -2  -3  -2    8.48    0.54
  -2  -3  -2    7.96    0.58
  -2   3  -2    7.00    0.52
  -2   3  -2    8.35    0.53
  -2   3  -2    7.30    0.53
   2   3   2    7.11    0.50
   2   3   2    8.05    0.54
  -2   3  -2    7.64    0.45
  -2   3  -2    7.44    0.91
  -2   3  -2    7.36    0.51
   2   3   2    7.54    0.54
   2   3   2    6.79    0.60
   3  -3   2  112.05    5.26
   3  -3   2  105.99    5.31
   3  -3   2  105.65    5.27
   3   3   2  118.76    5.66
   3   3   2  120.63    5.66
  -3   3  -2  103.86    5.57
  -3   3  -2  117.05    5.66
  -3   3  -2  115.35    5.63
   3   3   2  121.38    5.65
  -3   3  -2  117.09    6.23
   3   3   2  113.51    5.75
   3   3   2  119.66    5.78
   4  -3   2    0.39    0.20
   4  -3   2    0.73    0.22
   4  -3   2    0.41    0.24
   4   3   2    0.41    0.30
   4   3   2    0.50    0.33
   4   3   2    0.17    0.24
   4   3   2    0.06    0.19
  -4   3  -2    0.36    0.50
  -4   3  -2    0.36    0.22
  -4   3  -2    0.32    0.18
   4   3   2    0.35    0.20
   5  -3   2   32.98    1.90
   5  -3   2   41.75    1.93
   5  -3   2   35.58    2.00
   5   3   2   43.00    2.38
  -5   3  -2   50.31    2.38
   5   3   2   47.70    2.43
   5   3   2   46.98    2.61
   5   3   2   52.06    2.60
  -5   3  -2   44.49    3.11
  -5   3  -2   46.06    2.42
   5   3   2   46.39    2.39
   6  -3   2    5.34    0.50
   6  -3   2    4.33    0.47
   6   3   2    5.81    0.51
  -6   3  -2    3.49    1.12
   6   3   2    6.78    0.84
  -6   3  -2    6.22    0.55
   6   3   2    4.19    0.76
  -6   3  -2    5.14    0.47
   6   3   2    5.86    0.51
   7  -3   2   37.43    2.10
   7  -3   2   43.78    2.12
   7   3   2   48.24    2.64
  -7   3  -2   49.14    3.41
  -7   3  -2   44.64    2.32
   7   3   2   43.93    2.34
  -7   3  -2   43.66    2.39
   7   3   2   45.63    2.33
   8  -3   2    1.29    0.29
   8  -3   2    0.99    0.30
  -8  -3  -2    0.80    0.54
   8   3   2    0.92    0.27
  -8   3  -2    0.85    0.85
   8   3   2    0.73    0.28
  -8   3  -2    0.67    0.25
   8   3   2    0.95    0.51
  -8   3  -2    0.83    0.33
  -8  -4   2   18.59    1.49
   8  -4  -2   18.74    1.18
   8  -4  -2   19.23    1.18
   8  -4  -2   16.83    2.49
  -8   4   2   19.61    1.36
   8   4  -2   19.53    1.53
   8   4  -2   20.31    1.28
   8   4  -2   22.19    1.70
   8   4  -2   23.15    1.30
  -7  -4   2    0.44    0.51
   7  -4  -2    0.54    0.95
   7  -4  -2   -0.17    0.29
   7  -4  -2    0.43    0.31
   7   4  -2    0.18    0.48
  -7   4   2    0.59    0.34
   7   4  -2    0.55    0.30
   7   4  -2    0.67    0.44
   7   4  -2    0.67    0.32
  -6  -4   2   22.33    1.55
   6  -4  -2   23.81    1.35
   6  -4  -2   23.97    2.46
   6  -4  -2   20.80    1.33
   6   4  -2   25.20    1.69
   6   4  -2   26.10    1.46
  -6   4   2   23.35    1.50
   6   4  -2   25.76    1.65
   6   4  -2   26.73    1.47
   5  -4  -2    2.33    0.38
  -5  -4   2    1.51    0.49
   5  -4  -2    2.38    0.91
   5  -4  -2    1.85    0.35
   5   4  -2    2.14    0.37
   5   4  -2    1.31    0.47
   5   4  -2    1.42    0.46
  -5   4   2    1.81    0.35
   5   4  -2    2.39    0.36
  -4  -4   2   59.62    3.24
   4  -4  -2   55.92    3.10
   4  -4  -2   68.43    4.03
  -4   4   2   59.85    3.08
   4   4  -2   58.75    3.19
  -4   4   2   61.19    3.07
   4   4  -2   58.90    3.06
   4   4  -2   59.88    3.06
   4   4  -2   62.28    3.18
  -3  -4   2   24.19    1.54
   3  -4  -2   25.97    2.10
   3  -4  -2   27.10    1.45
  -3   4   2   25.42    1.45
  -3   4   2   26.41    1.48
   3   4  -2   24.83    1.55
   3   4  -2   24.99    1.51
   3   4  -2   28.30    1.48
   3   4  -2   26.56    1.46
  -2  -4   2   70.21    3.59
   2  -4  -2   70.51    3.52
   2  -4  -2   70.13    3.52
   2  -4  -2   69.22    4.08
   2   4  -2   76.70    3.74
   2   4  -2   75.23    3.76
  -2   4   2   74.56    3.77
  -2   4   2   72.81    3.73
   2   4  -2   73.23    3.80
   2   4  -2   76.21    3.75
  -1  -4   2    5.41    0.60
   1  -4  -2    4.89    0.51
   1  -4  -2    5.13    0.45
   1  -4  -2    5.66    0.53
   1  -4  -2    5.88    0.88
   1   4  -2    5.04    0.51
   1   4  -2    4.62    0.53
   1   4  -2    4.90    0.54
   1   4  -2    5.28    0.51
  -1   4   2    4.68    0.47
  -1   4   2    5.26    0.54
  -1   4   2    5.26    0.49
  -1   4   2    6.00    0.53
   0  -4  -2   36.78    1.89
   0  -4   2   36.19    1.90
   0  -4  -2   35.32    1.88
   0  -4   2   34.53    1.94
   0  -4   2   36.52    1.91
   0  -4  -2   35.72    1.90
   0  -4  -2   35.57    2.20
   0   4  -2   39.48    2.13
   0   4   2   41.99    2.14
   0   4   2   40.92    2.13
   0   4  -2   43.52    2.42
   0   4  -2   40.86    2.12
   0   4  -2   39.06    2.12
   0   4  -2   41.16    2.13
   0   4  -2   40.58    2.09
   0   4   2   40.60    2.18
   0   4   2   39.02    2.10
  -1  -4  -2    1.45    0.32
   1  -4   2    1.32    0.30
   1  -4   2    1.63    0.30
   1  -4   2    1.46    0.32
  -1   4  -2    1.75    0.32
  -1   4  -2    1.78    0.28
   1   4   2    1.64    0.31
   1   4   2    1.91    0.36
  -1   4  -2    1.52    0.50
   1   4   2    1.76    0.29
  -1   4  -2    1.81    0.29
   1   4   2    1.50    0.32
  -1   4  -2    1.65    0.27
   2  -4   2   38.82    2.00
   2  -4   2   36.60    2.02
   2  -4   2   36.51    1.97
  -2  -4  -2   37.69    2.04
  -2   4  -2   36.55    2.03
   2   4   2   39.71    2.06
   2   4   2   39.22    2.02
  -2   4  -2   40.39    2.54
  -2   4  -2   38.44    2.01
   2   4   2   38.60    2.05
   2   4   2   37.93    2.12
   3  -4   2    4.27    0.58
   3  -4   2    4.58    0.53
   3  -4   2    6.24    0.57
  -3  -4  -2    5.04    0.65
  -3   4  -2    4.64    0.96
  -3   4  -2    4.35    0.50
   3   4   2    4.30    0.63
   3   4   2    5.09    0.54
   3   4   2    6.00    0.56
   3   4   2    4.81    0.51
  -3   4  -2    4.88    0.49
   4  -4   2   20.06    1.18
  -4  -4  -2   18.39    1.30
   4  -4   2   19.03    1.15
   4   4   2   27.89    1.48
  -4   4  -2   26.28    1.44
   4   4   2   26.61    1.48
  -4   4  -2   27.34    1.47
  -4   4  -2   26.53    2.18
   4   4   2   25.00    1.49
   4   4   2   22.68    1.59
   5  -4   2    0.03    0.26
  -5  -4  -2   -0.28    0.39
   5  -4   2    0.14    0.27
  -5   4  -2   -0.14    0.25
   5   4   2    0.69    0.29
  -5   4  -2   -0.14    0.56
   5   4   2    0.21    0.28
  -5   4  -2    0.12    0.24
   5   4   2    0.05    0.38
  -6  -4  -2   21.46    1.63
   6  -4   2   24.38    1.39
   6  -4   2   24.62    1.40
   6   4   2   27.93    1.58
  -6   4  -2   28.14    1.60
   6   4   2   26.86    1.83
  -6   4  -2   26.06    2.44
   6   4   2   27.05    1.58
  -6   4  -2   31.15    1.56
  -7  -4  -2    0.59    0.56
   7  -4   2   -0.01    0.28
   7  -4   2    0.04    0.29
  -7   4  -2    0.38    0.74
  -7   4  -2    0.34    0.27
  -7   4  -2    0.51    0.34
   7   4   2    0.26    0.31
   7   4   2    0.37    0.31
   7   4   2    0.57    0.51
   6  -5  -2    1.42    0.40
  -6  -5   2    0.97    0.58
   6  -5  -2    0.50    0.37
   6  -5  -2    1.14    1.01
   6   5  -2    0.43    0.35
  -6   5   2    1.23    0.42
   6   5  -2    1.17    0.54
   6   5  -2    0.83    0.53
   6   5  -2    0.55    0.38
   5  -5  -2   19.37    1.21
  -5  -5   2   18.09    1.41
   5  -5  -2   17.53    1.19
   5  -5  -2   17.41    2.20
  -5   5   2   20.63    1.36
   5   5  -2   21.41    1.53
   5   5  -2   20.79    1.53
   5   5  -2   21.73    1.34
   5   5  -2   21.02    1.33
   4  -5  -2   -0.03    0.31
   4  -5  -2   -0.25    0.29
   4  -5  -2   -0.05    0.69
  -4  -5   2   -0.33    0.38
   4   5  -2   -0.25    0.29
  -4   5   2    0.27    0.32
   4   5  -2    0.11    0.38
   4   5  -2    0.28    0.31
   4   5  -2   -0.21    0.40
   3  -5  -2   40.95    3.01
   3  -5  -2   40.04    2.22
  -3  -5   2   41.39    2.34
   3  -5  -2   41.63    2.25
  -3   5   2   38.16    2.13
   3   5  -2   39.97    2.20
   3   5  -2   38.75    2.15
   3   5  -2   41.89    2.27
  -3   5   2   39.92    2.16
   3   5  -2   37.38    2.14
  -2  -5   2    1.17    0.42
   2  -5  -2    1.41    0.36
   2  -5  -2    0.77    0.35
   2  -5  -2    1.42    0.72
   2   5  -2    1.16    0.39
  -2   5   2    1.07    0.33
   2   5  -2    0.97    0.33
  -2   5   2    0.92    0.34
   2   5  -2    1.82    0.45
   2   5  -2    1.47    0.37
  -1  -5   2   31.48    1.86
   1   5  -2   29.80    1.67
  -1   5   2   28.05    1.60
   1   5  -2   28.59    1.63
   1   5  -2   27.42    1.61
   1   5  -2   28.07    1.65
  -1   5   2   27.76    1.65
   0  -5   2   14.43    1.04
   0   5  -2   14.56    1.00
   0   5  -2   15.55    1.04
   0   5   2   15.35    1.07
   0   5   2   14.95    1.00
   1  -5   2   39.77    2.37
  -1  -5  -2   36.75    2.02
   1  -5   2   34.44    2.02
   1   5   2   30.68    1.65
  -1   5  -2   28.84    1.66
   1   5   2   29.22    1.67
   1   5   2   28.43    1.73
   1   5   2   29.54    1.69
  -2  -5  -2    2.01    0.44
   2  -5   2    1.21    0.36
   2  -5   2    1.25    0.37
  -2   5  -2    1.30    0.35
   2   5   2    1.19    0.42
  -2   5  -2    1.37    0.34
   2   5   2    1.95    0.40
   2   5   2    1.69    0.39
  -2   5  -2    1.40    0.63
   2   5   2    1.88    0.39
   3  -5   2   29.43    1.73
  -3  -5  -2   28.44    1.79
   3  -5   2   31.70    1.72
  -3   5  -2   29.39    1.65
   3   5   2   31.43    1.69
   3   5   2   27.76    1.66
  -3   5  -2   28.73    2.28
   3   5   2   28.31    1.65
  -3   5  -2   28.17    1.62
   3   5   2   28.09    1.79
   4  -5   2    2.26    0.44
  -4  -5  -2    2.11    0.55
   4  -5   2    3.08    0.48
   4   5   2    2.49    0.57
  -4   5  -2    1.28    0.38
  -4   5  -2    1.86    0.80
   4   5   2    1.58    0.39
   4   5   2    2.11    0.42
  -4   5  -2    1.51    0.36
   5  -5   2   20.02    1.27
   5  -5   2   19.88    1.27
  -5  -5  -2   18.07    1.47
  -5   5  -2   21.41    2.20
   5   5   2   27.18    1.72
  -5   5  -2   20.74    1.42
  -5   5  -2   22.70    1.37
   5   5   2   22.81    1.42
   5   5   2   24.07    1.44
  -6  -5  -2    0.37    0.55
   6  -5   2   -0.35    0.34
   6  -5   2    0.40    0.36
  -6   5  -2    0.73    0.40
   6   5   2    0.17    0.36
   6   5   2    0.07    0.34
   6   5   2    0.50    0.53
  -6   5  -2    1.19    0.35
  -6   5  -2    0.82    0.87
   4  -6  -2   13.71    1.12
  -4  -6   2   13.60    1.25
   4   6  -2   12.76    1.21
  -4   6   2   12.46    1.08
   4   6  -2   12.15    1.22
   4   6  -2   13.32    1.07
   4   6  -2   13.42    1.07
  -3  -6   2    5.73    0.92
   3   6  -2    4.83    0.71
   3   6  -2    4.49    0.80
   3   6  -2    4.92    0.74
  -3   6   2    4.63    0.71
  -2  -6   2   19.82    1.47
   2   6  -2   18.51    1.33
  -2   6   2   16.56    1.25
   2   6  -2   20.57    1.37
  -1  -6   2    3.14    0.62
  -1   6   2    3.52    0.67
  -1   6   2    2.47    0.49
   1   6  -2    2.42    0.54
   0   6   2   13.18    1.09
   0   6   2   14.64    1.17
   0   6  -2   17.62    1.19
  -1   6  -2    0.97    0.45
   1   6   2    1.38    0.48
   1   6   2    0.92    0.40
  -2   6  -2   23.11    1.52
   2   6   2   25.40    1.66
   2   6   2   22.59    1.51
  -3  -6  -2    6.16    0.91
   3   6   2    6.47    0.93
   3   6   2    6.34    0.82
  -3   6  -2    5.70    0.76
   3   6   2    4.85    0.73
   4  -6   2   14.24    1.13
   4   6   2   19.76    1.58
  -4   6  -2   20.40    1.38
   4   6   2   21.84    1.42
  10   0  -3    0.37    1.04
  10   0  -3    0.14    0.17
 -10   0   3    0.38    0.48
  -9   0   3   32.84    2.00
   9   0  -3   33.20    2.80
   9   0  -3   30.40    1.65
   9   0  -3   32.75    1.91
  -8   0   3    2.37    0.41
   8   0  -3    1.74    0.81
   8   0  -3    1.90    0.28
   8   0  -3    1.46    0.40
  -8   0   3    1.85    0.46
   7   0  -3   53.32    2.80
   7   0  -3   52.60    2.57
   7   0  -3   53.29    3.46
   7   0  -3   54.39    2.58
  -7   0   3   55.46    2.86
  -7   0   3   50.52    2.73
   7   0  -3   52.40    2.64
  -6   0   3   -0.09    0.25
   6   0  -3    0.12    0.10
  -6   0   3    0.04    0.20
   6   0  -3   -0.01    0.12
   6   0  -3    0.05    0.13
   6   0  -3    0.15    0.24
   6   0  -3    0.42    0.50
   6   0  -3    0.05    0.10
   5   0  -3  109.46    5.22
  -5   0   3  103.60    5.36
   5   0  -3  106.83    5.24
   5   0  -3  107.46    5.21
   5   0  -3  114.55    5.84
   5   0  -3  107.10    5.34
  -5   0   3  109.29    5.29
   5   0  -3  109.18    5.23
   4   0  -3    3.00    0.29
  -4   0   3    2.29    0.30
   4   0  -3    2.34    0.28
   4   0  -3    2.78    0.22
   4   0  -3    2.48    0.60
   4   0  -3    3.00    0.34
  -4   0   3    2.50    0.36
   4   0  -3    2.32    0.24
   3   0  -3  115.43    5.64
  -3   0   3  110.52    5.65
   3   0  -3  122.78    5.57
  -3   0   3  112.42    5.59
   3   0  -3  107.26    5.60
   3   0  -3  130.26    5.97
   3   0  -3  114.32    5.61
   3   0  -3  114.06    5.57
   2   0  -3   43.34    2.09
   2   0  -3   42.22    2.14
   2   0  -3   41.24    2.14
   2   0  -3   41.81    2.14
   2   0  -3   42.57    2.11
  -2   0   3   42.63    2.10
   2   0  -3   43.48    2.39
  -2   0   3   42.25    2.11
  -1   0   3  263.15   12.51
   1   0  -3  263.85   12.54
  -1   0   3  247.82   12.53
   1   0  -3  262.53   12.79
   1   0  -3  255.25   12.51
   1   0  -3  266.94   12.52
  -1   0   3  267.11   12.51
  -1   0   3  269.23   12.54
   0   0  -3   75.03    3.56
   0   0   3   73.31    3.56
   0   0  -3   67.31    3.50
   0   0  -3   72.99    3.53
   0   0   3   72.61    3.54
   0   0  -3   71.30    3.85
   0   0   3   78.46    3.56
   0   0   3   69.79    3.54
   1   0   3  385.32   18.49
   1   0   3  391.84   18.48
  -1   0  -3  357.70   18.41
  -1   0  -3  372.49   18.47
   1   0   3  395.83   18.50
  -1   0  -3  386.62   18.45
   1   0   3  434.89   18.46
   1   0   3  394.57   18.47
   1   0   3  365.97   18.48
   2   0   3   24.65    1.34
   2   0   3   27.85    1.41
  -2   0  -3   28.26    1.65
   2   0   3   25.44    1.34
   2   0   3   26.69    1.35
  -2   0  -3   25.68    1.38
   2   0   3   26.21    1.38
   2   0   3   27.82    1.39
   3   0   3   43.22    2.34
  -3   0  -3   49.03    2.65
   3   0   3   46.87    2.31
   3   0   3   44.74    2.30
  -3   0  -3   39.59    2.22
   3   0   3   46.95    2.27
   3   0   3   46.26    2.26
   3   0   3   52.26    2.29
   4   0   3    1.99    0.22
   4   0   3    1.65    0.22
   4   0   3    1.52    0.22
  -4   0  -3    1.69    0.18
   4   0   3    1.82    0.21
   4   0   3    2.40    0.37
   4   0   3    1.58    0.27
  -4   0  -3    1.94    0.55
   5   0   3   65.50    3.55
  -5   0  -3   77.86    3.42
  -5   0  -3   77.50    4.02
   5   0   3   69.75    3.41
   5   0   3   63.92    3.48
   5   0   3   70.28    3.44
   5   0   3   68.97    3.42
   5   0   3   69.09    3.43
   6   0   3    9.50    0.57
   6   0   3    8.46    0.56
   6   0   3    8.80    0.68
   6   0   3    9.59    0.77
  -6   0  -3   12.01    1.22
  -6   0  -3    9.49    0.58
   6   0   3    9.96    0.55
   6   0   3    9.84    0.58
   7   0   3   46.88    2.41
  -7   0  -3   44.05    2.96
   7   0   3   43.76    2.47
   7   0   3   45.12    2.20
   7   0   3   47.90    2.25
   7   0   3   43.08    2.20
  -8   0  -3    2.33    0.80
   8   0   3    2.89    0.56
   8   0   3    2.70    0.18
   8   0   3    3.07    0.37
  -9   0  -3   12.63    1.67
   9   0   3   15.12    1.22
   9   0   3   13.63    0.84
  10  -1  -3   21.47    1.23
  10  -1  -3   28.14    2.88
 -10   1   3   16.11    1.25
  10   1  -3   19.46    1.37
  10   1  -3   20.77    1.09
  -9  -1   3    0.62    0.41
   9  -1  -3    1.15    0.96
   9  -1  -3    0.84    0.21
   9   1  -3    1.51    0.45
  -9   1   3    0.56    0.34
   9   1  -3    1.12    0.22
  -9   1   3    1.14    0.50
  -8  -1   3   39.65    2.20
   8  -1  -3   37.75    3.06
   8  -1  -3   40.33    1.99
   8   1  -3   37.16    1.81
   8   1  -3   37.52    1.75
  -8   1   3   36.93    1.97
   8   1  -3   37.98    2.05
   8   1  -3   35.89    1.74
  -8   1   3   35.41    2.12
   8   1  -3   28.74    2.65
   7  -1  -3    0.11    0.61
   7  -1  -3    0.29    0.14
   7  -1  -3    0.41    0.17
  -7  -1   3    0.86    0.33
   7   1  -3    0.79    0.20
   7   1  -3    0.53    0.56
  -7   1   3    0.80    0.37
   7   1  -3    0.53    0.31
   7   1  -3   -0.11    0.36
   7   1  -3    0.94    0.18
   7   1  -3    0.73    0.14
   6  -1  -3   65.90    3.53
   6  -1  -3   83.47    4.48
   6  -1  -3   70.69    3.56
   6  -1  -3   70.28    3.69
   6  -1  -3   70.99    3.55
  -6  -1   3   77.01    3.69
   6   1  -3   67.44    3.42
  -6   1   3   76.68    3.48
   6   1  -3   71.72    3.60
   6   1  -3   66.61    3.42
   6   1  -3   73.80    4.03
   6   1  -3   70.97    3.70
   6   1  -3   69.56    3.48
   6   1  -3   68.15    3.46
   5  -1  -3    6.54    0.44
   5  -1  -3    6.44    0.40
   5  -1  -3    5.72    0.54
   5  -1  -3    6.05    0.98
   5  -1  -3    5.83    0.40
   5  -1  -3    5.84    0.40
  -5  -1   3    6.87    0.56
   5   1  -3    6.05    0.45
  -5   1   3    6.35    0.44
   5   1  -3    7.33    0.67
   5   1  -3    7.01    0.84
   5   1  -3    7.43    0.59
   5   1  -3    5.54    0.43
   5   1  -3    6.57    0.41
   5   1  -3    6.33    0.41
   4  -1  -3   95.34    4.43
   4  -1  -3   93.06    4.40
   4  -1  -3   88.53    4.48
  -4  -1   3   91.75    4.49
   4  -1  -3   83.07    4.91
   4  -1  -3   93.40    4.40
   4  -1  -3   91.29    4.40
  -4   1   3   97.09    4.68
   4   1  -3   98.90    4.70
  -4   1   3   97.62    4.83
   4   1  -3   96.04    4.85
   4   1  -3  101.64    4.69
   4   1  -3   91.56    5.04
   4   1  -3   90.59    4.80
   4   1  -3   94.00    4.69
   4   1  -3  107.00    4.73
   3  -1  -3    2.37    0.58
   3  -1  -3    2.99    0.28
   3  -1  -3    2.57    0.24
   3  -1  -3    2.20    0.22
   3  -1  -3    2.43    0.24
   3  -1  -3    2.61    0.31
  -3  -1   3    2.90    0.34
  -3   1   3    3.25    0.40
   3   1  -3    2.65    0.25
   3   1  -3    2.74    0.25
   3   1  -3    2.39    0.35
   3   1  -3    2.76    0.25
   3   1  -3    2.41    0.27
  -3   1   3    3.11    0.22
   3   1  -3    2.37    0.45
   3   1  -3    2.71    0.38
   2  -1  -3   86.21    4.17
  -2  -1   3   81.27    4.16
   2  -1  -3   83.61    4.15
   2  -1  -3   83.22    4.18
  -2  -1   3   90.88    4.20
   2  -1  -3   84.20    4.16
  -2  -1   3   79.43    4.17
   2  -1  -3   97.64    4.55
   2  -1  -3   84.55    4.15
  -2   1   3   88.36    4.54
   2   1  -3   93.83    4.53
   2   1  -3   92.83    4.44
   2   1  -3   98.16    4.53
   2   1  -3   91.55    4.47
  -2   1   3   92.17    4.45
   2   1  -3   92.61    4.45
   2   1  -3   89.08    4.70
  -2   1   3   91.69    4.44
   2   1  -3   92.21    4.45
  -2   1   3   90.74    4.43
   2   1  -3   90.89    4.45
  -1  -1   3    5.45    0.36
  -1  -1   3    4.74    0.36
   1  -1  -3    4.82    0.36
   1  -1  -3    5.40    0.36
   1  -1  -3    5.12    0.59
  -1   1   3    5.23    0.34
   1   1  -3    5.52    0.39
   1   1  -3    4.08    0.38
  -1   1   3    5.72    0.35
   1   1  -3    5.83    0.36
   1   1  -3    5.13    0.36
  -1   1   3    5.32    0.36
  -1   1   3    5.60    0.45
   0  -1  -3  341.00   15.60
   0  -1   3  297.07   15.63
   0  -1  -3  320.43   15.60
   0  -1   3  339.62   15.59
   0  -1   3  324.48   15.60
   0  -1   3  340.17   15.60
   0  -1  -3  327.09   15.88
   0   1   3  331.40   15.07
   0   1  -3  320.76   15.11
   0   1   3  309.74   15.11
   0   1  -3  333.57   15.10
   0   1   3  317.74   15.15
   0   1  -3  283.30   15.35
   0   1   3  319.60   15.11
   0   1   3  323.11   15.11
   0   1  -3  311.53   15.11
  -1  -1  -3   15.55    0.86
  -1  -1  -3   16.07    0.86
   1  -1   3   14.49    0.86
   1  -1   3   15.95    0.95
   1  -1   3   15.59    0.87
   1  -1   3   17.15    0.84
  -1  -1  -3   18.32    1.22
   1   1   3   15.79    0.91
  -1   1  -3   17.52    1.18
  -1   1  -3   16.63    0.86
   1   1   3   16.86    0.89
   1   1   3   15.52    0.81
   1   1   3   17.87    0.93
  -1   1  -3   16.81    0.88
  -1   1  -3   15.98    0.88
   1   1   3   16.13    0.88
  -2  -1  -3  116.58    5.86
   2  -1   3  130.96    5.87
   2  -1   3  121.90    6.01
   2  -1   3  122.02    5.94
  -2  -1  -3  127.51    6.28
   2  -1   3  129.07    5.93
   2  -1   3  124.20    5.94
  -2  -1  -3  121.06    5.93
   2  -1   3  116.73    5.93
  -2   1  -3  112.62    5.60
   2   1   3  125.02    5.60
   2   1   3  114.09    5.60
   2   1   3  113.86    5.60
  -2   1  -3  112.55    5.58
  -2   1  -3  119.16    5.61
   2   1   3  114.08    5.64
   2   1   3  117.53    5.66
   2   1   3  117.09    5.61
   2   1   3  120.17    5.54
  -2   1  -3  108.55    5.94
  -2   1  -3  120.52    5.54
   3  -1   3   26.98    1.48
  -3  -1  -3   25.15    1.67
   3  -1   3   28.29    1.40
   3  -1   3   28.91    1.42
   3  -1   3   26.91    1.35
   3  -1   3   28.59    1.41
   3  -1   3   29.38    1.41
  -3   1  -3   29.20    1.95
   3   1   3   33.49    1.55
   3   1   3   28.54    1.62
   3   1   3   29.76    1.57
   3   1   3   34.25    1.62
   3   1   3   30.54    1.54
   3   1   3   29.64    1.55
   3   1   3   30.24    1.49
   4  -1   3   54.99    2.66
   4  -1   3   53.66    2.68
   4  -1   3   55.09    2.67
  -4  -1  -3   56.40    3.05
   4  -1   3   56.18    2.69
   4  -1   3   51.30    2.66
   4  -1   3   53.10    2.76
   4   1   3   48.36    2.35
  -4   1  -3   51.25    2.38
   4   1   3   46.88    2.49
   4   1   3   48.95    2.47
   4   1   3   50.17    2.41
   4   1   3   45.79    2.38
  -4   1  -3   45.28    2.87
   4   1   3   49.68    2.37
   4   1   3   47.13    2.37
   5  -1   3    4.50    0.34
   5  -1   3    4.33    0.51
   5  -1   3    4.48    0.38
   5  -1   3    4.57    0.38
  -5  -1  -3    5.17    0.75
   5  -1   3    4.76    0.35
   5  -1   3    5.00    0.40
   5   1   3    5.23    0.37
   5   1   3    5.12    0.39
   5   1   3    4.69    0.52
   5   1   3    5.46    0.37
   5   1   3    5.29    0.36
  -5   1  -3    5.66    0.40
   5   1   3    5.18    0.42
  -5   1  -3    4.67    0.86
   5   1   3    5.52    0.58
   6  -1   3   83.37    4.01
   6  -1   3   87.19    3.99
   6  -1   3   74.05    3.97
  -6  -1  -3   92.56    4.60
   6  -1   3   73.41    4.12
   6   1   3   86.60    4.39
   6   1   3   83.17    4.22
   6   1   3   87.75    4.28
   6   1   3   94.24    4.47
  -6   1  -3   84.39    4.26
   6   1   3   85.48    4.26
  -6   1  -3   91.26    5.02
   7  -1   3    2.93    0.32
  -7  -1  -3    2.44    0.82
   7  -1   3    2.47    0.45
   7  -1   3    2.41    0.37
   7   1   3    1.95    0.49
  -7   1  -3    3.01    0.38
  -7   1  -3    3.13    0.88
   7   1   3    2.93    0.34
   7   1   3    2.59    0.45
   7   1   3    2.74    0.29
   7   1   3    3.04    0.34
   8  -1   3   25.92    1.35
   8  -1   3   25.60    1.61
   8  -1   3   24.98    1.33
  -8  -1  -3   27.25    2.32
   8   1   3   26.17    1.70
   8   1   3   25.74    1.60
   8   1   3   25.79    1.27
   8   1   3   25.26    1.34
  -8   1  -3   24.59    2.23
   8   1   3   26.12    1.27
   9  -1   3    0.73    0.23
   9   1   3    0.57    0.21
   9   1   3    0.76    0.51
  -9   1  -3    0.46    0.75
   9  -2  -3   29.27    3.01
   9  -2  -3   29.57    1.55
   9  -2  -3   30.60    1.61
  -9  -2   3   31.08    1.89
   9   2  -3   26.57    1.38
   9   2  -3   26.63    1.93
   9   2  -3   27.23    1.44
  -9   2   3   25.46    1.60
   9   2  -3   27.83    1.70
   8  -2  -3    1.42    0.97
  -8  -2   3    1.14    0.45
   8  -2  -3    1.13    0.25
   8   2  -3    0.96    0.24
  -8   2   3    1.25    0.37
   8   2  -3    0.72    0.51
   8   2  -3    1.23    0.41
   8   2  -3    0.68    0.25
  -8   2   3    1.57    0.51
   7  -2  -3   53.55    2.72
   7  -2  -3   50.77    2.70
   7  -2  -3   62.01    3.93
  -7  -2   3   53.34    2.90
   7   2  -3   52.17    2.78
   7   2  -3   53.64    2.94
   7   2  -3   51.56    2.60
  -7   2   3   51.79    2.71
   7   2  -3   52.18    2.60
  -7   2   3   50.90    2.88
  -6  -2   3    1.85    0.40
   6  -2  -3    1.45    0.23
   6  -2  -3    1.59    0.23
   6  -2  -3    1.89    0.81
  -6   2   3    0.86    0.37
   6   2  -3    1.24    0.23
   6   2  -3    0.89    0.39
  -6   2   3    1.72    0.34
   6   2  -3    1.29    0.36
   6   2  -3    1.19    0.22
  -5  -2   3  101.62    4.95
   5  -2  -3  101.10    4.82
   5  -2  -3   99.10    5.61
   5  -2  -3   94.66    4.82
   5   2  -3   92.85    4.73
   5   2  -3   90.34    4.59
  -5   2   3   92.91    4.66
   5   2  -3   93.28    4.60
   5   2  -3   97.66    4.92
   5   2  -3  100.84    4.81
  -5   2   3   93.15    4.78
   4  -2  -3    4.17    0.36
   4  -2  -3    3.82    0.37
   4  -2  -3    6.78    0.98
  -4  -2   3    4.69    0.34
  -4  -2   3    3.85    0.50
   4  -2  -3    4.63    0.39
   4   2  -3    4.25    0.36
  -4   2   3    4.81    0.43
   4   2  -3    3.67    0.35
   4   2  -3    3.79    0.34
   4   2  -3    3.95    0.33
  -4   2   3    4.12    0.51
   4   2  -3    3.71    0.55
   4   2  -3    4.50    0.52
   4   2  -3    3.41    0.49
   3  -2  -3   67.41    3.21
   3  -2  -3   67.30    3.20
   3  -2  -3   63.22    3.19
  -3  -2   3   67.94    3.29
   3  -2  -3   64.85    3.19
   3  -2  -3   61.69    3.68
  -3  -2   3   62.41    3.16
   3   2  -3   66.54    3.30
   3   2  -3   70.35    3.39
   3   2  -3   62.55    3.20
  -3   2   3   63.50    3.22
   3   2  -3   65.62    3.20
  -3   2   3   64.15    3.31
   3   2  -3   64.53    3.20
  -3   2   3   67.03    3.20
   3   2  -3   62.52    3.19
   3   2  -3   63.23    3.29
   2  -2  -3   14.19    1.28
   2  -2  -3   17.22    0.92
  -2  -2   3   17.83    0.91
   2  -2  -3   16.97    0.92
  -2  -2   3   17.37    0.92
   2   2  -3   15.59    0.92
   2   2  -3   15.50    0.87
   2   2  -3   15.47    0.91
  -2   2   3   15.88    0.87
  -2   2   3   15.94    0.87
  -2   2   3   15.22    0.95
  -2   2   3   16.22    0.86
   2   2  -3   15.89    1.09
   2   2  -3   15.18    0.83
   2   2  -3   15.01    0.86
  -1  -2   3  127.56    6.10
   1  -2  -3  121.17    6.40
   1  -2  -3  130.82    6.11
  -1  -2   3  127.40    6.10
  -1  -2   3  123.71    6.15
   1  -2  -3  127.19    6.10
   1   2  -3  112.11    5.47
   1   2  -3  110.03    5.44
   1   2  -3  108.71    5.72
   1   2  -3  112.35    5.45
   1   2  -3  110.71    5.45
  -1   2   3  107.43    5.50
  -1   2   3  115.07    5.43
  -1   2   3  116.23    5.45
  -1   2   3  113.47    5.44
   1   2  -3  115.85    5.42
  -1   2   3  114.92    5.40
   0  -2   3   16.23    0.92
   0  -2  -3   16.81    0.92
   0  -2  -3   17.06    0.92
   0  -2   3   17.64    0.97
   0  -2  -3   16.15    1.15
   0  -2   3   16.63    0.92
   0   2   3   15.08    0.91
   0   2  -3   14.76    0.86
   0   2   3   15.67    0.85
   0   2  -3   15.54    0.86
   0   2  -3   17.72    1.15
   0   2  -3   15.06    0.85
   0   2   3   15.24    0.87
   0   2  -3   14.61    0.84
   0   2  -3   15.23    0.84
   0   2   3   15.78    0.82
   1  -2   3  216.62   10.66
  -1  -2  -3  213.11   10.87
   1  -2   3  215.90   10.66
   1  -2   3  236.85   10.73
  -1  -2  -3  225.72   10.66
  -1  -2  -3  226.07   10.65
  -1   2  -3  195.59    9.37
   1   2   3  186.93    9.33
   1   2   3  202.75    9.44
  -1   2  -3  196.47    9.72
  -1   2  -3  195.09    9.38
   1   2   3  201.34    9.39
  -1   2  -3  191.32    9.36
   1   2   3  195.62    9.41
  -1   2  -3  195.05    9.33
  -1   2  -3  193.46    9.38
   1   2   3  195.12    9.38
  -2  -2  -3    3.73    0.57
  -2  -2  -3    3.83    0.31
   2  -2   3    3.70    0.34
   2  -2   3    3.49    0.33
   2  -2   3    3.69    0.46
  -2  -2  -3    3.72    0.33
  -2   2  -3    3.13    0.29
  -2   2  -3    3.30    0.61
   2   2   3    3.81    0.26
  -2   2  -3    3.76    0.32
  -2   2  -3    2.91    0.30
   2   2   3    3.16    0.38
   2   2   3    3.12    0.39
   2   2   3    2.81    0.30
  -2   2  -3    3.14    0.29
   2   2   3    3.36    0.32
   2   2   3    2.80    0.32
   3  -2   3   55.29    2.96
  -3  -2  -3   57.76    3.23
   3  -2   3   58.28    2.88
   3  -2   3   60.64    2.89
   3  -2   3   56.21    2.88
   3  -2   3   61.85    2.89
  -3   2  -3   53.73    3.11
   3   2   3   50.92    2.69
   3   2   3   53.37    2.59
  -3   2  -3   52.39    2.59
  -3   2  -3   50.57    2.57
  -3   2  -3   51.33    2.58
   3   2   3   51.62    2.59
   3   2   3   51.98    2.59
   3   2   3   54.32    2.57
   3   2   3   52.99    2.68
   3   2   3   50.79    2.59
   4  -2   3    1.62    0.23
   4  -2   3    1.93    0.32
   4  -2   3    1.44    0.22
  -4  -2  -3    1.66    0.55
  -4   2  -3    1.44    0.23
   4   2   3    1.35    0.21
   4   2   3    1.36    0.21
   4   2   3    0.97    0.30
   4   2   3    1.22    0.17
  -4   2  -3    1.47    0.51
   4   2   3    1.27    0.21
   4   2   3    1.14    0.31
  -5  -2  -3   93.36    4.63
   5  -2   3   85.15    4.31
   5  -2   3   90.02    4.24
   5  -2   3   77.77    4.22
   5   2   3   79.33    4.10
   5   2   3   82.58    4.06
   5   2   3   84.04    4.21
  -5   2  -3   85.43    4.05
  -5   2  -3   89.53    4.08
   5   2   3   75.63    4.05
   5   2   3   85.21    4.25
  -5   2  -3   82.96    4.77
   6  -2   3    5.52    0.47
   6  -2   3    5.79    0.61
   6  -2   3    5.96    0.47
  -6   2  -3    5.35    0.41
   6   2   3    5.41    0.43
   6   2   3    4.08    0.70
  -6   2  -3    4.95    0.46
   6   2   3    4.80    0.66
   6   2   3    5.01    0.42
  -6   2  -3    5.25    1.05
   7  -2   3   57.45    2.81
   7  -2   3   57.44    2.95
   7  -2   3   53.87    2.81
   7   2   3   53.59    2.96
   7   2   3   54.65    2.64
   7   2   3   52.07    2.66
  -7   2  -3   50.94    3.56
  -7   2  -3   53.76    2.65
   7   2   3   56.40    2.92
  -7   2  -3   51.29    2.70
   8  -2   3    1.30    0.26
   8  -2   3    0.82    0.26
   8   2   3    1.04    0.55
  -8   2  -3    0.97    0.30
   8   2   3    0.92    0.24
  -8   2  -3    0.99    0.22
  -8   2  -3    0.73    0.77
   8   2   3    1.05    0.46
   8   2   3    0.78    0.21
   9  -2   3   13.35    0.85
   9  -2   3   12.77    0.84
   9   2   3   12.17    1.14
   9   2   3   11.26    0.62
   9   2   3   10.29    1.26
  -9   2  -3    9.96    1.81
  -9   2  -3   10.91    0.71
   9   2   3   11.65    0.74
   9  -3  -3    0.17    0.27
   9  -3  -3    0.28    0.27
   9  -3  -3    0.15    1.05
   9   3  -3    0.11    0.26
   9   3  -3    0.52    0.29
   9   3  -3    0.41    0.58
   9   3  -3   -0.09    0.41
   8  -3  -3   26.48    1.41
  -8  -3   3   25.22    1.70
   8  -3  -3   23.68    1.39
   8  -3  -3   24.13    2.72
  -8   3   3   24.48    1.53
   8   3  -3   25.06    1.41
   8   3  -3   24.52    1.62
   8   3  -3   24.70    1.80
   8   3  -3   25.39    1.38
  -7  -3   3    3.53    0.63
   7  -3  -3    4.26    0.48
   7  -3  -3    3.53    1.18
   7   3  -3    3.34    0.56
   7   3  -3    5.21    0.51
  -7   3   3    4.88    0.62
   7   3  -3    2.63    0.60
   7   3  -3    3.44    0.47
   6  -3  -3   58.61    3.04
   6  -3  -3   62.52    3.04
   6  -3  -3   57.37    4.01
  -6  -3   3   62.25    3.23
  -6   3   3   60.35    3.26
   6   3  -3   60.17    3.08
   6   3  -3   64.06    3.09
   6   3  -3   64.71    3.35
   6   3  -3   60.01    3.24
  -6   3   3   58.72    3.14
   5  -3  -3    2.59    0.34
  -5  -3   3    2.07    0.45
   5  -3  -3    2.51    0.39
   5  -3  -3    2.15    0.80
   5   3  -3    2.18    0.46
   5   3  -3    3.55    0.41
   5   3  -3    2.45    0.47
  -5   3   3    2.47    0.45
  -5   3   3    2.94    0.45
   5   3  -3    2.29    0.32
   4  -3  -3   94.21    4.85
   4  -3  -3  104.86    4.86
   4  -3  -3   95.06    5.56
  -4  -3   3  101.12    4.97
  -4   3   3   92.50    4.69
   4   3  -3  100.44    4.73
   4   3  -3   88.91    4.58
  -4   3   3   92.29    4.60
   4   3  -3   93.25    4.58
   4   3  -3   93.44    4.72
   3  -3  -3    3.62    0.40
   3  -3  -3    3.50    0.41
   3  -3  -3    3.76    0.85
  -3  -3   3    3.75    0.52
  -3   3   3    4.23    0.50
   3   3  -3    4.53    0.43
   3   3  -3    4.88    0.51
  -3   3   3    3.28    0.41
   3   3  -3    3.73    0.49
   3   3  -3    3.66    0.40
  -2  -3   3   82.67    4.36
   2  -3  -3   86.05    4.79
   2  -3  -3   85.95    4.30
  -2  -3   3   89.19    4.30
   2  -3  -3   93.39    4.20
   2  -3  -3   87.48    4.31
  -2  -3   3   86.26    4.28
   2   3  -3   70.62    3.96
   2   3  -3   74.32    3.77
   2   3  -3   76.76    3.82
   2   3  -3   78.25    3.77
  -2   3   3   75.07    3.76
  -2   3   3   78.31    3.84
  -2   3   3   78.43    3.76
   2   3  -3   72.06    3.78
  -2   3   3   77.60    3.76
   2   3  -3   82.14    3.78
   1  -3  -3    0.96    0.22
   1  -3  -3    1.39    0.24
   1  -3  -3    1.83    0.26
  -1  -3   3    1.52    0.24
  -1  -3   3    1.57    0.32
   1  -3  -3    1.32    0.46
  -1  -3   3    1.40    0.23
   1   3  -3    1.73    0.26
  -1   3   3    1.81    0.32
  -1   3   3    1.52    0.25
   1   3  -3    1.91    0.52
  -1   3   3    1.73    0.25
   1   3  -3    1.62    0.22
   1   3  -3    1.27    0.24
   1   3  -3    1.78    0.27
  -1   3   3    1.24    0.23
   1   3  -3    1.35    0.25
   0  -3  -3  161.85    7.74
   0  -3   3  157.67    7.79
   0  -3   3  156.85    7.75
   0  -3  -3  156.63    7.75
   0  -3   3  165.34    7.75
   0  -3  -3  163.57    8.06
   0   3   3  152.22    7.21
   0   3  -3  155.68    7.20
   0   3  -3  141.97    7.18
   0   3   3  148.01    7.21
   0   3   3  144.39    7.26
   0   3  -3  154.98    7.21
   0   3  -3  147.88    7.20
   0   3   3  149.80    7.17
   0   3  -3  145.08    7.51
   1  -3   3    6.85    0.52
  -1  -3  -3    6.88    0.52
   1  -3   3    6.71    0.57
  -1  -3  -3    7.75    0.52
  -1  -3  -3    6.80    0.69
   1  -3   3    6.03    0.51
   1   3   3    6.93    0.46
  -1   3  -3    6.74    0.50
  -1   3  -3    6.27    0.51
  -1   3  -3    6.84    0.49
  -1   3  -3    7.20    0.50
  -1   3  -3    6.63    0.44
  -1   3  -3    6.42    0.79
   1   3   3    6.65    0.59
   1   3   3    6.76    0.55
   1   3   3    7.22    0.53
   1   3   3    6.80    0.51
   2  -3   3   87.00    4.52
   2  -3   3   89.17    4.45
  -2  -3  -3  100.56    4.48
   2  -3   3   89.29    4.45
  -2  -3  -3   88.00    4.57
  -2   3  -3   80.79    4.06
  -2   3  -3   83.06    4.55
   2   3   3   86.10    4.17
  -2   3  -3   86.09    4.06
   2   3   3   78.17    4.02
  -2   3  -3   85.00    4.07
  -2   3  -3   85.41    4.08
  -2   3  -3   79.49    3.98
   2   3   3   79.88    4.07
   2   3   3   83.70    4.08
   2   3   3   82.86    4.15
   3  -3   3    7.65    0.68
   3  -3   3    7.73    0.59
   3  -3   3    9.06    0.60
   3   3   3    8.33    0.61
   3   3   3    8.60    0.70
  -3   3  -3    8.15    1.05
   3   3   3    8.64    0.61
  -3   3  -3    8.24    0.59
   3   3   3    8.70    0.57
  -3   3  -3    9.46    0.59
   3   3   3    8.15    0.72
   4  -3   3   49.05    2.59
   4  -3   3   54.57    2.69
   4  -3   3   49.92    2.60
  -4   3  -3   57.03    3.28
  -4   3  -3   51.10    2.50
   4   3   3   48.10    2.52
   4   3   3   45.73    2.64
  -4   3  -3   48.65    2.51
   4   3   3   49.55    2.68
   4   3   3   48.49    2.52
   4   3   3   48.97    2.52
   5  -3   3    3.55    0.55
   5  -3   3    4.32    0.47
   5  -3   3    4.73    0.48
  -5   3  -3    4.77    0.44
   5   3   3    4.82    0.70
  -5   3  -3    4.05    0.99
   5   3   3    5.02    0.72
   5   3   3    5.03    0.49
  -5   3  -3    5.58    0.49
   5   3   3    4.92    0.48
   6  -3   3   66.41    3.35
   6  -3   3   66.97    3.35
   6   3   3   62.98    3.11
  -6   3  -3   55.66    3.08
   6   3   3   61.38    3.12
  -6   3  -3   64.14    4.05
   6   3   3   66.58    3.40
   6   3   3   62.47    3.34
   7  -3   3    5.01    0.53
   7  -3   3    4.80    0.55
   7   3   3    4.52    0.74
   7   3   3    4.87    0.53
   7   3   3    5.00    0.83
  -7   3  -3    4.31    1.32
  -7   3  -3    4.56    0.55
  -7   3  -3    4.94    0.48
   7   3   3    4.66    0.51
   8  -3   3   23.24    1.31
   8  -3   3   22.79    1.33
   8   3   3   20.24    1.10
  -8   3  -3   19.02    2.15
   8   3   3   15.17    1.41
  -8   3  -3   19.17    1.10
   8   3   3   18.74    1.13
  -8   3  -3   19.08    1.18
   8   3   3   18.71    1.56
   8  -4  -3    0.12    1.08
   8  -4  -3    0.35    0.32
   8  -4  -3    0.34    0.33
  -8   4   3    0.45    0.41
   8   4  -3    0.48    0.34
   8   4  -3    0.04    0.31
   8   4  -3    0.45    0.44
   8   4  -3   -0.09    0.54
   7  -4  -3   21.25    2.56
   7  -4  -3   22.96    1.33
   7  -4  -3   20.72    1.31
  -7  -4   3   20.84    1.58
   7   4  -3   20.52    1.29
   7   4  -3   19.54    1.59
   7   4  -3   23.97    1.31
  -7   4   3   19.81    1.34
   7   4  -3   19.98    1.46
   6  -4  -3    0.90    0.33
   6  -4  -3    2.04    1.02
  -6  -4   3    1.28    0.52
  -6   4   3    1.73    0.40
   6   4  -3    2.08    0.52
   6   4  -3    1.65    0.36
   6   4  -3    1.84    0.37
   6   4  -3    1.36    0.53
   5  -4  -3   59.71    3.96
  -5  -4   3   56.77    3.10
   5  -4  -3   57.55    2.94
   5  -4  -3   54.64    2.94
  -5   4   3   49.67    2.78
  -5   4   3   49.88    2.73
   5   4  -3   52.23    2.90
   5   4  -3   54.29    2.72
   5   4  -3   55.34    2.91
   5   4  -3   53.95    2.72
   4  -4  -3    4.85    0.55
   4  -4  -3    5.14    1.21
   4  -4  -3    5.72    0.58
  -4  -4   3    4.92    0.71
   4   4  -3    4.14    0.67
  -4   4   3    5.17    0.61
  -4   4   3    4.37    0.54
   4   4  -3    5.81    0.56
   4   4  -3    5.12    0.72
   4   4  -3    5.72    0.57
   3  -4  -3   57.19    2.93
   3  -4  -3   58.51    3.65
   3  -4  -3   58.59    2.93
  -3  -4   3   54.33    3.01
   3   4  -3   54.23    2.74
  -3   4   3   53.92    2.80
   3   4  -3   52.08    2.80
   3   4  -3   54.51    2.74
   3   4  -3   53.57    2.83
  -3   4   3   50.74    2.73
   2  -4  -3    4.16    0.93
  -2  -4   3    4.22    0.62
   2  -4  -3    3.93    0.52
   2  -4  -3    3.96    0.50
  -2   4   3    4.19    0.56
   2   4  -3    4.63    0.55
   2   4  -3    4.08    0.50
   2   4  -3    4.23    0.52
  -2   4   3    4.22    0.48
   2   4  -3    3.81    0.49
   1  -4  -3   79.23    3.94
  -1  -4   3   77.60    4.00
   1  -4  -3   79.59    4.40
   1  -4  -3   77.69    3.93
   1   4  -3   74.53    3.72
  -1   4   3   75.14    3.72
   1   4  -3   76.29    3.73
   1   4  -3   73.44    3.74
   1   4  -3   72.92    3.72
  -1   4   3   75.02    3.69
  -1   4   3   71.83    3.77
   0  -4  -3    1.76    0.31
   0  -4   3    1.03    0.29
   0  -4  -3    1.14    0.27
   0  -4   3    0.63    0.31
   0  -4   3    1.18    0.28
   0  -4  -3    1.62    0.50
   0  -4  -3    1.11    0.27
   0   4  -3    1.34    0.29
   0   4   3    1.51    0.36
   0   4  -3    1.53    0.28
   0   4  -3    1.59    0.29
   0   4   3    1.66    0.28
   0   4  -3    1.30    0.47
   0   4  -3    1.91    0.29
   0   4   3    1.31    0.30
   0   4   3    1.35    0.29
   0   4  -3    1.07    0.29
   1  -4   3   85.34    4.19
   1  -4   3   82.00    4.18
  -1  -4  -3   85.84    4.21
   1  -4   3   83.12    4.24
  -1   4  -3   81.22    4.10
   1   4   3   82.13    4.22
   1   4   3   89.40    4.11
   1   4   3   84.16    4.15
  -1   4  -3   87.21    4.59
  -1   4  -3   79.02    4.12
   1   4   3   80.42    4.14
  -1   4  -3   80.29    4.08
   2  -4   3    0.23    0.31
   2  -4   3    0.08    0.24
   2  -4   3   -0.11    0.23
  -2  -4  -3    0.37    0.31
   2   4   3    0.67    0.27
   2   4   3    0.33    0.23
   2   4   3    0.21    0.31
  -2   4  -3    0.59    0.48
   2   4   3    0.83    0.28
  -2   4  -3    0.60    0.26
  -2   4  -3    0.33    0.23
   3  -4   3   29.93    1.73
   3  -4   3   35.80    1.76
  -3  -4  -3   30.24    1.84
   3  -4   3   31.18    1.81
   3   4   3   35.96    2.03
  -3   4  -3   35.88    1.88
  -3   4  -3   33.70    2.47
  -3   4  -3   34.03    1.85
   3   4   3   35.84    1.90
   3   4   3   33.47    1.85
   3   4   3   36.75    1.90
   4  -4   3    2.22    0.38
  -4  -4  -3    2.33    0.52
   4  -4   3    2.70    0.40
  -4   4  -3    2.60    0.79
   4   4   3    2.42    0.52
   4   4   3    2.33    0.38
  -4   4  -3    3.79    0.48
  -4   4  -3    2.52    0.36
   4   4   3    2.62    0.39
   5  -4   3   46.90    2.50
   5  -4   3   48.13    2.50
  -5  -4  -3   47.72    2.70
   5   4   3   42.86    2.29
   5   4   3   43.04    2.49
   5   4   3   45.28    2.30
  -5   4  -3   41.91    2.25
  -5   4  -3   43.25    2.29
  -5   4  -3   43.11    3.13
   6  -4   3   -0.12    0.29
  -6  -4  -3   -0.18    0.45
   6  -4   3   -0.19    0.27
  -6   4  -3    0.27    0.26
  -6   4  -3    0.09    0.28
  -6   4  -3    0.03    0.70
   6   4   3    0.18    0.30
   6   4   3   -0.08    0.45
   6   4   3   -0.10    0.28
  -7  -4  -3   39.57    2.35
   7  -4   3   37.72    2.05
   7  -4   3   34.56    2.01
   7   4   3   28.36    1.70
   7   4   3   31.66    1.74
   7   4   3   29.90    2.04
  -7   4  -3   29.61    2.76
  -7   4  -3   32.53    1.71
  -7   4  -3   31.88    1.76
   6  -5  -3   34.19    2.00
   6  -5  -3   38.90    3.34
  -6  -5   3   33.17    2.20
   6  -5  -3   34.33    1.99
   6   5  -3   29.71    2.02
   6   5  -3   31.76    2.01
   6   5  -3   29.23    1.77
   6   5  -3   31.81    1.81
  -6   5   3   30.75    1.83
   5  -5  -3    3.33    0.52
  -5  -5   3    3.89    0.69
   5  -5  -3    3.82    1.20
   5  -5  -3    3.29    0.52
   5   5  -3    3.46    0.64
   5   5  -3    3.28    0.51
  -5   5   3    2.87    0.52
   5   5  -3    4.18    0.70
   5   5  -3    4.33    0.64
   4  -5  -3   39.60    2.22
  -4  -5   3   38.44    2.35
   4  -5  -3   42.20    2.25
   4  -5  -3   41.62    3.20
   4   5  -3   41.14    2.24
   4   5  -3   37.44    2.23
  -4   5   3   35.84    2.09
   4   5  -3   38.11    2.10
   4   5  -3   37.83    2.11
   3  -5  -3    2.11    0.41
   3  -5  -3    1.90    0.84
  -3  -5   3    1.89    0.52
   3   5  -3    1.35    0.39
   3   5  -3    2.03    0.43
  -3   5   3    2.40    0.43
  -3   5   3    2.20    0.43
   3   5  -3    1.42    0.44
   3   5  -3    2.16    0.47
  -2  -5   3   29.85    1.84
   2  -5  -3   30.75    2.36
   2  -5  -3   30.03    1.75
   2   5  -3   30.04    1.71
  -2   5   3   27.79    1.70
   2   5  -3   28.55    1.72
   2   5  -3   30.25    1.68
   2   5  -3   28.99    1.67
  -2   5   3   28.27    1.63
  -1  -5   3    2.74    0.53
  -1   5   3    2.16    0.40
   1   5  -3    2.49    0.42
   1   5  -3    1.67    0.39
  -1   5   3    1.89    0.43
   1   5  -3    2.18    0.44
   0  -5   3   51.54    2.78
   0   5  -3   50.36    2.65
   0   5   3   49.26    2.60
   0   5   3   50.09    2.71
  -1  -5  -3    4.19    0.59
   1  -5   3    3.79    0.66
   1   5   3    3.70    0.53
   1   5   3    2.99    0.53
   1   5   3    2.41    0.43
  -1   5  -3    3.12    0.46
   1   5   3    2.94    0.46
   2  -5   3   36.84    2.02
  -2  -5  -3   34.72    2.05
   2  -5   3   37.17    2.01
   2   5   3   35.06    1.96
  -2   5  -3   33.17    1.93
  -2   5  -3   33.34    2.47
  -2   5  -3   37.17    1.93
   2   5   3   34.54    1.95
   2   5   3   37.87    2.08
   2   5   3   33.67    1.90
   3  -5   3    0.86    0.36
   3  -5   3    0.08    0.32
  -3  -5  -3    0.34    0.41
   3   5   3    0.64    0.35
  -3   5  -3    0.60    0.34
  -3   5  -3    0.15    0.30
  -3   5  -3    0.15    0.58
   3   5   3   -0.15    0.39
   3   5   3    0.44    0.33
   4  -5   3   26.24    1.61
   4  -5   3   27.18    1.63
  -4  -5  -3   28.04    1.78
  -4   5  -3   22.43    2.18
   4   5   3   23.79    1.47
   4   5   3   24.31    1.67
   4   5   3   23.83    1.47
  -4   5  -3   25.66    1.44
  -4   5  -3   25.03    1.46
   5  -5   3    1.08    0.41
   5  -5   3    0.96    0.37
  -5  -5  -3    1.08    0.53
   5   5   3    0.98    0.40
  -5   5  -3    1.22    0.40
  -5   5  -3    0.55    0.33
  -5   5  -3    1.55    0.87
   5   5   3    0.51    0.51
   5   5   3    0.49    0.37
   6  -5   3   41.91    2.23
  -6  -5  -3   36.93    2.42
   6  -5   3   38.91    2.20
  -6   5  -3   31.69    1.89
  -6   5  -3   34.56    2.97
  -6   5  -3   31.20    1.84
   6   5   3   32.05    2.17
   6   5   3   35.17    1.91
   6   5   3   31.34    1.88
  -3  -6   3   12.74    1.22
  -3   6   3   14.56    1.12
   3   6  -3   14.01    1.12
   3   6  -3   13.71    1.23
   3   6  -3   13.19    1.17
  -2  -6   3    3.08    0.66
   2   6  -3    3.70    0.64
   2   6  -3    3.73    0.64
  -2   6   3    2.60    0.52
  -2   6   3    3.39    0.64
  -1  -6   3   19.21    1.43
  -1   6   3   20.99    1.33
  -1   6   3   19.22    1.39
   1   6  -3   18.35    1.36
   0   6  -3    0.55    0.45
   0   6   3    1.38    0.46
   0   6   3    1.34    0.47
   1   6   3   30.89    1.86
  -1   6  -3   34.19    1.91
   1   6   3   31.44    2.01
   2   6   3    0.67    0.49
  -2   6  -3    0.36    0.42
  -3  -6  -3   25.32    1.89
   3   6   3   22.45    1.58
  -3   6  -3   18.62    1.36
   3   6   3   20.52    1.41
  10   0  -4   24.75    1.36
  10   0  -4   25.89    1.71
  10   0  -4   24.02    3.13
   9   0  -4    0.58    0.82
  -9   0   4    0.70    0.45
   9   0  -4    0.51    0.25
   9   0  -4    1.09    0.43
   8   0  -4   15.66    0.88
  -8   0   4   17.81    1.27
   8   0  -4   17.32    1.20
   8   0  -4   17.86    1.93
   8   0  -4   17.20    1.01
   7   0  -4    0.24    0.61
  -7   0   4    0.46    0.36
   7   0  -4    0.70    0.33
   7   0  -4    0.55    0.16
   7   0  -4    0.67    0.24
  -7   0   4    0.21    0.26
   6   0  -4   53.12    2.79
   6   0  -4   53.41    2.64
  -6   0   4   51.68    2.70
   6   0  -4   56.49    3.39
  -6   0   4   50.22    2.81
   6   0  -4   51.84    2.66
   6   0  -4   54.54    2.63
  -5   0   4    2.58    0.41
   5   0  -4    2.29    0.69
   5   0  -4    2.44    0.32
   5   0  -4    2.98    0.32
   5   0  -4    2.59    0.37
   5   0  -4    2.41    0.31
  -5   0   4    2.72    0.37
   5   0  -4    2.29    0.25
   4   0  -4  101.67    5.19
   4   0  -4  104.60    5.25
   4   0  -4  109.89    5.15
   4   0  -4  103.46    5.17
   4   0  -4  110.92    5.20
  -4   0   4  114.51    5.29
  -4   0   4  101.14    5.18
   3   0  -4    0.28    0.17
   3   0  -4    0.00    0.11
   3   0  -4   -0.12    0.13
  -3   0   4    0.17    0.18
  -3   0   4   -0.08    0.14
   3   0  -4    0.05    0.28
   3   0  -4    0.01    0.16
   3   0  -4   -0.13    0.12
   2   0  -4   89.09    4.36
  -2   0   4   91.93    4.31
   2   0  -4   82.34    4.67
  -2   0   4   90.34    4.32
   2   0  -4   90.49    4.37
  -2   0   4   86.64    4.34
  -2   0   4   87.26    4.38
   2   0  -4   92.31    4.33
   2   0  -4   92.64    4.34
   2   0  -4   86.35    4.35
  -1   0   4    3.50    0.34
   1   0  -4    3.63    0.35
   1   0  -4    3.99    0.38
  -1   0   4    4.18    0.38
   1   0  -4    3.66    0.33
  -1   0   4    3.31    0.36
   1   0  -4    4.46    0.66
   0   0  -4   99.16    4.91
   0   0   4   98.54    4.93
   0   0   4  100.54    4.93
   0   0  -4  110.89    5.37
   0   0   4   93.13    4.91
   0   0   4  108.03    4.93
   0   0  -4   95.73    4.87
   0   0  -4  101.00    4.93
  -1   0  -4   18.07    1.00
   1   0   4   17.37    0.97
   1   0   4   17.17    1.02
  -1   0  -4   17.75    0.91
   1   0   4   18.97    1.01
   1   0   4   18.37    1.01
  -1   0  -4   17.93    0.97
  -1   0  -4   18.83    1.35
   2   0   4  141.59    6.89
  -2   0  -4  136.06    6.86
  -2   0  -4  138.72    6.77
   2   0   4  139.50    6.87
   2   0   4  144.26    6.89
   2   0   4  145.12    6.86
  -2   0  -4  137.05    6.82
   2   0   4  135.81    6.91
  -2   0  -4  146.43    7.24
   2   0   4  156.73    6.85
   3   0   4    4.33    0.34
   3   0   4    4.09    0.35
   3   0   4    4.03    0.36
   3   0   4    4.46    0.40
   3   0   4    4.30    0.44
   3   0   4    3.84    0.39
  -3   0  -4    3.90    0.66
  -4   0  -4  135.03    6.31
   4   0   4  120.83    6.46
   4   0   4  137.13    6.37
  -4   0  -4  128.97    6.88
   4   0   4  134.67    6.40
   4   0   4  129.05    6.40
   4   0   4  131.99    6.37
   4   0   4  137.20    6.39
   5   0   4    0.48    0.20
   5   0   4    0.50    0.17
   5   0   4    0.45    0.27
   5   0   4    0.08    0.17
  -5   0  -4   -0.13    0.34
   5   0   4    0.08    0.16
  -5   0  -4    0.16    0.11
   5   0   4    0.12    0.18
   6   0   4   42.12    2.14
   6   0   4   45.65    2.21
  -6   0  -4   36.79    2.69
   6   0   4   42.87    2.21
   6   0   4   45.33    2.33
   6   0   4   41.54    2.13
   7   0   4    0.40    0.18
   7   0   4    0.60    0.38
   7   0   4    0.49    0.23
  -7   0  -4    0.59    0.55
  -8   0  -4   37.12    2.89
   8   0   4   41.81    2.37
   8   0   4   40.37    2.11
   8   0   4   42.20    2.00
   9   0   4    0.66    0.28
  -9   0  -4    0.31    0.68
   9   0   4    0.04    0.48
  -9  -1   4   27.68    1.86
  -9  -1   4   29.67    1.76
   9  -1  -4   28.30    1.52
   9  -1  -4   29.38    2.82
  -9   1   4   26.41    1.80
  -9   1   4   26.58    1.62
   9   1  -4   26.25    1.31
   9   1  -4   29.73    1.75
   9   1  -4   26.56    1.44
   8  -1  -4    0.48    0.18
   8  -1  -4    0.83    0.83
   8  -1  -4    0.56    0.21
  -8  -1   4    0.77    0.39
  -8   1   4    0.65    0.41
   8   1  -4    0.39    0.68
   8   1  -4   -0.03    0.19
   8   1  -4    0.77    0.39
   8   1  -4    0.42    0.18
   7  -1  -4   44.75    2.53
  -7  -1   4   47.72    2.49
   7  -1  -4   47.49    2.30
   7  -1  -4   44.46    2.35
   7   1  -4   38.60    2.10
   7   1  -4   39.67    2.07
   7   1  -4   48.90    2.87
   7   1  -4   36.39    2.25
  -6  -1   4    4.81    0.55
   6  -1  -4    4.08    0.36
   6  -1  -4    4.46    1.11
   6  -1  -4    4.40    0.57
   6  -1  -4    3.43    0.41
  -6   1   4    3.86    0.59
   6   1  -4    3.01    0.43
   6   1  -4    2.76    0.79
   6   1  -4    3.47    0.49
   6   1  -4    3.93    0.34
   5  -1  -4  158.00    7.15
   5  -1  -4  145.67    7.15
   5  -1  -4  140.15    7.26
   5  -1  -4  142.29    7.18
  -5  -1   4  135.66    7.23
   5  -1  -4  168.98    7.97
   5   1  -4  131.34    6.22
   5   1  -4  130.82    6.26
   5   1  -4  130.15    6.36
   5   1  -4  121.59    6.26
   5   1  -4  140.79    6.23
  -5   1   4  132.85    6.40
  -5   1   4  115.19    6.20
   5   1  -4  129.56    6.72
   4  -1  -4   23.30    1.24
   4  -1  -4   24.51    1.20
   4  -1  -4   26.69    1.30
   4  -1  -4   18.38    1.68
   4  -1  -4   21.39    1.18
  -4  -1   4   21.02    1.26
   4  -1  -4   23.90    1.19
   4   1  -4   22.80    1.21
  -4   1   4   23.06    1.37
   4   1  -4   21.11    1.25
   4   1  -4   22.08    1.21
  -4   1   4   26.95    1.20
   4   1  -4   21.68    1.32
   4   1  -4   23.33    1.59
   4   1  -4   22.12    1.23
   3  -1  -4  169.70    8.42
   3  -1  -4  170.41    8.39
  -3  -1   4  185.59    8.45
   3  -1  -4  162.32    8.43
   3  -1  -4  187.19    8.90
   3  -1  -4  175.48    8.38
   3  -1  -4  171.09    8.39
   3   1  -4  148.09    7.27
   3   1  -4  149.74    7.20
  -3   1   4  133.16    7.15
   3   1  -4  149.40    7.22
   3   1  -4  150.39    7.18
   3   1  -4  153.25    7.55
  -3   1   4  160.90    7.34
  -3   1   4  132.73    7.15
  -3   1   4  159.93    7.25
   3   1  -4  159.14    7.20
   2  -1  -4    3.16    0.32
  -2  -1   4    3.34    0.37
   2  -1  -4    3.15    0.31
   2  -1  -4    3.79    0.34
  -2  -1   4    3.70    0.33
  -2  -1   4    2.89    0.32
   2  -1  -4    3.72    0.63
   2  -1  -4    3.10    0.32
  -2   1   4    2.54    0.28
   2   1  -4    2.49    0.24
  -2   1   4    2.77    0.28
   2   1  -4    3.51    0.37
   2   1  -4    3.29    0.29
   2   1  -4    2.95    0.29
   2   1  -4    2.66    0.29
  -2   1   4    3.01    0.26
   2   1  -4    4.50    0.62
  -2   1   4    2.62    0.40
   1  -1  -4  211.97   10.23
  -1  -1   4  224.74   10.27
   1  -1  -4  207.99   10.25
   1  -1  -4  226.64   10.66
  -1  -1   4  208.51   10.25
  -1  -1   4  209.55   10.26
   1  -1  -4  215.06   10.26
  -1  -1   4  205.38   10.27
  -1   1   4  206.74    9.75
  -1   1   4  209.47    9.75
   1   1  -4  196.80    9.75
   1   1  -4  204.06    9.77
   1   1  -4  203.05    9.76
  -1   1   4  195.00    9.82
  -1   1   4  208.03    9.74
   0  -1  -4   35.92    1.83
   0  -1  -4   37.57    1.83
   0  -1   4   35.56    1.82
   0  -1  -4   34.09    2.18
   0  -1   4   36.00    1.83
   0  -1   4   37.13    1.83
   0  -1   4   36.09    1.88
   0   1  -4   33.77    1.83
   0   1   4   39.70    1.86
   0   1  -4   35.74    1.81
   0   1   4   35.62    1.83
   0   1  -4   35.85    1.83
   0   1   4   35.02    1.84
   0   1   4   37.90    1.89
   1  -1   4  216.99   10.18
   1  -1   4  216.30   10.20
   1  -1   4  185.18   10.26
   1  -1   4  214.49   10.21
  -1  -1  -4  220.22   10.19
  -1  -1  -4  220.63   10.67
  -1  -1  -4  216.14   10.20
  -1   1  -4  201.54    9.79
   1   1   4  220.03    9.83
  -1   1  -4  195.04    9.75
  -1   1  -4  202.62    9.79
  -1   1  -4  206.30   10.16
   1   1   4  201.53    9.81
   1   1   4  206.90    9.80
   1   1   4  201.42    9.70
   1   1   4  201.37    9.79
   2  -1   4   41.92    2.18
   2  -1   4   43.88    2.11
   2  -1   4   42.82    2.18
  -2  -1  -4   41.83    2.15
  -2  -1  -4   41.49    2.17
   2  -1   4   45.30    2.18
  -2  -1  -4   47.21    2.62
  -2   1  -4   43.11    2.13
  -2   1  -4   41.49    2.07
   2   1   4   44.36    2.16
  -2   1  -4   41.16    2.52
   2   1   4   44.62    2.11
   2   1   4   42.66    2.12
   2   1   4   42.05    2.13
   2   1   4   40.97    2.11
  -2   1  -4   40.95    2.12
   2   1   4   39.73    2.16
   3  -1   4  200.30   10.15
   3  -1   4  198.20   10.23
   3  -1   4  210.25   10.14
   3  -1   4  220.32   10.09
  -3  -1  -4  230.42   10.61
   3  -1   4  213.54   10.16
   3  -1   4  208.03   10.18
   3   1   4  184.65    9.47
  -3   1  -4  195.02    9.35
   3   1   4  189.65    9.39
   3   1   4  192.91    9.39
   3   1   4  193.70    9.42
  -3   1  -4  196.89    9.89
   3   1   4  203.97    9.39
   3   1   4  208.38    9.45
  -4  -1  -4    5.51    0.79
  -4  -1  -4    6.17    0.32
   4  -1   4    6.38    0.43
   4  -1   4    6.11    0.48
   4  -1   4    5.98    0.37
   4  -1   4    6.99    0.47
   4  -1   4    6.26    0.44
   4  -1   4    4.82    0.54
   4   1   4    5.38    0.48
   4   1   4    5.86    0.57
  -4   1  -4    5.96    0.87
  -4   1  -4    5.84    0.39
   4   1   4    6.10    0.42
   4   1   4    6.92    0.53
   4   1   4    5.49    0.44
   4   1   4    5.64    0.43
  -5  -1  -4  104.26    5.62
   5  -1   4  105.05    5.11
   5  -1   4  117.12    5.28
   5  -1   4   96.44    5.14
   5   1   4  108.67    5.14
   5   1   4  108.16    5.20
  -5   1  -4  101.76    5.69
  -5   1  -4  106.38    5.02
   5   1   4  100.38    5.02
   5   1   4  103.87    5.07
   5   1   4   96.83    5.06
  -6  -1  -4    8.49    1.08
   6  -1   4    8.31    0.63
   6  -1   4    9.22    0.79
   6  -1   4    8.90    0.57
  -6   1  -4    8.01    0.52
   6   1   4    8.58    0.61
   6   1   4    7.51    0.70
   6   1   4    8.38    0.80
  -6   1  -4    8.85    1.21
   6   1   4    6.38    0.51
   7  -1   4   42.51    2.36
   7  -1   4   43.28    2.16
  -7  -1  -4   43.59    2.87
   7  -1   4   40.83    2.19
   7   1   4   38.24    2.28
  -7   1  -4   45.78    3.05
   7   1   4   39.70    2.15
   7   1   4   44.92    2.42
   7   1   4   42.13    2.09
  -8  -1  -4    1.91    1.00
   8  -1   4    2.69    0.54
   8  -1   4    1.58    0.29
   8  -1   4    2.06    0.29
  -8   1  -4    1.94    0.82
   8   1   4    2.24    0.32
   8   1   4    2.37    0.53
   8   1   4    1.39    0.53
   8   1   4    1.98    0.30
   9  -1   4   44.73    2.12
   9  -1   4   44.73    2.52
   9  -1   4   38.89    2.19
  -9   1  -4   43.46    3.37
   9   1   4   42.79    2.12
   9   1   4   44.87    2.66
   9   1   4   46.20    2.27
  -9  -2   4    1.45    0.53
   9  -2  -4    1.11    0.28
   9  -2  -4    1.78    0.28
   9  -2  -4    2.73    1.24
  -9   2   4    2.05    0.48
   9   2  -4    1.55    0.48
   9   2  -4    0.98    0.29
   9   2  -4    0.74    0.27
   8  -2  -4   22.52    1.26
   8  -2  -4   22.24    1.29
   8  -2  -4   26.39    2.59
  -8  -2   4   23.34    1.52
   8   2  -4   24.65    1.36
   8   2  -4   20.38    1.67
   8   2  -4   23.65    1.31
  -8   2   4   23.90    1.47
  -8   2   4   23.46    1.66
   8   2  -4   25.79    1.58
   7  -2  -4    0.47    0.74
   7  -2  -4    0.69    0.22
  -7  -2   4    0.60    0.38
   7  -2  -4    0.29    0.19
   7   2  -4    0.92    0.38
  -7   2   4    1.19    0.45
   7   2  -4    0.79    0.25
  -7   2   4    0.90    0.34
   7   2  -4    0.76    0.47
   7   2  -4    0.98    0.25
  -6  -2   4   60.62    3.24
   6  -2  -4   59.23    4.01
   6  -2  -4   66.30    3.10
   6  -2  -4   61.98    3.11
   6   2  -4   67.67    3.43
   6   2  -4   62.96    3.57
   6   2  -4   76.83    3.73
   6   2  -4   70.19    3.43
  -6   2   4   66.86    3.51
  -6   2   4   71.55    3.69
   5  -2  -4    8.50    0.57
   5  -2  -4    7.57    1.25
   5  -2  -4    8.21    0.57
  -5  -2   4    8.27    0.72
   5   2  -4    7.70    0.55
   5   2  -4    8.43    0.78
   5   2  -4    7.73    0.55
   5   2  -4    6.94    0.85
  -5   2   4    8.32    0.78
  -5   2   4    7.74    0.64
   5   2  -4    9.02    0.74
   4  -2  -4  106.73    5.31
   4  -2  -4  108.81    5.32
   4  -2  -4  110.33    6.00
  -4  -2   4  111.13    5.41
  -4   2   4  111.56    5.65
   4   2  -4  113.73    5.64
   4   2  -4  104.12    5.76
   4   2  -4  117.60    5.49
  -4   2   4  114.48    5.53
   4   2  -4  119.59    5.62
   4   2  -4  111.31    5.49
   3  -2  -4    6.45    0.45
  -3  -2   4    6.85    0.57
  -3  -2   4    6.73    0.47
   3  -2  -4    6.18    0.47
   3  -2  -4    6.27    0.47
   3  -2  -4    4.46    0.88
  -3   2   4    6.47    0.51
   3   2  -4    6.55    0.49
  -3   2   4    7.36    0.48
   3   2  -4    6.84    0.51
   3   2  -4    6.66    0.75
   3   2  -4    7.21    0.49
   3   2  -4    7.14    0.50
  -3   2   4    6.63    0.65
   3   2  -4    7.04    0.61
  -3   2   4    7.52    0.47
   3   2  -4    7.39    0.61
   2  -2  -4  129.31    6.34
  -2  -2   4  119.93    6.39
   2  -2  -4  140.54    6.83
  -2  -2   4  135.25    6.34
   2  -2  -4  132.91    6.35
  -2  -2   4  127.92    6.34
   2   2  -4  153.65    6.87
  -2   2   4  136.50    6.78
  -2   2   4  142.70    6.85
   2   2  -4  143.60    7.23
   2   2  -4  137.73    6.82
  -2   2   4  145.10    6.97
  -2   2   4  144.10    6.86
   2   2  -4  140.12    6.93
   2   2  -4  142.19    6.87
  -2   2   4  138.55    6.86
   2   2  -4  138.74    6.91
  -1  -2   4    7.19    0.56
  -1  -2   4    7.13    0.50
  -1  -2   4    7.33    0.50
   1  -2  -4    7.77    0.84
   1  -2  -4    6.51    0.50
   1  -2  -4    6.46    0.49
  -1   2   4    8.02    0.63
  -1   2   4    7.70    0.53
  -1   2   4    7.49    0.47
   1   2  -4    7.68    0.56
   1   2  -4    8.49    0.54
  -1   2   4    8.35    0.50
   1   2  -4    7.66    0.87
   1   2  -4    7.63    0.50
   1   2  -4    7.17    0.52
  -1   2   4    8.28    0.53
   1   2  -4    8.53    0.54
   0  -2  -4  136.54    7.05
   0  -2  -4  141.18    7.05
   0  -2  -4  166.81    7.46
   0  -2   4  141.61    7.06
   0  -2   4  154.84    7.12
   0  -2   4  135.35    7.05
   0   2  -4  151.93    7.18
   0   2   4  148.03    7.18
   0   2   4  149.04    7.14
   0   2  -4  151.91    7.19
   0   2   4  147.69    7.19
   0   2  -4  147.21    7.55
   0   2  -4  146.87    7.18
   0   2  -4  149.42    7.19
   0   2   4  147.64    7.17
  -1  -2  -4   38.33    1.93
  -1  -2  -4   37.57    1.94
   1  -2   4   37.16    1.94
   1  -2   4   40.47    2.04
   1  -2   4   37.70    1.88
  -1  -2  -4   41.38    2.31
   1  -2   4   35.02    1.94
  -1   2  -4   36.12    1.84
   1   2   4   37.63    1.91
  -1   2  -4   37.31    1.82
  -1   2  -4   38.08    1.84
   1   2   4   36.69    1.84
   1   2   4   35.96    1.86
   1   2   4   30.11    1.76
  -1   2  -4   33.00    1.81
  -1   2  -4   40.17    2.27
   1   2   4   36.36    1.84
   2  -2   4  126.03    6.13
  -2  -2  -4  125.11    6.44
  -2  -2  -4  121.07    6.02
  -2  -2  -4  129.53    6.00
   2  -2   4  121.57    6.02
   2  -2   4  122.46    6.03
   2   2   4  119.32    6.05
   2   2   4  127.76    6.07
  -2   2  -4  121.37    5.97
   2   2   4  125.26    6.00
  -2   2  -4  128.68    6.00
   2   2   4  114.84    5.92
  -2   2  -4  127.38    6.00
   2   2   4  120.05    5.99
  -2   2  -4  129.40    6.49
  -3  -2  -4    8.81    1.00
   3  -2   4    8.90    0.71
   3  -2   4    8.35    0.56
   3  -2   4    8.07    0.57
   3   2   4    9.50    0.61
   3   2   4    7.31    0.68
   3   2   4    9.76    0.72
   3   2   4    9.52    0.61
  -3   2  -4    9.66    0.70
  -3   2  -4    9.92    0.59
   3   2   4    9.67    0.63
  -3   2  -4    9.93    1.07
   4  -2   4  140.10    6.82
  -4  -2  -4  138.66    7.30
   4  -2   4  135.24    6.81
   4  -2   4  149.68    6.93
  -4   2  -4  124.39    7.00
   4   2   4  117.64    6.47
   4   2   4  141.71    6.39
   4   2   4  134.60    6.53
   4   2   4  135.58    6.40
  -4   2  -4  136.78    6.37
   5  -2   4    8.78    0.61
   5  -2   4    8.09    0.73
   5  -2   4    8.38    0.59
  -5  -2  -4    8.70    1.03
  -5   2  -4    8.38    0.59
   5   2   4    8.78    0.60
   5   2   4    7.54    0.79
   5   2   4   10.73    0.79
  -5   2  -4    9.06    1.23
   5   2   4    8.68    0.61
   6  -2   4   47.39    2.44
   6  -2   4   47.58    2.42
   6  -2   4   48.58    2.57
  -6   2  -4   51.10    3.47
   6   2   4   54.92    2.64
   6   2   4   51.48    2.62
   6   2   4   53.65    2.82
  -6   2  -4   52.41    2.64
   6   2   4   50.11    2.86
   7  -2   4    3.16    0.47
   7  -2   4    4.27    0.67
   7  -2   4    3.90    0.45
  -7   2  -4    3.76    1.14
   7   2   4    3.26    0.58
   7   2   4    4.83    0.81
   7   2   4    3.39    0.41
   7   2   4    4.11    0.44
  -7   2  -4    3.58    0.46
   8  -2   4   32.82    1.73
   8  -2   4   30.97    1.70
   8   2   4   36.33    2.12
   8   2   4   36.74    1.85
   8   2   4   35.10    2.23
  -8   2  -4   36.89    1.83
   8   2   4   35.76    1.80
  -8   2  -4   28.83    2.79
   9  -2   4    0.98    0.30
   9  -2   4    1.06    0.31
   9   2   4    1.34    0.23
   9   2   4    1.12    0.63
   9   2   4    1.03    0.51
   9   2   4    1.23    0.30
  -9   2  -4    1.46    0.27
  -9   2  -4    1.49    0.95
   8  -3  -4    0.42    0.94
   8  -3  -4    0.19    0.26
  -8  -3   4    0.71    0.50
   8   3  -4    0.52    0.29
  -8   3   4    0.44    0.38
   8   3  -4    0.37    0.42
   8   3  -4    0.68    0.56
   8   3  -4    0.59    0.30
   7  -3  -4   27.30    2.57
  -7  -3   4   23.79    1.61
   7  -3  -4   23.45    1.36
   7  -3  -4   23.15    1.37
   7   3  -4   23.14    1.66
  -7   3   4   22.28    1.39
  -7   3   4   19.27    1.55
   7   3  -4   23.29    1.30
   7   3  -4   23.75    1.30
   7   3  -4   22.67    1.52
  -6  -3   4    0.73    0.43
   6  -3  -4    0.88    0.27
   6  -3  -4    1.30    0.28
   6  -3  -4    0.76    0.78
  -6   3   4    0.47    0.40
   6   3  -4    0.75    0.39
  -6   3   4    0.94    0.33
   6   3  -4    0.56    0.25
   6   3  -4    0.73    0.27
   6   3  -4    0.56    0.41
   5  -3  -4   60.06    3.12
   5  -3  -4   65.36    3.13
   5  -3  -4   60.22    4.01
  -5  -3   4   61.57    3.26
  -5   3   4   53.42    2.89
   5   3  -4   57.90    3.06
  -5   3   4   55.65    3.04
   5   3  -4   57.93    2.86
   5   3  -4   56.68    3.02
   5   3  -4   56.59    2.87
   4  -3  -4    2.50    0.35
   4  -3  -4    2.67    0.35
   4  -3  -4    2.92    0.95
  -4  -3   4    3.55    0.58
   4   3  -4    1.52    0.41
   4   3  -4    2.39    0.33
   4   3  -4    1.93    0.41
  -4   3   4    3.17    0.56
   4   3  -4    3.49    0.43
  -4   3   4    2.71    0.37
  -3  -3   4   53.91    3.08
   3  -3  -4   61.19    3.02
   3  -3  -4   60.41    3.64
   3  -3  -4   63.50    3.02
  -3   3   4   52.80    2.93
   3   3  -4   56.46    2.93
  -3   3   4   56.58    2.84
   3   3  -4   56.15    2.91
   3   3  -4   59.75    2.84
   3   3  -4   55.10    3.13
   3   3  -4   55.85    2.83
   2  -3  -4    1.31    0.25
  -2  -3   4    1.07    0.32
   2  -3  -4    0.50    0.22
   2  -3  -4    1.53    0.55
  -2  -3   4    0.55    0.37
  -2   3   4    1.13    0.32
  -2   3   4    1.26    0.25
   2   3  -4    1.21    0.25
  -2   3   4    1.13    0.24
   2   3  -4    1.25    0.44
   2   3  -4    1.37    0.29
  -2   3   4    0.99    0.25
   2   3  -4    0.91    0.24
   2   3  -4    0.82    0.24
  -1  -3   4   65.62    3.37
  -1  -3   4   66.09    3.30
   1  -3  -4   65.11    3.31
  -1  -3   4   67.29    3.30
   1  -3  -4   66.35    3.30
   1  -3  -4   66.44    3.76
  -1   3   4   62.96    3.08
  -1   3   4   63.90    3.20
   1   3  -4   62.98    3.11
   1   3  -4   60.33    3.11
   1   3  -4   60.85    3.12
   1   3  -4   63.04    3.08
   1   3  -4   62.64    3.12
  -1   3   4   61.16    3.10
   1   3  -4   60.92    3.49
   0  -3   4    1.03    0.24
   0  -3  -4    1.53    0.26
   0  -3  -4    1.64    0.46
   0  -3   4    1.67    0.33
   0  -3   4    1.38    0.26
   0  -3  -4    0.92    0.24
   0   3  -4    1.49    0.26
   0   3   4    1.47    0.22
   0   3  -4    1.44    0.23
   0   3   4    1.30    0.25
   0   3   4    1.59    0.34
   0   3   4    1.33    0.26
   0   3  -4    0.97    0.23
   0   3  -4    1.57    0.28
   0   3  -4    1.72    0.49
   0   3  -4    1.06    0.24
   0   3   4    1.42    0.25
  -1  -3  -4   63.74    3.13
   1  -3   4   60.85    3.12
   1  -3   4   61.51    3.13
  -1  -3  -4   65.84    3.12
   1  -3   4   62.34    3.20
  -1  -3  -4   60.35    3.38
  -1   3  -4   61.63    3.03
   1   3   4   61.71    3.06
  -1   3  -4   61.18    3.06
   1   3   4   61.77    2.99
   1   3   4   56.61    3.12
   1   3   4   62.10    3.06
   1   3   4   60.54    3.08
  -1   3  -4   61.85    3.04
  -1   3  -4   60.98    2.99
  -1   3  -4   60.80    3.05
   2  -3   4    1.08    0.24
  -2  -3  -4    0.64    0.35
   2  -3   4    1.13    0.26
   2  -3   4    0.83    0.31
   2   3   4    0.93    0.18
   2   3   4    0.63    0.27
   2   3   4    0.19    0.20
   2   3   4    0.43    0.29
   2   3   4    0.60    0.22
  -2   3  -4    0.59    0.21
  -2   3  -4    0.42    0.39
  -2   3  -4    0.62    0.20
  -3  -3  -4   86.32    4.55
   3  -3   4   80.85    4.36
   3  -3   4   88.72    4.27
   3  -3   4   88.90    4.26
  -3   3  -4   82.46    4.17
   3   3   4   83.15    4.18
  -3   3  -4   80.04    4.15
   3   3   4   85.88    4.30
   3   3   4   83.79    4.29
  -3   3  -4   83.92    4.80
   3   3   4   91.68    4.20
   3   3   4   85.92    4.12
   4  -3   4    0.15    0.22
   4  -3   4    0.24    0.32
   4  -3   4    0.11    0.21
   4   3   4    0.00    0.31
  -4   3  -4    0.19    0.21
   4   3   4   -0.03    0.21
  -4   3  -4   -0.12    0.41
   4   3   4    0.27    0.32
   4   3   4    0.07    0.23
  -4   3  -4    0.18    0.19
   5  -3   4   53.88    2.88
   5  -3   4   59.47    3.01
   5  -3   4   57.33    2.90
  -5   3  -4   53.20    2.76
   5   3   4   54.69    2.96
  -5   3  -4   56.54    3.62
   5   3   4   55.03    2.79
   5   3   4   55.28    2.78
  -5   3  -4   52.18    2.78
   5   3   4   56.73    2.99
   6  -3   4    1.60    0.32
   6  -3   4    1.05    0.54
   6  -3   4    1.75    0.33
   6   3   4    1.71    0.50
   6   3   4    1.82    0.33
  -6   3  -4    2.61    0.36
  -6   3  -4    2.05    0.86
  -6   3  -4    2.10    0.33
   6   3   4    2.06    0.33
   6   3   4    1.61    0.54
   7  -3   4   21.60    1.34
   7  -3   4   24.99    1.35
  -7   3  -4   24.33    1.32
   7   3   4   22.44    1.61
  -7   3  -4   24.34    2.34
  -7   3  -4   24.90    1.37
   7   3   4   22.56    1.32
   7   3   4   23.10    1.68
   7   3   4   22.51    1.34
   8  -3   4    0.41    0.30
   8  -3   4    0.60    0.32
  -8   3  -4    0.50    0.34
   8   3   4    0.79    0.53
  -8   3  -4    0.58    0.85
   8   3   4    1.21    0.30
   8   3   4    0.98    0.32
  -8   3  -4    1.22    0.29
   8   3   4    0.49    0.59
   7  -4  -4    0.87    1.00
  -7  -4   4    0.26    0.52
   7  -4  -4   -0.03    0.30
   7   4  -4    0.21    0.31
  -7   4   4    0.23    0.38
   7   4  -4    0.52    0.52
   7   4  -4    0.23    0.32
   7   4  -4    0.60    0.46
  -6  -4   4   40.81    2.39
   6  -4  -4   38.50    2.17
   6  -4  -4   41.15    3.33
   6  -4  -4   41.19    2.18
   6   4  -4   38.06    2.34
   6   4  -4   38.18    2.08
   6   4  -4   42.11    2.31
  -6   4   4   35.95    2.12
   6   4  -4   37.96    2.09
   5  -4  -4    7.89    1.54
  -5  -4   4    9.37    0.91
   5  -4  -4    6.65    0.69
   5  -4  -4    7.39    0.68
   5   4  -4    9.10    0.93
   5   4  -4    7.29    0.90
   5   4  -4    7.21    0.70
   5   4  -4    8.41    0.72
  -5   4   4    7.87    0.73
  -5   4   4    7.37    0.83
   4  -4  -4   71.83    3.60
   4  -4  -4   73.95    4.51
   4  -4  -4   77.95    3.63
  -4  -4   4   61.05    3.69
   4   4  -4   65.69    3.26
  -4   4   4   64.71    3.36
  -4   4   4   61.39    3.26
   4   4  -4   63.00    3.39
   4   4  -4   62.53    3.38
   4   4  -4   64.20    3.26
   3  -4  -4    5.12    0.58
  -3  -4   4    5.32    0.72
   3  -4  -4    4.86    0.56
   3  -4  -4    4.97    1.13
  -3   4   4    6.40    0.68
   3   4  -4    5.71    0.59
   3   4  -4    5.32    0.67
   3   4  -4    5.73    0.66
  -3   4   4    5.91    0.58
   3   4  -4    5.03    0.57
  -2  -4   4   75.29    3.83
   2  -4  -4   73.35    4.35
   2  -4  -4   74.86    3.73
   2  -4  -4   71.56    3.71
   2   4  -4   70.06    3.56
   2   4  -4   69.38    3.53
   2   4  -4   69.93    3.51
  -2   4   4   67.66    3.59
  -2   4   4   71.44    3.49
   2   4  -4   67.33    3.50
   1  -4  -4    4.70    0.53
  -1  -4   4    5.05    0.64
   1  -4  -4    3.92    0.49
   1  -4  -4    3.95    0.89
  -1   4   4    4.96    0.63
   1   4  -4    4.48    0.50
   1   4  -4    4.33    0.54
   1   4  -4    4.84    0.53
  -1   4   4    4.57    0.49
   1   4  -4    4.48    0.53
   0  -4   4   80.13    4.04
   0  -4  -4   79.30    4.02
   0  -4  -4   83.31    4.07
   0  -4  -4   81.54    4.44
   0  -4   4   81.04    4.12
   0  -4   4   80.57    4.05
   0   4  -4   79.89    3.97
   0   4   4   79.51    3.98
   0   4   4   69.01    4.03
   0   4   4   85.64    3.94
   0   4  -4   79.69    4.40
   0   4  -4   75.55    3.97
   0   4  -4   80.70    3.95
   0   4   4   80.18    3.98
   0   4  -4   84.40    3.99
   1  -4   4   14.63    0.95
   1  -4   4   13.48    1.00
  -1  -4  -4   13.71    0.96
   1  -4   4   15.04    0.94
  -1   4  -4   13.81    0.93
   1   4   4   14.04    0.95
   1   4   4   14.81    0.88
  -1   4  -4   14.32    0.90
   1   4   4   13.77    1.04
   1   4   4   14.22    0.95
  -1   4  -4   15.91    1.40
   2  -4   4   76.37    4.07
   2  -4   4   79.86    3.99
   2  -4   4   81.84    3.98
   2   4   4   79.96    3.90
  -2   4  -4   78.84    3.88
   2   4   4   76.23    3.89
  -2   4  -4   75.59    4.45
   2   4   4   76.24    3.83
   2   4   4   78.71    4.01
  -2   4  -4   76.78    3.86
   3  -4   4    2.93    0.52
   3  -4   4    3.85    0.54
   3  -4   4    4.29    0.54
   3   4   4    2.75    0.41
  -3   4  -4    4.24    0.51
   3   4   4    2.91    0.52
  -3   4  -4    3.99    0.48
   3   4   4    4.00    0.51
  -3   4  -4    3.57    0.97
   3   4   4    2.77    0.51
   4  -4   4   67.27    3.43
   4  -4   4   66.76    3.52
   4  -4   4   68.18    3.44
  -4   4  -4   63.08    3.96
   4   4   4   61.46    3.18
   4   4   4   59.69    3.33
  -4   4  -4   63.02    3.18
   4   4   4   62.61    3.36
  -4   4  -4   62.84    3.16
   4   4   4   62.65    3.19
   5  -4   4    3.16    0.45
   5  -4   4    3.05    0.45
   5   4   4    3.22    0.63
   5   4   4    3.69    0.57
  -5   4  -4    3.80    1.21
  -5   4  -4    4.00    0.51
   5   4   4    3.47    0.47
  -5   4  -4    3.68    0.51
   5   4   4    3.08    0.62
   6  -4   4   25.98    1.48
   6  -4   4   23.57    1.47
  -6   4  -4   30.04    2.61
   6   4   4   26.03    1.58
  -6   4  -4   25.86    1.58
  -6   4  -4   24.75    1.53
   6   4   4   26.52    1.81
   6   4   4   31.71    1.60
   7  -4   4    4.81    0.65
   7  -4   4    4.90    0.69
   7   4   4    5.38    1.00
   7   4   4    5.37    0.65
  -7   4  -4    4.16    0.66
  -7   4  -4    5.44    1.48
   7   4   4    5.87    0.67
  -7   4  -4    4.72    0.59
   6  -5  -4    1.17    1.06
  -6  -5   4    1.99    0.65
   6  -5  -4    0.90    0.40
   6  -5  -4    1.53    0.43
   6   5  -4    1.58    0.45
   6   5  -4    2.44    0.67
   6   5  -4    2.56    0.67
   6   5  -4    1.86    0.45
  -6   5   4    2.08    0.52
   5  -5  -4   23.74    2.52
  -5  -5   4   21.69    1.68
   5  -5  -4   25.59    1.50
   5   5  -4   24.44    1.67
   5   5  -4   21.83    1.43
   5   5  -4   22.39    1.65
  -5   5   4   22.93    1.46
   5   5  -4   23.07    1.45
   4  -5  -4    2.64    0.48
   4  -5  -4    2.92    1.04
   4  -5  -4    2.66    0.46
  -4  -5   4    2.77    0.61
   4   5  -4    4.18    0.67
   4   5  -4    3.33    0.60
  -4   5   4    3.12    0.55
  -4   5   4    3.82    0.55
   4   5  -4    2.91    0.48
   4   5  -4    2.95    0.48
   3  -5  -4   33.97    1.98
  -3  -5   4   35.83    2.14
   3  -5  -4   34.94    1.97
   3  -5  -4   35.45    2.78
  -3   5   4   34.83    2.02
  -3   5   4   34.59    1.93
   3   5  -4   34.35    2.03
   3   5  -4   34.82    1.95
   3   5  -4   34.72    2.02
   3   5  -4   33.16    1.93
   2  -5  -4    4.09    0.62
   2  -5  -4    3.51    1.12
  -2  -5   4    3.91    0.66
  -2   5   4    4.49    0.57
  -2   5   4    3.93    0.69
   2   5  -4    4.54    0.68
   2   5  -4    3.43    0.50
   2   5  -4    4.35    0.63
   2   5  -4    3.98    0.63
  -1  -5   4   45.11    2.53
   1   5  -4   47.53    2.60
  -1   5   4   50.95    2.56
   1   5  -4   48.60    2.77
   1   5  -4   46.99    2.57
  -1   5   4   47.99    2.66
   0  -5   4    5.19    0.77
   0   5  -4    6.13    0.68
   0   5   4    5.43    0.62
   0   5   4    5.82    0.76
   1  -5   4   37.28    2.15
  -1   5  -4   40.33    2.17
   1   5   4   40.34    2.18
   1   5   4   40.12    2.12
   1   5   4   37.72    2.28
   2  -5   4    4.52    0.71
  -2  -5  -4    3.80    0.57
   2  -5   4    4.25    0.74
   2  -5   4    3.06    0.48
   2   5   4    4.34    0.65
   2   5   4    4.00    0.77
  -2   5  -4    4.61    0.62
   2   5   4    4.54    0.65
  -2   5  -4    5.21    1.11
   3  -5   4   35.17    2.02
  -3  -5  -4   35.31    2.10
   3  -5   4   37.10    2.03
   3   5   4   31.73    1.99
  -3   5  -4   40.54    2.02
  -3   5  -4   34.78    1.96
   3   5   4   35.63    2.02
   3   5   4   33.90    2.17
  -3   5  -4   37.52    2.72
   4  -5   4    1.99    0.44
   4  -5   4    1.64    0.45
  -4  -5  -4    2.56    0.58
   4   5   4    2.89    0.49
  -4   5  -4    2.66    0.48
  -4   5  -4    2.33    0.90
  -4   5  -4    1.98    0.40
   4   5   4    3.30    0.51
   4   5   4    2.01    0.60
   5  -5   4   17.49    1.20
   5  -5   4   14.96    1.17
  -5  -5  -4   17.38    1.37
   5   5   4   19.12    1.28
  -5   5  -4   17.48    2.09
   5   5   4   19.25    1.27
  -5   5  -4   18.70    1.25
   5   5   4   19.90    1.55
  -5   5  -4   17.56    1.20
  -3  -6   4    0.67    0.59
  -3   6   4    0.52    0.43
   3   6  -4   -0.10    0.40
   3   6  -4   -0.09    0.43
   3   6  -4   -0.28    0.48
  -2  -6   4   21.76    1.58
  -2   6   4   18.18    1.28
  -2   6   4   20.10    1.40
   2   6  -4   17.01    1.36
  -1  -6   4    0.50    0.51
  -1   6   4    0.64    0.45
  -1   6   4   -0.42    0.37
   1   6  -4    0.45    0.44
   0  -6   4   26.70    1.79
   0   6   4   21.56    1.52
   0   6   4   19.40    1.35
   0   6  -4   20.97    1.41
   1   6   4    1.53    0.53
  -1   6  -4    0.62    0.46
   2   6   4   17.49    1.43
  -2   6  -4   17.85    1.29
  -3   6  -4    1.02    0.47
   3   6   4    1.92    0.50
   3   6   4    1.27    0.61
   9   0  -5   49.00    3.51
   9   0  -5   42.74    2.56
  -9   0   5   44.80    2.65
   9   0  -5   41.22    2.32
   9   0  -5   44.28    2.19
   8   0  -5    0.87    0.30
  -8   0   5    0.32    0.43
   8   0  -5    0.66    0.19
   8   0  -5    0.82    0.78
   8   0  -5    1.03    0.42
   7   0  -5  128.59    6.37
   7   0  -5  126.28    6.31
  -7   0   5  140.52    6.40
  -7   0   5  135.82    6.57
   7   0  -5  115.69    7.14
   7   0  -5  135.51    6.53
   6   0  -5    6.78    1.13
   6   0  -5    7.94    0.60
   6   0  -5    6.88    0.73
   6   0  -5    7.60    0.55
  -6   0   5    7.60    0.62
   5   0  -5  101.78    5.06
   5   0  -5  106.77    4.98
   5   0  -5   99.66    4.97
  -5   0   5  103.09    5.10
   5   0  -5   95.57    5.56
   4   0  -5    7.23    0.61
   4   0  -5    7.07    0.57
  -4   0   5    7.37    0.64
   4   0  -5    8.76    0.99
   4   0  -5    7.07    0.53
  -4   0   5    6.38    0.54
   4   0  -5    7.59    0.56
   4   0  -5    6.74    0.50
  -3   0   5  271.71   13.35
  -3   0   5  307.89   13.45
   3   0  -5  276.25   13.36
   3   0  -5  273.42   13.35
   3   0  -5  282.44   13.39
   3   0  -5  265.81   13.39
   3   0  -5  283.93   13.38
  -3   0   5  266.13   13.34
  -2   0   5   16.26    0.93
   2   0  -5   16.92    0.97
   2   0  -5   14.86    1.33
   2   0  -5   17.39    0.97
   2   0  -5   18.64    1.01
  -2   0   5   15.58    0.97
  -2   0   5   16.29    1.01
  -2   0   5   18.90    0.97
   1   0  -5  802.78   38.92
   1   0  -5  857.92   38.97
  -1   0   5  833.08   38.95
  -1   0   5  852.98   38.99
  -1   0   5  815.50   38.96
   1   0  -5  806.31   38.94
  -1   0   5  756.73   38.93
   0   0  -5   39.72    2.11
   0   0   5   42.58    2.14
   0   0   5   40.88    2.13
   0   0  -5   40.21    2.06
   0   0   5   42.54    2.16
   0   0   5   42.88    2.15
  -1   0  -5  360.07   17.59
  -1   0  -5  402.18   18.12
  -1   0  -5  330.19   17.49
   1   0   5  356.17   17.59
  -1   0  -5  341.68   17.56
   1   0   5  367.45   17.60
   1   0   5  377.74   17.63
   1   0   5  404.85   17.58
   2   0   5    5.53    0.48
   2   0   5    4.97    0.47
   2   0   5    4.63    0.50
  -2   0  -5    4.77    0.30
   2   0   5    5.64    0.48
  -2   0  -5    4.90    0.40
  -2   0  -5    4.93    0.43
   2   0   5    6.12    0.44
  -2   0  -5    5.75    0.81
   3   0   5  205.33   10.74
  -3   0  -5  202.26   11.22
   3   0   5  232.83   10.80
   3   0   5  232.45   10.81
  -3   0  -5  222.28   10.66
   3   0   5  235.86   10.86
   3   0   5  239.15   10.82
   3   0   5  224.24   10.78
   4   0   5   17.19    0.97
   4   0   5   16.38    0.95
   4   0   5   13.53    1.03
   4   0   5   15.92    0.94
  -4   0  -5   14.94    1.38
  -4   0  -5   16.41    0.80
   5   0   5  136.92    6.53
  -5   0  -5  135.93    7.19
   5   0   5  130.72    6.54
   5   0   5  123.36    6.53
   5   0   5  144.81    6.68
   6   0   5    2.22    0.46
   6   0   5    1.81    0.31
  -6   0  -5    2.67    0.91
   6   0   5    1.85    0.32
   7   0   5   77.61    3.92
   7   0   5   71.17    3.72
  -7   0  -5   75.45    4.55
   7   0   5   73.20    3.67
   8   0   5    1.40    0.35
   8   0   5    2.39    0.59
   8   0   5    1.43    0.26
  -8   0  -5    0.90    0.73
   9   0   5   41.19    2.26
  -9   0  -5   51.94    3.44
   9   0   5   44.25    2.58
   9   0   5   38.34    2.11
   9  -1  -5    2.66    1.16
   9  -1  -5    1.36    0.24
   9  -1  -5    1.64    0.32
  -9  -1   5    1.60    0.56
   9   1  -5    2.27    0.32
  -9   1   5    2.59    0.51
   9   1  -5    1.69    0.35
   9   1  -5    1.43    0.52
  -9   1   5    2.04    0.58
   8  -1  -5   71.75    3.35
   8  -1  -5   66.26    3.63
  -8  -1   5   67.53    3.53
  -8  -1   5   65.01    3.66
   8  -1  -5   67.18    3.42
   8   1  -5   65.61    3.26
   8   1  -5   67.51    3.51
  -8   1   5   64.76    3.56
   8   1  -5   64.68    4.27
   8   1  -5   64.81    3.27
   7  -1  -5    1.77    0.46
   7  -1  -5    2.33    0.34
  -7  -1   5    1.71    0.47
   7  -1  -5    1.53    0.86
   7  -1  -5    2.42    0.36
  -7  -1   5    3.40    0.57
   7   1  -5    2.75    0.37
   7   1  -5    1.99    0.33
   7   1  -5    1.39    0.72
  -7   1   5    2.27    0.51
   7   1  -5    1.93    0.46
   6  -1  -5   87.77    4.53
  -6  -1   5   94.58    4.58
   6  -1  -5   88.02    5.23
   6  -1  -5   85.88    4.42
   6   1  -5   84.10    4.53
   6   1  -5   89.95    5.01
   6   1  -5   89.79    4.38
  -6   1   5   90.09    4.59
   6   1  -5   91.78    4.45
  -5  -1   5    9.32    0.74
   5  -1  -5   10.78    0.72
   5  -1  -5   11.60    0.80
   5  -1  -5    7.43    1.21
   5  -1  -5   11.03    0.65
  -5   1   5   11.92    0.67
   5   1  -5    9.81    0.66
   5   1  -5   11.79    1.18
   5   1  -5    9.66    0.74
   5   1  -5   10.07    0.81
  -5   1   5   10.05    0.86
  -4  -1   5   60.90    3.56
  -4  -1   5   78.83    3.66
   4  -1  -5   73.97    3.61
   4  -1  -5   69.75    4.13
   4  -1  -5   70.62    3.53
   4  -1  -5   69.58    3.57
   4  -1  -5   77.81    3.60
   4   1  -5   78.22    4.71
  -4   1   5   84.58    4.47
   4   1  -5   94.72    4.33
   4   1  -5   88.45    4.31
   4   1  -5   87.72    4.42
   4   1  -5   88.50    4.35
  -4   1   5   94.52    4.29
   3  -1  -5    4.20    0.45
   3  -1  -5    3.77    0.40
   3  -1  -5    4.68    0.38
   3  -1  -5    4.36    0.44
  -3  -1   5    5.01    0.46
  -3  -1   5    4.23    0.47
   3  -1  -5    5.59    0.84
  -3  -1   5    4.57    0.49
   3   1  -5    3.99    0.38
   3   1  -5    3.60    0.45
  -3   1   5    3.59    0.35
   3   1  -5    3.36    0.35
   3   1  -5    4.72    0.74
  -3   1   5    3.84    0.35
   3   1  -5    3.84    0.38
  -3   1   5    4.83    0.54
   3   1  -5    3.89    0.40
  -2  -1   5  297.64   13.72
   2  -1  -5  285.51   13.68
   2  -1  -5  280.87   13.69
  -2  -1   5  282.94   13.69
  -2  -1   5  272.93   13.67
   2  -1  -5  279.78   13.67
   2  -1  -5  273.79   14.14
  -2  -1   5  307.47   13.70
  -2   1   5  285.49   14.53
  -2   1   5  296.68   14.65
   2   1  -5  338.78   15.09
  -2   1   5  306.51   14.53
   2   1  -5  299.00   14.56
   2   1  -5  299.97   14.60
  -2   1   5  312.87   14.55
   2   1  -5  293.19   14.54
  -1  -1   5   18.20    1.12
  -1  -1   5   19.92    1.14
   1  -1  -5   20.86    1.13
   1  -1  -5   22.18    1.59
  -1  -1   5   20.83    1.13
   1  -1  -5   20.12    1.08
  -1  -1   5   20.28    1.16
   1  -1  -5   21.04    1.13
  -1   1   5   20.64    1.16
   1   1  -5   21.90    1.16
   1   1  -5   19.73    1.15
  -1   1   5   21.97    1.24
   1   1  -5   20.45    1.14
   1   1  -5   19.40    1.58
  -1   1   5   21.90    1.14
  -1   1   5   22.10    1.16
   0  -1   5  246.50   11.79
   0  -1  -5  229.79   12.20
   0  -1   5  239.06   11.74
   0  -1  -5  251.31   11.73
   0  -1   5  242.15   11.73
   0  -1   5  255.10   11.73
   0  -1  -5  247.03   11.67
   0  -1  -5  243.28   11.73
   0   1  -5  253.19   12.62
   0   1  -5  298.73   13.19
   0   1   5  254.37   12.67
   0   1   5  263.36   12.63
   0   1   5  257.44   12.62
   0   1  -5  259.65   12.62
   0   1  -5  256.94   12.59
   0   1   5  261.95   12.64
   1  -1   5   13.44    0.85
   1  -1   5   14.13    0.93
   1  -1   5   15.53    0.83
  -1  -1  -5   15.86    1.34
  -1  -1  -5   13.90    0.82
   1  -1   5   13.54    0.84
  -1  -1  -5   14.07    0.84
  -1   1  -5   15.52    0.84
   1   1   5   16.98    0.95
  -1   1  -5   16.07    0.91
  -1   1  -5   14.38    1.29
   1   1   5   15.68    0.92
   1   1   5   17.06    0.96
   1   1   5   15.65    0.79
  -1   1  -5   14.66    0.90
   1   1   5   15.44    0.92
   2  -1   5  151.62    6.98
  -2  -1  -5  147.16    6.96
  -2  -1  -5  148.40    6.94
   2  -1   5  134.77    6.90
   2  -1   5  151.28    7.07
   2  -1   5  141.50    6.96
  -2  -1  -5  134.07    7.47
  -2   1  -5  171.04    7.87
  -2   1  -5  153.34    8.31
  -2   1  -5  163.58    7.78
   2   1   5  160.93    7.87
   2   1   5  180.19    8.02
   2   1   5  147.77    7.89
   2   1   5  154.78    7.86
  -2   1  -5  163.82    7.84
   2   1   5  169.07    7.86
   3  -1   5   10.14    0.60
   3  -1   5    9.66    0.62
   3  -1   5    9.00    0.62
   3  -1   5    9.50    0.74
   3  -1   5    8.60    0.50
  -3  -1  -5    8.13    1.02
   3  -1   5    7.85    0.62
   3   1   5   10.89    0.67
   3   1   5   11.20    0.64
   3   1   5   10.12    0.65
  -3   1  -5   10.58    0.68
   3   1   5    8.23    0.66
   3   1   5    9.06    0.74
  -3   1  -5   10.11    1.10
   3   1   5    9.84    0.70
   4  -1   5  139.68    6.78
   4  -1   5  124.93    6.74
  -4  -1  -5  144.86    7.32
   4  -1   5  143.38    6.89
   4  -1   5  144.49    6.73
   4   1   5  136.40    6.93
   4   1   5  144.80    6.90
  -4   1  -5  121.85    7.45
   4   1   5  150.69    7.03
  -4   1  -5  157.40    6.84
   4   1   5  142.18    6.94
  -5  -1  -5    3.50    0.80
   5  -1   5    2.68    0.36
   5  -1   5    2.40    0.31
   5  -1   5    3.23    0.50
   5   1   5    3.03    0.40
   5   1   5    3.14    0.55
  -5   1  -5    3.99    0.91
   5   1   5    3.72    0.40
  -5   1  -5    2.18    0.28
   5   1   5    2.99    0.47
   6  -1   5   70.84    3.64
  -6  -1  -5   76.14    4.33
   6  -1   5   69.38    3.69
   6  -1   5   78.34    3.84
   6   1   5   70.78    3.77
   6   1   5   77.27    3.94
   6   1   5   76.62    3.72
  -6   1  -5   72.16    4.50
   6   1   5   80.27    3.86
   7  -1   5   -0.01    0.24
   7  -1   5   -0.13    0.36
  -7  -1  -5    0.26    0.55
   7  -1   5    0.17    0.23
   7   1   5   -0.02    0.30
  -7   1  -5    0.17    0.59
   7   1   5    0.30    0.21
   7   1   5    0.00    0.26
   7   1   5   -0.02    0.40
   8  -1   5   37.20    2.05
   8  -1   5   39.35    2.08
   8  -1   5   42.56    2.33
   8   1   5   39.88    2.14
   8   1   5   41.09    2.45
   8   1   5   41.47    2.05
  -8   1  -5   39.17    3.09
   9  -1   5    1.70    0.37
   9  -1   5    2.14    0.30
   9  -1   5    2.37    0.61
   9   1   5    1.49    0.65
  -9   1  -5    1.47    0.93
   9   1   5    1.81    0.36
   9   1   5    1.69    0.23
  -9  -2   5   31.05    1.90
   9  -2  -5   31.13    1.63
   9  -2  -5   27.00    1.56
   9  -2  -5   30.48    3.09
   9   2  -5   31.81    1.63
  -9   2   5   26.14    1.99
   9   2  -5   28.62    1.89
  -9   2   5   28.95    1.80
   9   2  -5   29.71    1.61
   8  -2  -5    1.79    0.30
  -8  -2   5    2.09    0.52
   8  -2  -5    2.49    0.36
   8  -2  -5    3.10    1.20
   8   2  -5    2.06    0.39
  -8   2   5    2.93    0.53
   8   2  -5    2.52    0.54
  -8   2   5    2.63    0.63
   8   2  -5    2.60    0.37
   7  -2  -5   95.45    4.73
   7  -2  -5   97.77    4.70
  -7  -2   5  100.55    4.89
   7  -2  -5   88.59    5.79
   7   2  -5   95.68    4.67
  -7   2   5  100.93    4.98
  -7   2   5   95.02    4.79
   7   2  -5   91.93    4.85
   7   2  -5   90.56    4.69
   6  -2  -5    5.78    0.48
  -6  -2   5    3.59    0.65
   6  -2  -5    5.93    0.52
   6  -2  -5    4.57    1.24
   6   2  -5    6.07    0.56
   6   2  -5    7.03    0.56
   6   2  -5    5.30    0.84
  -6   2   5    6.66    0.82
   6   2  -5    6.08    0.75
  -6   2   5    7.29    0.68
  -5  -2   5   75.55    3.68
   5  -2  -5   79.22    4.46
   5  -2  -5   63.60    3.54
   5  -2  -5   68.63    3.57
   5   2  -5   70.81    3.57
  -5   2   5   75.29    3.80
   5   2  -5   75.26    4.00
   5   2  -5   69.30    3.58
   5   2  -5   68.82    3.70
  -5   2   5   72.16    3.64
   5   2  -5   71.59    3.79
   4  -2  -5    4.11    0.43
  -4  -2   5    4.92    0.57
   4  -2  -5    4.50    0.45
   4  -2  -5    4.93    1.00
  -4   2   5    4.78    0.65
   4   2  -5    5.11    0.74
   4   2  -5    4.54    0.62
   4   2  -5    4.57    0.44
  -4   2   5    5.15    0.51
   4   2  -5    5.15    0.57
   4   2  -5    5.27    0.47
   3  -2  -5  125.27    6.02
   3  -2  -5  121.54    6.60
  -3  -2   5  124.30    6.08
   3  -2  -5  122.21    6.00
   3   2  -5  119.39    6.17
  -3   2   5  121.70    5.77
   3   2  -5  115.06    5.84
  -3   2   5  106.17    5.88
   3   2  -5  117.18    5.75
   3   2  -5  122.92    5.77
  -3   2   5  119.49    5.65
   3   2  -5  123.59    5.89
  -2  -2   5    5.09    0.42
  -2  -2   5    4.78    0.43
   2  -2  -5    3.41    0.75
   2  -2  -5    5.02    0.43
  -2  -2   5    4.19    0.50
   2  -2  -5    4.67    0.42
  -2   2   5    4.28    0.40
   2   2  -5    4.51    0.41
  -2   2   5    4.74    0.33
  -2   2   5    5.33    0.42
   2   2  -5    4.75    0.78
  -2   2   5    4.99    0.40
  -2   2   5    3.01    0.53
   2   2  -5    4.00    0.36
   2   2  -5    3.71    0.40
   2   2  -5    4.73    0.46
  -1  -2   5  219.15   10.22
  -1  -2   5  205.55   10.21
   1  -2  -5  206.24   10.21
  -1  -2   5  214.46   10.27
   1  -2  -5  214.17   10.69
   1  -2  -5  213.98   10.22
   1   2  -5  192.47    9.17
  -1   2   5  191.65    9.16
  -1   2   5  194.75    9.17
  -1   2   5  186.10    9.26
  -1   2   5  198.40    9.14
   1   2  -5  174.90    9.16
   1   2  -5  189.62    9.70
   1   2  -5  189.04    9.17
   1   2  -5  197.43    9.14
  -1   2   5  188.18    9.13
   0  -2   5    7.26    0.50
   0  -2  -5    7.44    0.91
   0  -2  -5    8.05    0.55
   0  -2   5    7.31    0.54
   0  -2   5    7.72    0.55
   0  -2  -5    6.83    0.52
   0  -2   5    7.33    0.63
   0   2   5    7.37    0.45
   0   2   5    7.85    0.64
   0   2  -5    7.27    0.51
   0   2  -5    7.12    0.92
   0   2   5    7.54    0.53
   0   2  -5    6.64    0.52
   0   2  -5    8.15    0.54
   0   2   5    6.51    0.53
   0   2   5    6.79    0.52
   1  -2   5  109.43    5.63
  -1  -2  -5  114.52    5.53
  -1  -2  -5  113.72    6.02
   1  -2   5  115.03    5.48
   1  -2   5  115.36    5.54
   1  -2   5  113.50    5.53
  -1  -2  -5  113.04    5.52
   1   2   5  105.89    5.24
   1   2   5   99.12    5.14
  -1   2  -5  111.42    5.24
  -1   2  -5  113.55    5.21
   1   2   5  102.00    5.31
   1   2   5  109.46    5.24
  -1   2  -5  105.08    5.24
   1   2   5  105.62    5.26
  -1   2  -5  114.39    5.76
   2  -2   5    0.10    0.17
  -2  -2  -5    0.28    0.16
   2  -2   5    0.36    0.09
  -2  -2  -5    0.24    0.17
   2  -2   5    0.26    0.29
   2  -2   5    0.06    0.18
  -2  -2  -5    0.26    0.42
   2   2   5    0.58    0.25
   2   2   5    0.59    0.11
  -2   2  -5    0.64    0.19
  -2   2  -5    1.06    0.22
   2   2   5    0.59    0.20
   2   2   5    0.36    0.22
   2   2   5    0.61    0.20
  -2   2  -5    0.55    0.42
  -2   2  -5    0.51    0.18
   3  -2   5  152.91    7.10
   3  -2   5  146.94    7.22
  -3  -2  -5  131.23    7.60
   3  -2   5  154.61    7.09
   3   2   5  147.47    7.32
  -3   2  -5  148.13    7.87
   3   2   5  155.50    7.26
   3   2   5  148.97    7.32
   3   2   5  150.14    7.24
  -3   2  -5  146.23    7.20
   4  -2   5    2.99    0.42
   4  -2   5    3.18    0.39
  -4  -2  -5    3.02    0.86
   4  -2   5    2.08    0.43
  -4   2  -5    3.68    0.84
  -4   2  -5    2.78    0.35
   4   2   5    2.85    0.47
   4   2   5    3.51    0.49
   4   2   5    3.09    0.40
   4   2   5    3.38    0.42
   5  -2   5  106.63    5.22
   5  -2   5  103.11    5.36
  -5  -2  -5  106.26    5.82
   5  -2   5  110.49    5.25
   5   2   5   93.48    5.31
   5   2   5  106.93    5.21
  -5   2  -5  105.16    5.18
   5   2   5  115.05    5.42
   5   2   5  111.44    5.24
  -5   2  -5  107.74    6.03
   6  -2   5    0.52    0.39
   6  -2   5    0.46    0.24
   6  -2   5   -0.10    0.23
   6   2   5    0.30    0.40
   6   2   5   -0.07    0.21
  -6   2  -5   -0.15    0.54
   6   2   5    0.26    0.24
   6   2   5   -0.02    0.34
  -6   2  -5    0.39    0.20
   7  -2   5   52.71    2.69
   7  -2   5   54.32    2.65
   7  -2   5   47.86    2.82
   7   2   5   54.15    2.84
   7   2   5   57.21    2.81
   7   2   5   54.07    3.12
  -7   2  -5   53.36    3.79
   7   2   5   59.44    3.07
   8  -2   5    1.59    0.35
   8  -2   5    1.79    0.39
   8   2   5    0.90    0.26
  -8   2  -5    1.39    0.90
   8   2   5    1.70    0.53
   8   2   5    1.41    0.33
   8   2   5    1.75    0.62
   8  -3  -5   50.61    4.07
   8  -3  -5   50.91    2.64
   8  -3  -5   50.89    2.66
  -8  -3   5   51.57    2.89
   8   3  -5   52.80    2.96
   8   3  -5   50.72    2.73
   8   3  -5   55.40    2.75
  -8   3   5   51.53    2.86
   7  -3  -5    2.27    0.36
  -7  -3   5    1.40    0.51
   7  -3  -5    2.10    0.35
   7  -3  -5    2.54    1.07
   7   3  -5    2.76    0.41
   7   3  -5    3.14    0.44
  -7   3   5    3.35    0.68
  -7   3   5    4.61    0.58
   7   3  -5    3.69    0.73
   7   3  -5    3.92    0.63
   6  -3  -5   82.29    4.02
   6  -3  -5   81.69    5.14
  -6  -3   5   83.13    4.18
   6  -3  -5   73.88    4.00
   6   3  -5   84.91    4.71
  -6   3   5   89.75    4.53
   6   3  -5   90.04    4.63
  -6   3   5   87.02    4.70
   6   3  -5   92.10    4.47
   6   3  -5   93.64    4.47
   5  -3  -5    3.46    1.03
  -5  -3   5    3.25    0.54
   5  -3  -5    3.40    0.48
   5  -3  -5    4.44    0.49
  -5   3   5    4.11    0.72
  -5   3   5    5.14    0.61
   5   3  -5    4.92    0.75
   5   3  -5    3.58    0.50
   5   3  -5    4.41    0.51
   5   3  -5    4.04    0.58
  -4  -3   5   79.92    4.12
   4  -3  -5   79.88    4.01
   4  -3  -5   82.51    4.01
   4  -3  -5   78.65    4.79
   4   3  -5   92.55    4.68
  -4   3   5   98.35    4.86
   4   3  -5   92.16    4.83
   4   3  -5   98.20    4.83
   4   3  -5   94.75    4.69
  -4   3   5   92.57    4.70
   3  -3  -5    2.01    0.71
   3  -3  -5    1.92    0.31
  -3  -3   5    3.09    0.57
   3  -3  -5    2.17    0.33
   3   3  -5    3.17    0.44
   3   3  -5    3.71    0.69
   3   3  -5    3.22    0.46
  -3   3   5    3.25    0.43
   3   3  -5    2.70    0.36
   3   3  -5    2.42    0.44
  -3   3   5    3.00    0.50
   2  -3  -5  171.27    8.77
   2  -3  -5  167.20    8.14
   2  -3  -5  164.85    8.15
  -2  -3   5  168.07    8.23
   2   3  -5  183.81    8.72
   2   3  -5  180.82    8.71
  -2   3   5  173.41    8.83
   2   3  -5  182.46    9.18
   2   3  -5  178.44    8.75
   2   3  -5  178.09    8.77
  -2   3   5  182.45    8.70
  -1  -3   5    8.12    0.65
  -1  -3   5    8.98    0.66
   1  -3  -5    9.32    0.67
   1  -3  -5    9.27    1.07
   1  -3  -5    9.67    0.66
  -1  -3   5    9.02    0.76
  -1   3   5    9.76    0.65
   1   3  -5    7.56    1.02
   1   3  -5    9.72    0.68
   1   3  -5    8.70    0.66
  -1   3   5    9.19    0.61
   1   3  -5    8.61    0.65
  -1   3   5    9.81    0.78
   1   3  -5    9.01    0.67
  -1   3   5    8.87    0.59
  -1   3   5   10.00    0.67
   0  -3   5  130.32    6.59
   0  -3  -5  135.65    6.53
   0  -3  -5  136.61    6.52
   0  -3   5  132.34    6.52
   0  -3  -5  129.98    6.94
   0  -3   5  138.22    6.52
   0   3   5  134.29    7.18
   0   3   5  148.68    7.04
   0   3   5  146.23    7.08
   0   3  -5  151.55    7.07
   0   3  -5  152.28    7.10
   0   3  -5  142.89    7.09
   0   3   5  139.37    7.09
   0   3   5  144.29    7.09
   0   3  -5  141.39    7.10
   0   3  -5  158.75    7.65
   0   3  -5  144.62    7.08
  -1  -3  -5    4.15    0.75
   1  -3   5    4.05    0.48
  -1  -3  -5    4.35    0.47
   1  -3   5    3.97    0.60
   1  -3   5    4.23    0.46
  -1   3  -5    4.31    0.85
   1   3   5    4.41    0.37
   1   3   5    4.71    0.48
  -1   3  -5    4.21    0.45
  -1   3  -5    4.02    0.44
  -1   3  -5    4.71    0.43
  -1   3  -5    4.00    0.45
   1   3   5    4.85    0.50
   1   3   5    4.78    0.47
   1   3   5    3.60    0.56
  -2  -3  -5  101.63    5.30
   2  -3   5   95.06    4.90
   2  -3   5  100.93    4.90
   2  -3   5  100.44    5.03
   2   3   5  108.33    5.25
  -2   3  -5  108.60    5.22
   2   3   5  113.28    5.32
  -2   3  -5  107.57    5.22
   2   3   5  107.30    5.15
   2   3   5  105.36    5.34
  -2   3  -5   93.06    5.75
   2   3   5  110.05    5.25
   3  -3   5    4.10    0.51
   3  -3   5    5.49    0.71
   3  -3   5    5.46    0.54
  -3  -3  -5    5.98    0.90
  -3   3  -5    5.11    0.50
   3   3   5    5.46    0.53
   3   3   5    5.90    0.66
  -3   3  -5    7.22    0.52
  -3   3  -5    5.67    1.00
   3   3   5    5.67    0.65
   3   3   5    4.62    0.52
   4  -3   5  109.75    5.52
   4  -3   5  115.24    5.52
   4  -3   5  111.61    5.66
   4   3   5  123.63    5.83
   4   3   5  108.20    5.93
  -4   3  -5  118.58    5.80
  -4   3  -5  120.08    5.79
   4   3   5  123.60    5.83
   4   3   5  117.75    5.96
   5  -3   5    2.23    0.37
   5  -3   5    2.51    0.37
   5  -3   5    2.40    0.50
  -5   3  -5    2.59    0.84
  -5   3  -5    2.81    0.36
   5   3   5    1.81    0.48
   5   3   5    2.62    0.40
   5   3   5    3.99    0.71
   5   3   5    3.54    0.51
  -5   3  -5    2.63    0.36
   6  -3   5   72.15    3.61
   6  -3   5   66.93    3.61
   6  -3   5   75.74    3.76
  -6   3  -5   80.46    4.94
   6   3   5   78.95    3.90
   6   3   5   81.92    4.14
   6   3   5   77.63    3.92
   6   3   5   75.62    4.15
  -6   3  -5   75.16    3.88
  -6   3  -5   76.55    3.90
   7  -3   5    0.73    0.32
   7  -3   5    0.56    0.32
  -7   3  -5    1.08    0.84
   7   3   5    0.77    0.56
   7   3   5    1.04    0.33
  -7   3  -5    0.91    0.33
   7   3   5    1.29    0.32
  -7   3  -5    1.19    0.30
   7   3   5    0.87    0.50
   8  -3   5   31.11    1.71
   8  -3   5   28.77    1.71
   8   3   5   32.23    2.22
   8   3   5   34.22    1.78
   8   3   5   33.08    1.81
  -8   3  -5   30.13    1.76
  -8   3  -5   31.96    2.96
   8   3   5   34.25    2.14
   7  -4  -5   27.73    1.65
  -7  -4   5   28.36    1.92
   7  -4  -5   31.35    3.04
   7  -4  -5   28.08    1.67
   7   4  -5   27.39    1.67
   7   4  -5   29.42    1.86
  -7   4   5   27.45    1.75
   7   4  -5   29.91    2.03
   7   4  -5   28.69    1.67
   6  -4  -5    0.62    0.32
   6  -4  -5    1.03    0.34
  -6  -4   5    1.22    0.52
   6  -4  -5    0.97    0.96
   6   4  -5    0.54    0.34
  -6   4   5    0.87    0.41
   6   4  -5    0.89    0.49
  -6   4   5    0.77    0.49
   6   4  -5    1.11    0.36
   6   4  -5    1.55    0.57
   5  -4  -5   20.06    1.27
   5  -4  -5   18.42    2.17
  -5  -4   5   21.37    1.47
   5  -4  -5   22.30    1.28
   5   4  -5   29.33    1.88
  -5   4   5   28.37    1.71
   5   4  -5   30.08    1.70
   5   4  -5   31.93    1.92
   5   4  -5   28.60    1.68
  -5   4   5   30.44    1.89
   4  -4  -5    1.38    0.81
   4  -4  -5    1.59    0.34
   4  -4  -5    1.15    0.32
  -4  -4   5    1.43    0.48
   4   4  -5    1.26    0.45
   4   4  -5    1.19    0.34
  -4   4   5    1.37    0.39
   4   4  -5    1.97    0.47
  -4   4   5    1.94    0.49
   4   4  -5    1.70    0.37
   3  -4  -5   42.91    2.44
   3  -4  -5   52.10    3.31
  -3  -4   5   47.20    2.60
   3  -4  -5   44.36    2.46
   3   4  -5   52.23    2.76
   3   4  -5   51.74    2.83
   3   4  -5   52.73    2.75
  -3   4   5   52.37    2.87
  -3   4   5   51.39    2.74
   3   4  -5   56.70    2.87
   2  -4  -5    1.84    0.71
   2  -4  -5    1.13    0.31
  -2  -4   5    1.07    0.43
   2  -4  -5    1.58    0.34
  -2   4   5    2.40    0.38
   2   4  -5    2.08    0.41
  -2   4   5    2.28    0.48
   2   4  -5    2.17    0.41
   2   4  -5    3.10    0.42
   2   4  -5    1.85    0.37
   1  -4  -5   61.70    3.17
   1  -4  -5   67.03    3.21
   1  -4  -5   62.32    3.73
  -1  -4   5   57.85    3.26
   1   4  -5   70.09    3.63
   1   4  -5   73.37    3.63
   1   4  -5   75.19    3.64
   1   4  -5   69.51    3.63
  -1   4   5   73.85    3.75
  -1   4   5   67.70    3.57
   0  -4   5    1.17    0.35
   0  -4   5    0.93    0.39
   0  -4  -5    0.87    0.53
   0   4  -5    1.35    0.59
   0   4   5    1.34    0.32
   0   4  -5    0.95    0.30
   0   4  -5    1.62    0.47
   0   4   5    1.62    0.42
   0   4   5    1.05    0.31
   0   4  -5    1.44    0.35
   0   4   5    1.02    0.28
   1  -4   5   29.54    1.61
   1  -4   5   29.14    1.60
   1  -4   5   26.35    1.69
   1   4   5   36.59    2.03
   1   4   5   35.67    1.91
  -1   4  -5   36.10    1.87
   1   4   5   33.30    1.92
   1   4   5   36.03    1.83
   1   4   5   33.99    1.90
  -1   4  -5   32.83    2.41
  -1   4  -5   34.73    1.89
   2  -4   5    1.32    0.35
   2  -4   5    0.53    0.30
   2  -4   5    0.92    0.40
  -2   4  -5    1.04    0.30
   2   4   5    1.63    0.47
   2   4   5    1.04    0.39
  -2   4  -5    1.05    0.30
  -2   4  -5    1.32    0.64
   2   4   5    0.74    0.29
   2   4   5    1.27    0.33
   3  -4   5   31.98    1.92
   3  -4   5   31.84    1.80
   3  -4   5   32.52    1.78
   3   4   5   37.73    2.04
   3   4   5   37.44    2.15
   3   4   5   35.84    2.03
  -3   4  -5   37.41    2.00
  -3   4  -5   37.68    2.74
   3   4   5   36.73    2.18
  -3   4  -5   38.54    2.00
   4  -4   5    2.93    0.44
   4  -4   5    3.15    0.57
   4  -4   5    2.91    0.43
   4   4   5    4.76    0.60
  -4   4  -5    2.59    0.90
  -4   4  -5    3.22    0.49
   4   4   5    2.49    0.55
   4   4   5    3.10    0.59
   4   4   5    2.50    0.41
  -4   4  -5    2.80    0.39
   5  -4   5   33.49    1.87
   5  -4   5   33.32    1.88
  -5   4  -5   36.04    1.90
   5   4   5   35.46    2.17
   5   4   5   36.61    1.95
   5   4   5   32.14    2.14
   5   4   5   37.61    1.95
  -5   4  -5   31.30    2.74
   6  -4   5    0.94    0.36
   6  -4   5    0.65    0.37
  -6   4  -5    0.65    0.32
  -6   4  -5    0.83    0.87
   6   4   5    1.08    0.57
   6   4   5    0.65    0.36
  -6   4  -5    1.19    0.36
   6   4   5    0.45    0.53
   6   4   5    0.55    0.35
   7  -4   5   17.72    1.26
   7  -4   5   19.84    1.25
   7   4   5   25.07    1.37
  -7   4  -5   20.08    1.32
   7   4   5   21.71    1.69
  -7   4  -5   20.38    2.43
  -7   4  -5   20.34    1.30
   7   4   5   20.39    1.35
   7   4   5   22.28    1.74
   5  -5  -5    1.85    0.44
  -5  -5   5    1.35    0.61
   5  -5  -5    0.68    0.37
   5  -5  -5    0.87    0.95
   5   5  -5    1.23    0.58
   5   5  -5    0.82    0.40
   5   5  -5    1.13    0.54
   5   5  -5    1.09    0.42
  -5   5   5    0.78    0.43
   4  -5  -5   17.96    2.09
   4  -5  -5   16.24    1.16
   4  -5  -5   17.25    1.18
  -4  -5   5   14.67    1.34
  -4   5   5   20.51    1.36
  -4   5   5   20.27    1.48
   4   5  -5   19.11    1.50
   4   5  -5   20.48    1.34
   4   5  -5   21.53    1.49
   4   5  -5   19.84    1.33
   3  -5  -5    0.28    0.70
   3  -5  -5    0.10    0.32
  -3  -5   5   -0.05    0.48
   3  -5  -5    0.66    0.36
   3   5  -5    0.67    0.40
   3   5  -5    0.92    0.46
  -3   5   5    0.64    0.38
   3   5  -5    0.67    0.36
  -3   5   5   -0.04    0.39
   3   5  -5    0.67    0.38
   2  -5  -5   50.47    3.48
  -2  -5   5   54.36    2.92
  -2   5   5   50.21    2.67
   2   5  -5   50.73    2.74
   2   5  -5   53.40    2.73
  -2   5   5   51.88    2.83
   2   5  -5   49.21    2.73
   2   5  -5   47.84    2.73
  -1  -5   5    0.24    0.44
  -1   5   5    0.48    0.41
   1   5  -5    0.52    0.37
  -1   5   5    0.09    0.30
   0  -5   5   39.57    2.30
   0   5  -5   38.75    2.22
   0   5   5   40.78    2.16
   0   5   5   40.58    2.34
   1  -5   5   -0.02    0.44
  -1   5  -5    0.16    0.32
   1   5   5    0.63    0.45
   2  -5   5   27.15    1.74
  -2  -5  -5   26.19    1.65
   2  -5   5   26.27    1.61
   2   5   5   28.30    1.63
   2   5   5   26.60    1.77
  -2   5  -5   25.46    1.60
   2   5   5   26.88    1.62
  -2   5  -5   27.54    2.25
  -3  -5  -5    2.16    0.55
   3  -5   5    2.77    0.49
   3  -5   5    2.56    0.49
   3   5   5    1.80    0.43
  -3   5  -5    1.81    0.81
  -3   5  -5    1.65    0.43
  -3   5  -5    1.78    0.39
   3   5   5    1.96    0.44
   3   5   5    1.56    0.57
   4  -5   5   32.84    1.91
   4  -5   5   32.50    1.90
   4   5   5   28.86    1.74
   4   5   5   30.59    1.76
  -4   5  -5   30.77    1.73
   4   5   5   34.91    2.02
  -4   5  -5   25.94    2.51
  -4   5  -5   27.10    1.68
   5  -5   5    3.04    0.51
   5  -5   5    2.31    0.49
  -5  -5  -5    1.94    0.62
   5   5   5    1.88    0.48
   5   5   5    2.95    0.52
   5   5   5    2.77    0.71
  -5   5  -5    2.50    0.46
  -5   5  -5    3.92    1.15
  -5   5  -5    2.53    0.49
  -2  -6   5    0.55    0.59
  -2   6   5    1.25    0.46
   2   6  -5    1.14    0.50
  -2   6   5    0.44    0.49
  -1  -6   5   25.64    1.80
   1   6  -5   27.46    1.77
  -1   6   5   27.29    1.86
  -1   6   5   29.47    1.71
   0  -6   5    0.03    0.53
   0   6  -5   -0.19    0.41
   0   6   5   -0.11    0.48
   1   6   5   19.85    1.54
  -1   6  -5   19.97    1.40
  -2   6  -5    0.24    0.46
   2   6   5    0.50    0.53
   9   0  -6   -0.31    0.43
   9   0  -6    0.19    0.83
   9   0  -6   -0.06    0.31
  -9   0   6    0.35    0.51
   9   0  -6    0.10    0.19
   8   0  -6   28.58    1.60
  -8   0   6   27.51    1.84
   8   0  -6   23.92    1.47
   8   0  -6   30.90    1.84
   8   0  -6   30.83    2.60
   7   0  -6   17.57    1.32
  -7   0   6   18.65    1.37
   7   0  -6   19.48    1.96
   7   0  -6   18.18    1.15
   7   0  -6   19.29    1.10
   6   0  -6   27.81    1.54
   6   0  -6   28.72    1.67
   6   0  -6   26.15    1.52
  -6   0   6   27.20    1.54
  -6   0   6   27.94    1.71
   6   0  -6   28.24    2.25
   5   0  -6    0.10    0.28
  -5   0   6    0.18    0.24
   5   0  -6    0.12    0.44
  -5   0   6    0.04    0.31
   5   0  -6   -0.04    0.21
   5   0  -6   -0.01    0.20
   4   0  -6  103.99    5.88
   4   0  -6  111.52    5.84
   4   0  -6  117.17    5.87
   4   0  -6  128.26    6.49
  -4   0   6  124.40    5.96
  -4   0   6  129.43    5.85
   3   0  -6    0.04    0.20
   3   0  -6    0.23    0.20
  -3   0   6    0.17    0.22
   3   0  -6   -0.04    0.20
  -3   0   6   -0.12    0.17
  -3   0   6    0.17    0.16
   3   0  -6    0.20    0.19
  -3   0   6    0.05    0.23
   3   0  -6    0.25    0.40
  -2   0   6   69.71    3.57
  -2   0   6   74.20    3.63
   2   0  -6   73.06    3.59
  -2   0   6   70.73    3.53
   2   0  -6   70.32    3.56
   2   0  -6   71.53    3.56
   2   0  -6   69.24    4.12
   1   0  -6    0.03    0.39
  -1   0   6   -0.14    0.17
  -1   0   6    0.15    0.24
  -1   0   6    0.09    0.19
   1   0  -6    0.12    0.20
  -1   0   6    0.20    0.22
   1   0  -6   -0.16    0.16
   1   0  -6    0.11    0.16
   0   0   6   39.14    2.08
   0   0   6   39.37    2.10
   0   0  -6   40.52    2.64
   0   0   6   39.49    2.10
   0   0  -6   40.35    2.07
   0   0   6   40.12    2.12
   0   0  -6   40.60    2.01
  -1   0  -6   12.80    0.74
   1   0   6   13.34    0.87
   1   0   6   12.60    0.87
  -1   0  -6   16.20    1.41
  -1   0  -6   12.93    0.83
   1   0   6   14.43    0.92
  -1   0  -6   12.49    0.85
   1   0   6   14.26    0.86
  -2   0  -6  155.73    7.27
   2   0   6  150.66    7.28
   2   0   6  154.01    7.28
  -2   0  -6  142.98    7.22
  -2   0  -6  154.43    7.88
  -2   0  -6  141.18    7.13
   2   0   6  142.03    7.23
   2   0   6  154.90    7.33
  -3   0  -6    6.61    0.40
   3   0   6    7.83    0.56
  -3   0  -6    9.44    1.10
   3   0   6    8.19    0.62
   3   0   6    7.55    0.68
   3   0   6    8.20    0.63
   4   0   6   57.94    3.03
   4   0   6   57.55    3.02
   4   0   6   62.24    2.98
  -4   0  -6   64.31    3.68
   4   0   6   54.36    3.11
  -5   0  -6   17.40    1.62
   5   0   6   14.27    0.92
   5   0   6   14.10    0.95
   5   0   6   14.85    1.11
   5   0   6   14.97    0.97
   6   0   6   46.10    2.79
   6   0   6   48.01    2.64
  -6   0  -6   59.95    3.51
   6   0   6   50.10    2.63
   7   0   6    4.07    0.51
  -7   0  -6    3.23    0.93
   7   0   6    2.73    0.60
   7   0   6    2.51    0.42
  -8   0  -6   36.44    2.83
   8   0   6   31.02    2.13
   8   0   6   34.36    1.89
   8   0   6   33.99    1.81
   9   0   6    0.55    0.58
   9   0   6    0.12    0.22
  -9   0  -6    0.16    0.77
   9   0   6    0.28    0.32
   9  -1  -6   37.08    1.96
  -9  -1   6   35.37    2.28
   9  -1  -6   31.84    3.14
   9  -1  -6   37.64    1.86
   9   1  -6   38.65    1.96
   9   1  -6   38.42    2.33
  -9   1   6   36.98    2.37
   9   1  -6   36.59    2.06
  -8  -1   6    3.22    0.67
  -8  -1   6    3.75    0.57
   8  -1  -6    2.27    0.41
   8  -1  -6    3.00    1.14
   8  -1  -6    2.80    0.63
   8  -1  -6    2.67    0.41
  -8   1   6    2.23    0.58
   8   1  -6    1.73    0.53
   8   1  -6    1.73    0.34
   8   1  -6    2.23    1.02
   8   1  -6    3.67    0.50
  -7  -1   6   43.75    2.36
   7  -1  -6   37.60    3.15
   7  -1  -6   43.16    2.31
   7  -1  -6   46.60    2.49
   7  -1  -6   45.12    2.23
  -7  -1   6   43.88    2.51
   7   1  -6   40.90    2.20
   7   1  -6   39.97    2.40
   7   1  -6   43.38    2.97
  -7   1   6   45.27    2.49
   7   1  -6   41.53    2.24
  -6  -1   6    1.47    0.39
   6  -1  -6    1.63    0.35
   6  -1  -6    1.06    0.40
  -6  -1   6    0.71    0.40
   6  -1  -6    1.66    0.81
   6  -1  -6    1.10    0.26
   6   1  -6    1.39    0.64
   6   1  -6    1.92    0.45
   6   1  -6    1.43    0.33
  -6   1   6    0.96    0.43
   6   1  -6    1.52    0.28
   5  -1  -6  117.18    6.16
   5  -1  -6  130.68    6.25
  -5  -1   6  126.33    6.27
   5  -1  -6  132.30    6.13
   5  -1  -6  115.20    6.88
  -5  -1   6  130.66    6.20
   5   1  -6  112.32    5.19
   5   1  -6  105.48    5.69
   5   1  -6  102.84    5.23
   5   1  -6  105.67    5.11
  -5   1   6   94.98    5.28
   4  -1  -6    5.49    0.49
   4  -1  -6    5.13    0.91
   4  -1  -6    6.30    0.58
  -4  -1   6    5.54    0.56
  -4  -1   6    4.61    0.61
   4  -1  -6    4.32    0.52
   4   1  -6    4.78    0.84
   4   1  -6    6.59    0.59
  -4   1   6    4.85    0.44
   4   1  -6    5.42    0.46
  -4   1   6    5.36    0.64
   4   1  -6    5.86    0.55
   3  -1  -6  280.44   13.28
  -3  -1   6  290.12   13.48
   3  -1  -6  286.44   13.27
  -3  -1   6  284.47   13.32
  -3  -1   6  256.85   13.26
   3  -1  -6  265.47   13.84
   3  -1  -6  267.57   13.27
   3   1  -6  253.47   12.17
   3   1  -6  272.93   12.24
  -3   1   6  258.76   12.31
   3   1  -6  261.96   12.22
  -3   1   6  243.16   12.18
   3   1  -6  227.18   12.68
  -3   1   6  257.12   12.16
  -2  -1   6    6.74    0.54
  -2  -1   6    5.28    0.52
   2  -1  -6    4.84    0.49
   2  -1  -6    5.43    0.50
   2  -1  -6    5.19    0.46
   2  -1  -6    5.22    0.89
  -2  -1   6    2.99    0.47
  -2  -1   6    5.47    0.47
   2   1  -6    4.92    0.50
   2   1  -6    5.71    0.46
  -2   1   6    5.67    0.47
   2   1  -6    4.47    0.47
  -2   1   6    4.73    0.42
  -2   1   6    4.73    0.57
  -2   1   6    5.12    0.47
   2   1  -6    5.48    0.87
  -1  -1   6  117.26    5.60
   1  -1  -6  109.49    6.14
   1  -1  -6  114.69    5.58
   1  -1  -6  112.55    5.53
  -1  -1   6  115.29    5.59
  -1  -1   6  114.65    5.59
  -1  -1   6  113.08    5.61
  -1   1   6  102.14    5.06
  -1   1   6  105.38    5.15
   1   1  -6  107.78    5.07
  -1   1   6  106.43    5.08
   1   1  -6  101.82    5.65
   1   1  -6   98.63    5.07
  -1   1   6  101.15    5.07
   1   1  -6  102.32    5.06
   0  -1   6    2.35    0.33
   0  -1   6    2.01    0.30
   0  -1   6    2.35    0.45
   0  -1  -6    2.25    0.35
   0  -1  -6    2.58    0.25
   0  -1  -6    2.18    0.35
   0  -1  -6    2.61    0.73
   0  -1   6    2.33    0.36
   0   1  -6    1.62    0.58
   0   1  -6    1.33    0.27
   0   1   6    1.54    0.28
   0   1  -6    1.91    0.27
   0   1   6    1.77    0.31
   0   1  -6    1.73    0.29
   0   1   6    1.29    0.27
   0   1   6    1.58    0.32
  -1  -1  -6  194.52    9.34
  -1  -1  -6  182.56    9.94
  -1  -1  -6  190.99    9.36
   1  -1   6  186.95    9.35
   1  -1   6  186.56    9.36
   1  -1   6  198.16    9.43
   1  -1   6  214.27    9.34
  -1   1  -6  192.85    9.11
  -1   1  -6  182.57    9.67
  -1   1  -6  189.68    9.08
   1   1   6  191.20    9.11
   1   1   6  170.91    9.11
   1   1   6  193.12    9.13
   1   1   6  174.58    9.09
   1   1   6  195.76    8.96
  -1   1  -6  199.23    9.02
   2  -1   6    0.78    0.24
   2  -1   6    0.89    0.32
  -2  -1  -6    1.26    0.57
   2  -1   6    1.14    0.26
  -2  -1  -6    1.63    0.25
  -2  -1  -6    1.14    0.22
   2  -1   6    1.06    0.21
   2   1   6    0.53    0.26
  -2   1  -6    0.75    0.24
   2   1   6    0.94    0.26
   2   1   6    1.01    0.28
  -2   1  -6    0.89    0.16
  -2   1  -6    0.85    0.45
   2   1   6    0.68    0.30
  -2   1  -6    0.94    0.22
   3  -1   6  143.22    6.59
   3  -1   6  136.10    6.70
   3  -1   6  140.67    6.68
  -3  -1  -6  140.38    7.31
   3  -1   6  124.52    6.77
  -3   1  -6  128.03    6.44
   3   1   6  131.06    6.63
   3   1   6  136.94    6.57
   3   1   6  138.21    6.56
   3   1   6  132.71    6.57
  -3   1  -6  138.42    7.19
  -4  -1  -6    5.50    0.99
   4  -1   6    5.46    0.55
   4  -1   6    3.38    0.64
   4  -1   6    4.43    0.48
   4   1   6    4.68    0.63
   4   1   6    4.74    0.56
   4   1   6    5.25    0.52
  -4   1  -6    4.76    0.35
  -4   1  -6    4.54    0.95
   4   1   6    5.08    0.55
  -5  -1  -6   71.17    4.34
   5  -1   6   79.15    3.86
   5  -1   6   70.49    3.73
   5  -1   6   74.03    3.68
   5   1   6   74.57    3.56
   5   1   6   71.10    3.49
   5   1   6   66.85    3.52
  -5   1  -6   65.96    4.23
   5   1   6   68.41    3.65
   6  -1   6    2.98    0.42
   6  -1   6    3.95    0.70
   6  -1   6    3.26    0.47
  -6  -1  -6    1.96    0.74
   6   1   6    2.84    0.44
  -6   1  -6    2.79    0.88
   6   1   6    3.28    0.47
   6   1   6    2.87    0.46
   6   1   6    3.35    0.58
  -7  -1  -6   84.36    4.79
   7  -1   6   76.33    4.12
   7  -1   6   73.34    3.91
   7  -1   6   78.19    3.93
   7   1   6   71.59    3.74
   7   1   6   67.62    3.41
   7   1   6   66.13    3.48
   8  -1   6    1.07    0.54
   8  -1   6    0.60    0.31
   8  -1   6    0.97    0.35
   8   1   6    1.61    0.63
   8   1   6    1.48    0.40
  -8   1  -6    1.43    0.86
   8   1   6    1.21    0.29
   9  -2  -6    1.18    0.34
   9  -2  -6    1.34    1.14
   9  -2  -6    0.78    0.28
   9   2  -6    0.53    0.51
   9   2  -6    0.70    0.31
   9   2  -6    0.80    0.33
   8  -2  -6   35.03    1.91
   8  -2  -6   36.60    1.97
  -8  -2   6   40.00    2.18
  -8  -2   6   32.90    2.20
   8   2  -6   38.14    2.10
   8   2  -6   38.29    2.06
  -8   2   6   37.10    2.20
   8   2  -6   37.38    2.27
  -8   2   6   40.43    2.42
   7  -2  -6    5.85    1.52
  -7  -2   6    5.90    0.79
   7  -2  -6    7.10    0.59
   7  -2  -6    6.76    0.64
  -7   2   6    5.92    0.90
  -7   2   6    6.82    0.80
   7   2  -6    6.39    0.61
   7   2  -6    5.78    0.82
   7   2  -6    6.28    0.67
   6  -2  -6   50.28    3.61
   6  -2  -6   54.81    2.71
  -6  -2   6   54.08    2.80
   6  -2  -6   48.50    2.65
   6   2  -6   55.75    2.84
  -6   2   6   57.56    2.95
  -6   2   6   57.53    3.10
   6   2  -6   55.42    3.00
   6   2  -6   52.33    2.86
  -5  -2   6    7.83    0.77
   5  -2  -6    7.67    0.65
   5  -2  -6    7.80    0.61
   5  -2  -6    6.28    1.26
   5   2  -6    5.06    0.55
   5   2  -6    5.90    0.66
  -5   2   6    6.23    0.64
   5   2  -6    6.27    0.94
  -5   2   6    4.36    0.75
   5   2  -6    6.19    0.54
  -4  -2   6  164.51    8.11
   4  -2  -6  164.73    8.83
   4  -2  -6  165.04    8.03
   4  -2  -6  167.41    8.06
   4   2  -6  166.20    8.35
  -4   2   6  157.64    8.02
   4   2  -6  162.51    7.95
  -4   2   6  162.33    7.88
   4   2  -6  154.73    7.84
   4   2  -6  166.70    7.87
  -3  -2   6    3.14    0.53
   3  -2  -6    3.70    0.88
   3  -2  -6    4.02    0.46
   3  -2  -6    2.19    0.34
   3   2  -6    2.41    0.40
  -3   2   6    3.06    0.38
   3   2  -6    3.14    0.40
   3   2  -6    3.07    0.41
   3   2  -6    3.20    0.76
  -3   2   6    3.21    0.52
   2  -2  -6  130.06    6.63
  -2  -2   6  134.45    6.69
   2  -2  -6  135.04    6.65
   2  -2  -6  142.27    7.27
  -2  -2   6  141.24    6.67
  -2  -2   6  134.94    6.67
  -2  -2   6  135.11    6.65
   2   2  -6  139.47    7.30
   2   2  -6  135.98    6.71
   2   2  -6  134.90    6.72
  -2   2   6  138.03    6.69
  -2   2   6  144.81    6.66
  -2   2   6  144.63    6.72
  -2   2   6  132.78    6.83
   2   2  -6  134.19    6.75
  -2   2   6  135.56    6.69
   1  -2  -6   22.83    1.30
   1  -2  -6   23.88    1.84
  -1  -2   6   24.13    1.31
   1  -2  -6   23.74    1.31
  -1  -2   6   20.48    1.35
  -1  -2   6   25.14    1.33
  -1  -2   6   23.92    1.31
   1   2  -6   23.91    1.26
  -1   2   6   22.49    1.26
   1   2  -6   22.36    1.26
   1   2  -6   22.39    1.21
   1   2  -6   22.05    1.26
  -1   2   6   23.07    1.20
  -1   2   6   20.84    1.23
  -1   2   6   23.01    1.38
  -1   2   6   22.91    1.23
   1   2  -6   21.35    1.78
   0  -2  -6  108.02    5.31
   0  -2  -6  102.36    5.31
   0  -2   6  109.23    5.33
   0  -2   6  108.64    5.29
   0  -2   6  106.58    5.39
   0  -2   6  103.21    5.31
   0  -2  -6  120.83    5.98
   0   2  -6  114.92    5.59
   0   2   6  113.47    5.59
   0   2   6  114.98    5.51
   0   2   6  115.45    5.60
   0   2   6  108.52    5.68
   0   2  -6  115.92    5.57
   0   2  -6  112.99    5.60
   0   2  -6  120.33    6.23
   0   2   6  111.61    5.59
   1  -2   6    0.26    0.22
   1  -2   6   -0.06    0.30
  -1  -2  -6    0.37    0.19
  -1  -2  -6   -0.04    0.17
   1  -2   6    0.30    0.21
  -1  -2  -6    0.11    0.45
   1  -2   6    0.34    0.18
  -1   2  -6    0.17    0.39
   1   2   6    0.15    0.26
   1   2   6    0.25    0.21
   1   2   6    0.27    0.21
   1   2   6   -0.10    0.22
   1   2   6    0.24    0.11
  -1   2  -6    0.26    0.20
  -1   2  -6    0.10    0.16
  -1   2  -6    0.21    0.18
   2  -2   6  144.98    6.99
   2  -2   6  144.07    7.11
   2  -2   6  139.09    7.00
  -2  -2  -6  146.71    7.67
   2   2   6  147.39    7.46
  -2   2  -6  161.93    7.42
  -2   2  -6  154.08    8.10
   2   2   6  157.36    7.53
   2   2   6  146.72    7.53
   2   2   6  153.77    7.48
   3  -2   6    1.67    0.30
  -3  -2  -6    2.65    0.89
   3  -2   6    3.10    0.44
   3  -2   6    1.31    0.43
   3   2   6    1.24    0.35
   3   2   6    1.07    0.27
   3   2   6    1.51    0.31
  -3   2  -6    1.59    0.61
  -3   2  -6    1.32    0.22
   3   2   6    1.48    0.35
   4  -2   6   53.46    2.73
  -4  -2  -6   51.85    3.37
   4  -2   6   55.80    2.88
   4  -2   6   50.39    2.69
   4   2   6   56.90    2.76
   4   2   6   52.75    2.88
   4   2   6   55.22    2.79
  -4   2  -6   51.07    2.68
  -4   2  -6   51.07    3.45
   4   2   6   56.55    2.86
  -5  -2  -6    3.14    0.97
   5  -2   6    3.10    0.47
   5  -2   6    3.62    0.60
   5  -2   6    2.60    0.40
   5   2   6    2.19    0.38
   5   2   6    1.58    0.48
  -5   2  -6    2.30    0.84
   5   2   6    2.25    0.35
  -5   2  -6    2.93    0.36
   5   2   6    1.36    0.40
   6  -2   6   46.77    2.55
   6  -2   6   47.54    2.51
   6  -2   6   50.89    2.71
  -6   2  -6   47.90    3.37
   6   2   6   46.60    2.60
   6   2   6   46.44    2.46
   6   2   6   47.67    2.42
   6   2   6   44.04    2.68
   7  -2   6    0.36    0.33
   7  -2   6   -0.08    0.44
   7  -2   6    0.04    0.28
   7   2   6   -0.01    0.48
   7   2   6   -0.18    0.38
  -7   2  -6   -0.36    0.65
   7   2   6   -0.13    0.29
   7   2   6   -0.11    0.26
   8  -2   6   46.85    2.65
   8  -2   6   49.44    2.61
   8  -2   6   53.63    2.88
   8   2   6   49.47    2.90
   8   2   6   50.79    3.37
  -8   2  -6   46.74    3.67
   8   2   6   49.18    2.51
   8   2   6   43.51    2.43
   8  -3  -6    6.53    0.65
   8  -3  -6    6.53    0.68
  -8  -3   6    6.03    1.01
   8  -3  -6    7.21    1.89
   8   3  -6    4.69    0.67
   8   3  -6    5.65    0.76
  -8   3   6    5.00    0.87
  -8   3   6    4.19    0.67
   8   3  -6    5.20    0.66
   7  -3  -6   26.12    1.54
   7  -3  -6   22.49    1.49
  -7  -3   6   29.26    1.77
   7  -3  -6   29.19    2.83
  -7   3   6   26.15    1.89
   7   3  -6   26.24    1.58
   7   3  -6   28.20    1.76
  -7   3   6   26.61    1.69
   7   3  -6   27.88    1.57
  -6  -3   6    3.61    0.62
   6  -3  -6    3.69    0.55
   6  -3  -6    4.38    1.48
   6  -3  -6    3.67    0.53
  -6   3   6    3.78    0.55
   6   3  -6    3.48    0.57
   6   3  -6    2.61    0.43
   6   3  -6    3.58    0.56
  -6   3   6    3.56    0.68
  -5  -3   6   45.90    2.56
   5  -3  -6   44.42    2.40
   5  -3  -6   45.27    2.39
   5  -3  -6   45.79    3.33
   5   3  -6   47.20    2.29
   5   3  -6   43.96    2.51
   5   3  -6   40.53    2.28
  -5   3   6   43.68    2.53
   5   3  -6   40.60    2.41
  -5   3   6   42.60    2.33
   4  -3  -6    0.08    0.22
  -4  -3   6   -0.06    0.36
   4  -3  -6    0.33    0.25
   4  -3  -6    0.01    0.61
   4   3  -6    0.46    0.27
   4   3  -6    0.53    0.37
   4   3  -6    0.03    0.35
  -4   3   6    0.88    0.31
  -4   3   6    0.54    0.40
   4   3  -6    0.26    0.24
   3  -3  -6   78.23    4.02
  -3  -3   6   79.65    4.13
   3  -3  -6   79.09    4.03
   3  -3  -6   84.41    4.82
   3   3  -6   71.79    3.74
   3   3  -6   69.62    3.71
   3   3  -6   71.75    3.63
   3   3  -6   76.52    4.13
  -3   3   6   76.67    3.63
  -3   3   6   66.50    3.76
   3   3  -6   70.52    3.62
  -2  -3   6   17.04    1.23
   2  -3  -6   18.50    1.14
   2  -3  -6   19.55    1.15
   2  -3  -6   20.37    1.72
  -2   3   6   20.26    1.09
   2   3  -6   19.05    1.11
   2   3  -6   18.29    1.10
   2   3  -6   18.19    1.61
  -2   3   6   15.71    1.23
   2   3  -6   18.54    1.15
   1  -3  -6   56.64    2.80
  -1  -3   6   51.59    2.87
   1  -3  -6   55.57    3.38
   1  -3  -6   52.73    2.78
  -1  -3   6   55.55    2.81
  -1   3   6   50.20    2.52
   1   3  -6   49.98    2.53
  -1   3   6   47.48    2.53
   1   3  -6   51.21    2.55
  -1   3   6   52.58    2.48
   1   3  -6   44.96    3.09
  -1   3   6   48.14    2.47
   1   3  -6   47.28    2.52
  -1   3   6   48.40    2.66
   0  -3   6    8.06    0.79
   0  -3   6    8.69    0.69
   0  -3  -6    8.58    0.67
   0  -3  -6    9.16    1.12
   0  -3   6    8.40    0.68
   0  -3  -6    9.37    0.67
   0   3  -6    9.88    0.66
   0   3   6    9.61    0.71
   0   3  -6    8.65    1.20
   0   3  -6    9.79    0.70
   0   3   6    8.98    0.68
   0   3   6    9.86    0.72
   0   3   6    9.24    0.84
   0   3  -6   10.45    0.71
   0   3   6    9.21    0.61
   0   3  -6    9.47    0.70
   1  -3   6  113.76    5.64
   1  -3   6  105.94    5.52
  -1  -3  -6  107.62    6.01
   1  -3   6  122.46    5.54
  -1   3  -6  118.94    5.44
   1   3   6  104.28    5.45
  -1   3  -6  111.89    5.43
   1   3   6  111.04    5.57
  -1   3  -6  111.94    6.09
   1   3   6  112.44    5.46
   1   3   6  108.28    5.48
   1   3   6  107.70    5.35
   2  -3   6    1.31    0.31
   2  -3   6    1.40    0.47
   2  -3   6    1.47    0.33
  -2  -3  -6    1.69    0.63
   2   3   6    2.40    0.48
  -2   3  -6    2.56    0.38
   2   3   6    2.36    0.42
   2   3   6    2.91    0.39
   2   3   6    1.50    0.33
  -2   3  -6    1.85    0.66
  -2   3  -6    2.37    0.32
   3  -3   6   85.31    4.35
   3  -3   6   85.09    4.50
  -3  -3  -6   88.35    4.94
   3  -3   6   90.24    4.37
  -3   3  -6   80.17    3.81
   3   3   6   78.46    3.96
  -3   3  -6   73.83    4.56
  -3   3  -6   76.40    3.82
   3   3   6   78.00    3.86
   3   3   6   75.52    3.86
   3   3   6   73.33    3.97
   4  -3   6    2.55    0.56
   4  -3   6    2.01    0.37
   4  -3   6    1.99    0.37
   4   3   6    1.86    0.35
   4   3   6    1.64    0.35
  -4   3  -6    2.14    0.77
   4   3   6    1.67    0.48
  -4   3  -6    1.06    0.29
   4   3   6    2.21    0.50
  -4   3  -6    1.28    0.30
   5  -3   6   28.52    1.87
   5  -3   6   30.27    1.71
   5  -3   6   33.21    1.75
  -5   3  -6   24.45    1.38
   5   3   6   23.71    1.64
   5   3   6   29.66    1.68
   5   3   6   24.48    1.45
  -5   3  -6   23.58    2.23
  -5   3  -6   25.03    1.42
   5   3   6   23.66    1.43
   6  -3   6    2.64    0.57
   6  -3   6    3.02    0.46
   6  -3   6    2.98    0.44
   6   3   6    1.65    0.39
  -6   3  -6    2.47    0.38
   6   3   6    2.04    0.56
   6   3   6    2.30    0.62
  -6   3  -6    0.97    0.83
   6   3   6    2.09    0.38
  -6   3  -6    2.41    0.37
   7  -3   6   25.03    1.47
   7  -3   6   23.88    1.49
   7   3   6   23.68    1.78
   7   3   6   22.76    1.66
  -7   3  -6   22.79    2.40
  -7   3  -6   23.67    1.38
   7   3   6   25.48    1.44
   7   3   6   23.24    1.39
  -7  -4   6    4.50    0.79
   7  -4  -6    5.30    0.69
   7  -4  -6    5.25    0.67
   7  -4  -6    5.99    1.87
   7   4  -6    7.28    1.12
   7   4  -6    4.86    0.74
   7   4  -6    4.90    0.72
   7   4  -6    3.92    0.56
  -7   4   6    4.25    0.67
  -6  -4   6   37.44    2.20
   6  -4  -6   35.18    1.97
   6  -4  -6   31.32    3.06
   6  -4  -6   34.65    1.95
   6   4  -6   32.89    2.17
   6   4  -6   34.57    2.00
   6   4  -6   36.81    2.01
  -6   4   6   35.70    2.26
   6   4  -6   36.82    2.30
  -6   4   6   35.78    2.07
   5  -4  -6    0.34    0.32
   5  -4  -6   -0.09    0.28
  -5  -4   6    0.34    0.50
   5  -4  -6    0.51    0.84
  -5   4   6    0.47    0.40
   5   4  -6    0.60    0.48
   5   4  -6    0.36    0.33
  -5   4   6    0.43    0.48
   5   4  -6    0.05    0.30
   5   4  -6    0.86    0.49
   4  -4  -6   67.18    3.43
  -4  -4   6   70.56    3.59
   4  -4  -6   62.94    3.42
   4  -4  -6   64.88    4.36
  -4   4   6   63.43    3.33
   4   4  -6   61.18    3.44
  -4   4   6   65.11    3.52
   4   4  -6   63.44    3.31
   4   4  -6   64.12    3.47
   4   4  -6   67.27    3.33
  -3  -4   6    1.09    0.47
   3  -4  -6    1.16    0.74
   3  -4  -6    0.64    0.33
   3  -4  -6    1.20    0.35
   3   4  -6    1.27    0.35
  -3   4   6    0.33    0.42
  -3   4   6    0.24    0.32
   3   4  -6    0.50    0.38
   3   4  -6    0.92    0.40
   3   4  -6    0.58    0.31
  -2  -4   6   59.14    3.27
   2  -4  -6   63.30    3.17
   2  -4  -6   58.21    3.84
   2  -4  -6   64.29    3.17
   2   4  -6   61.12    3.30
   2   4  -6   59.57    3.23
   2   4  -6   63.90    3.26
   2   4  -6   68.66    3.31
  -2   4   6   63.14    3.21
  -2   4   6   62.67    3.40
  -1  -4   6    5.65    0.77
   1  -4  -6    5.29    0.61
   1  -4  -6    5.27    1.13
   1   4  -6    5.67    0.62
   1   4  -6    4.23    0.56
   1   4  -6    4.56    0.59
  -1   4   6    4.93    0.53
  -1   4   6    4.76    0.76
   1   4  -6    5.10    0.59
   0  -4   6   97.44    4.89
   0  -4  -6   93.88    5.29
   0   4   6   94.90    4.82
   0   4   6   92.87    4.94
   0   4  -6   91.25    4.79
   0   4  -6   97.75    5.50
   0   4   6  103.01    4.73
   1  -4   6    0.62    0.32
   1  -4   6    0.66    0.44
   1  -4   6    1.48    0.36
  -1   4  -6    1.20    0.65
   1   4   6    1.52    0.37
  -1   4  -6    1.49    0.36
   1   4   6    1.33    0.35
   1   4   6    0.65    0.31
  -1   4  -6    1.20    0.39
   1   4   6    1.05    0.44
   2  -4   6  165.69    8.11
   2  -4   6  165.73    8.10
   2  -4   6  165.46    8.24
   2   4   6  151.81    7.67
   2   4   6  160.79    7.63
  -2   4  -6  137.96    8.26
   2   4   6  157.06    7.62
  -2   4  -6  154.39    7.57
  -2   4  -6  170.75    7.61
   3  -4   6    1.88    0.40
   3  -4   6    1.16    0.37
   3  -4   6    1.19    0.48
   3   4   6    1.51    0.38
   3   4   6    1.02    0.48
   3   4   6    1.48    0.46
   3   4   6    1.25    0.38
  -3   4  -6    1.39    0.73
  -3   4  -6    1.79    0.37
  -3   4  -6    1.96    0.36
   4  -4   6   69.70    3.94
   4  -4   6   80.39    3.84
   4  -4   6   74.07    3.81
   4   4   6   72.68    3.96
  -4   4  -6   67.42    4.63
  -4   4  -6   73.21    3.76
   4   4   6   76.31    3.82
   4   4   6   73.46    3.80
  -4   4  -6   79.16    3.77
   4   4   6   79.28    4.00
   5  -4   6    1.12    0.39
   5  -4   6    0.91    0.70
   5  -4   6    1.00    0.39
  -5   4  -6    1.73    0.93
  -5   4  -6    0.91    0.35
   5   4   6    1.19    0.55
  -5   4  -6    0.84    0.33
   5   4   6    1.23    0.56
   5   4   6    1.10    0.39
   5   4   6    1.40    0.40
   6  -4   6   31.43    1.84
   6  -4   6   31.87    1.84
   6   4   6   30.40    2.14
   6   4   6   34.17    1.87
  -6   4  -6   33.93    1.84
   6   4   6   33.34    2.15
   6   4   6   34.47    1.89
  -6   4  -6   29.00    1.80
  -6   4  -6   31.50    2.90
  -5  -5   6   30.51    2.17
   5  -5  -6   32.80    1.94
   5  -5  -6   35.27    3.12
   5  -5  -6   33.89    1.96
   5   5  -6   38.08    2.31
   5   5  -6   35.26    2.04
  -5   5   6   35.40    2.24
   5   5  -6   34.85    2.05
   5   5  -6   32.32    2.22
  -5   5   6   35.35    2.08
   4  -5  -6    0.49    0.82
  -4  -5   6    0.28    0.57
   4  -5  -6    0.28    0.36
   4  -5  -6    0.24    0.37
   4   5  -6    0.52    0.39
   4   5  -6    0.23    0.47
   4   5  -6    0.94    0.41
  -4   5   6    0.21    0.40
  -4   5   6    0.58    0.52
   4   5  -6    0.35    0.46
   3  -5  -6   39.97    2.21
  -3  -5   6   40.55    2.37
   3  -5  -6   36.66    3.02
  -3   5   6   42.45    2.57
   3   5  -6   43.77    2.42
  -3   5   6   43.26    2.41
   3   5  -6   45.07    2.53
   3   5  -6   43.81    2.43
   3   5  -6   44.12    2.53
   2  -5  -6   10.30    1.55
  -2  -5   6    9.57    1.07
  -2   5   6    9.48    1.04
   2   5  -6    9.20    0.90
  -2   5   6   10.15    0.86
   2   5  -6   10.76    0.97
  -1  -5   6   27.61    1.83
  -1   5   6   27.86    1.85
   1   5  -6   28.36    1.74
  -1   5   6   30.15    1.66
   0  -5   6    5.37    0.91
   0   5   6    4.94    0.85
   0   5  -6    4.49    0.59
   1  -5   6   58.65    3.25
  -1   5  -6   61.24    3.05
   1   5   6   53.75    3.18
   2  -5   6   -0.26    0.46
  -2   5  -6    0.71    0.39
   2   5   6    0.45    0.57
   2   5   6   -0.28    0.48
  -2   5  -6    0.48    0.68
   2   5   6    0.29    0.37
   3  -5   6   49.00    2.64
   3  -5   6   49.06    2.85
   3  -5   6   45.70    2.75
   3   5   6   51.39    2.92
   3   5   6   52.38    2.74
  -3   5  -6   47.40    3.51
   3   5   6   50.84    2.72
  -3   5  -6   49.42    2.69
   4  -5   6    2.37    0.49
   4  -5   6    1.61    0.47
   4   5   6    2.32    0.50
  -4   5  -6    2.16    0.99
   4   5   6    1.99    0.47
   4   5   6    1.21    0.63
  -4   5  -6    1.67    0.45
  -4   5  -6    2.66    0.46
   9   0  -7   40.68    2.44
   9   0  -7   53.76    3.85
   9   0  -7   49.94    2.61
   9   0  -7   47.91    2.84
  -9   0   7   52.25    2.91
   8   0  -7    0.18    0.32
  -8   0   7    0.19    0.47
   8   0  -7    0.11    0.25
   8   0  -7    0.19    0.81
   8   0  -7    0.23    0.47
   7   0  -7  111.85    6.28
  -7   0   7   95.62    5.45
   7   0  -7  103.11    5.44
   7   0  -7  106.43    5.26
   7   0  -7  112.95    5.30
   6   0  -7    0.90    0.42
  -6   0   7    0.97    0.44
  -6   0   7    1.81    0.38
   6   0  -7    1.00    0.71
   6   0  -7    0.84    0.30
   6   0  -7    1.85    0.36
  -5   0   7  228.47   11.74
   5   0  -7  255.49   12.42
   5   0  -7  232.65   11.64
   5   0  -7  234.42   11.70
  -5   0   7  256.48   11.62
   5   0  -7  233.99   11.62
   4   0  -7   12.76    0.81
   4   0  -7    9.62    1.27
   4   0  -7   12.18    0.85
   4   0  -7   11.93    0.83
  -4   0   7   10.19    0.90
  -4   0   7   11.28    0.81
   3   0  -7  137.19    6.76
  -3   0   7  128.47    6.75
   3   0  -7  147.38    6.81
  -3   0   7  135.11    6.84
   3   0  -7  140.23    6.78
   3   0  -7  142.05    7.50
   2   0  -7    1.31    0.26
  -2   0   7    1.16    0.28
  -2   0   7    1.14    0.31
  -2   0   7    0.28    0.20
   2   0  -7    0.97    0.54
   2   0  -7    1.12    0.28
  -2   0   7    1.98    0.38
   2   0  -7    0.97    0.27
   1   0  -7  140.29    6.79
   1   0  -7  138.20    6.74
   1   0  -7  142.09    6.82
  -1   0   7  138.65    6.83
  -1   0   7  143.59    6.82
  -1   0   7  145.16    6.80
  -1   0   7  148.36    6.83
   1   0  -7  116.13    7.36
   0   0   7    1.86    0.32
   0   0  -7    1.19    0.26
   0   0   7    0.79    0.31
   0   0   7    2.09    0.36
   0   0  -7    1.57    0.23
   0   0  -7    1.36    0.60
   0   0  -7    1.00    0.27
   0   0   7    1.08    0.29
   1   0   7  233.23   11.40
  -1   0  -7  228.40   11.26
  -1   0  -7  233.68   11.36
   1   0   7  233.71   11.39
   1   0   7  259.94   11.40
  -1   0  -7  266.26   12.20
   1   0   7  206.71   11.42
  -1   0  -7  224.58   11.38
   2   0   7   13.05    0.87
  -2   0  -7   13.14    0.90
   2   0   7   12.73    0.86
   2   0   7   14.50    0.94
  -2   0  -7   10.37    1.31
   2   0   7   12.19    0.82
  -3   0  -7  165.40   10.17
   3   0   7  211.48    9.58
   3   0   7  206.45    9.52
   3   0   7  206.05    9.57
   3   0   7  195.79    9.65
   4   0   7   10.51    0.91
   4   0   7    8.61    0.70
  -4   0  -7   10.41    1.32
   4   0   7   11.78    0.80
   4   0   7    9.91    0.78
   5   0   7  191.04    9.21
   5   0   7  199.69    9.38
  -5   0  -7  178.91    9.98
   5   0   7  188.41    9.22
  -6   0  -7    6.20    1.29
   6   0   7    6.98    0.71
   6   0   7    8.26    0.93
   6   0   7    6.17    0.67
   7   0   7   85.74    4.44
   7   0   7   87.42    4.67
  -7   0  -7   91.08    5.42
   7   0   7   88.14    4.41
   8   0   7    1.10    0.59
  -8   0  -7    0.89    0.81
   8   0   7    0.72    0.33
   8   0   7    1.50    0.40
   9  -1  -7   12.59    2.19
   9  -1  -7   10.76    0.90
  -9  -1   7   10.77    1.28
   9  -1  -7   10.66    0.77
   9   1  -7    8.12    0.82
   9   1  -7   10.18    0.75
  -9   1   7    7.90    1.17
   9   1  -7    9.40    1.08
   8  -1  -7   42.75    3.44
  -8  -1   7   30.13    2.37
   8  -1  -7   40.33    2.09
   8  -1  -7   42.12    2.46
  -8  -1   7   44.09    2.46
   8  -1  -7   38.42    2.19
   8   1  -7   39.89    2.35
   8   1  -7   40.78    2.18
   8   1  -7   39.42    2.14
   8   1  -7   41.22    4.06
  -8   1   7   37.15    2.43
   7  -1  -7    0.72    0.35
  -7  -1   7    0.30    0.44
   7  -1  -7   -0.05    0.43
  -7  -1   7   -0.06    0.37
   7  -1  -7    0.20    0.77
   7  -1  -7   -0.01    0.22
   7   1  -7    0.02    0.28
   7   1  -7    0.31    0.28
  -7   1   7    0.75    0.48
   7   1  -7    0.04    0.62
   7   1  -7    0.01    0.39
   6  -1  -7  106.65    5.24
  -6  -1   7  110.92    5.28
   6  -1  -7  104.06    5.08
  -6  -1   7   91.43    5.11
   6  -1  -7  100.00    5.13
   6  -1  -7  102.36    6.06
   6   1  -7  110.11    5.50
  -6   1   7  110.11    5.72
   6   1  -7  113.77    5.55
   6   1  -7  111.55    6.24
   6   1  -7  111.24    5.63
   5  -1  -7    5.59    1.24
   5  -1  -7    6.66    0.71
   5  -1  -7    6.81    0.67
  -5  -1   7    5.55    0.66
   5  -1  -7    7.00    0.61
  -5  -1   7    6.28    0.73
  -5   1   7    6.42    0.82
   5   1  -7    8.23    0.70
   5   1  -7    8.23    0.63
   5   1  -7    7.26    0.75
   5   1  -7    6.42    1.08
   4  -1  -7  147.41    6.85
  -4  -1   7  134.67    6.84
  -4  -1   7  139.16    6.92
   4  -1  -7  134.29    6.87
   4  -1  -7  141.22    6.86
   4   1  -7  158.82    7.75
   4   1  -7  150.59    7.73
  -4   1   7  176.64    7.68
  -4   1   7  158.98    7.85
   4   1  -7  147.05    7.68
   4   1  -7  154.26    8.34
   3  -1  -7   17.89    1.09
   3  -1  -7   17.03    1.08
   3  -1  -7   16.43    1.05
  -3  -1   7   18.60    1.10
  -3  -1   7   17.50    1.14
   3  -1  -7   14.80    1.58
   3   1  -7   18.19    1.09
  -3   1   7   18.92    1.24
  -3   1   7   20.17    1.09
   3   1  -7   15.48    1.62
   3   1  -7   18.98    1.12
   3   1  -7   17.86    1.14
  -2  -1   7   83.78    4.10
  -2  -1   7   83.93    4.15
  -2  -1   7   82.96    4.16
   2  -1  -7   79.09    4.14
  -2  -1   7   87.08    4.16
   2  -1  -7   82.23    4.83
   2  -1  -7   77.09    4.09
   2  -1  -7   83.64    4.14
  -2   1   7   98.58    4.85
   2   1  -7  103.31    4.88
  -2   1   7   94.98    4.88
   2   1  -7   93.78    4.90
  -2   1   7  101.14    4.87
  -2   1   7  100.21    4.98
   2   1  -7   95.55    4.87
   2   1  -7  100.58    5.54
   1  -1  -7    1.52    0.63
   1  -1  -7    2.17    0.32
   1  -1  -7    1.93    0.32
  -1  -1   7    1.88    0.34
  -1  -1   7    1.64    0.36
   1  -1  -7    2.08    0.35
  -1  -1   7    1.81    0.34
  -1  -1   7    2.07    0.32
  -1   1   7    1.64    0.37
  -1   1   7    1.89    0.32
   1   1  -7    2.26    0.36
   1   1  -7    2.33    0.33
  -1   1   7    2.00    0.35
   1   1  -7    1.98    0.67
   1   1  -7    1.77    0.29
  -1   1   7    2.18    0.34
   0  -1  -7  169.97    9.18
   0  -1  -7  165.27    8.38
   0  -1   7  180.43    8.48
   0  -1   7  181.73    8.52
   0  -1   7  170.52    8.49
   0  -1   7  181.94    8.56
   0  -1  -7  169.88    8.50
   0  -1  -7  177.27    8.48
   0   1   7  181.16    8.82
   0   1  -7  177.95    9.50
   0   1  -7  183.38    8.81
   0   1   7  199.22    8.85
   0   1   7  167.21    8.85
   0   1  -7  178.66    8.84
   0   1   7  181.37    8.84
   0   1  -7  183.16    8.76
   1  -1   7   47.43    2.43
  -1  -1  -7   42.52    2.39
  -1  -1  -7   44.29    3.02
   1  -1   7   52.68    2.52
  -1  -1  -7   46.51    2.38
   1  -1   7   45.85    2.37
   1  -1   7   44.55    2.43
  -1   1  -7   42.28    2.16
  -1   1  -7   40.22    2.75
   1   1   7   39.13    2.16
   1   1   7   43.51    2.21
  -1   1  -7   40.32    2.04
   1   1   7   39.70    2.18
   1   1   7   36.05    2.13
  -1   1  -7   41.02    2.12
   2  -1   7  140.52    7.30
   2  -1   7  161.50    7.40
   2  -1   7  143.51    7.21
  -2  -1  -7  155.44    8.02
   2  -1   7  144.93    7.28
   2   1   7  154.62    7.07
   2   1   7  141.64    7.01
   2   1   7  145.77    7.02
   2   1   7  143.80    7.00
  -2   1  -7  132.74    6.86
  -2   1  -7  138.86    7.68
  -3  -1  -7   27.42    2.13
   3  -1   7   24.82    1.42
   3  -1   7   23.02    1.53
   3  -1   7   24.13    1.46
   3   1   7   23.49    1.34
  -3   1  -7   21.99    1.14
  -3   1  -7   19.95    1.85
   3   1   7   21.54    1.31
   3   1   7   23.08    1.41
   4  -1   7  102.07    5.46
   4  -1   7  113.90    5.33
  -4  -1  -7  105.30    6.04
   4  -1   7  108.75    5.37
  -4   1  -7  112.53    6.47
   4   1   7  104.12    5.81
   4   1   7  124.69    5.75
   4   1   7  114.40    5.72
   4   1   7  122.57    5.75
   5  -1   7    3.55    0.48
   5  -1   7    2.20    0.55
   5  -1   7    2.56    0.40
  -5  -1  -7    2.50    0.84
   5   1   7    2.14    0.42
   5   1   7    2.67    0.56
   5   1   7    2.55    0.40
  -5   1  -7    2.19    0.82
   5   1   7    2.66    0.44
   6  -1   7   77.59    3.88
   6  -1   7   83.14    4.08
  -6  -1  -7   71.07    4.66
   6  -1   7   73.22    3.85
  -6   1  -7   87.29    5.18
   6   1   7   86.66    4.27
   6   1   7   74.38    4.29
   6   1   7   89.05    4.46
   6   1   7   84.55    4.22
   7  -1   7    0.50    0.34
   7  -1   7    0.51    0.51
   7  -1   7    1.09    0.35
  -7  -1  -7    0.59    0.72
   7   1   7    0.47    0.52
   7   1   7    0.60    0.31
   7   1   7    0.27    0.35
  -7   1  -7    0.88    0.77
   8  -1   7   29.86    1.66
   8  -1   7   29.92    1.97
   8  -1   7   26.69    1.71
   8   1   7   39.00    2.44
   8   1   7   37.09    2.09
   8   1   7   37.24    2.00
  -8   1  -7   36.70    3.13
  -8  -2   7    1.51    0.59
   8  -2  -7    1.41    0.33
   8  -2  -7    1.82    0.41
   8  -2  -7    0.67    1.00
  -8  -2   7    0.89    0.51
   8   2  -7    0.78    0.37
   8   2  -7    0.91    0.51
  -8   2   7    0.93    0.57
  -8   2   7    1.35    0.48
   8   2  -7    1.50    0.38
   7  -2  -7   24.40    1.55
   7  -2  -7   25.62    1.49
  -7  -2   7   27.62    1.80
  -7  -2   7   29.01    1.73
   7  -2  -7   24.60    2.63
   7   2  -7   21.22    1.42
   7   2  -7   24.52    1.58
  -7   2   7   22.86    1.51
   7   2  -7   21.72    1.36
  -7   2   7   25.55    1.71
  -6  -2   7    4.15    0.73
   6  -2  -7    4.54    0.55
   6  -2  -7    5.30    0.64
  -6  -2   7    4.67    0.75
   6  -2  -7    4.73    1.26
   6   2  -7    6.49    0.75
  -6   2   7    4.91    0.66
   6   2  -7    5.13    0.65
  -6   2   7    5.78    0.88
   6   2  -7    5.28    0.59
   5  -2  -7   72.47    5.20
  -5  -2   7   94.15    4.55
   5  -2  -7   89.86    4.44
  -5  -2   7   90.23    4.50
   5  -2  -7   92.20    4.40
  -5   2   7   92.00    4.72
   5   2  -7  101.58    4.78
  -5   2   7   91.82    4.87
   5   2  -7   94.80    5.24
   5   2  -7   90.12    4.65
   5   2  -7   91.89    4.69
   4  -2  -7   13.88    0.99
  -4  -2   7   16.42    1.09
  -4  -2   7   13.25    1.06
   4  -2  -7   14.30    1.03
   4  -2  -7   19.27    1.79
   4   2  -7   13.74    0.95
   4   2  -7   15.97    1.00
  -4   2   7   17.10    1.21
   4   2  -7   13.59    1.42
   4   2  -7   15.10    1.04
  -4   2   7   15.27    1.01
  -3  -2   7  112.20    5.42
   3  -2  -7  108.90    5.36
   3  -2  -7  106.44    5.38
  -3  -2   7  105.52    5.41
  -3   2   7  112.14    5.77
   3   2  -7  114.08    5.67
   3   2  -7  116.58    5.64
   3   2  -7  116.32    6.28
  -3   2   7  114.23    5.62
   3   2  -7  110.85    5.61
  -2  -2   7   10.75    0.82
   2  -2  -7   11.74    0.82
   2  -2  -7   11.16    1.39
   2  -2  -7   10.59    0.79
   2   2  -7   13.49    0.86
   2   2  -7   12.15    0.86
   2   2  -7   12.49    0.88
  -2   2   7   13.83    0.82
  -2   2   7   13.33    0.83
   2   2  -7   13.15    1.41
  -2   2   7   11.06    0.99
  -1  -2   7  182.72    8.85
  -1  -2   7  193.35    8.92
   1  -2  -7  176.00    8.84
   1  -2  -7  182.26    8.85
  -1  -2   7  180.40    8.85
  -1  -2   7  180.75    8.84
   1  -2  -7  177.99    9.55
  -1   2   7  197.81    9.50
  -1   2   7  205.88    9.37
  -1   2   7  192.33    9.38
   1   2  -7  180.92   10.04
   1   2  -7  193.12    9.39
  -1   2   7  193.29    9.31
   1   2  -7  189.10    9.37
   1   2  -7  198.28    9.38
  -1   2   7  190.38    9.37
   0  -2   7    1.22    0.40
   0  -2  -7    1.21    0.67
   0  -2  -7    0.36    0.24
   0  -2  -7    1.06    0.27
   0  -2   7    1.07    0.29
   0  -2   7    1.02    0.30
   0  -2   7    0.95    0.26
   0   2   7    1.87    0.35
   0   2  -7    1.09    0.28
   0   2  -7    2.11    0.31
   0   2   7    2.18    0.35
   0   2  -7    1.88    0.69
   0   2   7    1.69    0.31
   0   2   7    1.93    0.43
   0   2   7    1.39    0.22
   0   2  -7    2.04    0.33
  -1  -2  -7  222.85    9.66
   1  -2   7  222.45    9.76
   1  -2   7  196.76    9.62
  -1  -2  -7  168.97   10.22
   1  -2   7  185.70    9.54
   1  -2   7  197.09    9.63
  -1   2  -7  198.39    9.62
   1   2   7  180.74    9.58
  -1   2  -7  195.64    9.57
   1   2   7  196.94    9.58
   1   2   7  193.20    9.64
   1   2   7  197.37    9.57
  -1   2  -7  194.79    9.50
  -1   2  -7  221.40   10.43
   2  -2   7   24.13    1.55
  -2  -2  -7   23.26    2.04
   2  -2   7   24.64    1.43
   2  -2   7   27.11    1.43
   2   2   7   25.62    1.42
   2   2   7   25.67    1.49
  -2   2  -7   23.46    1.31
   2   2   7   26.34    1.45
   2   2   7   25.21    1.51
  -2   2  -7   21.36    1.97
  -3  -2  -7   92.61    5.19
   3  -2   7   89.24    4.40
   3  -2   7   81.16    4.52
   3  -2   7   89.20    4.42
  -3   2  -7   89.54    4.21
   3   2   7   83.36    4.32
   3   2   7   83.74    4.39
   3   2   7   86.42    4.30
  -3   2  -7   88.04    5.08
   3   2   7   82.66    4.36
   4  -2   7    1.57    0.50
   4  -2   7    2.81    0.42
   4  -2   7    1.65    0.36
  -4  -2  -7    2.21    0.79
   4   2   7    1.75    0.44
   4   2   7    3.10    0.42
  -4   2  -7    2.83    0.34
   4   2   7    2.58    0.43
  -4   2  -7    2.30    0.80
   4   2   7    1.44    0.47
   5  -2   7   55.55    2.73
   5  -2   7   57.87    2.78
   5  -2   7   44.10    2.88
  -5  -2  -7   51.60    3.49
  -5   2  -7   53.56    3.69
   5   2   7   57.15    2.94
   5   2   7   54.54    3.00
   5   2   7   53.31    2.81
   5   2   7   51.48    2.85
   6  -2   7    2.85    0.48
   6  -2   7    3.09    0.44
   6  -2   7    2.19    0.56
   6   2   7    5.02    0.90
   6   2   7    5.01    0.60
   6   2   7    3.07    0.52
  -6   2  -7    4.59    1.34
   6   2   7    3.00    0.58
   7  -2   7   31.93    2.02
   7  -2   7   27.99    1.80
   7  -2   7   32.58    1.78
   7   2   7   31.83    2.11
   7   2   7   33.66    1.75
   7   2   7   32.40    1.97
   7   2   7   29.82    1.81
  -7   2  -7   28.71    2.76
   8  -2   7    0.26    0.38
   8  -2   7    0.72    0.39
   8  -2   7   -0.02    0.53
   8   2   7    0.56    0.64
  -8   2  -7    0.60    0.89
   8   2   7    0.68    0.40
   8   2   7    0.37    0.33
   7  -3  -7    3.16    0.46
   7  -3  -7    3.75    0.52
   7  -3  -7    2.89    1.21
  -7  -3   7    3.21    0.71
  -7   3   7    3.08    0.73
   7   3  -7    3.19    0.50
   7   3  -7    4.02    0.66
   7   3  -7    3.19    0.49
  -7   3   7    3.06    0.62
  -6  -3   7   46.74    2.49
   6  -3  -7   38.79    2.23
   6  -3  -7   38.26    3.29
   6  -3  -7   43.41    2.29
   6   3  -7   39.76    2.30
   6   3  -7   40.82    2.19
   6   3  -7   38.09    2.15
  -6   3   7   39.51    2.24
  -6   3   7   39.13    2.43
   5  -3  -7    2.40    1.04
   5  -3  -7    2.31    0.40
   5  -3  -7    2.23    0.42
  -5  -3   7    2.28    0.55
  -5   3   7    2.08    0.46
   5   3  -7    2.45    0.41
  -5   3   7    1.94    0.57
   5   3  -7    2.05    0.41
   5   3  -7    2.34    0.48
  -4  -3   7   78.39    4.41
   4  -3  -7   89.61    4.34
   4  -3  -7   86.45    4.32
   4  -3  -7   88.59    5.29
   4   3  -7   91.14    4.89
   4   3  -7   98.74    4.81
  -4   3   7   92.99    4.98
   4   3  -7  100.80    4.79
  -4   3   7   94.27    4.80
   3  -3  -7    5.56    0.60
   3  -3  -7    3.95    0.57
  -3  -3   7    4.88    0.74
   3  -3  -7    5.76    1.25
  -3   3   7    4.23    0.53
   3   3  -7    4.07    0.61
   3   3  -7    5.57    1.03
  -3   3   7    2.83    0.59
   3   3  -7    4.15    0.54
   3   3  -7    4.20    0.56
   2  -3  -7  103.77    5.26
  -2  -3   7  106.25    5.36
   2  -3  -7  107.60    5.98
   2  -3  -7  106.18    5.27
   2   3  -7  123.58    6.29
   2   3  -7  122.83    6.34
   2   3  -7  127.56    6.31
  -2   3   7  130.14    6.26
  -2   3   7  116.72    6.44
   2   3  -7  146.57    7.07
   1  -3  -7   12.39    1.47
   1  -3  -7   14.15    0.92
  -1  -3   7   14.36    0.91
  -1  -3   7   10.59    1.00
   1  -3  -7   13.65    0.92
   1   3  -7   13.48    0.95
   1   3  -7   14.20    0.94
  -1   3   7   12.98    0.94
  -1   3   7   13.83    1.10
  -1   3   7   14.96    0.88
   1   3  -7   15.12    0.96
   1   3  -7   14.31    1.56
   0  -3   7  165.39    7.90
   0  -3   7  155.94    7.79
   0  -3   7  159.87    7.79
   0  -3  -7  156.37    8.42
   0   3   7  178.77    8.67
   0   3  -7  176.93    9.42
   0   3  -7  169.65    8.69
   0   3   7  176.50    8.79
   0   3  -7  186.65    8.65
   0   3  -7  184.66    8.72
   0   3   7  175.55    8.65
   0   3   7  179.79    8.67
   0   3   7  177.59    8.56
   0   3  -7  173.12    8.67
   1  -3   7    0.79    0.44
   1  -3   7    0.77    0.30
  -1  -3  -7    0.67    0.64
   1  -3   7    0.24    0.29
   1   3   7    0.29    0.29
  -1   3  -7    0.73    0.28
   1   3   7    0.81    0.32
  -1   3  -7    0.18    0.21
  -1   3  -7    0.65    0.58
   1   3   7   -0.13    0.26
   1   3   7    0.55    0.40
   2  -3   7   83.06    4.18
  -2  -3  -7   83.02    4.87
   2  -3   7   81.56    4.31
   2  -3   7   84.26    4.19
  -2   3  -7   94.60    4.77
   2   3   7   99.91    4.83
   2   3   7   92.78    4.80
   2   3   7   97.67    4.87
  -2   3  -7   95.77    4.75
  -2   3  -7   96.50    5.56
   3  -3   7   -0.20    0.28
  -3  -3  -7   -0.27    0.56
   3  -3   7   -0.04    0.41
   3  -3   7    0.61    0.31
   3   3   7    0.13    0.30
  -3   3  -7    0.31    0.25
   3   3   7    0.03    0.34
  -3   3  -7    0.38    0.59
   3   3   7   -0.21    0.27
  -3   3  -7    0.61    0.29
   3   3   7    0.04    0.39
   4  -3   7   43.05    2.50
   4  -3   7   46.44    2.49
   4  -3   7   51.69    2.72
  -4   3  -7   53.12    2.50
   4   3   7   48.44    2.72
   4   3   7   48.67    2.71
  -4   3  -7   46.85    2.53
   4   3   7   48.95    2.59
  -4   3  -7   46.51    3.40
   4   3   7   45.62    2.55
   5  -3   7    2.54    0.43
   5  -3   7    1.36    0.54
   5  -3   7    1.99    0.42
  -5   3  -7    2.55    0.42
   5   3   7    3.49    0.66
  -5   3  -7    3.66    1.24
  -5   3  -7    2.82    0.39
   5   3   7    2.65    0.61
   5   3   7    2.85    0.46
   5   3   7    4.29    0.62
   6  -3   7   38.40    2.20
   6  -3   7   38.73    2.41
   6  -3   7   43.21    2.26
   6   3   7   39.25    2.35
  -6   3  -7   38.96    2.12
   6   3   7   36.22    2.11
  -6   3  -7   37.77    3.18
   6   3   7   40.56    2.44
   6   3   7   40.48    2.17
   7  -3   7    0.88    0.40
   7  -3   7    1.56    0.45
   7  -3   7    1.22    0.74
  -7   3  -7    0.90    0.36
   7   3   7    1.70    0.70
   7   3   7    1.14    0.40
   7   3   7    1.71    0.61
  -7   3  -7    0.97    0.96
   7   3   7    1.40    0.44
  -6  -4   7    0.90    0.61
   6  -4  -7    1.06    1.03
   6  -4  -7    0.47    0.36
   6  -4  -7    0.14    0.32
   6   4  -7    0.06    0.35
  -6   4   7    0.49    0.58
   6   4  -7    0.81    0.48
  -6   4   7    0.25    0.44
   6   4  -7    0.48    0.38
  -5  -4   7   39.45    2.30
   5  -4  -7   33.59    3.08
   5  -4  -7   38.35    2.09
   5  -4  -7   36.02    2.07
   5   4  -7   40.09    2.25
  -5   4   7   41.21    2.28
   5   4  -7   39.01    2.38
  -5   4   7   38.58    2.46
   5   4  -7   41.81    2.24
   4  -4  -7   24.18    1.55
   4  -4  -7   24.85    1.54
   4  -4  -7   25.78    2.44
  -4  -4   7   27.88    1.75
   4   4  -7   23.88    1.48
  -4   4   7   24.01    1.50
   4   4  -7   24.23    1.62
   4   4  -7   24.05    1.46
  -4   4   7   23.45    1.71
   4   4  -7   23.15    1.59
   3  -4  -7   30.67    2.59
   3  -4  -7   31.00    1.77
   3  -4  -7   32.04    1.78
  -3  -4   7   28.19    1.90
   3   4  -7   36.84    2.08
  -3   4   7   37.96    2.07
  -3   4   7   37.18    2.28
   3   4  -7   37.98    2.07
   3   4  -7   36.53    2.16
   2  -4  -7    3.38    0.54
  -2  -4   7    2.48    0.57
   2  -4  -7    3.06    0.95
   2  -4  -7    2.12    0.42
   2   4  -7    1.68    0.45
  -2   4   7    2.16    0.40
   2   4  -7    2.51    0.43
   2   4  -7    1.98    0.42
  -2   4   7    1.86    0.55
  -1  -4   7   32.59    2.02
   1  -4  -7   34.14    2.56
  -1   4   7   40.80    2.40
   1   4  -7   38.16    2.21
  -1   4   7   41.26    2.14
   1   4  -7   42.14    2.24
   0  -4   7    1.06    0.48
   0  -4  -7    0.87    0.61
   0   4  -7    1.71    0.39
   0   4  -7    1.49    0.74
   0   4   7    1.56    0.51
   1  -4   7   27.53    1.86
   1  -4   7   31.77    1.81
   1   4   7   37.86    2.21
   1   4   7   37.55    2.04
  -1   4  -7   35.83    2.75
   1   4   7   36.43    2.04
   1   4   7   33.46    2.02
  -1   4  -7   37.99    2.02
   2  -4   7    0.18    0.48
   2  -4   7    1.15    0.39
   2  -4   7    0.95    0.37
  -2   4  -7    0.73    0.66
   2   4   7    0.41    0.36
   2   4   7    1.04    0.37
   2   4   7    0.11    0.37
   2   4   7    0.47    0.48
  -2   4  -7    0.99    0.34
  -2   4  -7    0.90    0.34
   3  -4   7   16.27    1.14
   3  -4   7   17.83    1.34
   3  -4   7   15.26    1.12
   3   4   7   23.10    1.48
  -3   4  -7   22.46    1.43
  -3   4  -7   24.12    2.28
  -3   4  -7   23.18    1.42
   3   4   7   26.15    1.69
   3   4   7   23.44    1.59
   3   4   7   26.44    1.51
   4  -4   7    0.29    0.35
   4  -4   7    0.72    0.54
   4  -4   7    1.33    0.40
  -4   4  -7    0.47    0.33
   4   4   7    1.66    0.57
   4   4   7    0.35    0.47
  -4   4  -7    1.06    0.84
  -4   4  -7    0.32    0.33
   4   4   7    1.10    0.41
   4   4   7    1.33    0.43
   5  -4   7   22.89    1.42
   5  -4   7   20.98    1.38
   5  -4   7   20.09    1.58
   5   4   7   27.55    1.82
  -5   4  -7   24.23    1.51
  -5   4  -7   23.77    1.47
   5   4   7   26.50    1.57
   5   4   7   25.50    1.80
  -5   4  -7   24.68    2.51
   5   4   7   24.24    1.57
   6  -4   7    0.75    0.42
   6  -4   7    1.02    0.43
  -6   4  -7    0.34    0.35
   6   4   7    0.94    0.43
   6   4   7    1.07    0.62
   6   4   7    0.83    0.40
  -6   4  -7    0.43    0.90
   6   4   7    0.18    0.58
  -4  -5   7   22.49    1.73
   4  -5  -7   23.84    1.53
   4  -5  -7   23.57    2.53
  -4   5   7   26.48    1.82
   4   5  -7   25.41    1.74
  -4   5   7   22.21    1.57
   4   5  -7   22.84    1.55
   4   5  -7   26.25    1.59
   4   5  -7   24.08    1.72
  -3  -5   7    1.23    0.63
   3  -5  -7    0.60    0.86
  -3   5   7    0.81    0.42
  -3   5   7    1.08    0.57
   3   5  -7    1.17    0.43
   3   5  -7    0.14    0.47
   2  -5  -7   21.79    2.22
  -2  -5   7   22.01    1.63
  -2   5   7   18.68    1.54
  -2   5   7   19.64    1.30
   2   5  -7   23.06    1.46
  -1  -5   7    8.55    1.06
   1   5  -7    7.28    0.83
  -1   5   7    7.06    1.02
   0  -5   7   33.00    2.11
   0   5  -7   31.03    1.78
   0   5   7   27.70    1.95
   1  -5   7    0.66    0.56
  -1   5  -7    1.08    0.43
   1   5   7    0.48    0.53
   2  -5   7   18.10    1.49
   2   5   7   18.86    1.30
  -2   5  -7   18.10    2.03
  -2   5  -7   18.86    1.25
   2   5   7   16.62    1.48
   3  -5   7    0.64    0.56
   3  -5   7    0.90    0.45
  -3   5  -7    0.81    0.82
   3   5   7   -0.18    0.57
   3   5   7    0.60    0.42
  -3   5  -7    1.17    0.42
   3   5   7    0.24    0.43
   4  -5   7   15.34    1.21
   4  -5   7   15.69    1.21
   4   5   7   18.14    1.53
   4   5   7   18.61    1.37
  -4   5  -7   20.23    2.27
  -4   5  -7   17.92    1.29
   4   5   7   19.31    1.64
   4   5   7   22.73    1.41
   8   0  -8   29.37    1.69
   8   0  -8   30.15    1.97
  -8   0   8   29.40    2.01
   8   0  -8   28.60    2.73
   8   0  -8   29.45    1.74
   7   0  -8    3.91    0.67
   7   0  -8    3.59    0.53
   7   0  -8    2.87    0.47
  -7   0   8    4.28    0.73
   7   0  -8    3.89    1.22
   6   0  -8   37.73    2.37
   6   0  -8   41.79    2.30
   6   0  -8   45.35    2.31
  -6   0   8   37.93    2.45
   6   0  -8   47.69    3.23
   5   0  -8    0.03    0.60
  -5   0   8    0.25    0.33
  -5   0   8    0.24    0.39
   5   0  -8   -0.21    0.25
   5   0  -8   -0.33    0.28
   5   0  -8   -0.02    0.26
   4   0  -8   21.93    1.36
  -4   0   8   22.63    1.47
  -4   0   8   23.40    1.34
   4   0  -8   22.20    1.35
   4   0  -8   19.14    1.95
   4   0  -8   22.66    1.33
  -3   0   8    1.15    0.34
  -3   0   8    1.58    0.43
   3   0  -8    1.92    0.78
   3   0  -8    1.37    0.33
   3   0  -8    1.67    0.33
   3   0  -8    1.34    0.34
   2   0  -8  139.07    7.19
   2   0  -8  145.44    7.16
  -2   0   8  151.45    7.28
   2   0  -8  147.04    7.23
  -2   0   8  144.69    7.22
   2   0  -8  154.12    8.06
  -1   0   8   57.75    2.82
   1   0  -8   52.41    2.79
  -1   0   8   53.21    2.76
   1   0  -8   50.24    2.69
  -1   0   8   51.05    2.81
   1   0  -8   51.24    2.76
  -1   0   8   52.67    2.79
   1   0  -8   59.15    3.58
   0   0   8  135.53    6.50
   0   0  -8  123.34    7.20
   0   0  -8  131.55    6.39
   0   0   8  127.53    6.53
   0   0  -8  135.07    6.49
   0   0   8  132.91    6.53
   0   0   8  138.13    6.53
   0   0  -8  134.26    6.52
   1   0   8   13.98    1.05
  -1   0  -8   15.22    1.03
   1   0   8   17.43    1.08
  -1   0  -8   18.17    1.07
   1   0   8   15.47    1.11
  -1   0  -8   18.32    1.75
   1   0   8   17.02    1.06
  -1   0  -8   16.75    0.89
   2   0   8   23.87    1.40
   2   0   8   24.45    1.40
  -2   0  -8   23.11    2.07
   2   0   8   21.14    1.35
   2   0   8   25.50    1.48
   3   0   8    1.04    0.43
  -3   0  -8    1.36    0.69
   3   0   8    1.32    0.35
   3   0   8    1.22    0.32
   3   0   8    0.51    0.31
   4   0   8   30.72    1.68
  -4   0  -8   24.02    2.36
   4   0   8   31.64    1.69
   4   0   8   30.54    1.82
   5   0   8    1.82    0.40
   5   0   8    1.49    0.55
  -5   0  -8    2.28    0.87
   6   0   8   13.05    0.95
   6   0   8   10.65    1.18
  -6   0  -8   13.16    1.76
   6   0   8   11.06    0.94
   7   0   8    0.09    0.53
   7   0   8    0.45    0.36
   7   0   8    0.56    0.37
  -7   0  -8    0.04    0.74
   8   0   8    7.39    1.18
   8   0   8    8.33    0.80
   8   0   8    7.60    0.82
  -8   0  -8    8.17    1.73
   8  -1  -8    5.40    1.47
   8  -1  -8    2.78    0.72
  -8  -1   8    4.05    0.79
   8  -1  -8    4.57    0.61
   8  -1  -8    3.71    0.57
  -8   1   8    3.55    0.74
   8   1  -8    4.65    0.67
   8   1  -8    3.75    0.69
   8   1  -8    3.50    0.50
  -7  -1   8   56.55    3.18
   7  -1  -8   51.49    2.99
   7  -1  -8   54.52    3.14
  -7  -1   8   60.07    3.02
   7  -1  -8   53.85    4.03
   7  -1  -8   58.89    2.94
  -7   1   8   52.63    3.10
   7   1  -8   51.70    2.84
   7   1  -8   54.12    3.00
   7   1  -8   54.88    2.85
   7   1  -8   54.86    3.74
   6  -1  -8    0.85    0.83
   6  -1  -8    0.80    0.45
  -6  -1   8    1.62    0.46
  -6  -1   8    0.54    0.45
   6  -1  -8    1.56    0.37
   6  -1  -8    0.92    0.39
  -6   1   8    0.56    0.47
   6   1  -8    0.68    0.67
   6   1  -8    1.04    0.35
   6   1  -8    0.81    0.41
   6   1  -8    1.62    0.38
  -5  -1   8   21.79    1.36
  -5  -1   8   20.81    1.45
   5  -1  -8   21.81    1.35
   5  -1  -8   23.32    1.40
   5  -1  -8   20.89    1.40
   5  -1  -8   20.97    2.07
   5   1  -8   29.71    1.63
   5   1  -8   23.67    2.16
   5   1  -8   29.41    1.66
   5   1  -8   29.06    1.59
  -5   1   8   25.94    1.76
  -4  -1   8    1.42    0.42
   4  -1  -8    3.80    0.55
   4  -1  -8    1.55    0.36
   4  -1  -8    2.58    0.86
   4  -1  -8    2.05    0.43
  -4  -1   8    2.57    0.51
  -4   1   8    2.20    0.38
   4   1  -8    1.92    0.40
   4   1  -8    2.08    0.37
   4   1  -8    2.28    0.40
   4   1  -8    2.12    0.77
  -4   1   8    1.88    0.49
   3  -1  -8   41.33    2.17
  -3  -1   8   43.04    2.17
   3  -1  -8   35.65    2.80
   3  -1  -8   37.25    2.11
   3  -1  -8   38.37    2.16
  -3  -1   8   40.05    2.20
   3   1  -8   50.31    3.28
  -3   1   8   42.57    2.61
   3   1  -8   47.25    2.55
   3   1  -8   45.87    2.51
  -3   1   8   49.88    2.49
   3   1  -8   49.85    2.52
  -2  -1   8    0.14    0.28
   2  -1  -8    0.15    0.56
   2  -1  -8   -0.13    0.25
   2  -1  -8    0.35    0.23
  -2  -1   8    0.35    0.34
   2  -1  -8    0.04    0.25
  -2   1   8    0.96    0.30
   2   1  -8    0.58    0.29
   2   1  -8    0.48    0.29
   2   1  -8    0.56    0.24
   2   1  -8    0.34    0.49
  -2   1   8    0.74    0.37
   1  -1  -8  151.57    7.76
  -1  -1   8  170.95    7.75
   1  -1  -8  173.18    8.66
   1  -1  -8  158.56    7.74
   1  -1  -8  151.31    7.66
  -1  -1   8  159.89    7.76
  -1  -1   8  171.42    7.79
  -1  -1   8  131.67    7.75
   1   1  -8  151.07    7.78
  -1   1   8  149.12    7.74
  -1   1   8  167.55    7.84
   1   1  -8  157.85    7.76
  -1   1   8  176.02    7.79
   1   1  -8  151.11    7.70
  -1   1   8  156.28    7.78
   0  -1  -8    7.00    0.51
   0  -1   8    8.41    0.76
   0  -1  -8    7.61    1.22
   0  -1   8    7.65    0.67
   0  -1  -8    7.01    0.68
   0  -1   8    7.37    0.71
   0  -1  -8    7.66    0.65
   0  -1   8    7.51    0.66
   0   1   8    9.79    0.82
   0   1   8    7.38    0.73
   0   1  -8   10.51    0.66
   0   1  -8    9.43    0.73
   0   1   8    7.77    0.77
   0   1  -8    9.02    0.76
   0   1   8    9.16    0.77
   0   1  -8    9.44    1.30
   1  -1   8   73.48    3.89
  -1  -1  -8   72.68    4.01
   1  -1   8   81.16    3.85
   1  -1   8   76.58    3.92
  -1  -1  -8   73.14    4.58
   1  -1   8   80.74    3.97
   1   1   8   54.92    3.11
  -1   1  -8   55.26    3.80
   1   1   8   64.15    3.18
   1   1   8   64.38    3.17
  -1   1  -8   59.42    3.12
  -1   1  -8   63.69    3.00
   1   1   8   57.33    3.11
   2  -1   8   21.06    1.31
   2  -1   8   22.22    1.34
   2  -1   8   20.56    1.21
   2  -1   8   21.25    1.40
   2   1   8   25.25    1.48
  -2   1  -8   24.58    2.10
   2   1   8   22.41    1.40
  -2   1  -8   21.81    1.22
   2   1   8   21.80    1.40
   3  -1   8   62.35    3.48
   3  -1   8   63.07    3.41
   3  -1   8   66.87    3.40
  -3  -1  -8   70.46    4.24
   3   1   8   50.83    2.60
  -3   1  -8   47.95    3.37
   3   1   8   53.14    2.60
   3   1   8   48.09    2.59
   3   1   8   41.93    2.65
   4  -1   8    2.69    0.47
  -4  -1  -8    4.32    1.15
   4  -1   8    3.52    0.50
   4  -1   8    3.06    0.64
   4   1   8    4.44    0.66
   4   1   8    4.05    0.54
  -4   1  -8    3.89    1.19
   4   1   8    4.11    0.62
   4   1   8    4.33    0.77
   5  -1   8   50.20    2.63
   5  -1   8   52.42    2.65
   5  -1   8   46.35    2.76
  -5  -1  -8   46.81    3.41
   5   1   8   50.46    2.76
  -5   1  -8   47.58    3.45
   5   1   8   47.33    2.57
   5   1   8   47.06    2.56
   5   1   8   45.85    2.55
   6  -1   8    2.19    0.45
   6  -1   8    1.57    0.44
   6  -1   8    2.42    0.65
  -6  -1  -8    3.09    1.01
  -6   1  -8    1.44    0.82
   6   1   8    1.36    0.43
   6   1   8    1.48    0.60
   6   1   8    2.11    0.44
  -7  -1  -8   11.01    1.80
   7  -1   8   12.58    1.03
   7  -1   8   13.82    1.31
   7  -1   8   12.49    0.97
   7   1   8   12.26    0.99
   7   1   8   12.82    1.30
  -7   1  -8   10.76    1.82
   7   1   8   12.52    0.95
   8  -2  -8   46.51    3.92
  -8  -2   8   42.72    2.62
  -8  -2   8   43.18    2.74
   8  -2  -8   48.66    2.43
   8  -2  -8   44.54    2.51
  -8   2   8   37.01    2.34
   8   2  -8   39.46    2.19
   8   2  -8   40.08    2.20
   8   2  -8   37.07    2.34
  -8   2   8   40.68    2.51
   7  -2  -8    2.11    1.09
   7  -2  -8    1.65    0.45
   7  -2  -8    2.29    0.41
  -7  -2   8    1.69    0.60
  -7  -2   8    2.31    0.59
  -7   2   8    0.87    0.58
   7   2  -8    2.39    0.45
   7   2  -8    1.88    0.53
  -7   2   8    0.95    0.51
   7   2  -8    2.25    0.48
  -6  -2   8   53.02    2.89
   6  -2  -8   51.04    3.84
   6  -2  -8   54.24    2.78
   6  -2  -8   52.97    2.85
  -6  -2   8   51.39    2.95
   6   2  -8   53.67    2.76
   6   2  -8   51.11    2.81
   6   2  -8   55.60    2.87
  -6   2   8   52.90    3.01
  -6   2   8   47.15    2.82
   5  -2  -8    5.43    0.74
   5  -2  -8    7.68    0.72
  -5  -2   8    7.10    0.86
   5  -2  -8    7.08    1.49
  -5   2   8    7.91    0.97
   5   2  -8    7.13    0.68
   5   2  -8    5.50    0.72
  -5   2   8    7.30    0.77
   5   2  -8    6.02    0.73
   5   2  -8    7.83    1.20
   4  -2  -8   14.56    1.05
   4  -2  -8   13.62    1.69
   4  -2  -8   15.30    1.02
  -4  -2   8   13.21    1.07
  -4  -2   8   14.18    1.10
  -4   2   8   21.58    1.45
   4   2  -8   19.35    1.85
   4   2  -8   18.81    1.25
   4   2  -8   18.82    1.21
  -4   2   8   20.40    1.26
   4   2  -8   20.10    1.26
  -3  -2   8   10.74    1.04
   3  -2  -8   16.45    1.06
  -3  -2   8   15.14    1.08
   3  -2  -8   17.88    1.85
   3  -2  -8   15.73    1.06
  -3   2   8   13.23    1.10
   3   2  -8   13.09    0.93
   3   2  -8   10.49    1.44
  -3   2   8   12.68    0.89
   3   2  -8   14.25    0.94
   3   2  -8   12.14    0.88
   2  -2  -8   73.72    3.80
   2  -2  -8   75.53    4.61
  -2  -2   8   77.78    3.86
  -2  -2   8   73.85    3.81
   2  -2  -8   70.23    3.79
   2   2  -8   65.31    3.41
   2   2  -8   66.97    3.41
   2   2  -8   64.20    4.10
   2   2  -8   65.89    3.38
  -2   2   8   68.16    3.53
  -2   2   8   66.19    3.34
  -2   2   8   66.83    3.35
  -1  -2   8   17.46    1.09
  -1  -2   8   12.75    1.15
   1  -2  -8   19.08    1.14
   1  -2  -8   19.41    1.90
   1  -2  -8   17.79    1.12
  -1   2   8   15.52    1.00
   1   2  -8   15.64    1.01
  -1   2   8   13.32    1.12
   1   2  -8   14.93    1.01
   1   2  -8   15.50    0.98
  -1   2   8   14.00    0.89
  -1   2   8   14.93    1.03
   1   2  -8   16.41    1.69
   0  -2  -8   91.83    5.58
   0  -2   8  103.01    4.91
   0  -2   8  101.07    4.83
   0  -2   8   87.63    4.74
   0  -2   8   98.45    4.82
   0  -2  -8   91.72    4.80
   0  -2  -8   99.14    4.82
   0   2  -8   80.00    4.87
   0   2  -8   79.96    4.07
   0   2   8   85.57    4.18
   0   2   8   80.82    4.08
   0   2  -8   80.02    4.05
   0   2   8   83.03    4.08
   0   2   8   81.85    4.08
   0   2   8   73.34    3.95
   0   2  -8   78.96    4.01
  -1  -2  -8    5.07    1.15
   1  -2   8    5.55    0.63
   1  -2   8    4.77    0.72
   1  -2   8    5.20    0.63
   1   2   8    2.93    0.50
  -1   2  -8    2.54    0.81
   1   2   8    3.30    0.46
  -1   2  -8    3.80    0.42
   1   2   8    3.00    0.54
   1   2   8    3.83    0.58
   2  -2   8   49.04    2.74
   2  -2   8   47.84    2.63
   2  -2   8   51.62    2.63
   2   2   8   40.73    2.24
   2   2   8   41.77    2.20
  -2   2  -8   39.99    2.03
   2   2   8   34.89    2.21
  -2   2  -8   38.54    2.93
   2   2   8   40.99    2.18
   3  -2   8    1.63    0.39
   3  -2   8    1.00    0.38
   3  -2   8    1.61    0.53
  -3  -2  -8    1.75    0.76
   3   2   8    1.67    0.48
   3   2   8    1.68    0.43
  -3   2  -8    2.07    0.79
   3   2   8    2.36    0.51
   3   2   8    2.61    0.44
  -3   2  -8    2.08    0.29
   4  -2   8   90.76    4.39
   4  -2   8   84.78    4.41
  -4  -2  -8   87.27    5.21
   4  -2   8   83.27    4.53
   4   2   8   79.85    4.23
  -4   2  -8   82.30    5.08
   4   2   8   82.26    4.30
   4   2   8   85.78    4.17
   4   2   8   78.33    4.20
  -5  -2  -8    8.47    1.41
   5  -2   8    6.02    0.99
   5  -2   8    7.68    0.78
   5  -2   8    7.88    0.84
   5   2   8    4.61    0.78
   5   2   8    6.40    0.72
   5   2   8    7.16    0.95
  -5   2  -8    5.66    1.45
   5   2   8    6.81    0.80
   6  -2   8   41.37    2.26
   6  -2   8   40.04    2.47
   6  -2   8   40.38    2.31
  -6   2  -8   38.09    3.17
   6   2   8   40.74    2.48
   6   2   8   42.93    2.36
   6   2   8   36.64    2.23
   6   2   8   39.06    2.18
   7  -2   8    3.95    0.56
   7  -2   8    2.51    0.71
   7  -2   8    3.31    0.57
   7   2   8    2.92    0.78
  -7   2  -8    2.32    1.09
   7   2   8    3.52    0.56
   7   2   8    1.74    0.43
  -7  -3   8   55.14    3.00
   7  -3  -8   51.38    2.80
  -7  -3   8   51.77    3.00
   7  -3  -8   47.65    2.72
   7   3  -8   49.25    2.64
   7   3  -8   44.46    2.64
  -7   3   8   52.73    2.99
  -7   3   8   47.30    2.74
   7   3  -8   48.30    2.78
  -6  -3   8    6.70    1.01
   6  -3  -8    8.13    0.75
   6  -3  -8    7.42    1.70
   6  -3  -8    6.81    0.81
  -6  -3   8    6.63    0.91
   6   3  -8    9.75    0.94
  -6   3   8    8.64    1.13
   6   3  -8    7.82    0.85
   6   3  -8    8.72    0.84
  -6   3   8    8.27    0.97
  -5  -3   8   42.09    2.51
  -5  -3   8   41.54    2.49
   5  -3  -8   46.52    2.40
   5  -3  -8   45.06    2.43
   5  -3  -8   43.25    3.43
  -5   3   8   42.37    2.41
   5   3  -8   44.07    2.47
   5   3  -8   44.46    2.40
   5   3  -8   42.98    2.37
   4  -3  -8    1.14    0.85
  -4  -3   8    0.07    0.37
  -4  -3   8    0.34    0.45
   4  -3  -8    0.94    0.39
   4  -3  -8    1.04    0.36
   4   3  -8    1.27    0.38
  -4   3   8    0.46    0.38
  -4   3   8    1.18    0.53
   4   3  -8    0.79    0.34
   4   3  -8    0.69    0.40
   3  -3  -8   60.26    3.10
   3  -3  -8   51.46    3.82
   3  -3  -8   61.49    3.09
  -3  -3   8   59.33    3.12
  -3  -3   8   61.28    3.19
   3   3  -8   49.14    2.63
  -3   3   8   48.31    2.52
  -3   3   8   39.56    2.68
   3   3  -8   50.68    2.58
   3   3  -8   51.00    2.56
  -2  -3   8    2.36    0.54
  -2  -3   8    3.24    0.60
   2  -3  -8    2.19    0.44
   2  -3  -8    2.84    0.46
   2  -3  -8    2.42    0.92
  -2   3   8    1.11    0.50
   2   3  -8    1.10    0.68
  -2   3   8    2.02    0.35
   2   3  -8    2.80    0.45
   2   3  -8    0.88    0.33
   2   3  -8    1.09    0.39
   1  -3  -8  104.53    5.24
  -1  -3   8  102.39    5.20
  -1  -3   8  105.72    5.33
   1  -3  -8  105.34    6.05
  -1   3   8   96.43    4.49
   1   3  -8   82.20    5.28
   1   3  -8   90.04    4.59
   1   3  -8   89.92    4.56
   1   3  -8   96.33    4.59
  -1   3   8   89.96    4.72
   0  -3  -8   13.83    1.70
   0  -3   8   14.50    1.16
   0   3   8   13.54    0.97
   0   3  -8   12.16    1.60
   0   3   8   14.10    1.13
   0   3  -8   12.75    0.89
   0   3   8   11.61    0.90
   1  -3   8   32.83    1.87
  -1  -3  -8   32.41    2.65
   1  -3   8   31.91    2.00
   1  -3   8   33.73    1.87
   1   3   8   24.25    1.50
   1   3   8   23.46    1.49
  -1   3  -8   26.12    1.41
  -1   3  -8   24.05    1.43
  -1   3  -8   23.56    2.24
   1   3   8   24.96    1.51
   1   3   8   25.21    1.65
   2  -3   8    2.54    0.45
   2  -3   8    2.26    0.46
   2  -3   8    2.48    0.58
  -2  -3  -8    2.97    0.92
   2   3   8    1.96    0.47
  -2   3  -8    1.52    0.77
  -2   3  -8    1.82    0.39
   2   3   8    2.08    0.42
   2   3   8    2.42    0.57
   2   3   8    2.43    0.46
  -2   3  -8    2.31    0.37
   3  -3   8   38.91    2.11
   3  -3   8   38.43    2.08
  -3  -3  -8   35.20    2.86
   3  -3   8   36.30    2.23
  -3   3  -8   34.73    1.99
   3   3   8   34.78    2.14
  -3   3  -8   35.12    1.92
   3   3   8   35.88    2.04
  -3   3  -8   39.99    2.95
   3   3   8   35.48    2.17
   3   3   8   38.36    2.09
   4  -3   8    7.57    1.05
   4  -3   8    8.65    0.82
   4  -3   8    8.47    0.85
   4   3   8    6.90    0.98
  -4   3  -8    8.71    0.79
   4   3   8    8.36    0.89
  -4   3  -8    6.99    1.53
  -4   3  -8   10.11    0.69
   4   3   8    8.49    0.83
   4   3   8    9.37    1.04
   5  -3   8   55.91    3.06
   5  -3   8   59.04    3.03
   5  -3   8   56.61    3.23
   5   3   8   59.99    3.21
  -5   3  -8   57.21    4.06
  -5   3  -8   59.94    3.02
   5   3   8   55.90    3.25
   5   3   8   56.38    3.07
   5   3   8   53.49    3.02
   6  -3   8    4.80    0.62
   6  -3   8    4.48    0.79
   6  -3   8    4.42    0.64
   6   3   8    5.99    1.01
  -6   3  -8    4.54    1.50
   6   3   8    6.71    0.76
   6   3   8    4.19    0.64
   6   3   8    4.65    0.85
  -6   3  -8    4.00    0.57
   6  -4  -8   50.83    4.01
   6  -4  -8   46.65    2.57
   6  -4  -8   47.56    2.60
  -6  -4   8   40.97    2.75
   6   4  -8   44.25    2.48
  -6   4   8   43.51    2.56
   6   4  -8   45.22    2.61
   6   4  -8   45.30    2.53
   5  -4  -8    0.64    0.40
   5  -4  -8    0.65    0.97
   5  -4  -8    0.73    0.38
  -5  -4   8    0.64    0.59
   5   4  -8    1.04    0.43
  -5   4   8    0.93    0.61
  -5   4   8   -0.14    0.45
   5   4  -8    0.91    0.40
   5   4  -8    0.25    0.47
   4  -4  -8   46.11    2.56
  -4  -4   8   46.39    2.72
   4  -4  -8   47.52    2.54
   4  -4  -8   44.58    3.56
  -4   4   8   45.07    2.78
   4   4  -8   45.78    2.65
  -4   4   8   48.12    2.56
   4   4  -8   47.20    2.55
   4   4  -8   44.38    2.51
   3  -4  -8    4.85    1.48
   3  -4  -8    4.51    0.70
   3  -4  -8    4.59    0.59
  -3  -4   8    3.33    0.70
   3   4  -8    5.26    0.69
   3   4  -8    2.98    0.52
  -3   4   8    5.97    1.00
  -3   4   8    4.74    0.68
   3   4  -8    4.62    0.66
  -2  -4   8   92.25    4.80
   2  -4  -8   91.14    5.56
  -2   4   8   86.39    4.65
   2   4  -8   90.03    4.48
  -2   4   8   86.98    4.38
   2   4  -8   86.21    4.50
  -1  -4   8    0.89    0.54
   1  -4  -8    1.06    0.76
  -1   4   8    0.24    0.51
   1   4  -8    0.97    0.41
   0  -4   8   60.83    3.08
   0  -4  -8   48.45    3.51
   0   4   8   46.24    2.71
   0   4  -8   42.52    3.29
   0   4  -8   50.29    2.51
   1  -4   8    2.28    0.62
   1   4   8    2.85    0.50
  -1   4  -8    2.03    0.41
   1   4   8    2.03    0.58
  -1   4  -8    2.23    0.95
   2  -4   8   13.15    1.07
   2  -4   8   14.13    1.25
  -2   4  -8   14.45    1.02
   2   4   8   14.98    1.10
   2   4   8   13.75    1.09
  -2   4  -8   16.01    1.89
   2   4   8   13.48    1.15
   2   4   8   13.33    1.28
   3  -4   8   -0.23    0.36
   3  -4   8    0.19    0.52
   3  -4   8    0.64    0.40
  -3   4  -8    0.27    0.74
  -3   4  -8    0.28    0.34
   3   4   8    0.20    0.40
   3   4   8    0.65    0.39
   3   4   8    0.24    0.46
  -3   4  -8    0.27    0.31
   3   4   8    0.28    0.53
   4  -4   8   43.69    2.47
   4  -4   8   46.60    2.50
   4  -4   8   42.83    2.65
   4   4   8   32.10    2.27
   4   4   8   36.44    2.12
  -4   4  -8   39.34    2.01
   4   4   8   38.67    2.12
  -4   4  -8   34.80    3.01
   4   4   8   39.67    2.31
  -4   4  -8   32.88    2.04
   5  -4   8    1.06    0.63
   5  -4   8    0.53    0.43
   5  -4   8    1.12    0.47
   5   4   8    0.39    0.60
   5   4   8    0.60    0.46
  -5   4  -8    0.44    0.39
   5   4   8    1.36    0.61
   5   4   8    1.06    0.45
  -5   4  -8    1.03    0.93
  -3  -5   8   28.37    1.97
   3  -5  -8   27.01    2.69
   3   5  -8   28.99    1.93
  -3   5   8   29.76    2.07
  -3   5   8   27.32    1.74
   3   5  -8   29.35    1.90
  -2  -5   8    0.68    0.63
   2  -5  -8    0.44    0.82
  -2   5   8    0.60    0.61
   2   5  -8   -0.07    0.47
  -1  -5   8   55.35    3.20
  -1   5   8   51.14    3.02
   1   5  -8   49.89    2.80
   0  -5   8    5.44    0.88
   0   5   8    2.77    0.73
   0   5  -8    4.61    0.63
   1  -5   8   15.12    1.42
  -1   5  -8   24.22    1.53
   1   5   8   22.67    1.78
   2  -5   8    0.88    0.60
  -2   5  -8    0.54    0.83
  -2   5  -8    0.73    0.41
   2   5   8    0.69    0.63
   3  -5   8   22.55    1.73
  -3   5  -8   21.74    2.42
   8   0  -9    4.61    0.69
   8   0  -9    5.83    0.76
   8   0  -9    4.47    0.77
  -8   0   9    4.50    0.85
   8   0  -9    5.40    1.45
  -7   0   9    8.90    1.12
   7   0  -9   10.15    0.90
   7   0  -9    8.73    0.89
   7   0  -9    9.20    1.08
   7   0  -9   14.82    1.96
  -6   0   9    9.22    1.08
   6   0  -9    8.03    0.85
   6   0  -9    9.33    0.96
   6   0  -9    9.31    0.84
   6   0  -9   10.31    1.62
  -5   0   9   38.14    2.45
   5   0  -9   45.80    2.39
   5   0  -9   41.37    2.33
   5   0  -9   42.07    2.31
   5   0  -9   43.94    3.21
   4   0  -9    0.03    0.30
   4   0  -9    0.17    0.30
   4   0  -9    0.37    0.28
  -4   0   9    0.42    0.42
  -4   0   9    0.05    0.33
   4   0  -9    0.20    0.67
  -3   0   9  126.92    6.47
  -3   0   9  122.84    6.38
   3   0  -9  129.11    6.37
   3   0  -9  131.80    6.39
   3   0  -9  130.37    7.34
   3   0  -9  131.15    6.35
  -2   0   9    0.11    0.35
   2   0  -9   -0.07    0.27
   2   0  -9    0.38    0.64
   2   0  -9    0.42    0.24
  -2   0   9    0.59    0.35
   2   0  -9    0.29    0.29
  -1   0   9   77.32    3.98
   1   0  -9   77.69    3.94
   1   0  -9   74.73    4.72
  -1   0   9   75.99    3.96
   1   0  -9   79.38    3.92
  -1   0   9   82.48    3.96
   1   0  -9   74.04    3.83
   0   0  -9    0.79    0.31
   0   0  -9    0.42    0.58
   0   0   9    0.48    0.31
   0   0   9    0.86    0.36
   0   0  -9    1.15    0.23
   0   0  -9    0.73    0.29
   0   0   9    0.70    0.31
   0   0   9    0.85    0.40
   1   0   9  116.74    5.79
   1   0   9  119.72    5.80
   1   0   9  114.87    5.77
   1   0   9  113.50    5.85
   2   0   9   -0.19    0.29
  -2   0  -9    0.44    0.60
   2   0   9    0.46    0.32
   2   0   9   -0.51    0.35
   2   0   9    0.30    0.29
   3   0   9  108.68    5.14
   3   0   9   94.34    5.08
   3   0   9  102.75    5.26
  -3   0  -9   95.21    6.02
   3   0   9  112.36    5.16
   4   0   9   17.33    1.17
   4   0   9   17.01    1.17
   4   0   9   15.88    1.30
  -4   0  -9   17.52    1.97
  -5   0  -9   22.21    2.32
   5   0   9   22.09    1.41
   5   0   9   23.03    1.43
   5   0   9   21.25    1.62
   6   0   9    4.01    0.78
  -6   0  -9    5.19    1.56
   6   0   9    7.09    0.76
   6   0   9    3.66    0.56
  -7   0  -9   36.97    3.30
   7   0   9   37.99    2.14
   7   0   9   36.10    2.13
   7   0   9   39.85    2.48
   8  -1  -9   19.94    1.69
   8  -1  -9   20.23    1.34
   8  -1  -9   20.38    1.45
  -8  -1   9   22.81    1.69
   8  -1  -9   20.18    2.55
   8   1  -9   20.66    1.59
  -8   1   9   23.73    1.78
   8   1  -9   20.30    1.39
   8   1  -9   22.98    1.46
  -7  -1   9   11.73    1.24
   7  -1  -9   13.07    2.00
   7  -1  -9   10.36    1.15
   7  -1  -9   12.56    0.98
  -7  -1   9   10.64    1.17
   7  -1  -9   11.68    1.03
  -7   1   9   13.32    1.28
   7   1  -9   11.52    0.95
   7   1  -9   11.03    1.06
   7   1  -9   11.63    0.97
   7   1  -9    9.82    1.71
   6  -1  -9   34.99    3.06
  -6  -1   9   39.68    2.31
   6  -1  -9   37.48    2.14
  -6  -1   9   38.38    2.15
   6  -1  -9   35.43    2.20
   6  -1  -9   35.28    2.09
   6   1  -9   34.61    1.87
   6   1  -9   34.43    1.87
   6   1  -9   31.11    2.60
  -6   1   9   25.45    2.00
   6   1  -9   33.49    1.93
  -5  -1   9   11.09    1.07
   5  -1  -9   10.80    0.94
  -5  -1   9   10.32    0.97
   5  -1  -9   11.73    1.66
   5  -1  -9    9.28    0.92
   5  -1  -9   12.36    1.01
   5   1  -9    9.77    1.44
   5   1  -9    9.45    0.84
   5   1  -9    9.08    0.83
  -5   1   9    9.75    1.05
   5   1  -9    9.00    0.85
  -4  -1   9  128.66    6.37
   4  -1  -9  121.27    6.28
   4  -1  -9  116.14    6.28
  -4  -1   9  128.71    6.29
   4  -1  -9  130.61    7.30
   4  -1  -9  129.51    6.29
   4   1  -9  112.21    6.72
  -4   1   9  122.76    6.03
   4   1  -9  119.10    5.90
   4   1  -9  119.81    5.88
   4   1  -9  115.77    5.88
  -3  -1   9   14.17    1.11
   3  -1  -9   13.15    1.05
   3  -1  -9   13.88    0.99
   3  -1  -9   14.69    1.05
   3  -1  -9   15.12    1.82
   3   1  -9   12.17    0.95
  -3   1   9   12.38    0.89
   3   1  -9   13.65    0.91
   3   1  -9   11.73    0.92
  -3   1   9   11.79    1.07
   3   1  -9   11.55    1.56
  -2  -1   9  117.91    5.73
   2  -1  -9  114.62    5.70
  -2  -1   9  115.87    5.72
   2  -1  -9  108.66    6.59
   2  -1  -9  113.63    5.67
   2  -1  -9  110.38    5.60
   2   1  -9  110.70    5.40
  -2   1   9  103.79    5.54
   2   1  -9  106.62    5.48
   2   1  -9  108.65    5.46
   2   1  -9  115.74    6.33
  -2   1   9  110.10    5.45
   1  -1  -9   18.24    1.19
  -1  -1   9   15.54    1.21
   1  -1  -9   16.26    1.14
   1  -1  -9   18.34    1.04
  -1  -1   9   17.43    1.16
   1  -1  -9   19.47    1.98
  -1   1   9   16.25    1.23
  -1   1   9   18.82    1.14
   1   1  -9   16.73    1.08
  -1   1   9   12.27    1.13
   1   1  -9   15.45    1.74
   1   1  -9   16.07    1.10
   1   1  -9   16.23    0.99
   0  -1  -9   66.43    4.13
   0  -1  -9   60.07    3.27
   0  -1   9   58.59    3.27
   0  -1   9   63.93    3.33
   0  -1   9   60.82    3.26
   0  -1   9   66.23    3.26
   0   1   9   57.14    3.54
   0   1   9   68.96    3.54
   0   1   9   70.93    3.57
   0   1  -9   73.91    3.57
   0   1  -9   71.49    3.59
   0   1  -9   70.48    3.43
   0   1   9   67.97    3.56
   1  -1   9    2.89    0.54
   1  -1   9    2.75    0.48
  -1  -1  -9    2.75    0.90
   1  -1   9    2.79    0.52
   1  -1   9    2.57    0.44
   1   1   9    2.48    0.50
  -1   1  -9    2.11    0.31
   1   1   9    2.94    0.52
   1   1   9    2.11    0.46
   1   1   9    2.43    0.46
  -1   1  -9    3.07    0.96
   2  -1   9  124.99    6.12
   2  -1   9  119.14    6.10
  -2  -1  -9  123.14    6.95
   2   1   9  134.31    6.12
   2   1   9  132.20    6.15
   2   1   9  117.87    6.17
   2   1   9  108.60    6.11
   3  -1   9   11.63    0.98
  -3  -1  -9   12.15    1.62
   3  -1   9   12.46    1.08
   3  -1   9   11.61    0.97
   3   1   9   11.65    0.97
   3   1   9   12.04    0.97
   3   1   9   12.70    0.96
   3   1   9   10.39    1.06
  -3   1  -9   10.48    1.62
  -4  -1  -9   47.43    3.48
   4  -1   9   44.74    2.79
   4  -1   9   49.44    2.64
   4  -1   9   53.18    2.68
   4   1   9   52.94    3.06
   4   1   9   67.52    3.11
   4   1   9   57.57    3.07
   4   1   9   52.29    3.19
   5  -1   9   10.55    1.00
   5  -1   9   11.13    1.16
  -5  -1  -9   11.70    1.75
   5  -1   9   12.68    0.98
   5   1   9   10.96    1.18
   5   1   9   13.72    1.03
  -5   1  -9   10.74    1.76
   5   1   9   11.90    1.00
   6  -1   9   25.75    2.10
   6  -1   9   31.06    1.96
  -6  -1  -9   40.84    3.06
   6  -1   9   33.79    1.92
   6   1   9   29.89    1.77
  -6   1  -9   27.29    2.72
   6   1   9   29.84    1.78
   6   1   9   30.52    2.06
   7  -1   9    3.26    0.53
  -7  -1  -9    2.61    1.10
   7  -1   9    2.79    0.56
   7  -1   9    2.52    0.75
   7   1   9    1.47    0.69
   7   1   9    2.63    0.51
   7   1   9    1.03    0.46
  -7   1  -9    1.14    1.00
   7  -2  -9   33.85    1.92
   7  -2  -9   30.74    3.14
   7  -2  -9   34.22    2.02
  -7  -2   9   36.38    2.10
  -7  -2   9   29.94    2.13
  -7   2   9   38.08    2.46
   7   2  -9   39.41    2.28
   7   2  -9   37.84    2.17
   7   2  -9   36.28    2.17
  -7   2   9   38.19    2.28
  -6  -2   9    3.33    0.65
   6  -2  -9    3.15    0.59
  -6  -2   9    3.06    0.66
   6  -2  -9    2.95    0.50
   6  -2  -9    3.31    1.25
   6   2  -9    1.93    0.52
  -6   2   9    2.96    0.57
  -6   2   9    3.25    0.71
   6   2  -9    3.20    0.54
   6   2  -9    2.59    0.50
  -5  -2   9   62.08    3.44
   5  -2  -9   63.88    4.41
   5  -2  -9   68.51    3.34
  -5  -2   9   59.93    3.37
   5  -2  -9   59.69    3.35
  -5   2   9   61.57    3.58
  -5   2   9   58.91    3.40
   5   2  -9   66.07    3.45
   5   2  -9   67.26    3.44
   5   2  -9   63.96    4.13
   5   2  -9   71.11    3.41
   4  -2  -9    1.88    0.42
  -4  -2   9    1.54    0.50
  -4  -2   9    2.51    0.57
   4  -2  -9    2.45    0.99
   4  -2  -9    1.86    0.47
   4   2  -9    2.77    0.46
  -4   2   9    3.12    0.50
   4   2  -9    2.62    0.45
   4   2  -9    3.43    1.13
   4   2  -9    2.54    0.48
  -4   2   9    1.89    0.60
   3  -2  -9   88.82    4.93
  -3  -2   9   95.96    4.96
   3  -2  -9  100.42    4.96
   3  -2  -9  103.21    5.96
  -3  -2   9   97.63    4.97
   3   2  -9  101.78    4.68
   3   2  -9   95.01    4.71
   3   2  -9   92.50    4.65
  -3   2   9   93.20    4.62
  -3   2   9   87.56    4.78
   3   2  -9   83.89    5.41
   2  -2  -9   27.34    2.47
  -2  -2   9   26.36    1.61
   2  -2  -9   27.61    1.64
   2  -2  -9   26.75    1.64
  -2  -2   9   26.63    1.69
  -2   2   9   24.28    1.70
   2   2  -9   29.15    1.62
   2   2  -9   26.67    1.63
   2   2  -9   28.98    1.60
  -2   2   9   26.84    1.52
  -1  -2   9   28.67    1.66
   1  -2  -9   28.40    1.71
   1  -2  -9   29.84    1.69
   1  -2  -9   27.25    2.50
  -1  -2   9   28.53    1.78
  -1   2   9   33.13    2.08
  -1   2   9   33.36    1.83
   1   2  -9   36.79    2.01
  -1   2   9   34.70    1.97
   1   2  -9   34.11    1.93
   1   2  -9   36.70    1.98
   1   2  -9   37.26    2.80
   0  -2   9   22.47    1.27
   0  -2  -9   18.10    2.05
   0  -2   9   19.62    1.42
   0  -2   9   23.09    1.39
   0   2   9   24.99    1.56
   0   2   9   25.72    1.64
   0   2  -9   24.53    2.27
   0   2  -9   22.73    1.41
   0   2   9   23.92    1.51
   0   2   9   25.85    1.55
   1  -2   9   56.20    2.80
   1  -2   9   54.61    2.88
  -1  -2  -9   42.32    3.45
   1  -2   9   55.12    2.81
  -1   2  -9   60.21    3.07
   1   2   9   56.80    3.26
   1   2   9   60.29    3.20
   1   2   9   63.54    3.22
  -1   2  -9   57.96    4.05
   1   2   9   64.22    3.26
   2  -2   9    6.80    0.88
  -2  -2  -9    6.82    1.38
   2  -2   9    7.62    0.81
   2  -2   9    6.84    0.78
  -2   2  -9    9.65    1.59
   2   2   9    7.86    0.93
   2   2   9    8.61    0.88
  -2   2  -9    8.71    0.63
   2   2   9    9.30    0.96
   2   2   9    7.08    0.86
   3  -2   9   85.93    4.24
  -3  -2  -9   80.71    5.07
   3  -2   9   80.88    4.26
   3   2   9   88.95    4.72
   3   2   9   89.17    4.83
  -3   2  -9   86.41    5.67
   3   2   9  109.76    4.85
   3   2   9   88.53    4.74
  -4  -2  -9    2.95    1.00
   4  -2   9    2.90    0.67
   4  -2   9    2.54    0.49
   4  -2   9    3.42    0.57
   4   2   9    3.31    0.54
  -4   2  -9    2.68    1.03
   4   2   9    2.49    0.55
   4   2   9    3.54    0.69
   4   2   9    2.66    0.57
   5  -2   9   23.80    1.91
   5  -2   9   28.17    1.79
  -5  -2  -9   30.81    2.59
   5  -2   9   29.50    1.74
   5   2   9   33.31    2.03
   5   2   9   33.10    2.18
   5   2   9   34.84    1.99
   5   2   9   32.90    2.05
  -5   2  -9   34.32    2.97
   6  -2   9    0.30    0.42
   6  -2   9    1.31    0.62
   6  -2   9    0.71    0.44
   6   2   9   -0.60    0.42
   6   2   9    0.57    0.57
   6   2   9    0.58    0.62
   6   2   9   -0.46    0.36
  -6   2  -9    0.24    0.86
   6  -3  -9   20.40    1.37
   6  -3  -9   22.49    1.47
  -6  -3   9   19.93    1.58
  -6  -3   9   21.12    1.59
   6  -3  -9   18.47    2.53
   6   3  -9   27.12    1.70
  -6   3   9   27.48    1.95
   6   3  -9   28.25    1.65
  -6   3   9   24.29    1.72
   6   3  -9   23.88    1.69
   5  -3  -9    1.07    0.40
  -5  -3   9    0.53    0.55
  -5  -3   9    1.86    0.56
   5  -3  -9    1.25    1.05
   5  -3  -9    1.63    0.49
  -5   3   9    1.98    0.65
   5   3  -9    1.58    0.50
   5   3  -9    1.92    0.44
  -5   3   9    1.30    0.48
   5   3  -9    1.82    0.48
  -4  -3   9   39.78    2.27
   4  -3  -9   38.31    2.14
  -4  -3   9   33.55    2.15
   4  -3  -9   36.73    2.15
   4  -3  -9   36.62    3.12
  -4   3   9   36.53    2.33
   4   3  -9   37.74    2.10
   4   3  -9   37.07    2.17
   4   3  -9   38.78    2.15
  -4   3   9   35.16    2.09
   3  -3  -9    1.63    0.46
  -3  -3   9    1.20    0.44
   3  -3  -9    1.04    0.84
   3  -3  -9    0.74    0.38
  -3  -3   9    0.83    0.52
   3   3  -9    1.84    0.48
  -3   3   9    2.54    0.63
   3   3  -9    2.71    0.46
   3   3  -9    1.85    0.44
   3   3  -9    1.40    0.77
  -3   3   9    1.96    0.42
  -2  -3   9   25.23    1.70
   2  -3  -9   23.76    2.44
   2  -3  -9   26.02    1.74
   2  -3  -9   25.88    1.58
  -2  -3   9   24.86    1.56
   2   3  -9   24.71    1.46
   2   3  -9   27.37    2.26
   2   3  -9   22.85    1.45
  -2   3   9   16.68    1.55
  -2   3   9   20.64    1.31
   2   3  -9   23.53    1.42
   1  -3  -9   11.92    1.69
  -1  -3   9    7.52    0.99
  -1   3   9    8.66    1.04
   1   3  -9   10.04    0.82
   1   3  -9    8.23    1.45
   0  -3   9   18.05    1.47
   0  -3  -9   22.82    2.26
   0   3  -9   21.21    2.20
   0   3  -9   22.53    1.35
   0   3   9   21.18    1.37
   0   3   9   21.12    1.53
  -1  -3  -9    1.56    0.90
   1  -3   9    1.32    0.42
   1  -3   9    0.47    0.53
   1   3   9    1.29    0.57
  -1   3  -9    1.54    0.86
  -1   3  -9    2.11    0.39
   1   3   9    1.87    0.46
   1   3   9    2.11    0.48
   1   3   9    2.08    0.48
   2  -3   9   71.44    4.17
  -2  -3  -9   77.29    5.01
   2  -3   9   81.88    4.10
   2  -3   9   85.30    4.09
   2   3   9   77.10    3.93
  -2   3  -9   76.99    3.86
  -2   3  -9   75.21    3.79
   2   3   9   73.31    3.96
   2   3   9   77.05    4.05
   2   3   9   82.75    3.94
  -2   3  -9   65.16    4.81
  -3  -3  -9    2.80    1.03
   3  -3   9    2.49    0.52
   3  -3   9    2.83    0.67
   3  -3   9    2.08    0.51
  -3   3  -9    1.51    0.90
   3   3   9    1.96    0.48
   3   3   9    1.25    0.57
  -3   3  -9    1.37    0.34
   3   3   9    1.96    0.56
   3   3   9    1.24    0.50
   4  -3   9   34.00    2.13
   4  -3   9   39.53    2.35
   4  -3   9   38.14    2.19
   4   3   9   39.94    2.36
  -4   3  -9   40.17    3.31
   4   3   9   39.29    2.29
   4   3   9   43.68    2.52
   4   3   9   39.50    2.44
   5  -3   9    2.56    0.56
   5  -3   9    1.84    0.66
   5  -3   9    2.03    0.51
   5   3   9    1.74    0.55
   5   3   9    1.50    0.66
   5   3   9    0.81    0.57
   5   3   9    1.03    0.47
  -5   3  -9    1.44    1.01
  -6   3  -9   15.91    2.24
  -5  -4   9   13.19    1.36
  -5  -4   9   12.71    1.21
   5  -4  -9   14.22    1.17
   5  -4  -9   13.06    1.11
   5  -4  -9   13.91    2.16
   5   4  -9   14.25    1.25
   5   4  -9   13.54    1.10
  -5   4   9   11.73    1.39
  -5   4   9   12.03    1.15
   5   4  -9   12.79    1.12
   4  -4  -9    2.16    1.15
  -4  -4   9    2.17    0.70
   4  -4  -9    2.84    0.53
  -4  -4   9    1.60    0.55
   4  -4  -9    1.41    0.50
  -4   4   9    1.41    0.69
  -4   4   9    1.90    0.53
   4   4  -9    2.93    0.53
   4   4  -9    2.60    0.56
   4   4  -9    3.03    0.64
   3  -4  -9   25.19    1.69
  -3  -4   9   25.24    1.88
   3  -4  -9   29.22    2.75
   3   4  -9   23.93    1.58
   3   4  -9   24.51    1.67
   3   4  -9   26.34    1.61
  -3   4   9   24.83    1.84
  -3   4   9   22.69    1.50
   2  -4  -9    3.05    1.08
  -2  -4   9    2.44    0.70
  -2   4   9    2.80    0.71
   2   4  -9    3.65    0.63
  -1  -4   9   19.48    1.54
   1  -4  -9   18.34    2.10
  -1   4   9   13.38    1.35
   0  -4  -9    9.04    1.65
   0  -4   9    7.10    1.08
   0   4  -9    8.70    1.63
   0   4  -9    8.51    0.82
   0   4   9    7.64    1.13
   1  -4   9   54.78    3.15
   1   4   9   55.57    3.10
  -1   4  -9   51.55    3.85
  -1   4  -9   52.62    2.82
   2  -4   9    4.61    0.79
  -2   4  -9    8.76    1.73
   2   4   9    5.39    1.04
   2   4   9    6.26    0.85
   2   4   9    5.41    0.90
  -2   4  -9    5.32    0.68
   3  -4   9   53.79    3.29
   3  -4   9   58.60    3.26
   3  -4   9   57.04    3.10
   3   4   9   51.76    2.95
   3   4   9   54.33    3.07
  -3   4  -9   49.97    3.92
   3   4   9   55.31    3.15
   3   4   9   55.84    2.95
  -3   4  -9   53.63    2.82
   4  -4   9    4.89    0.71
   4  -4   9    6.33    0.86
   4  -4   9    7.10    1.13
   4   4   9    6.83    0.90
  -4   4  -9    7.10    1.68
   4   4   9    4.30    0.82
  -4   4  -9    5.90    0.81
   4   4   9    5.90    0.93
   4   4   9    6.90    0.90
  -1  -5   9    1.74    0.74
   1   5  -9    2.35    0.60
  -1   5   9    1.29    0.70
   0  -5   9   12.17    1.39
   0   5  -9   17.12    1.29
   0   5   9   19.04    1.65
   1  -5   9    0.81    0.68
   7   0 -10    3.86    1.27
   7   0 -10    4.40    0.63
  -7   0  10    4.51    0.86
   7   0 -10    5.61    0.74
   7   0 -10    5.16    0.76
   6   0 -10   63.68    3.36
   6   0 -10   62.49    4.34
   6   0 -10   57.36    3.25
  -6   0  10   61.11    3.51
   6   0 -10   63.60    3.30
   5   0 -10   10.45    0.86
   5   0 -10    9.17    0.89
   5   0 -10    9.96    0.89
  -5   0  10    6.37    0.98
  -5   0  10    8.86    1.05
   5   0 -10    8.44    1.64
   4   0 -10   68.27    4.65
  -4   0  10   70.68    3.83
  -4   0  10   65.77    3.67
   4   0 -10   73.15    3.71
   4   0 -10   73.77    3.69
   4   0 -10   74.88    3.69
   3   0 -10   12.88    0.97
   3   0 -10   13.49    0.95
   3   0 -10    9.47    1.66
  -3   0  10   12.06    1.09
   3   0 -10   13.30    0.90
  -3   0  10   10.58    0.97
   2   0 -10   60.45    3.13
  -2   0  10   61.28    3.24
  -2   0  10   62.40    3.18
   2   0 -10   51.67    3.95
   2   0 -10   61.76    3.16
   2   0 -10   61.01    3.06
   1   0 -10    0.35    0.32
   1   0 -10    0.70    0.25
  -1   0  10    0.62    0.41
   1   0 -10    0.73    0.35
  -1   0  10    0.79    0.42
   1   0 -10    0.16    0.59
   0   0  10   79.24    4.01
   0   0  10   83.85    4.08
   0   0  10   80.48    4.03
   0   0 -10   70.32    4.78
   0   0  10   75.77    4.01
   1   0  10   12.13    1.07
  -1   0 -10   11.67    1.61
   1   0  10   13.42    0.98
   1   0  10   13.10    0.98
   1   0  10   13.35    1.02
   2   0  10   67.04    3.68
   2   0  10   72.91    3.82
   2   0  10   71.93    3.70
  -2   0 -10   75.25    4.72
   2   0  10   71.44    3.71
   3   0  10   21.09    1.33
  -3   0 -10   20.04    2.25
   3   0  10   17.94    1.46
   3   0  10   21.98    1.36
  -4   0 -10   61.30    4.58
   4   0  10   67.65    3.75
   4   0  10   74.07    3.62
   4   0  10   72.20    3.59
   5   0  10    0.03    0.37
   5   0  10    0.37    0.59
  -5   0 -10    0.60    0.84
   5   0  10    0.42    0.40
   6   0  10   60.76    3.17
   6   0  10   57.50    3.44
   6   0  10   60.50    3.15
  -6   0 -10   56.91    4.34
  -7  -1  10   27.01    1.93
   7  -1 -10   25.50    1.70
   7  -1 -10   27.77    2.98
   7  -1 -10   25.61    1.89
   7  -1 -10   29.71    1.77
   7   1 -10   29.41    2.76
   7   1 -10   27.37    1.75
   7   1 -10   27.08    1.83
  -7   1  10   28.44    2.05
   7   1 -10   30.48    1.76
   6  -1 -10    2.18    0.59
  -6  -1  10    1.78    0.62
  -6  -1  10    1.72    0.57
   6  -1 -10    2.40    0.50
   6  -1 -10    0.82    0.99
   6  -1 -10    1.34    0.46
  -6   1  10    3.30    0.73
   6   1 -10    2.13    0.50
   6   1 -10    1.86    0.46
   6   1 -10    3.18    0.58
   6   1 -10    2.07    1.01
   5  -1 -10   43.99    2.48
   5  -1 -10   37.13    2.42
  -5  -1  10   45.72    2.59
   5  -1 -10   40.17    3.42
   5  -1 -10   45.09    2.45
  -5  -1  10   47.99    2.51
   5   1 -10   41.52    2.52
   5   1 -10   42.82    2.52
   5   1 -10   54.24    3.60
  -5   1  10   47.44    2.74
   5   1 -10   44.42    2.54
  -4  -1  10    7.92    0.89
   4  -1 -10    6.06    0.76
   4  -1 -10    6.20    1.45
   4  -1 -10    6.95    0.84
   4  -1 -10    6.65    0.79
  -4  -1  10    8.76    0.98
  -4   1  10    9.34    1.07
   4   1 -10   10.12    0.88
   4   1 -10    7.92    1.47
   4   1 -10    9.90    0.84
   4   1 -10    8.96    0.86
  -3  -1  10   48.60    2.69
   3  -1 -10   49.76    2.63
   3  -1 -10   43.56    3.49
   3  -1 -10   47.18    2.52
   3  -1 -10   48.80    2.58
  -3  -1  10   45.18    2.61
   3   1 -10   49.08    2.55
   3   1 -10   46.29    2.61
   3   1 -10   47.82    2.60
  -3   1  10   47.92    2.73
   3   1 -10   48.68    3.51
  -3   1  10   47.03    2.55
   2  -1 -10    2.16    0.40
   2  -1 -10    2.17    0.97
  -2  -1  10    3.13    0.61
  -2  -1  10    2.85    0.54
   2  -1 -10    2.35    0.45
   2  -1 -10    2.64    0.50
   2   1 -10    3.47    0.55
  -2   1  10    4.21    0.79
   2   1 -10    3.27    0.52
   2   1 -10    4.24    0.51
  -2   1  10    4.71    0.68
   2   1 -10    3.67    1.06
   1  -1 -10   47.33    2.46
   1  -1 -10   45.36    2.60
   1  -1 -10   47.66    2.81
  -1  -1  10   51.44    2.68
   1  -1 -10   46.05    3.47
  -1  -1  10   47.37    2.60
   1   1 -10   46.96    3.41
   1   1 -10   48.08    2.48
   1   1 -10   48.82    2.59
  -1   1  10   47.85    2.61
  -1   1  10   47.02    2.67
   1   1 -10   48.66    2.61
   0  -1  10   -0.12    0.40
   0  -1 -10    0.24    0.67
   0  -1  10    0.03    0.32
   0  -1  10   -0.09    0.33
   0   1 -10    0.47    0.71
   0   1 -10    0.52    0.24
   0   1  10    0.54    0.42
   0   1  10    0.15    0.39
   0   1  10   -0.03    0.36
   1  -1  10   59.23    3.06
   1  -1  10   57.63    3.02
   1  -1  10   57.47    3.06
  -1  -1 -10   55.36    3.89
   1  -1  10   57.37    3.13
   1   1  10   65.70    3.36
   1   1  10   59.68    3.34
   1   1  10   59.13    3.30
  -1   1 -10   64.04    4.26
   1   1  10   62.15    3.28
  -2  -1 -10   18.71    2.03
   2  -1  10   20.62    1.34
   2  -1  10   19.11    1.43
   2  -1  10   21.19    1.36
  -2   1 -10   18.21    2.12
   2   1  10   20.26    1.35
   2   1  10   20.34    1.32
   2   1  10   17.67    1.38
  -3  -1 -10   34.53    2.87
   3  -1  10   38.27    2.05
   3  -1  10   38.94    2.05
   3  -1  10   28.57    2.08
   3   1  10   38.75    2.53
   3   1  10   40.61    2.41
   3   1  10   42.42    2.43
  -3   1 -10   50.03    3.52
   3   1  10   43.25    2.39
   4  -1  10    1.94    0.46
   4  -1  10    2.36    0.52
  -4  -1 -10    1.53    0.92
   4  -1  10    0.51    0.57
   4   1  10    1.77    0.49
  -4   1 -10    1.70    0.99
   4   1  10    1.43    0.48
   4   1  10    2.38    0.66
   4   1  10    0.92    0.47
   5  -1  10   42.42    2.35
  -5  -1 -10   43.71    3.43
   5  -1  10   37.43    2.53
   5  -1  10   42.48    2.39
   5   1  10   42.45    2.58
  -5   1 -10   35.69    3.42
   5   1  10   44.61    2.38
   5   1  10   42.79    2.34
   6  -1  10    2.65    0.53
  -6  -1 -10    1.94    1.06
   6  -1  10    1.41    0.72
   6  -1  10    1.40    0.50
   6   1  10    2.72    0.56
  -6   1 -10    2.11    1.16
   6   1  10    2.84    0.56
   6   1  10    2.98    0.81
   7  -2 -10    0.18    1.05
  -6  -2  10   26.94    1.89
  -6  -2  10   30.01    2.00
   6  -2 -10   24.38    1.84
   6  -2 -10   33.84    3.20
   6  -2 -10   31.30    1.84
   6   2 -10   23.10    1.53
  -6   2  10   22.85    1.77
  -6   2  10   22.35    1.55
   6   2 -10   22.92    1.54
   6   2 -10   22.65    1.52
  -5  -2  10    0.85    0.55
   5  -2 -10    1.20    1.03
  -5  -2  10    0.68    0.51
   5  -2 -10    0.79    0.46
   5  -2 -10    1.08    0.42
  -5   2  10    1.31    0.45
   5   2 -10    0.85    0.41
   5   2 -10    1.20    0.44
  -5   2  10    0.54    0.56
   5   2 -10    0.90    0.44
   5   2 -10    1.18    0.82
   4  -2 -10   56.69    4.19
   4  -2 -10   57.75    3.14
  -4  -2  10   54.08    3.16
  -4  -2  10   58.78    3.16
   4  -2 -10   59.57    3.14
   4   2 -10   53.33    3.71
  -4   2  10   47.62    2.95
   4   2 -10   53.44    2.87
   4   2 -10   53.47    2.82
   4   2 -10   48.36    2.77
  -4   2  10   53.30    2.78
  -3  -2  10    8.26    0.96
   3  -2 -10    7.10    0.86
  -3  -2  10    6.50    0.84
   3  -2 -10    6.90    1.61
   3  -2 -10    5.74    0.81
   3   2 -10    6.62    0.83
   3   2 -10    8.34    0.84
  -3   2  10    7.93    0.76
   3   2 -10    7.71    1.49
   3   2 -10    7.38    0.73
   2  -2 -10   61.23    3.44
  -2  -2  10   70.45    3.54
   2  -2 -10   61.15    4.41
  -2  -2  10   67.64    3.45
   2  -2 -10   62.11    3.42
   2   2 -10   74.40    4.38
  -2   2  10   59.42    3.47
   2   2 -10   64.69    3.32
  -2   2  10   59.06    3.24
   2   2 -10   63.44    3.37
   2   2 -10   62.33    3.41
  -1  -2  10    1.18    0.40
  -1  -2  10    1.31    0.55
   1  -2 -10    0.78    0.93
   1   2 -10    1.25    0.78
   1   2 -10    0.37    0.39
   1   2 -10    1.07    0.35
  -1   2  10    0.70    0.42
  -1   2  10    1.53    0.52
   0  -2 -10   81.11    5.01
   0  -2  10   69.12    3.97
   0   2  10   72.84    3.96
   0   2  10   78.06    3.91
   0   2 -10   74.75    3.77
   0   2 -10   70.35    4.74
   1  -2  10   14.22    1.30
  -1  -2 -10   13.82    1.90
   1  -2  10   13.76    1.15
   1  -2  10   15.30    1.24
   1   2  10   12.70    1.07
  -1   2 -10   11.24    1.75
   1   2  10   11.57    1.04
   1   2  10   12.58    1.11
  -1   2 -10   12.10    0.84
   1   2  10   11.60    1.14
   2  -2  10   49.92    2.69
   2  -2  10   46.04    2.72
   2  -2  10   44.49    2.63
  -2  -2 -10   48.19    3.51
   2   2  10   45.36    2.55
   2   2  10   39.00    2.44
   2   2  10   39.88    2.45
  -2   2 -10   49.35    3.54
   2   2  10   41.98    2.53
   3  -2  10   12.67    1.13
  -3  -2 -10   14.75    1.88
   3  -2  10   13.66    1.27
   3  -2  10   12.37    1.16
  -3   2 -10   11.32    1.90
   3   2  10   10.48    1.03
   3   2  10    7.60    1.05
   3   2  10   11.04    1.13
   3   2  10   10.83    1.03
   4  -2  10   33.71    2.13
   4  -2  10   30.82    2.00
  -4  -2 -10   33.09    2.78
   4  -2  10   31.12    1.97
   4   2  10   22.94    1.65
   4   2  10   28.42    1.85
   4   2  10   24.41    1.65
  -4   2 -10   25.54    2.67
   4   2  10   21.94    1.60
   5  -2  10   -0.28    0.44
   5  -2  10    0.53    0.63
   5  -2  10    0.05    0.43
  -5  -2 -10    0.43    0.83
   5   2  10    0.49    0.51
   5   2  10    0.09    0.58
   5   2  10    0.36    0.49
  -5   2 -10   -0.08    0.88
   5   2  10    0.89    0.49
   6  -2  10   32.04    2.00
   6  -2  10   30.99    1.95
   6  -2  10   30.55    2.18
  -6   2 -10   29.04    2.94
   6   2  10   23.32    1.64
   6   2  10   25.98    1.99
   6   2  10   21.51    1.67
   6  -3 -10    1.48    1.19
   5  -3 -10   35.24    2.17
  -5  -3  10   31.69    2.19
   5  -3 -10   38.44    3.49
   5  -3 -10   37.11    2.14
  -5   3  10   36.47    2.27
   5   3 -10   32.66    2.03
  -5   3  10   28.70    1.94
   5   3 -10   32.58    2.00
   5   3 -10   33.28    1.97
   4  -3 -10   12.91    1.15
  -4  -3  10   12.20    1.15
  -4  -3  10   12.62    1.26
   4  -3 -10   12.33    2.07
   4  -3 -10   14.72    1.16
  -4   3  10    9.39    1.23
   4   3 -10   12.62    1.04
   4   3 -10   13.07    1.10
  -4   3  10   12.79    1.03
   4   3 -10   12.31    1.07
   3  -3 -10   55.15    2.90
   3  -3 -10   49.29    3.10
  -3  -3  10   56.26    2.89
  -3  -3  10   44.86    2.92
   3  -3 -10   51.26    3.90
   3   3 -10   60.90    3.09
   3   3 -10   55.62    3.02
   3   3 -10   63.18    3.07
  -3   3  10   55.55    3.21
  -3   3  10   51.85    2.93
   3   3 -10   50.92    3.78
   2  -3 -10    7.05    1.65
  -2  -3  10    6.89    1.06
   2   3 -10    9.32    1.58
   2   3 -10    9.18    0.89
   2   3 -10    8.57    0.91
  -2   3  10    7.71    1.12
  -1  -3  10   70.64    3.88
   1  -3 -10   71.99    4.83
   1   3 -10   77.59    4.94
   1   3 -10   73.60    3.98
  -1   3  10   79.15    4.18
   0  -3 -10    1.87    1.01
   0  -3  10    2.84    0.68
   0   3 -10    4.43    0.58
   0   3  10    4.80    0.80
   0   3 -10    3.87    1.18
  -1  -3 -10   66.08    4.56
   1  -3  10   64.50    3.60
  -1   3 -10   62.61    3.30
  -1   3 -10   66.61    4.50
   1   3  10   61.63    3.54
   1   3  10   63.49    3.43
   2  -3  10    9.83    1.14
   2  -3  10    9.86    1.00
  -2  -3 -10    8.32    1.74
   2   3  10    8.46    1.00
   2   3  10   10.77    1.02
  -2   3 -10    7.06    1.64
   2   3  10    9.94    1.16
  -2   3 -10    8.74    0.76
   2   3  10    8.61    1.02
  -3  -3 -10   33.18    3.20
   3  -3  10   33.24    2.21
   3  -3  10   36.59    2.12
   3  -3  10   35.05    2.08
  -3   3 -10   29.55    2.94
   3   3  10   28.85    1.94
   3   3  10   30.22    2.06
   3   3  10   31.26    1.92
   3   3  10   31.71    2.03
   4  -3  10    1.78    0.69
   4  -3  10    1.68    0.55
   4  -3  10    1.70    0.52
   4   3  10    1.82    0.64
   4   3  10    2.85    0.76
   4   3  10    1.89    0.56
  -4   3 -10    2.29    1.17
   4   3  10    1.61    0.65
   5  -3  10   32.24    2.07
   5  -3  10   38.73    2.19
   5  -3  10   32.72    2.30
   5   3  10   27.88    1.99
   5   3  10   30.77    2.09
   5   3  10   29.48    1.94
   5   3  10   30.14    2.19
  -5   3 -10   36.21    3.20
  -4  -4  10   16.09    1.53
   4  -4 -10   16.16    2.48
  -4  -4  10   15.17    1.50
   4  -4 -10   15.93    1.29
   4   4 -10   20.15    1.38
   4   4 -10   18.07    1.38
   4   4 -10   18.73    1.43
  -4   4  10   14.73    1.35
   3  -4 -10    7.75    1.95
  -3  -4  10    9.64    1.23
   3   4 -10    7.83    1.00
  -3   4  10    9.26    1.26
   3   4 -10    6.90    0.95
   2  -4 -10   22.62    2.51
  -2  -4  10   23.24    1.78
  -2   4  10   21.69    1.75
   2   4 -10   21.06    1.51
  -1  -4  10    0.27    0.61
   1  -4 -10    0.82    0.92
   1   4 -10    1.03    0.44
  -1   4  10    1.02    0.66
   0  -4  10   33.43    2.22
   0  -4 -10   33.29    3.09
   0   4 -10   32.53    1.91
   0   4 -10   31.32    2.90
   0   4  10   30.98    2.17
   1  -4  10   -0.72    0.58
  -1   4 -10    0.19    0.85
  -1   4 -10   -0.16    0.36
   1   4  10    0.17    0.62
   2  -4  10   19.57    1.62
   2   4  10   22.57    1.87
  -2   4 -10   26.23    2.74
  -2   4 -10   26.18    1.56
   3  -4  10    0.95    0.64
   3  -4  10    1.59    0.64
   3   4  10    1.04    0.61
   3   4  10    1.10    0.71
   3   4  10    1.69    0.58
  -3   4 -10    1.40    1.06
   6   0 -11    0.59    0.46
   6   0 -11    0.68    0.41
   6   0 -11    0.76    0.42
   6   0 -11    0.51    0.89
  -6   0  11    0.39    0.63
   5   0 -11   45.83    2.50
   5   0 -11   45.41    2.49
  -5   0  11   37.02    2.62
   5   0 -11   46.81    2.47
   5   0 -11   45.12    3.60
   4   0 -11    4.23    1.37
  -4   0  11    3.86    0.71
   4   0 -11    4.75    0.65
   4   0 -11    3.35    0.55
   4   0 -11    3.87    0.55
  -4   0  11    3.20    0.60
   3   0 -11   29.92    2.85
   3   0 -11   37.28    1.95
   3   0 -11   33.58    1.94
  -3   0  11   33.51    1.96
  -3   0  11   28.61    2.02
   3   0 -11   34.57    1.86
   2   0 -11   10.93    1.74
  -2   0  11   10.16    0.96
   2   0 -11   10.50    0.92
  -2   0  11   10.29    1.05
   2   0 -11    9.43    0.89
   2   0 -11   11.06    0.80
  -1   0  11   62.52    3.34
   1   0 -11   57.37    4.14
  -1   0  11   65.97    3.33
   0   0 -11   12.21    1.72
   0   0  11   16.50    1.17
   0   0  11   11.15    1.05
   1   0  11   61.90    3.03
   1   0  11   60.12    3.11
  -1   0 -11   54.17    3.91
   1   0  11   55.93    3.00
   1   0  11   48.90    2.98
   2   0  11    0.28    0.51
   2   0  11    0.72    0.40
  -2   0 -11    0.92    0.86
   2   0  11    0.73    0.41
   3   0  11   38.51    2.20
  -3   0 -11   40.27    3.28
   3   0  11   37.36    2.20
   3   0  11   37.09    2.35
   4   0  11    1.30    0.46
   4   0  11    2.30    0.67
  -4   0 -11    1.64    1.01
   4   0  11    1.95    0.49
  -5   0 -11   40.15    3.60
   5   0  11   42.42    2.40
   5   0  11   41.42    2.38
   5   0  11   43.37    2.67
  -6   0 -11    3.36    1.31
   6  -1 -11   55.09    2.92
  -6  -1  11   47.94    2.95
  -6  -1  11   50.45    3.00
   6  -1 -11   46.65    3.95
   6  -1 -11   49.46    2.81
   6  -1 -11   51.17    2.81
   6   1 -11   48.34    2.78
  -6   1  11   48.95    2.99
   6   1 -11   49.64    2.75
   6   1 -11   51.04    2.75
   5  -1 -11    1.37    0.48
   5  -1 -11    0.77    0.96
  -5  -1  11    1.54    0.56
   5  -1 -11    2.19    0.51
  -5  -1  11    1.54    0.62
   5  -1 -11    1.65    0.51
   5   1 -11    1.77    0.50
  -5   1  11    1.64    0.66
   5   1 -11    2.74    0.52
   5   1 -11    1.51    1.01
   5   1 -11    2.26    0.50
   4  -1 -11   55.26    2.84
  -4  -1  11   47.49    2.89
   4  -1 -11   53.60    2.76
  -4  -1  11   47.65    2.81
   4  -1 -11   53.16    2.78
   4  -1 -11   45.53    3.80
   4   1 -11   54.58    2.67
   4   1 -11   51.33    2.71
  -4   1  11   44.81    2.85
   4   1 -11   42.52    3.60
   4   1 -11   53.00    2.72
   3  -1 -11    5.22    0.74
  -3  -1  11    5.71    0.90
  -3  -1  11    5.82    0.88
   3  -1 -11    5.41    0.81
   3  -1 -11    5.07    0.66
   3  -1 -11    6.84    1.62
  -3   1  11    5.24    0.92
   3   1 -11    6.17    0.76
   3   1 -11    5.62    0.67
   3   1 -11    6.44    1.45
   3   1 -11    6.90    0.77
   2  -1 -11   71.84    3.50
  -2  -1  11   57.89    3.48
  -2  -1  11   63.93    3.47
   2  -1 -11   63.77    4.55
   2  -1 -11   67.92    3.37
   2   1 -11   67.38    3.52
  -2   1  11   68.80    3.62
  -2   1  11   70.11    3.73
   2   1 -11   68.63    3.64
   2   1 -11   70.24    3.64
  -1  -1  11    9.85    1.00
   1  -1 -11   10.67    1.73
  -1  -1  11    9.36    0.96
   1   1 -11   10.14    0.78
  -1   1  11   10.32    0.95
  -1   1  11   10.03    1.06
   1   1 -11   11.46    1.71
   0  -1  11  108.91    5.37
   0  -1  11   99.62    5.45
   0  -1 -11  110.68    6.45
   0   1  11  116.71    5.45
   0   1 -11   94.35    6.25
   0   1  11  106.23    5.42
  -1  -1 -11    2.98    1.04
   1  -1  11    4.81    0.75
   1  -1  11    3.89    0.58
   1   1  11    3.88    0.66
  -1   1 -11    7.37    1.59
   1   1  11    6.00    0.89
   1   1  11    4.97    0.88
  -2  -1 -11   61.43    4.39
   2  -1  11   66.93    3.50
   2  -1  11   67.30    3.62
   2  -1  11   68.15    3.51
  -2   1 -11   64.35    4.58
   2   1  11   65.42    3.58
   2   1  11   65.31    3.47
   2   1  11   67.20    3.54
   2   1  11   64.16    3.50
   3  -1  11    1.95    0.63
   3  -1  11    0.45    0.42
  -3  -1 -11    0.40    0.75
   3  -1  11    0.68    0.42
   3   1  11    1.17    0.61
   3   1  11    0.89    0.45
   3   1  11    0.58    0.47
   3   1  11    0.58    0.48
  -3   1 -11    0.78    0.95
   4  -1  11   59.72    3.54
  -4  -1 -11   79.78    4.83
   4  -1  11   62.55    3.59
   4  -1  11   67.76    3.79
   4   1  11   60.72    3.29
   4   1  11   59.82    3.31
   4   1  11   63.05    3.53
   5  -1  11    8.94    1.22
   5  -1  11    8.41    0.95
  -5  -1 -11    8.46    1.80
   5  -1  11    8.39    1.00
   5   1  11    6.71    0.98
   5   1  11    8.38    1.24
   5   1  11    8.61    0.97
  -5   1 -11    7.86    1.95
  -6  -2  11    2.84    0.73
   6  -2 -11    2.14    1.29
   6  -2 -11    2.19    0.58
   6  -2 -11    1.55    0.57
  -6  -2  11    2.70    0.72
   6   2 -11    3.64    0.64
   6   2 -11    5.36    0.81
  -6   2  11    2.67    0.61
   6   2 -11    2.49    0.55
  -5  -2  11   36.89    2.26
   5  -2 -11   37.30    2.23
  -5  -2  11   36.19    2.30
   5  -2 -11   33.82    3.28
   5  -2 -11   36.22    2.20
   5   2 -11   39.93    2.44
   5   2 -11   40.58    2.40
  -5   2  11   40.36    2.62
   5   2 -11   43.30    3.37
  -5   2  11   42.76    2.40
   5   2 -11   45.74    2.48
  -4  -2  11    4.31    0.73
   4  -2 -11    3.24    0.61
  -4  -2  11    2.91    0.72
   4  -2 -11    3.53    0.65
   4  -2 -11    5.78    1.84
   4   2 -11    2.82    0.58
  -4   2  11    3.26    0.74
   4   2 -11    3.20    0.54
   4   2 -11    3.69    0.62
  -4   2  11    4.07    0.59
   4   2 -11    4.54    1.40
  -3  -2  11   37.02    2.34
   3  -2 -11   36.44    2.34
   3  -2 -11   44.31    2.36
  -3  -2  11   39.60    2.39
   3  -2 -11   41.77    3.52
  -3   2  11   46.07    2.68
   3   2 -11   43.26    2.43
  -3   2  11   49.28    2.76
   3   2 -11   40.44    3.33
   3   2 -11   44.17    2.53
   3   2 -11   45.97    2.57
   2  -2 -11    4.26    1.39
  -2  -2  11    4.60    0.81
  -2  -2  11    4.69    0.87
   2   2 -11    4.43    0.61
   2   2 -11    4.14    1.28
   2   2 -11    2.57    0.57
  -2   2  11    3.02    0.65
  -1  -2  11   77.05    3.95
   1  -2 -11   68.00    4.91
   1   2 -11   84.02    5.26
   1   2 -11   75.35    4.14
  -1   2  11   85.83    4.38
   0  -2  11    5.77    0.94
   0  -2 -11    4.66    1.57
   0   2  11    5.28    0.89
   0   2 -11    5.09    0.64
   0   2  11    5.19    0.97
   0   2 -11    5.42    1.48
   1  -2  11   62.82    3.35
  -1  -2 -11   56.98    4.22
   1   2  11   65.46    3.69
   1   2  11   76.06    3.77
  -1   2 -11   62.50    4.63
   2  -2  11    2.29    0.55
  -2  -2 -11    1.64    0.93
   2  -2  11    1.14    0.62
   2  -2  11    0.95    0.61
  -2   2 -11    1.81    1.04
   2   2  11    1.90    0.62
   2   2  11    2.68    0.68
   2   2  11    1.91    0.58
   2   2  11    1.52    0.54
   3  -2  11   41.49    2.54
  -3  -2 -11   49.24    3.56
   3  -2  11   40.97    2.54
   3  -2  11   41.87    2.64
   3   2  11   49.66    2.73
   3   2  11   45.58    2.71
   3   2  11   46.88    2.84
   4  -2  11    4.45    0.72
   4  -2  11    7.20    0.98
   4  -2  11    6.26    1.12
  -4  -2 -11    5.99    1.55
   4   2  11    5.31    0.78
   4   2  11    5.52    0.95
  -4   2 -11    5.12    1.71
   4   2  11    4.79    0.73
   4   2  11    3.90    0.83
   5  -2  11   44.04    2.53
   5  -2  11   42.61    2.48
   5  -2  11   41.55    2.68
  -5  -2 -11   39.46    3.34
   5   2  11   45.12    2.60
   5   2  11   45.77    2.81
  -5   2 -11   43.32    3.86
   5   2  11   42.11    2.55
  -4  -3  11   24.49    1.73
  -4  -3  11   24.22    1.88
   4  -3 -11   24.58    2.90
   4  -3 -11   28.54    1.81
   4   3 -11   27.34    1.74
   4   3 -11   26.05    1.78
   4   3 -11   26.78    1.69
  -4   3  11   23.66    1.88
  -3  -3  11    1.93    0.58
  -3  -3  11    2.60    0.76
   3  -3 -11    2.72    1.25
   3   3 -11    2.25    0.53
   3   3 -11    3.70    0.66
  -3   3  11    2.40    0.71
   3   3 -11    2.10    1.00
   2  -3 -11   34.97    3.31
  -2  -3  11   36.85    2.34
   2   3 -11   36.89    2.05
  -2   3  11   33.18    2.25
   2   3 -11   31.95    2.91
  -1  -3  11    4.87    0.83
   1  -3 -11    5.53    1.70
   1   3 -11    4.48    0.63
  -1   3  11    3.86    0.80
   1   3 -11    4.76    1.43
   0  -3 -11   29.85    2.97
   0   3 -11   42.31    3.46
   0   3  11   43.31    2.61
   0   3 -11   39.42    2.34
   1  -3  11    4.55    0.84
  -1  -3 -11    4.18    1.34
   1   3  11    3.80    0.74
  -1   3 -11    4.30    0.58
  -1   3 -11    3.58    1.25
   1   3  11    3.47    0.80
   2  -3  11   23.64    1.68
  -2  -3 -11   18.82    2.40
   2   3  11   21.54    1.62
  -2   3 -11   19.42    2.48
   2   3  11   20.02    1.56
   2   3  11   21.87    1.70
   3  -3  11    2.28    0.61
   3  -3  11    2.80    0.77
  -3   3 -11    3.07    1.31
   3   3  11    2.13    0.73
   3   3  11    2.78    0.69
   3   3  11    3.18    0.68
   3   3  11    3.77    0.80
  -2  -4  11    5.12    0.94
   2  -4 -11    3.37    1.33
   1  -4 -11   44.91    3.73
  -1  -4  11   39.21    2.67
   1   4 -11   47.98    2.52
  -1   4  11   36.95    2.67
   0  -4 -11    3.71    1.33
   0  -4  11    6.16    0.98
   0   4 -11    6.82    1.72
   0   4 -11    6.09    0.84
   0   4  11    7.93    1.27
   1  -4  11   27.15    1.99
  -1   4 -11   29.84    3.06
  -1   4 -11   30.32    1.85
   6   0 -12   52.29    4.20
   5   0 -12    7.54    0.88
   5   0 -12    7.20    0.87
   5   0 -12    7.96    0.92
   5   0 -12    7.77    1.80
  -5   0  12    7.43    1.17
   4   0 -12   66.68    3.49
   4   0 -12   71.12    3.53
  -4   0  12   64.24    3.66
   4   0 -12   57.53    4.55
   4   0 -12   68.13    3.45
   3   0 -12    0.28    0.91
   3   0 -12    0.53    0.40
  -3   0  12    0.91    0.54
   3   0 -12    0.18    0.37
  -3   0  12    0.28    0.45
   3   0 -12    0.75    0.35
  -2   0  12   82.53    4.49
   2   0 -12   90.73    5.63
  -2   0  12   82.33    4.42
  -1   0  12    2.11    0.59
  -1   0  12    2.12    0.58
   1   0 -12    2.78    1.09
   0   0 -12   70.16    4.94
   0   0  12   73.74    4.03
   0   0  12   83.26    4.01
  -1   0 -12    3.93    1.34
   1   0  12    4.66    0.83
   1   0  12    5.44    0.87
   2   0  12  102.44    4.95
   2   0  12   92.29    4.77
   2   0  12   83.50    5.02
  -2   0 -12   89.18    5.87
  -3   0 -12    0.89    1.00
   3   0  12    0.33    0.44
   3   0  12    0.58    0.62
   3   0  12    0.72    0.45
   4   0  12   59.84    3.67
  -4   0 -12   68.91    4.85
   4   0  12   62.40    3.48
   4   0  12   68.78    3.51
  -5  -1  12   51.94    3.05
  -5  -1  12   51.38    2.92
   5  -1 -12   48.37    2.82
   5  -1 -12   50.01    2.87
   5  -1 -12   50.03    2.83
   5   1 -12   48.74    2.75
   5   1 -12   50.59    2.75
  -5   1  12   45.46    2.95
   5   1 -12   50.99    2.74
   5   1 -12   49.72    3.90
  -4  -1  12    5.00    0.84
   4  -1 -12    4.94    1.46
   4  -1 -12    6.28    0.78
   4  -1 -12    5.01    0.69
  -4  -1  12    5.87    1.04
   4  -1 -12    6.78    0.91
   4   1 -12    6.46    0.84
   4   1 -12    7.14    0.86
   4   1 -12    5.55    1.53
  -4   1  12    6.11    1.09
   4   1 -12    5.87    0.77
  -3  -1  12   46.81    2.97
  -3  -1  12   52.86    3.01
   3  -1 -12   55.51    4.17
   3  -1 -12   57.46    2.98
  -3   1  12   59.43    3.35
   3   1 -12   58.50    3.10
   3   1 -12   60.47    3.21
   3   1 -12   58.24    4.29
   2  -1 -12    1.57    1.07
  -2  -1  12    1.52    0.60
  -2  -1  12    1.68    0.55
   2   1 -12    1.58    0.39
  -2   1  12    2.12    0.61
   2   1 -12    2.05    1.05
  -2   1  12    2.04    0.54
  -1  -1  12   60.50    3.18
   1  -1 -12   56.08    4.23
  -1  -1  12   57.44    3.23
   1   1 -12   56.95    4.20
  -1   1  12   62.21    3.30
  -1   1  12   58.49    3.23
   0  -1  12   11.13    1.08
   0  -1 -12    7.39    1.60
   0   1  12    8.58    1.04
   0   1 -12    7.80    1.68
   0   1  12    7.98    1.03
   1  -1  12   41.57    2.69
  -1  -1 -12   50.61    3.67
  -1   1 -12   59.17    4.10
   1   1  12   56.09    3.02
   1   1  12   44.14    2.91
   2  -1  12    5.47    0.98
  -2  -1 -12    5.40    1.58
   2  -1  12    4.39    0.67
   2   1  12    3.96    0.69
   2   1  12    4.43    0.74
  -2   1 -12    3.85    1.28
   2   1  12    6.51    1.04
   3  -1  12   59.40    3.24
   3  -1  12   57.15    3.39
  -3  -1 -12   63.77    4.37
   3  -1  12   57.67    3.25
  -3   1 -12   62.42    4.70
   3   1  12   60.45    3.57
   3   1  12   62.40    3.39
   3   1  12   65.45    3.43
   4  -1  12    1.38    0.69
   4  -1  12    0.15    0.45
  -4  -1 -12    1.16    0.98
   4  -1  12    1.68    0.55
  -4   1 -12    1.61    1.19
   4   1  12    1.49    0.75
   4   1  12    1.65    0.55
   4   1  12    1.30    0.53
   5  -2 -12    6.39    1.99
   5   2 -12    7.29    1.61
  -4  -2  12   43.83    2.70
   4  -2 -12   40.38    3.82
   4  -2 -12   45.29    2.66
  -4  -2  12   48.44    2.73
   4   2 -12   43.99    2.60
   4   2 -12   55.22    3.89
   4   2 -12   47.58    2.72
  -4   2  12   42.60    2.84
   4   2 -12   46.94    2.72
  -3  -2  12    1.34    0.67
   3  -2 -12    1.21    1.12
  -3  -2  12    0.95    0.58
  -3   2  12    3.12    0.74
   3   2 -12    3.10    0.61
   3   2 -12    2.70    0.51
   3   2 -12    2.13    1.02
  -2  -2  12   56.74    3.15
  -2  -2  12   52.70    3.11
   2  -2 -12   52.70    4.24
   2   2 -12   56.70    4.14
   2   2 -12   53.57    3.03
  -2   2  12   63.36    3.33
   1  -2 -12    3.79    1.40
  -1  -2  12    2.72    0.71
  -1   2  12    6.08    1.03
   1   2 -12    3.12    1.11
   1   2 -12    4.00    0.60
   0  -2  12   43.84    2.66
   0  -2 -12   44.01    3.60
   0   2  12   49.18    2.82
   0   2  12   45.91    2.77
   0   2 -12   47.72    3.79
  -1  -2 -12    5.90    1.57
   1  -2  12    3.59    0.80
   1   2  12    6.23    1.07
   1   2  12    6.90    1.08
  -1   2 -12    6.77    1.72
  -2  -2 -12   52.37    3.97
   2  -2  12   54.44    3.14
   2   2  12   52.86    3.18
   2   2  12   56.49    3.20
  -2   2 -12   49.83    4.16
   2   2  12   57.68    3.17
   3  -2  12    1.71    0.71
   3  -2  12    1.38    0.57
  -3  -2 -12    2.11    1.09
   3   2  12    1.29    0.63
   3   2  12    2.59    0.64
  -3   2 -12    2.55    1.27
   3   2  12    2.69    0.79
   3   2  12    1.51    0.59
  -4  -2 -12   33.27    3.03
  -3  -3  12   45.02    2.72
   3  -3 -12   39.90    3.87
   3   3 -12   46.31    2.60
  -2  -3  12    0.65    0.71
   2  -3 -12    0.31    1.07
  -2   3  12    1.91    0.71
   2   3 -12    0.79    0.89
   2   3 -12    1.82    0.51
   1  -3 -12   40.29    3.80
  -1  -3  12   49.96    2.81
  -1   3  12   55.59    3.17
   1   3 -12   51.40    3.96
   1   3 -12   52.14    2.91
   0  -3 -12    0.61    1.01
   0  -3  12    1.67    0.68
   0   3 -12    0.71    0.44
   0   3 -12    1.60    1.09
   0   3  12    0.64    0.65
  -1  -3 -12   42.12    3.70
   1  -3  12   43.95    2.69
   1   3  12   52.55    3.09
  -1   3 -12   49.50    4.05
  -2  -3 -12    1.48    1.13
   2  -3  12    0.84    0.67
   2   3  12    0.63    0.64
  -2   3 -12    1.37    1.15
  -4   0  13    0.65    0.61
   4   0 -13   -0.82    0.87
   4   0 -13    0.36    0.40
   4   0 -13    0.42    0.44
   3   0 -13   38.02    3.59
  -3   0  13   48.01    2.62
  -3   0  13   50.05    2.76
  -2   0  13   10.53    1.17
  -2   0  13   10.18    1.06
   2   0 -13    9.38    1.86
   1   0 -13   33.85    3.19
  -1   0  13   38.56    2.33
  -1   0  13   42.91    2.36
   0   0  13    1.42    0.56
   0   0  13    1.88    0.63
   0   0 -13    2.82    1.15
   1   0  13   22.24    1.67
  -2   0 -13    1.06    1.00
   2   0  13    0.15    0.61
  -3   0 -13   18.78    2.54
   3   0  13   24.51    1.72
   3   0  13   18.98    1.50
  -4  -1  13   25.91    1.80
   4  -1 -13   18.24    2.61
  -4  -1  13   25.77    1.84
   4  -1 -13   27.84    1.74
   4   1 -13   27.03    1.66
   4   1 -13   26.17    2.79
   4   1 -13   25.95    1.72
  -3  -1  13    0.27    0.56
   3  -1 -13    0.39    1.03
  -3  -1  13    0.14    0.58
   3   1 -13   -0.29    0.36
   3   1 -13    0.84    0.97
  -3   1  13    0.01    0.58
  -2  -1  13   55.92    3.15
  -2  -1  13   51.38    3.14
   2  -1 -13   59.93    4.39
   2   1 -13   55.67    4.07
  -2   1  13   46.17    2.95
  -1  -1  13    1.64    0.66
   1   1 -13    0.86    0.87
  -1   1  13    0.68    0.55
  -1   1  13    0.04    0.52
   0  -1 -13   33.41    3.18
   0  -1  13   36.35    2.25
   0   1  13   36.28    2.21
   0   1  13   38.51    2.23
   0   1 -13   29.27    2.98
   1  -1  13    1.69    0.69
  -1  -1 -13    0.30    0.89
   1   1  13    1.95    0.64
   1   1  13    1.31    0.61
  -1   1 -13    1.10    1.01
  -2  -1 -13   31.58    3.08
   2  -1  13   36.14    2.24
  -2   1 -13   30.85    3.17
   2   1  13   32.10    2.16
   3  -1  13    0.20    0.49
   3  -1  13    0.79    0.69
  -3  -1 -13    0.68    0.95
  -3   1 -13    0.24    1.08
   3   1  13    0.24    0.52
   3  -2 -13   28.65    3.16
   3   2 -13   31.70    1.93
   3   2 -13   33.96    3.13
   2  -2 -13    5.49    1.80
  -2  -2  13    7.92    1.10
   2   2 -13    5.86    1.60
   2   2 -13    4.08    0.59
  -2   2  13    3.52    0.80
   1  -2 -13   30.25    3.11
  -1  -2  13   28.33    2.01
   1   2 -13   24.02    2.68
  -1   2  13   32.87    2.05
   0  -2 -13    2.80    1.24
   0  -2  13    3.52    0.81
   0   2 -13    0.92    1.02
   0   2  13    0.70    0.63
   1  -2  13   27.96    1.98
  -1  -2 -13   25.83    2.80
   1   2  13   25.27    1.86
  -1   2 -13   24.48    2.79
  -2  -2 -13    0.71    0.93
  -2   2 -13    0.00    1.00
   2   0 -14   29.49    2.96
  -1   0  14   -0.07    0.57
   1   0 -14    0.84    0.93
   0   0  14   46.80    2.82
   0   0 -14   50.89    3.91
  -1   0 -14    0.98    0.96
   1  -1 -14   29.65    3.07
   1   1 -14   35.11    3.22
   0  -1 -14    0.63    1.05
   0   1 -14    1.97    1.17
   0   0   0    0.00    0.00
;
_shelx_hkl_checksum              66120
loop_
_space_group_symop_operation_xyz
'x, y, z'
'-x, y+1/2, -z'
loop_
_atom_site_label
_atom_site_type_symbol
_atom_site_fract_x
_atom_site_fract_y
_atom_site_fract_z
_atom_site_U_iso_or_equiv
_atom_site_adp_type
_atom_site_occupancy
_atom_site_site_symmetry_order
_atom_site_calc_flag
_atom_site_refinement_flags_posn
_atom_site_refinement_flags_adp
C1 C 0.6752(3) 0.6557(5) 0.5982(2) 0.0151(5) Uani 1 1 d . .
H1 H 0.6171 0.7930 0.6347 0.018 Uiso 1 1 calc R U
C2 C 0.6709(3) 0.6374(5) 0.4716(2) 0.0157(5) Uani 1 1 d . .
H2 H 0.6114 0.7608 0.4217 0.019 Uiso 1 1 calc R U
C3 C 0.7554(3) 0.4347(6) 0.42004(19) 0.0132(5) Uani 1 1 d . .
C4 C 0.8426(3) 0.2534(5) 0.4914(2) 0.0148(5) Uani 1 1 d . .
H4 H 0.8996 0.1156 0.4543 0.018 Uiso 1 1 calc R U
C5 C 0.8459(3) 0.2751(5) 0.6178(2) 0.0145(5) Uani 1 1 d . .
H5 H 0.9052 0.1509 0.6673 0.017 Uiso 1 1 calc R U
C6 C 0.7627(3) 0.4778(4) 0.6726(2) 0.0123(6) Uani 1 1 d . .
C7 C 0.7551(3) 0.4959(5) 0.8105(3) 0.0143(5) Uani 1 1 d . .
C8 C 0.5903(3) 0.3749(6) 0.8447(2) 0.0137(5) Uani 1 1 d . .
H8A H 0.4969 0.4644 0.7991 0.016 Uiso 1 1 calc R U
H8B H 0.5881 0.1911 0.8191 0.016 Uiso 1 1 calc R U
C9 C 0.9046(3) 0.3876(6) 0.8844(2) 0.0185(5) Uani 1 1 d . .
H9A H 1.0073 0.4635 0.8558 0.028 Uiso 1 1 calc R U
H9B H 0.9079 0.1992 0.8745 0.028 Uiso 1 1 calc R U
H9C H 0.8954 0.4300 0.9708 0.028 Uiso 1 1 calc R U
O1 O 0.5646(2) 0.3885(5) 0.97157(15) 0.0188(4) Uani 1 1 d . .
H1A H 0.532(4) 0.518(6) 0.985(3) 0.024(9) Uiso 1 1 d . .
F1 F 0.74515(18) 0.7641(3) 0.84017(13) 0.0187(3) Uani 1 1 d . .
Br1 Br 0.74994(2) 0.4047(2) 0.24679(2) 0.01732(9) Uani 1 1 d . .
loop_
_atom_site_aniso_label
_atom_site_aniso_U_11
_atom_site_aniso_U_22
_atom_site_aniso_U_33
_atom_site_aniso_U_23
_atom_site_aniso_U_13
_atom_site_aniso_U_12
C1 0.0163(11) 0.0112(11) 0.0177(14) -0.0015(10) 0.0017(10) 0.0017(9)
C2 0.0182(11) 0.0128(12) 0.0161(14) 0.0030(10) 0.0015(10) 0.0018(9)
C3 0.0135(9) 0.0166(14) 0.0094(11) 0.0013(11) 0.0004(7) -0.0047(10)
C4 0.0151(11) 0.0139(12) 0.0157(13) -0.0027(11) 0.0033(9) -0.0004(9)
C5 0.0154(11) 0.0136(12) 0.0143(13) 0.0016(11) 0.0001(10) 0.0007(10)
C6 0.0107(11) 0.0120(14) 0.0141(13) 0.0002(9) 0.0016(9) -0.0031(8)
C7 0.0207(13) 0.0086(12) 0.0138(15) -0.0028(10) 0.0021(10) -0.0016(9)
C8 0.0161(10) 0.0136(13) 0.0117(11) -0.0003(11) 0.0029(8) -0.0007(9)
C9 0.0183(10) 0.0213(12) 0.0157(12) 0.0003(13) -0.0006(8) -0.0010(11)
O1 0.0265(9) 0.0181(10) 0.0127(8) -0.0009(10) 0.0079(6) 0.0026(9)
F1 0.0309(7) 0.0091(6) 0.0164(8) -0.0024(6) 0.0034(6) -0.0018(6)
Br1 0.01792(13) 0.02314(14) 0.01097(14) -0.00122(12) 0.00145(8) -0.00100(9)
loop_
_atom_type_symbol
_atom_type_description
_atom_type_scat_dispersion_real
_atom_type_scat_dispersion_imag
_atom_type_scat_source
C C 0.0033 0.0016 'International Tables Vol C Tables 4.2.6.8 and 6.1.1.4'
H H 0.0000 0.0000 'International Tables Vol C Tables 4.2.6.8 and 6.1.1.4'
Br Br -0.2901 2.4595 'International Tables Vol C Tables 4.2.6.8 and 6.1.1.4'
F F 0.0171 0.0103 'International Tables Vol C Tables 4.2.6.8 and 6.1.1.4'
O O 0.0106 0.0060 'International Tables Vol C Tables 4.2.6.8 and 6.1.1.4'
loop_
_geom_angle_atom_site_label_1
_geom_angle_atom_site_label_2
_geom_angle_atom_site_label_3
_geom_angle
C2 C1 C6 121.5(2)
C2 C1 H1 119.2
C6 C1 H1 119.2
C3 C2 C1 118.4(2)
C3 C2 H2 120.8
C1 C2 H2 120.8
C4 C3 C2 121.6(2)
C4 C3 Br1 119.4(2)
C2 C3 Br1 119.1(2)
C3 C4 C5 119.3(2)
C3 C4 H4 120.4
C5 C4 H4 120.4
C4 C5 C6 120.6(2)
C4 C5 H5 119.7
C6 C5 H5 119.7
C1 C6 C5 118.7(2)
C1 C6 C7 119.7(2)
C5 C6 C7 121.5(2)
F1 C7 C9 106.8(2)
F1 C7 C6 107.03(19)
C9 C7 C6 115.7(2)
F1 C7 C8 106.3(2)
C9 C7 C8 112.7(2)
C6 C7 C8 107.8(2)
O1 C8 C7 113.4(2)
O1 C8 H8A 108.9
C7 C8 H8A 108.9
O1 C8 H8B 108.9
C7 C8 H8B 108.9
H8A C8 H8B 107.7
C7 C9 H9A 109.5
C7 C9 H9B 109.5
H9A C9 H9B 109.5
C7 C9 H9C 109.5
H9A C9 H9C 109.5
H9B C9 H9C 109.5
C8 O1 H1A 108(3)
loop_
_geom_bond_atom_site_label_1
_geom_bond_atom_site_label_2
_geom_bond_distance
C1 C2 1.390(4)
C1 C6 1.391(4)
C1 H1 0.9500
C2 C3 1.386(4)
C2 H2 0.9500
C3 C4 1.383(4)
C3 Br1 1.905(2)
C4 C5 1.390(3)
C4 H4 0.9500
C5 C6 1.396(4)
C5 H5 0.9500
C6 C7 1.521(5)
C7 F1 1.427(3)
C7 C9 1.514(4)
C7 C8 1.528(3)
C8 O1 1.421(3)
C8 H8A 0.9900
C8 H8B 0.9900
C9 H9A 0.9800
C9 H9B 0.9800
C9 H9C 0.9800
O1 H1A 0.74(3)
loop_
_geom_hbond_atom_site_label_D
_geom_hbond_atom_site_label_H
_geom_hbond_atom_site_label_A
_geom_hbond_distance_DH
_geom_hbond_distance_HA
_geom_hbond_distance_DA
_geom_hbond_angle_DHA
_geom_hbond_site_symmetry_A
O1 H1A O1 0.74(3) 2.13(3) 2.8651(16) 178(3) 2_657
loop_
_geom_torsion_atom_site_label_1
_geom_torsion_atom_site_label_2
_geom_torsion_atom_site_label_3
_geom_torsion_atom_site_label_4
_geom_torsion
C6 C1 C2 C3 0.5(4)
C1 C2 C3 C4 0.0(4)
C1 C2 C3 Br1 179.63(19)
C2 C3 C4 C5 -0.1(4)
Br1 C3 C4 C5 -179.77(18)
C3 C4 C5 C6 -0.2(4)
C2 C1 C6 C5 -0.8(4)
C2 C1 C6 C7 -176.2(2)
C4 C5 C6 C1 0.7(4)
C4 C5 C6 C7 176.0(2)
C1 C6 C7 F1 -34.4(3)
C5 C6 C7 F1 150.32(19)
C1 C6 C7 C9 -153.3(3)
C5 C6 C7 C9 31.4(3)
C1 C6 C7 C8 79.6(2)
C5 C6 C7 C8 -95.7(3)
F1 C7 C8 O1 -63.3(3)
C9 C7 C8 O1 53.4(3)
C6 C7 C8 O1 -177.7(2)
