#------------------------------------------------------------------------------
#$Date: 2015-07-10 23:18:58 +0300 (Fri, 10 Jul 2015) $
#$Revision: 143323 $
#$URL: svn://www.crystallography.net/cod/cif/1/51/93/1519369.cif $
#------------------------------------------------------------------------------
#
# This file is available in the Crystallography Open Database (COD),
# http://www.crystallography.net/
#
# All data on this site have been placed in the public domain by the
# contributors.
#
data_1519369
loop_
_publ_author_name
'Bedin, Michele'
'Karim, Alavi'
'Reitti, Marcus'
'Carlsson, Anna-Carin C.'
'Topi\'c, Filip'
'Cetina, Mario'
'Pan, Fangfang'
'Havel, Vaclav'
'Al-Ameri, Fatima'
'Sindelar, Vladimir'
'Rissanen, Kari'
'Gr\"afenstein, J\"urgen'
'Erd\'elyi, M\'at\'e'
_publ_section_title
;
 Counterion influence on the N--I--N halogen bond
;
_journal_issue                   7
_journal_name_full               'Chem. Sci.'
_journal_page_first              3746
_journal_paper_doi               10.1039/C5SC01053E
_journal_volume                  6
_journal_year                    2015
_chemical_formula_moiety         'C10 H10 I N2 +, F6 Sb -'
_chemical_formula_sum            'C10 H10 F6 I N2 Sb'
_chemical_formula_weight         520.85
_chemical_name_systematic        '[bis(pyridine)iodine]hexafluoroantimonate'
_chemical_properties_physical    Moisture-sensitive
_space_group_crystal_system      triclinic
_space_group_IT_number           2
_space_group_name_Hall           '-P 1'
_space_group_name_H-M_alt        'P -1'
_symmetry_space_group_name_Hall  '-P 1'
_symmetry_space_group_name_H-M   'P -1'
_atom_sites_solution_hydrogens   geom
_atom_sites_solution_primary     iterative
_atom_sites_solution_secondary   difmap
_audit_creation_method           SHELXL-2013
_audit_update_record
;
2015-03-23 deposited with the CCDC.
2015-04-20 downloaded from the CCDC.
;
_cell_angle_alpha                91.775(4)
_cell_angle_beta                 101.402(5)
_cell_angle_gamma                96.682(4)
_cell_formula_units_Z            1
_cell_length_a                   6.9674(4)
_cell_length_b                   7.1797(3)
_cell_length_c                   7.7358(4)
_cell_measurement_reflns_used    1510
_cell_measurement_temperature    173.0(1)
_cell_measurement_theta_max      29.0330
_cell_measurement_theta_min      4.0240
_cell_volume                     376.18(3)
_computing_cell_refinement
;
CrysAlisPro, Agilent Technologies,
Version 1.171.36.28 (release 01-02-2013 CrysAlis171 .NET)
(compiled Feb  1 2013,16:14:44)
;
_computing_data_collection
;
CrysAlisPro, Agilent Technologies,
Version 1.171.36.28 (release 01-02-2013 CrysAlis171 .NET)
(compiled Feb  1 2013,16:14:44)
;
_computing_data_reduction
;
CrysAlisPro, Agilent Technologies,
Version 1.171.36.28 (release 01-02-2013 CrysAlis171 .NET)
(compiled Feb  1 2013,16:14:44)
;
_computing_publication_material  'WinGX (Farrugia, 2012)'
_computing_structure_refinement  'SHELXL-2013 (Sheldrick, 2008)'
_computing_structure_solution    'Superflip (Palatinus & Chapuis, 2007)'
_diffrn_ambient_temperature      173.0(1)
_diffrn_detector_area_resol_mean 5.1977
_diffrn_measured_fraction_theta_full 0.989
_diffrn_measured_fraction_theta_max 0.989
_diffrn_measurement_device_type  'SuperNova, Dual, Cu at zero, Atlas'
_diffrn_measurement_method       '\w scans'
_diffrn_radiation_monochromator  mirror
_diffrn_radiation_source         'SuperNova (Mo) X-ray Source'
_diffrn_radiation_type           MoK\a
_diffrn_radiation_wavelength     0.71073
_diffrn_reflns_av_R_equivalents  0.0205
_diffrn_reflns_av_unetI/netI     0.0319
_diffrn_reflns_laue_measured_fraction_full 0.989
_diffrn_reflns_laue_measured_fraction_max 0.989
_diffrn_reflns_limit_h_max       8
_diffrn_reflns_limit_h_min       -8
_diffrn_reflns_limit_k_max       8
_diffrn_reflns_limit_k_min       -7
_diffrn_reflns_limit_l_max       8
_diffrn_reflns_limit_l_min       -9
_diffrn_reflns_number            2255
_diffrn_reflns_point_group_measured_fraction_full 0.989
_diffrn_reflns_point_group_measured_fraction_max 0.989
_diffrn_reflns_theta_full        25.250
_diffrn_reflns_theta_max         25.244
_diffrn_reflns_theta_min         3.818
_exptl_absorpt_coefficient_mu    3.939
_exptl_absorpt_correction_T_max  1.00000
_exptl_absorpt_correction_T_min  0.77955
_exptl_absorpt_correction_type   multi-scan
_exptl_absorpt_process_details
;
CrysAlisPro, Agilent Technologies,
Version 1.171.36.28 (release 01-02-2013 CrysAlis171 .NET)
(compiled Feb  1 2013,16:14:44)
Empirical absorption correction using spherical harmonics,
implemented in SCALE3 ABSPACK scaling algorithm.
;
_exptl_crystal_colour            colourless
_exptl_crystal_density_diffrn    2.299
_exptl_crystal_density_method    'not measured'
_exptl_crystal_description       plate
_exptl_crystal_F_000             242
_exptl_crystal_size_max          0.295
_exptl_crystal_size_mid          0.262
_exptl_crystal_size_min          0.094
_refine_diff_density_max         0.913
_refine_diff_density_min         -0.613
_refine_diff_density_rms         0.100
_refine_ls_extinction_method     none
_refine_ls_goodness_of_fit_ref   1.093
_refine_ls_hydrogen_treatment    constr
_refine_ls_matrix_type           full
_refine_ls_number_parameters     94
_refine_ls_number_reflns         1357
_refine_ls_number_restraints     0
_refine_ls_restrained_S_all      1.093
_refine_ls_R_factor_all          0.0268
_refine_ls_R_factor_gt           0.0218
_refine_ls_shift/su_max          0.000
_refine_ls_shift/su_mean         0.000
_refine_ls_structure_factor_coef Fsqd
_refine_ls_weighting_details
'w=1/[\s^2^(Fo^2^)+(0.0292P)^2^+0.0419P] where P=(Fo^2^+2Fc^2^)/3'
_refine_ls_weighting_scheme      calc
_refine_ls_wR_factor_gt          0.0562
_refine_ls_wR_factor_ref         0.0638
_reflns_Friedel_coverage         0.000
_reflns_number_gt                1123
_reflns_number_total             1357
_reflns_threshold_expression     'I > 2\s(I)'
_cod_data_source_file            c5sc01053e2.cif
_cod_data_source_block           4-I
_cod_depositor_comments
'Adding full bibliography for 1519367--1519381.cif.'
_cod_database_code               1519369
_shelx_space_group_comment
;
The symmetry employed for this shelxl refinement is uniquely defined
by the following loop, which should always be used as a source of
symmetry information in preference to the above space-group names.
They are only intended as comments.
;
_shelx_estimated_absorpt_t_min   0.389
_shelx_estimated_absorpt_t_max   0.708
_shelxl_version_number           2013-4
_shelx_res_file
;
TITL  I(py)2SbF6
CELL  0.71073   6.9674   7.1797   7.7358   91.775  101.402   96.682
ZERR     1.00   0.0004   0.0003   0.0004    0.004    0.005    0.004
LATT   1

SFAC  C    H    F    I    N    SB
UNIT  10   10   6    1    2    1

OMIT -3.00 50.50

ACTA 50.50
L.S. 12
PLAN 25
FMAP 2
MERG 2
BOND $H
CONF

SIZE 0.094 0.262 0.295
TEMP -100

WGHT    0.029200    0.041900
FVAR       7.44802
MOLE    1
C2A   1    0.297466    0.401717    0.102725    11.00000    0.02617    0.03893 =
         0.03201    0.00045    0.00778   -0.00232
AFIX  43
H2A   2    0.311751    0.278495    0.140392    11.00000   -1.20000
AFIX   0
C3A   1    0.220567    0.425617   -0.071450    11.00000    0.02690    0.05685 =
         0.02635   -0.00750    0.00561   -0.00146
AFIX  43
H3A   2    0.183625    0.320539   -0.153920    11.00000   -1.20000
AFIX   0
C4A   1    0.197919    0.603154   -0.124503    11.00000    0.03423    0.06622 =
         0.02397    0.00678    0.00616    0.01248
AFIX  43
H4A   2    0.144911    0.622434   -0.244570    11.00000   -1.20000
AFIX   0
C5A   1    0.252249    0.753633   -0.003206    11.00000    0.03968    0.05068 =
         0.03608    0.01381    0.00622    0.01316
AFIX  43
H5A   2    0.235596    0.877488   -0.037848    11.00000   -1.20000
AFIX   0
C6A   1    0.331328    0.721380    0.169594    11.00000    0.03470    0.03853 =
         0.03162   -0.00045    0.00467    0.00740
AFIX  43
H6A   2    0.371222    0.824817    0.253686    11.00000   -1.20000
AFIX   0
N1A   5    0.353052    0.548368    0.221291    11.00000    0.02275    0.03997 =
         0.02160    0.00097    0.00416    0.00108
I1A   4    0.500000    0.500000    0.500000    10.50000    0.02384    0.03485 =
         0.02014    0.00263    0.00356    0.00101
MOLE    2
F1B   3    0.249157    0.032642    0.648818    11.00000    0.03876    0.04899 =
         0.05685    0.00755   -0.01336   -0.00398
F2B   3   -0.024261    0.254126    0.539438    11.00000    0.06102    0.02746 =
         0.04177   -0.00232    0.00177    0.00435
F3B   3    0.111078    0.058274    0.303715    11.00000    0.07225    0.05144 =
         0.04276    0.01380    0.02832    0.00900
SB1B  6    0.000000    0.000000    0.500000    10.50000    0.02877    0.02345 =
         0.02136    0.00138    0.00150   -0.00115
HKLF    4

REM   I(py)2SbF6
REM R1 =  0.0218 for    1123 Fo > 4sig(Fo)  and  0.0268 for all    1357 data
REM     94 parameters refined using      0 restraints

END

WGHT      0.0292      0.0419

REM Highest difference peak  0.913,  deepest hole -0.613,  1-sigma level  0.100
Q1    1   0.0449  0.0571  0.3976  11.00000  0.05    0.91
Q2    1   0.4563  0.4372  0.6058  11.00000  0.05    0.80
Q3    1   0.3966  0.5744  0.5260  11.00000  0.05    0.39
Q4    1   0.2402  0.2054  0.6243  11.00000  0.05    0.37
Q5    1   0.1392 -0.0098  0.6406  11.00000  0.05    0.36
Q6    1   0.3641  0.5219  0.3539  11.00000  0.05    0.35
Q7    1   0.3581 -0.0428  0.6445  11.00000  0.05    0.32
Q8    1   0.3436  0.7573  0.2304  11.00000  0.05    0.32
Q9    1   0.2300  0.2288  0.4093  11.00000  0.05    0.31
Q10   1   0.1309  0.2501  0.5882  11.00000  0.05    0.31
Q11   1   0.2664  0.2590  0.3999  11.00000  0.05    0.31
Q12   1  -0.0353  0.2429  0.5857  11.00000  0.05    0.30
Q13   1   0.3048  0.5282  0.2288  11.00000  0.05    0.30
Q14   1   0.3655  0.6576  0.3831  11.00000  0.05    0.29
Q15   1   0.1019 -0.0588  0.4905  11.00000  0.05    0.29
Q16   1  -0.1891  0.3191  0.5509  11.00000  0.05    0.29
Q17   1   0.2960 -0.1470  0.7196  11.00000  0.05    0.27
Q18   1   0.1519 -0.0516  0.7664  11.00000  0.05    0.27
Q19   1   0.2349  0.4639  0.3329  11.00000  0.05    0.26
Q20   1   0.2683  0.0596  0.5450  11.00000  0.05    0.26
Q21   1   0.0536  0.0191  0.2580  11.00000  0.05    0.26
Q22   1  -0.1407  0.4355  0.6268  11.00000  0.05    0.26
Q23   1   0.5063  0.6877  0.2860  11.00000  0.05    0.26
Q24   1   0.1665  0.7653 -0.2160  11.00000  0.05    0.25
Q25   1   0.2929  0.4170 -0.0289  11.00000  0.05    0.25
;
_shelx_res_checksum              49697
_shelx_hkl_file
;
   0   0   2 361364. 7724.42   2
   0   0  -2 356559. 7801.94   3
   0   0   3 302296. 6739.00   2
   0   0  -3 298714. 6671.90   2
   0   0  -3 298767. 6878.74   3
   0   0  -4 217506. 5246.52   2
   0   0  -4 215398. 5511.16   3
   0   0  -5 215881. 5395.16   2
   0   0  -5 215761. 5701.28   3
   0   0   6 156116. 4201.97   2
   0   0  -6 144035. 4360.76   3
   0   0  -7 90364.0 3260.63   3
   0   0  -7 87126.5 2890.60   2
   0   0   7 97135.9 3065.94   2
   0   0  -8 59430.7 2661.42   3
   0   0   8 65491.0 2462.65   2
   0   0  -8 60632.8 2354.14   2
   0   0  -9 31237.2 1906.27   3
   0   1  -9 254.561 153.654   2
   0   1  -9 227.100 154.058   3
   0   1  -8 299.930 162.584   3
   0   1  -8 80.9855 64.3130   2
   0   1  -7-67.2315 127.827   2
   0  -1   7 46.3787 60.1267   2
   0   1  -7 33.3856 40.2853   3
   0   1  -6 2252.14 376.933   3
   0  -1   6 2366.61 386.921   2
   0   1  -6 2473.37 387.650   2
   0  -1   5 2177.89 352.932   2
   0   1  -5 2462.48 367.048   3
   0   1  -4 9282.99 674.592   2
   0  -1   4 10137.4 722.920   2
   0   1  -3 40986.6 1501.02   2
   0  -1   3 45687.9 1600.96   2
   0  -1   2 1547.03 225.096   2
   0  -1   1 97589.5 2421.78   2
   0   1   1 44158.4 1044.20   1
   0  -1  -1 45412.1 1297.21   3
   0   1   2 15711.2 484.381   2
   0  -1  -2 15870.2 527.551   1
   0  -1  -2 14776.3 720.302   3
   0  -1  -3 66184.8 1652.25   2
   0  -1  -3 63848.7 2057.51   3
   0   1   3 68959.9 2135.51   3
   0   1   3 63761.1 1676.48   2
   0   1   4 13847.2 661.637   2
   0  -1  -4 13752.5 618.051   2
   0  -1  -4 13198.7 865.548   3
   0  -1  -5 1497.08 215.365   2
   0   1   5 1372.51 225.272   2
   0  -1  -5 779.216 219.814   3
   0  -1  -6 4479.41 419.055   2
   0  -1  -6 4356.14 582.748   3
   0   1   6 4729.34 453.692   2
   0   1   7 6201.44 555.775   2
   0  -1  -7 5546.92 703.968   3
   0  -1  -8 1112.96 332.636   3
   0  -1  -8 1077.33 258.186   1
   0  -1  -9-44.1477 92.1451   3
   0  -1 -10 810.176 335.990   3
   0   2  -9 48969.5 2436.72   2
   0   2  -9 45996.9 2264.42   3
   0   2  -8 66259.2 2702.90   3
   0   2  -8 61000.9 2693.53   2
   0   2  -7 90814.2 3312.45   2
   0   2  -7 92976.3 3191.62   3
   0   2  -6 117621. 3765.10   2
   0  -2   6 113926. 3754.89   2
   0  -2   5 166222. 4746.83   2
   0   2  -5 166584. 4725.14   2
   0  -2   4 149790. 4230.21   2
   0  -2   3 197110. 5040.68   2
   0  -2   2 100752. 2849.35   2
   0  -2   1 338253. 7567.34   2
   0   2   0 488644. 10435.1   1
   0   2   0 464584. 10455.6   2
   0  -2  -1 425818. 8873.92   1
   0  -2  -1 416437. 9224.33   3
   0   2   1 425421. 8849.56   1
   0   2   1 417898. 8882.39   2
   0   2   2 163488. 3665.57   1
   0  -2  -2 168803. 3687.68   1
   0  -2  -2 169385. 4265.82   3
   0  -2  -3 88858.0 2155.32   1
   0  -2  -3 87390.6 2744.51   3
   0   2   3 88643.9 2042.70   2
   0   2   3 90748.0 2795.52   3
   0  -2  -4 140151. 3246.29   1
   0   2   4 144288. 4083.96   3
   0  -2  -4 136136. 3970.41   3
   0   2   4 130294. 3119.40   2
   0  -2  -5 220546. 5125.78   1
   0   2   5 225177. 5043.86   2
   0   2   6 69106.1 1942.14   2
   0  -2  -6 69388.1 2091.61   1
   0  -2  -7 121811. 3351.06   1
   0  -2  -7 114627. 4152.77   3
   0   2   7 122164. 3128.51   2
   0  -2  -8 45491.3 2449.09   3
   0  -2  -9 23377.1 1800.56   3
   0  -2 -10 28889.6 2094.85   3
   0   3 -10 75.7632 162.672   2
   0   3  -9 323.396 168.589   2
   0   3  -8-161.022 138.717   2
   0   3  -8-41.9333 51.9948   3
   0   3  -7 1990.05 438.290   2
   0   3  -6 6518.43 767.765   2
   0   3  -5 1473.89 345.883   2
   0  -3   5 1113.37 295.181   2
   0  -3   4 7727.81 739.645   2
   0  -3   3 7533.17 677.326   2
   0  -3   2 12.9679 86.3488   2
   0   3  -1 1337.22 255.828   2
   0  -3   1 1451.66 245.015   2
   0   3   0 16634.6 797.485   1
   0   3   0 16226.5 831.493   2
   0  -3  -1 14512.0 845.814   3
   0   3   1 14323.5 651.109   1
   0   3   1 12870.2 660.992   2
   0   3   2 846.204 129.792   1
   0  -3  -2 1353.22 265.542   3
   0   3   2 890.313 143.934   2
   0  -3  -2 894.329 141.621   1
   0   3   3 163.526 60.6109   2
   0  -3  -3 340.448 150.792   3
   0   3   3 308.852 79.6035   1
   0  -3  -3 358.566 89.4424   1
   0   3   4 613.187 80.4503   2
   0  -3  -4 1090.09 287.781   3
   0  -3  -4 701.092 118.704   1
   0   3   4 803.764 250.471   3
   0   3   5 669.207 215.197   3
   0  -3  -5 761.488 267.234   3
   0  -3  -5 349.620 88.1716   1
   0  -3  -6 15102.3 699.565   1
   0  -3  -6 14970.3 1244.70   3
   0  -3  -7 15.6952 28.5334   1
   0  -3  -7-15.6067 120.235   3
   0  -3  -8 49.2964 139.248   3
   0  -3  -9 133.956 146.018   3
   0   4  -9 39016.7 2436.80   2
   0   4  -8 38061.3 2308.00   2
   0   4  -7 56925.6 2783.23   2
   0   4  -6 118547. 4269.20   2
   0   4  -5 50187.0 2389.25   2
   0  -4   4 188860. 5527.64   2
   0   4  -4 198384. 5686.35   2
   0   4  -3 197776. 5519.03   2
   0  -4   3 191092. 5400.13   2
   0   4  -2 197530. 5355.03   2
   0  -4   2 188984. 5205.01   2
   0   4  -1 255476. 6425.69   1
   0  -4   1 262437. 6497.88   2
   0   4  -1 263935. 6647.63   2
   0   4   0 347358. 7973.46   1
   0   4   0 337210. 8147.17   2
   0   4   1 304674. 7360.65   2
   0   4   1 328705. 7286.20   1
   0  -4  -2 211964. 5536.34   3
   0   4   2 206059. 4735.90   1
   0   4   3 97731.3 2601.59   2
   0   4   3 104316. 2571.92   1
   0   4   3 106551. 3510.69   3
   0  -4  -3 105952. 3485.85   3
   0   4   4 118041. 2565.82   2
   0  -4  -4 122088. 2826.00   1
   0  -4  -5 92966.8 3458.62   3
   0  -4  -5 88385.7 2218.18   1
   0  -4  -6 51168.6 1369.23   1
   0  -4  -6 72300.6 2968.19   3
   0  -4  -7 38663.0 2290.24   3
   0  -4  -8 28192.8 2036.98   3
   0   5  -8 2634.97 582.373   2
   0   5  -7 269.654 212.411   2
   0   5  -6 1794.27 453.068   2
   0   5  -5 1483.61 385.002   2
   0   5  -4 725.930 291.751   2
   0   5  -3 545.503 213.125   1
   0   5  -3 974.243 280.666   2
   0  -5   3 1005.69 292.349   2
   0   5  -2 611.643 191.978   3
   0   5  -2 683.324 199.045   1
   0   5  -2 814.650 253.124   2
   0  -5   2 953.956 266.212   2
   0   5  -1 907.590 253.752   2
   0   5  -1 1470.20 321.315   3
   0   5  -1 1183.16 266.694   1
   0   5   0 3391.70 435.507   1
   0   5   0 3326.22 475.392   3
   0   5   0 3140.45 462.851   2
   0   5   1 3587.81 522.966   3
   0   5   1 3135.57 428.514   2
   0   5   1 3469.49 405.544   1
   0   5   2 1409.78 334.315   3
   0   5   2 1034.15 199.947   1
   0   5   2 1014.80 230.260   2
   0  -5  -3 1579.63 375.252   3
   0   5   3 1614.51 246.863   2
   0   5   3 1876.02 237.671   1
   0  -5  -4 4145.06 648.726   3
   0   5   4 2943.23 254.117   2
   0  -5  -5 53.7639 86.8596   3
   0  -5  -6-55.3714 111.801   3
   0  -5  -7-4.01530 56.9425   3
   0   6  -7 36521.2 2435.87   2
   0   6  -6 35174.4 2301.34   2
   0   6  -5 38146.3 2334.32   2
   0   6  -4 51738.9 2642.52   2
   0   6  -3 69270.3 3050.71   2
   0   6  -3 70383.7 2760.33   3
   0   6  -2 81852.3 3259.58   2
   0   6  -2 82253.1 3057.51   3
   0   6  -1 70107.1 2723.94   1
   0   6  -1 70054.1 2742.80   3
   0   6  -1 64863.1 2748.25   2
   0   6   0 38621.1 1765.31   1
   0   6   0 35350.4 1835.78   2
   0   6   1 119988. 3491.85   1
   0   6   1 110337. 3624.90   2
   0   6   2 37775.4 1528.40   1
   0   6   2 37185.3 1675.60   2
   0   6   3 48953.6 1664.31   1
   0   6   3 47778.5 1772.99   2
   0  -6  -4 54944.7 2773.89   3
   0   6   4 56375.7 1686.86   2
   0  -6  -5 39099.9 2381.46   3
   0  -6  -6 35405.1 2372.25   3
   0   7  -6 243.524 227.880   2
   0   7  -5-105.361 217.206   2
   0   7  -4 33.6319 98.7859   2
   0   7  -3 1900.24 477.476   2
   0   7  -2-237.679 206.929   2
   0   7  -1 578.676 208.215   2
   0   7   0 1284.78 333.784   2
   0   7   1 73.3169 58.5650   2
   0   7   1 83.6181 88.1378   1
   0   7   2 1806.14 371.712   2
   0   7   2 1087.23 254.258   1
   0   7   3 1913.75 323.479   2
   0   8  -4 27922.5 2146.47   2
   0   8  -3 35485.2 2363.95   2
   0   8  -2 48941.0 2715.11   2
   0   8  -1 33650.8 2124.72   2
   0   8   0 34003.6 2044.16   2
   0   8   1 33220.7 1907.64   2
   0   8   2 31980.8 1747.29   2
   0   9  -3 1032.49 418.023   2
   0   9  -2 752.981 316.733   2
   0   9  -1 1055.30 396.504   2
   0   9   0 46.6555 94.9596   2
  -1   9   0 13106.3 1269.11   2
  -1   9  -1 18064.1 1585.98   2
  -1   9  -2 21451.2 1814.93   2
  -1   9  -3 21138.2 1868.23   2
  -1   8   2 1344.19 313.215   2
  -1   8   1 1255.45 329.538   2
  -1   8   0 3135.55 570.600   2
  -1   8  -1 305.001 185.727   2
  -1   8  -2 742.481 308.279   2
  -1   8  -3 831.193 294.862   2
  -1   8  -4 170.075 157.479   2
   1  -7  -5 39163.5 2507.55   3
   1  -7  -4 30602.2 2096.29   3
  -1   7   3 42974.4 1618.87   2
  -1   7   2 72547.6 2405.77   1
  -1   7   2 71092.4 2553.93   2
  -1   7   1 68250.7 2488.09   1
  -1   7   1 65430.7 2611.64   2
  -1   7   0 54669.9 2511.83   2
  -1   7   0 62072.6 2484.08   1
  -1   7  -1 48764.5 2424.82   2
  -1   7  -2 46752.0 2460.52   2
  -1   7  -3 31389.2 1731.82   3
  -1   7  -3 32751.1 2085.15   2
  -1   7  -4 41907.7 2499.33   2
  -1   7  -5 21892.7 1825.86   2
  -1   7  -6 32338.6 2315.57   2
   1  -6  -7 305.220 223.078   3
   1  -6  -6 1079.24 370.721   3
   1  -6  -5 360.427 215.034   3
   1  -6  -4 268.674 193.659   3
   1  -6  -3 79.8599 108.882   3
  -1   6   3 38.8263 28.4111   2
  -1   6   3-28.6630 54.3479   1
  -1   6   2 209.452 98.5795   1
  -1   6   2 59.8383 66.3933   2
  -1   6   1 48.7375 72.7625   1
  -1   6   1 101.571 69.7869   2
  -1   6   0 1134.63 282.366   3
  -1   6   0 897.173 258.161   2
  -1   6   0 1181.38 264.866   1
  -1   6  -1 1502.86 343.041   1
  -1   6  -1 1074.98 263.382   3
  -1   6  -1 1372.67 338.544   2
   1  -6   1 991.817 263.429   2
  -1   6  -2 5148.86 710.409   2
  -1   6  -2 5276.57 608.072   3
  -1   6  -3 112.603 78.0498   2
  -1   6  -3 80.3993 75.7152   3
  -1   6  -4 35.1250 59.2939   2
  -1   6  -4 99.2469 80.2333   3
  -1   6  -5-42.4433 127.841   2
  -1   6  -6-129.424 219.388   2
  -1   6  -7 145.071 160.780   2
   1  -5  -8 14482.0 1514.94   3
   1  -5  -7 35803.5 2317.74   3
   1  -5  -6 33817.0 2138.10   3
   1  -5  -5 55947.9 2695.24   3
   1  -5  -4 46701.5 2306.62   3
  -1   5   3 52079.7 1482.39   1
  -1   5   3 55123.5 1564.82   2
   1  -5  -3 56487.1 2448.91   3
  -1   5   2 98590.4 3451.28   3
  -1   5   2 102336. 2693.84   1
  -1   5   2 94902.6 2783.83   2
   1  -5  -2 103086. 3437.22   3
  -1   5   1 214259. 5208.17   1
  -1   5   1 213792. 5744.33   3
   1  -5  -1 213400. 5632.75   3
   1  -5   0 142224. 4033.58   2
  -1   5   0 148698. 4092.14   1
  -1   5   0 148421. 4225.83   3
  -1   5  -1 87447.1 3074.50   2
   1  -5   1 87189.4 2980.23   2
  -1   5  -2 103838. 3571.21   2
   1  -5   2 103463. 3504.78   2
  -1   5  -3 108201. 3823.40   2
  -1   5  -4 75652.2 3133.28   2
  -1   5  -5 123917. 4468.87   2
  -1   5  -6 63785.8 3060.63   2
  -1   5  -7 43906.8 2576.72   2
  -1   5  -8 33935.8 2323.55   2
   1  -4  -8-105.530 108.371   3
   1  -4  -7 289.454 193.966   3
   1  -4  -6 591.109 281.922   3
   1  -4  -5-9.71305 72.3926   3
   1  -4  -4 1071.93 322.756   3
  -1   4   4 1239.30 334.644   3
  -1   4   3 45.2877 22.8968   2
   1  -4  -3-7.94202 93.7669   3
  -1   4   3 69.0937 98.1803   3
  -1   4   3-10.0824 14.4554   1
  -1   4   2 4067.18 307.199   1
   1  -4  -2 4193.98 505.499   3
  -1   4   2 3755.94 321.919   2
  -1   4   1 20812.2 1002.86   2
   1  -4  -1 22063.1 1162.36   3
   1  -4  -1 24128.6 1025.13   2
  -1   4   1 22937.0 969.235   1
  -1   4   0 13969.2 863.998   2
  -1   4   0 16415.6 944.007   3
   1  -4   0 15292.3 888.406   2
   1  -4   1 18224.1 1075.25   2
  -1   4  -1 20054.1 995.023   3
  -1   4  -1 18459.8 1093.90   2
  -1   4  -2 6612.95 684.675   2
   1  -4   2 7442.65 716.776   2
  -1   4  -2 7898.34 574.861   3
  -1   4  -3 2839.39 466.526   2
   1  -4   3 1695.95 364.789   2
   1  -4   4 11374.9 1024.47   2
  -1   4  -4 11058.4 994.472   2
  -1   4  -5 1498.19 395.361   2
  -1   4  -6 21.8922 72.4384   2
  -1   4  -7 288.776 211.216   2
  -1   4  -7 148.568 125.793   3
  -1   4  -8-423.319 232.729   2
  -1   4  -9 263.607 168.051   2
   1  -3  -9 35797.9 2393.09   3
   1  -3  -8 45399.5 2582.48   3
   1  -3  -7 64567.1 2988.52   3
   1  -3  -6 94480.3 3587.90   3
   1  -3  -5 158363. 4876.38   3
   1  -3  -4 182291. 5196.38   3
  -1   3   4 185162. 5284.82   3
   1  -3  -3 119680. 3624.26   3
   1  -3  -2 406560. 9320.80   3
  -1   3   2 395650. 8493.50   2
  -1   3   2 384500. 8425.72   1
  -1   3   1 385624. 8543.92   2
   1  -3  -1 387897. 8562.59   2
   1  -3  -1 397247. 8863.64   3
  -1   3   0 592886. 12035.3   3
   1  -3   0 543504. 12043.7   2
   1  -3   0 598933. 12005.1   3
  -1   3   0 541198. 11975.4   2
   1  -3   1 133289. 3699.05   2
  -1   3  -1 136253. 3330.73   3
  -1   3  -1 129110. 3619.95   2
   1  -3   2 151734. 4276.99   2
   1  -3   3 126327. 3887.63   2
   1  -3   4 158571. 4728.37   2
  -1   3  -4 148601. 4490.37   2
   1  -3   5 137647. 4376.83   2
  -1   3  -5 126195. 4156.80   2
  -1   3  -6 101909. 3660.21   2
  -1   3  -6 99410.5 2966.74   3
  -1   3  -7 61019.1 2785.76   2
  -1   3  -7 62588.6 2250.87   3
  -1   3  -8 28678.5 1881.03   2
  -1   3  -9 28905.6 1962.06   2
   1  -2 -10 595.455 292.457   3
   1  -2  -9-29.9865 169.110   3
   1  -2  -8 204.770 165.812   3
   1  -2  -7 377.543 109.551   1
   1  -2  -7 406.230 118.884   1
   1  -2  -6 2954.86 266.370   1
   1  -2  -6 2988.10 285.167   1
   1  -2  -6 3129.91 522.238   3
   1  -2  -5 1990.31 384.568   3
   1  -2  -5 2399.30 197.812   1
   1  -2  -5 2182.74 201.154   1
   1  -2  -4 9248.47 778.115   3
   1  -2  -3 52.9255 46.9413   3
   1  -2  -2 31797.5 1288.30   3
   1  -2  -1 2047.99 186.495   2
   1  -2  -1 2302.69 260.388   3
  -1   2   1 2508.80 195.495   2
   1  -2   0 534.052 105.676   3
  -1   2   0 386.949 97.3708   2
   1  -2   0 284.581 87.3102   2
  -1   2   0 462.064 100.045   3
  -1   2  -1 6223.81 321.566   3
   1  -2   1 5680.44 453.003   2
   1  -2   2 77004.0 2405.69   2
   1  -2   3 36300.5 1567.33   2
  -1   2  -4 149.399 118.206   2
   1  -2   4 130.470 108.674   2
  -1   2  -5 1475.86 319.453   2
   1  -2   5 2331.85 425.712   2
  -1   2  -5 1702.44 262.328   3
  -1   2  -6 829.843 207.729   3
  -1   2  -6 1127.61 305.934   2
   1  -2   6 1562.80 361.892   2
  -1   2  -7 3265.09 548.699   2
  -1   2  -7 3570.82 457.341   3
  -1   2  -8 198.809 134.285   3
  -1   2  -8 1.38149 151.752   2
  -1   2  -9-78.8923 113.558   2
   1  -1 -10 25028.5 1902.31   3
   1  -1  -9 38366.6 2288.00   3
   1  -1  -8 50326.3 1785.77   2
   1  -1  -8 50126.4 2529.34   3
   1  -1  -7 86918.9 2504.49   2
   1  -1  -7 85736.6 3343.49   3
   1  -1  -6 55446.7 2377.13   3
   1  -1  -6 54086.1 1694.44   2
   1  -1  -5 164077. 3856.76   2
   1  -1  -5 157939. 4693.72   3
   1  -1  -4 200683. 4518.81   2
   1  -1  -4 206037. 5368.45   3
   1  -1  -3 134410. 2981.88   1
   1  -1  -3 128485. 2932.68   2
   1  -1  -3 130526. 3605.38   3
   1  -1  -2 246099. 5774.58   3
   1  -1   1 422493. 9141.61   2
   1  -1   2 217720. 5120.45   2
  -1   1  -2 208922. 4628.35   3
   1  -1   3 321644. 7221.46   2
  -1   1  -3 299610. 6726.12   3
  -1   1  -4 180975. 4460.24   3
   1  -1   4 193435. 4913.37   2
  -1   1  -5 272904. 6645.00   3
  -1   1  -5 275686. 6973.90   2
  -1   1  -6 141313. 4262.76   2
  -1   1  -6 139549. 4024.23   3
   1  -1   7 121509. 3962.52   2
  -1   1  -7 110014. 3521.50   3
  -1   1  -7 113647. 3734.07   2
  -1   1  -8 37518.3 1959.17   2
  -1   1  -8 40223.1 1902.02   3
  -1   1  -9 38927.6 2095.02   2
   1   0 -10-18.3165 130.663   3
   1   0  -9 37.2797 127.523   3
   1   0  -8 877.022 273.906   1
   1   0  -8 395.599 121.663   2
   1   0  -8 510.476 211.243   3
   1   0  -7 2784.67 511.940   3
   1   0  -6 963.667 208.782   2
   1   0  -6 800.462 253.656   3
   1   0  -5 1522.15 248.322   2
   1   0  -5 1564.41 309.853   3
   1   0  -4 3132.63 323.621   2
   1   0  -3 9772.20 528.566   2
   1   0  -2 19359.9 707.636   1
   1   0   1 45545.0 1134.70   3
   1   0   1 43970.7 1267.21   2
   1   0   2 266.361 71.1917   3
  -1   0  -2 380.382 90.3792   3
   1   0   2 246.609 78.3526   2
  -1   0  -3 27015.8 1027.94   3
   1   0   3 28733.4 1069.65   3
  -1   0  -3 27596.3 1080.50   2
   1   0   3 26334.0 1075.12   2
  -1   0  -4 7974.36 587.537   2
   1   0   4 8633.14 625.331   2
  -1   0  -4 8121.90 583.197   3
   1   0   5 8647.85 682.911   2
  -1   0  -5 7391.48 621.923   3
  -1   0  -6 692.227 209.794   3
  -1   0  -6 406.817 151.843   2
   1   0   6 547.154 176.538   2
  -1   0  -7 795.433 220.917   2
  -1   0  -7 521.319 198.738   3
   1   0   7 851.665 236.267   2
  -1   0  -8 296.015 163.199   2
  -1   0  -8 430.130 206.807   3
  -1   0  -9 575.061 235.907   1
   1   1 -10 33918.8 2133.58   3
   1   1  -9 47302.5 2483.95   3
   1   1  -9 47299.7 2193.52   2
   1   1  -8 106448. 3873.88   3
   1   1  -8 100002. 3456.48   2
   1   1  -7 78561.8 3042.96   3
   1   1  -7 80080.9 2825.55   2
  -1  -1   6 141311. 4184.08   2
   1   1  -6 147857. 4194.45   2
  -1  -1   5 149043. 4164.62   2
  -1  -1   4 428748. 10079.1   2
   1   1  -4 463207. 10142.7   2
   1   1  -3 403780. 9344.19   1
   1   1  -3 428917. 9338.00   2
   1   1  -2 444155. 9698.92   1
   1   1  -1 421741. 9102.12   1
   1   1   1 352490. 7618.31   1
   1   1   2 167948. 3947.51   2
  -1  -1  -2 171431. 4029.05   1
  -1  -1  -2 176024. 4160.99   3
   1   1   2 171569. 4138.34   3
   1   1   3 218869. 5245.82   3
  -1  -1  -3 214510. 5087.87   1
   1   1   3 217044. 4986.86   2
  -1  -1  -3 213699. 5230.88   3
   1   1   4 208218. 4976.97   2
  -1  -1  -4 209040. 5096.63   1
   1   1   4 211095. 5332.80   3
  -1  -1  -4 202684. 5290.28   3
   1   1   5 113524. 3127.96   2
  -1  -1  -5 102966. 3329.30   3
  -1  -1  -6 139728. 4013.46   1
   1   1   6 149126. 4020.49   2
  -1  -1  -6 137593. 4290.55   3
  -1  -1  -7 54310.1 2477.43   3
  -1  -1  -7 56431.6 2287.53   1
  -1  -1  -8 33224.8 1697.33   1
  -1  -1  -8 32784.1 1895.35   3
  -1  -1  -9 24277.6 1670.84   3
   1   2  -9 1329.03 364.145   2
   1   2  -9 1431.71 398.080   3
   1   2  -8 314.342 186.753   3
   1   2  -8 402.614 205.476   2
   1   2  -7 128.682 66.7208   2
  -1  -2   6 3751.63 537.687   2
   1   2  -6 3693.29 526.477   2
  -1  -2   5 891.782 224.931   2
   1   2  -5 394.827 150.126   2
  -1  -2   4 19.8422 47.3653   2
   1   2  -3 121.715 90.0033   1
   1   2  -2 164.357 86.7067   1
   1   2  -1 25769.8 1059.16   1
   1   2   0 14034.9 678.377   1
  -1  -2  -1 40983.4 1311.27   1
   1   2   1 39838.9 1286.82   1
   1   2   2 870.824 200.330   3
   1   2   2 516.851 120.296   1
  -1  -2  -2 594.721 125.218   1
  -1  -2  -2 563.563 163.181   3
  -1  -2  -3 20944.7 1105.02   3
  -1  -2  -3 19550.9 868.622   1
   1   2   3 19997.5 1070.03   3
   1   2   3 19066.8 784.976   2
   1   2   4 5822.03 422.946   2
   1   2   4 6673.07 644.537   3
  -1  -2  -4 6016.91 604.102   3
  -1  -2  -4 6453.78 498.411   1
  -1  -2  -5 4539.33 446.889   1
  -1  -2  -5 4096.82 537.406   3
   1   2   5 4891.33 423.528   2
   1   2   5 5100.90 614.325   3
   1   2   6 16.6427 30.7166   2
  -1  -2  -6 18.0897 74.9787   3
  -1  -2  -7 135.089 116.564   3
  -1  -2  -7 169.435 85.0269   1
  -1  -2  -8 356.312 205.713   3
  -1  -2  -9-46.8483 88.5889   3
   1   3 -10 21411.8 1686.71   2
   1   3  -9 37026.7 2193.78   2
   1   3  -9 35760.5 2078.27   3
   1   3  -8 64173.6 2927.08   2
   1   3  -7 59624.0 2725.29   2
   1   3  -6 49298.2 2318.90   2
  -1  -3   5 81439.0 3050.03   2
   1   3  -5 76754.1 3038.57   1
   1   3  -4 178856. 5313.09   1
   1   3  -4 208115. 5550.11   2
   1   3  -3 272186. 6827.02   1
   1   3  -2 147645. 4081.76   1
   1   3  -1 288314. 6896.51   2
   1   3  -1 290562. 6875.39   1
  -1  -3   0 166622. 4240.36   1
   1   3   0 166834. 4189.61   1
   1   3   1 335198. 7720.10   1
  -1  -3  -1 350742. 7776.36   1
  -1  -3  -2 170217. 4622.35   3
   1   3   2 163962. 4128.24   1
  -1  -3  -2 175976. 4209.41   1
   1   3   3 239441. 5713.58   1
  -1  -3  -3 253756. 5809.08   1
  -1  -3  -3 257776. 6476.91   3
   1   3   3 240395. 6352.05   3
   1   3   4 185426. 5308.20   3
   1   3   4 187110. 4418.96   2
  -1  -3  -4 183042. 5307.67   3
  -1  -3  -4 192256. 4637.49   1
   1   3   5 130617. 3243.44   2
  -1  -3  -5 127204. 3463.69   1
  -1  -3  -5 124655. 4157.73   3
  -1  -3  -6 83280.1 3397.47   3
   1   3   6 95911.7 2563.66   2
  -1  -3  -7 56922.7 2745.81   3
  -1  -3  -8 43585.6 2484.31   3
  -1  -3  -9 19810.0 1698.92   3
   1   4  -9 396.303 260.971   2
   1   4  -8-35.2857 117.911   2
   1   4  -7 812.208 298.396   2
   1   4  -6 3886.83 638.741   2
   1   4  -5 265.724 140.479   2
   1   4  -4 218.296 142.433   1
   1   4  -4 187.880 94.3241   2
   1   4  -3 6169.87 679.323   1
   1   4  -3 7344.17 777.049   2
   1   4  -2 34042.3 1651.12   2
   1   4  -2 31361.7 1563.30   1
   1   4  -1 362.853 149.556   2
   1   4  -1 176.251 111.228   1
   1   4   0 209.634 122.846   2
   1   4   0 67.0578 77.3692   1
  -1  -4  -1 2081.72 306.080   1
   1   4   1 1935.36 294.347   2
   1   4   1 2048.07 298.159   1
  -1  -4  -2 10830.3 709.128   1
   1   4   2 9620.64 640.868   1
   1   4   2 10394.3 881.330   3
   1   4   3 3155.76 342.240   1
  -1  -4  -3 3121.06 493.386   3
  -1  -4  -3 2808.61 350.163   1
   1   4   3 2825.81 473.706   3
   1   4   4 281.868 93.0800   2
  -1  -4  -4 210.458 92.6103   1
  -1  -4  -5 959.955 335.527   3
  -1  -4  -5 1088.20 207.320   1
   1   4   5 1013.67 164.870   2
  -1  -4  -6 95.4546 57.1059   1
  -1  -4  -6-79.9890 106.100   3
  -1  -4  -7 492.524 240.997   3
  -1  -4  -8 567.051 231.931   3
   1   5  -8 42363.4 2602.02   2
   1   5  -7 53523.8 2857.14   2
   1   5  -6 66708.5 3157.84   2
   1   5  -5 46322.6 2451.24   2
   1   5  -4 145700. 4845.77   2
   1   5  -3 211585. 6252.88   2
   1   5  -2 151680. 4648.66   2
   1   5  -2 142311. 4486.23   1
   1   5  -1 98397.4 3285.58   1
   1   5  -1 102615. 3426.31   3
   1   5  -1 99077.1 3366.99   2
   1   5   0 118063. 3649.59   2
   1   5   0 112781. 3777.53   3
   1   5   0 120231. 3559.26   1
   1   5   1 89303.2 2935.05   2
   1   5   1 91898.0 2860.47   1
   1   5   1 88737.6 3225.84   3
   1   5   2 97049.7 2880.07   1
   1   5   2 94654.2 2951.56   2
   1   5   3 92785.3 2725.39   1
   1   5   3 91902.0 2788.49   2
   1   5   4 77012.7 2347.80   2
  -1  -5  -4 79376.3 2476.21   1
   1   5   4 77886.1 2352.90   1
   1   5   5 33680.5 1226.88   2
  -1  -5  -5 37730.8 1454.09   1
  -1  -5  -5 36042.7 2152.08   3
  -1  -5  -6 40491.5 2432.87   3
  -1  -5  -7 19171.2 1700.53   3
   1   6  -7 143.881 153.870   2
   1   6  -6 448.997 191.193   2
   1   6  -5 383.681 212.943   2
   1   6  -4 698.416 280.834   2
   1   6  -3 215.891 148.611   2
   1   6  -2 89.9026 138.797   2
   1   6  -1 286.925 177.022   2
   1   6   0 5427.13 623.359   1
   1   6   0 5482.21 682.726   2
   1   6   1 2587.99 440.431   2
   1   6   1 2917.95 432.301   1
   1   6   2 909.508 217.616   1
   1   6   2 781.246 218.517   2
   1   6   3 378.760 129.753   2
   1   6   3 588.166 184.370   1
   1   6   4-35.4443 54.9180   2
   1   7  -6 17396.3 1683.78   2
   1   7  -5 29717.9 2185.21   2
   1   7  -4 28326.9 2045.71   2
   1   7  -3 57158.5 2947.60   2
   1   7  -2 57193.5 2833.76   2
   1   7  -1 41830.9 2353.17   2
   1   7   0 37697.7 2126.71   2
   1   7   1 54792.1 2572.86   2
   1   7   2 48883.0 2301.46   2
   1   7   3 45131.6 2042.23   2
   1   8  -4 741.191 315.581   2
   1   8  -3 1823.40 498.965   2
   1   8  -2 1566.68 445.307   2
   1   8  -1 2476.99 551.417   2
   1   8   0 78.9955 228.722   2
   1   8   1 393.376 159.997   2
   1   8   2 431.007 204.511   2
   1   9  -2 22669.0 1915.93   2
   1   9  -1 12879.2 1381.98   2
   1   9   0 18229.2 1606.04   2
  -2   9   0 399.680 260.985   2
  -2   9  -1-620.476 284.879   2
  -2   9  -2 307.880 233.373   2
   2  -8  -4 17898.2 1661.58   3
  -2   8   2 37840.3 1790.54   2
  -2   8   1 42517.4 2090.92   2
  -2   8   0 33734.9 1970.82   2
  -2   8  -1 32316.2 2026.42   2
  -2   8  -2 23895.9 1801.60   2
  -2   8  -3 30016.9 2124.16   2
  -2   8  -4 29867.9 2210.33   2
   2  -7  -5-64.5343 129.555   3
   2  -7  -4 1327.94 400.074   3
  -2   7   3 697.877 174.680   2
   2  -7  -3 1081.59 343.671   3
   2  -7  -2 155.305 152.072   3
  -2   7   2 23.7469 112.968   1
  -2   7   2 35.2458 60.6325   2
  -2   7   1 8395.46 750.684   1
  -2   7   1 7010.31 736.912   2
  -2   7   0 803.890 255.407   2
  -2   7   0 908.216 250.128   1
  -2   7  -1 606.367 223.574   3
  -2   7  -1 924.854 266.394   2
  -2   7  -2 35.1537 83.1791   2
  -2   7  -2 119.892 94.6268   3
  -2   7  -3 1.69525 141.789   2
  -2   7  -4 395.610 277.698   2
  -2   7  -5 241.734 180.868   2
   2  -6  -7 22496.2 1912.33   3
   2  -6  -6 30610.0 2135.77   3
   2  -6  -5 47814.4 2607.10   3
   2  -6  -4 39700.0 2219.93   3
  -2   6   3 36514.3 1258.64   2
   2  -6  -3 36860.1 2012.15   3
  -2   6   2 128756. 3428.72   1
  -2   6   2 122698. 3515.37   2
   2  -6  -2 126051. 4180.23   3
   2  -6  -1 47721.3 1968.33   2
  -2   6   1 50369.6 2034.23   2
  -2   6   1 48146.7 2280.64   3
   2  -6  -1 52195.8 2219.12   3
  -2   6   1 51941.2 1977.38   1
   2  -6   0 65475.0 2555.47   2
  -2   6   0 70979.3 2709.56   3
  -2   6   0 69078.5 2637.06   2
   2  -6   1 50074.0 2261.99   2
  -2   6  -1 47949.8 2231.45   2
  -2   6  -1 51024.1 2123.74   3
  -2   6  -2 32869.0 1879.22   2
  -2   6  -3 42687.9 2283.51   2
  -2   6  -4 60440.9 2937.99   2
  -2   6  -5 51313.5 2787.58   2
  -2   6  -6 35905.2 2377.41   2
   2  -5  -8 169.066 170.464   3
   2  -5  -7 107.293 193.708   3
   2  -5  -6 56.4432 103.868   3
   2  -5  -5 1200.73 386.315   3
   2  -5  -4 602.426 251.825   3
   2  -5  -3-40.0606 80.2584   3
  -2   5   3 3.44360 9.82531   1
  -2   5   3 27.0693 21.3319   2
  -2   5   2 6085.51 448.521   1
   2  -5  -2 6361.40 506.848   2
  -2   5   2 6469.64 501.347   2
   2  -5  -2 5538.87 638.862   3
  -2   5   2 6485.47 743.642   3
  -2   5   1 2885.05 454.242   3
   2  -5  -1 3162.52 402.152   2
  -2   5   1 2600.24 364.095   2
   2  -5  -1 2655.27 414.988   3
   2  -5   0 162.322 114.892   2
  -2   5   0 399.836 165.327   2
   2  -5   1 2024.26 398.432   2
  -2   5  -1 2073.44 384.375   2
  -2   5  -2 2658.27 469.223   2
  -2   5  -2 2868.14 359.524   3
   2  -5   2 3367.56 532.882   2
  -2   5  -3 64.4379 53.2043   3
  -2   5  -3-59.5228 130.293   2
  -2   5  -4 8168.03 541.948   3
  -2   5  -4 9618.30 1008.72   2
  -2   5  -5 145.807 115.822   2
  -2   5  -6 498.514 238.070   2
  -2   5  -7 92.8518 126.490   2
   2  -4  -8 21872.5 1825.47   3
   2  -4  -7 35692.9 2260.65   3
   2  -4  -6 54436.4 2708.42   3
   2  -4  -5 101695. 3761.60   3
  -2   4   4 100382. 3709.34   3
   2  -4  -4 103218. 3610.21   3
   2  -4  -3 152519. 4557.10   3
  -2   4   3 154956. 4712.67   3
   2  -4  -2 201973. 4809.57   2
  -2   4   2 206278. 5582.52   3
  -2   4   2 196204. 4695.93   2
   2  -4  -2 208337. 5432.23   3
  -2   4   1 247943. 5842.53   2
   2  -4  -1 255620. 6093.12   3
  -2   4   0 221496. 5642.50   2
   2  -4   0 239704. 5555.75   3
  -2   4   0 230603. 5619.96   3
  -2   4  -1 161924. 4512.19   2
   2  -4   1 155688. 4519.62   2
  -2   4  -1 163759. 4092.45   3
   2  -4   2 154654. 4583.71   2
  -2   4  -2 148116. 4468.58   2
  -2   4  -2 156222. 3778.31   3
   2  -4   3 189260. 5425.83   2
  -2   4  -3 182295. 4251.50   3
  -2   4  -3 179914. 5278.79   2
  -2   4  -4 82144.2 3094.59   2
  -2   4  -4 73543.7 1922.44   3
  -2   4  -5 177849. 5218.16   2
  -2   4  -5 166407. 3618.04   3
  -2   4  -6 51710.1 1479.15   3
  -2   4  -6 63530.9 2855.17   2
  -2   4  -7 33820.9 2132.45   2
  -2   4  -8 35267.5 2288.93   2
   2  -3  -9-131.320 200.570   3
   2  -3  -8 846.126 337.636   3
   2  -3  -7 1054.36 370.161   3
   2  -3  -6 895.940 308.632   3
   2  -3  -5 1277.51 340.373   3
   2  -3  -4 13673.1 1039.42   3
   2  -3  -3 533.038 84.9069   2
   2  -3  -3 519.188 170.748   3
   2  -3  -2 1520.44 188.112   2
  -2   3   2 1422.98 174.491   2
  -2   3   2 1614.13 159.518   1
   2  -3  -2 1794.53 306.463   3
  -2   3   1 2476.52 273.732   2
   2  -3  -1 2261.98 304.561   3
   2  -3  -1 2196.00 275.911   2
  -2   3   0 17.7709 37.1357   3
   2  -3   0 5.14857 29.6330   2
  -2   3   0-5.27444 29.9139   2
   2  -3   0 38.1485 44.7677   3
   2  -3   1 2232.98 335.177   2
  -2   3  -1 2132.41 225.423   3
  -2   3  -1 1910.70 304.458   2
   2  -3   2 7693.49 689.785   2
  -2   3  -2 7666.77 364.377   3
   2  -3   3 7768.57 749.539   2
   2  -3   4 7309.19 776.808   2
  -2   3  -4 7063.83 740.828   2
  -2   3  -4 5798.41 266.347   3
  -2   3  -4 5057.25 249.428   3
  -2   3  -5 942.571 300.569   2
  -2   3  -5 540.229 95.8742   3
  -2   3  -6 630.218 249.033   2
  -2   3  -6 496.783 108.463   3
  -2   3  -7 457.495 216.865   2
  -2   3  -8 1360.16 408.569   2
  -2   3  -9 304.062 229.050   2
   2  -2  -9 43737.5 2622.68   3
   2  -2  -8 75459.5 3398.81   3
   2  -2  -7 23688.4 867.080   1
   2  -2  -7 25274.2 1718.72   3
   2  -2  -6 121688. 2843.28   1
   2  -2  -6 117100. 4109.67   3
   2  -2  -5 143476. 4431.78   3
   2  -2  -5 138827. 3074.97   1
   2  -2  -4 193188. 5244.77   3
   2  -2  -4 191600. 3940.07   2
   2  -2  -3 222050. 4764.32   2
   2  -2  -3 211515. 5687.53   3
   2  -2  -2 211036. 5232.16   3
  -2   2   2 205786. 4506.82   1
   2  -2  -2 206600. 4612.15   2
  -2   2   1 193663. 4411.98   1
   2  -2  -1 192880. 4493.75   2
  -2   2   1 191774. 4466.47   2
   2  -2  -1 199195. 4700.72   3
   2  -2   0 238376. 5577.81   2
  -2   2   0 237353. 5572.22   2
   2  -2   0 241182. 5346.21   3
   2  -2   1 151683. 3894.46   2
   2  -2   1 148221. 3251.10   3
   2  -2   2 232803. 5800.61   2
   2  -2   3 135838. 3946.38   2
  -2   2  -4 151434. 4288.13   2
   2  -2   4 160744. 4419.12   2
  -2   2  -5 119075. 3884.58   2
  -2   2  -5 120460. 2984.48   3
  -2   2  -6 87884.5 2477.53   3
  -2   2  -6 92254.6 3327.10   2
  -2   2  -7 50697.3 2420.11   2
  -2   2  -7 47406.3 1717.73   3
  -2   2  -8 37380.6 2162.31   2
  -2   2  -9 25977.4 1859.48   2
   2  -1 -10 323.078 158.385   3
   2  -1  -9 428.759 238.450   3
   2  -1  -8 3663.60 378.748   2
   2  -1  -8 4172.62 702.261   3
   2  -1  -7 293.649 106.935   2
   2  -1  -7 73.1052 46.2103   1
   2  -1  -7 232.181 142.208   3
   2  -1  -6 11547.6 699.393   1
   2  -1  -6 12099.2 672.621   2
   2  -1  -6 12433.6 1094.09   3
   2  -1  -5 1404.81 206.602   1
   2  -1  -5 1640.77 360.354   3
   2  -1  -5 1119.32 185.061   2
   2  -1  -4 1.24913 23.0313   2
   2  -1  -4-6.31723 19.7603   1
  -2   1   3 773.579 119.666   1
   2  -1  -3 609.058 109.261   1
   2  -1  -2 2976.65 233.630   1
  -2   1   2 2788.65 222.407   1
   2  -1  -1 172856. 3934.57   1
  -2   1   1 167630. 3899.12   1
   2  -1   0 10624.6 576.325   2
   2  -1   1 92.6720 55.9554   2
   2  -1   2 11243.1 702.051   2
   2  -1   3 10172.3 723.467   2
  -2   1  -3 9236.12 411.942   3
  -2   1  -4 379.130 96.4269   3
   2  -1   4 343.358 137.052   2
  -2   1  -4 223.471 134.418   2
  -2   1  -5 1954.84 253.561   3
   2  -1   5 2223.55 401.107   2
  -2   1  -5 1918.07 364.054   2
   2  -1   6 623.320 220.170   2
  -2   1  -6 399.346 125.533   3
  -2   1  -6 298.599 162.768   2
  -2   1  -7 209.861 112.674   3
  -2   1  -7 222.632 164.254   2
  -2   1  -8 28.5735 56.8938   2
  -2   1  -9 15.5726 66.0529   2
  -2   1  -9-8.52020 159.522   1
   2   0 -10 22644.1 1822.16   3
   2   0  -9 51277.8 2760.32   3
   2   0  -8 57244.9 2367.09   1
   2   0  -8 64636.2 2323.03   2
   2   0  -8 62548.9 2958.00   3
   2   0  -7 51289.7 2081.08   1
   2   0  -7 56181.7 2588.43   3
   2   0  -6 77070.6 2552.56   1
   2   0  -5 171884. 4648.78   1
   2   0  -5 195235. 4765.27   2
   2   0  -4 444184. 9887.00   1
   2   0  -4 444232. 9856.96   2
   2   0  -3 429959. 9449.30   1
  -2   0   3 443662. 9463.02   1
  -2   0   2 149934. 3658.23   1
   2   0  -2 155646. 3688.92   1
   2   0  -1 999999. 20914.7   1
   2   0   0 120735. 3030.56   1
   2   0   1 546356. 11822.4   2
   2   0   2 607442. 12687.4   3
   2   0   2 585821. 12991.8   2
  -2   0  -3 318864. 7569.22   2
   2   0   3 318982. 7505.77   2
  -2   0  -3 319439. 7207.00   3
   2   0   3 330505. 7199.88   3
   2   0   4 225828. 5577.90   2
  -2   0  -4 215553. 5270.54   3
   2   0   4 219032. 5295.96   3
  -2   0  -5 145441. 4216.09   2
  -2   0  -5 144648. 3958.09   3
  -2   0  -5 144254. 4307.94   1
  -2   0  -6 98741.0 3459.77   1
  -2   0  -6 98019.5 3134.41   3
   2   0   6 110078. 3467.19   2
  -2   0  -6 107525. 3443.61   2
  -2   0  -7 72033.4 2839.07   1
  -2   0  -7 66613.9 2529.78   3
  -2   0  -8 32256.6 1698.57   3
  -2   0  -8 29879.0 1835.93   1
  -2   0  -9 37270.4 2152.99   1
   2   1 -10-78.2188 167.827   3
   2   1  -9 1.79919 82.7562   3
   2   1  -9-148.149 177.248   2
   2   1  -8 206.168 142.960   3
   2   1  -8-81.5375 96.9070   2
   2   1  -7 500.335 169.338   1
   2   1  -7 285.419 139.396   2
   2   1  -6 2180.43 385.011   1
   2   1  -6 2431.78 394.540   2
   2   1  -5 7203.68 651.266   1
   2   1  -4 3260.26 386.650   2
   2   1  -4 2654.39 366.806   1
  -2  -1   3 43767.4 1609.41   1
   2   1  -3 42404.4 1590.04   1
  -2  -1   2 20848.4 940.228   1
   2   1  -2 19980.7 924.556   1
   2   1  -1 131601. 3365.61   1
   2   1   0 55.9746 69.5214   1
   2   1   1 2936.84 311.110   1
   2   1   2 2307.64 304.530   1
   2   1   2 2125.08 271.925   3
  -2  -1  -2 1932.57 279.535   1
   2   1   2 1630.86 244.056   2
  -2  -1  -3 13.4663 36.8022   1
   2   1   3 123.166 79.3033   2
   2   1   4 3872.56 441.846   3
   2   1   4 3981.76 426.574   2
  -2  -1  -4 3635.46 439.687   3
  -2  -1  -5 298.480 145.750   3
   2   1   5 470.361 168.936   2
   2   1   5 540.815 187.406   3
  -2  -1  -5 80.5030 61.9329   1
  -2  -1  -6 7611.94 751.403   3
  -2  -1  -6 8377.82 787.850   1
   2   1   6 9582.48 787.911   2
   2   1   7 478.215 181.342   2
  -2  -1  -7 574.726 224.569   1
  -2  -1  -7 551.061 208.913   3
  -2  -1  -8 141.973 132.704   1
  -2  -1  -8 31.4845 127.939   3
   2   2 -10 29424.0 2084.94   3
   2   2  -9 47425.7 2386.44   2
   2   2  -9 47907.9 2625.49   3
   2   2  -8 77921.7 3149.23   2
   2   2  -7 71973.9 2885.48   2
   2   2  -6 71581.8 2884.85   1
   2   2  -6 87663.9 3044.40   2
   2   2  -5 139864. 4056.77   2
   2   2  -5 119526. 3917.16   1
   2   2  -4 312550. 7710.28   1
   2   2  -3 255777. 6354.51   1
   2   2  -2 226790. 5636.03   1
   2   2  -1 107144. 3024.07   1
   2   2   0 127214. 3410.13   1
   2   2   1 215427. 5212.44   1
   2   2   1 213435. 5305.77   3
  -2  -2  -1 214831. 5216.02   1
   2   2   2 238013. 5727.31   1
  -2  -2  -2 242106. 5795.33   1
   2   2   2 237900. 5868.45   3
   2   2   3 203210. 5036.03   2
   2   2   3 215294. 5397.49   3
  -2  -2  -4 170402. 4728.45   3
   2   2   4 166749. 4301.00   2
   2   2   4 165907. 4635.06   3
  -2  -2  -5 33657.8 1564.43   1
   2   2   5 34602.5 1450.85   2
  -2  -2  -5 32379.3 1703.81   3
   2   2   5 36052.3 1788.16   3
   2   2   6 115178. 3361.64   2
  -2  -2  -6 106699. 3487.71   1
  -2  -2  -6 113223. 3865.84   3
  -2  -2  -7 46694.9 2088.00   1
  -2  -2  -7 51020.9 2439.27   3
  -2  -2  -8 29375.6 1877.28   3
   2   3 -10 102.156 191.524   2
   2   3  -9-272.937 184.510   2
   2   3  -8 315.657 193.721   2
   2   3  -7 3219.30 574.778   2
   2   3  -6 169.947 140.923   2
   2   3  -5 9851.82 929.338   2
   2   3  -5 7706.97 813.086   1
   2   3  -4 6.95353 72.6054   2
   2   3  -4 49.5657 70.5200   1
   2   3  -3 7183.11 696.992   1
   2   3  -2 5740.48 583.389   1
   2   3  -1 19915.4 1077.38   1
   2   3   0 11407.6 763.982   1
   2   3   1 48.8341 44.7561   1
   2   3   2 25926.2 1189.03   1
   2   3   2 24341.2 1298.42   3
   2   3   3 2181.45 317.915   1
   2   3   3 2166.22 374.425   3
   2   3   4 47.8167 54.0203   2
   2   3   4 36.7486 71.2138   3
  -2  -3  -5 2137.01 425.846   3
  -2  -3  -5 2526.34 387.541   1
   2   3   5 2937.41 354.775   2
  -2  -3  -6 460.159 174.967   1
   2   3   6 619.014 165.846   2
  -2  -3  -6 803.205 319.123   3
  -2  -3  -7 148.869 110.582   1
  -2  -3  -7 22.2617 105.271   3
  -2  -3  -8 1406.44 424.215   3
   2   4  -9 20691.6 1742.42   2
   2   4  -8 38887.2 2337.23   2
   2   4  -7 76544.4 3375.68   2
   2   4  -6 27909.9 1825.74   2
   2   4  -5 131763. 4564.63   2
   2   4  -4 161735. 4961.74   2
   2   4  -3 182653. 5364.54   1
   2   4  -3 192292. 5385.70   2
   2   4  -2 177671. 5064.10   2
   2   4  -2 180499. 5064.48   1
  -2  -4   1 143158. 4294.73   1
   2   4  -1 148829. 4293.07   1
  -2  -4   0 160764. 4513.73   1
   2   4   0 162100. 4469.44   1
   2   4   1 189392. 4995.42   1
   2   4   1 190005. 5342.08   3
   2   4   2 189470. 4947.23   1
   2   4   2 190776. 5425.11   3
   2   4   3 184833. 4833.06   1
   2   4   4 89383.1 2722.43   2
  -2  -4  -4 95387.9 2965.13   1
   2   4   5 60105.6 2023.94   2
  -2  -4  -5 61444.3 2253.50   1
  -2  -4  -6 44431.7 1888.64   1
   2   5  -8-211.338 313.963   2
   2   5  -7 153.933 151.893   2
   2   5  -6 2297.25 507.018   2
   2   5  -5 102.667 126.228   2
   2   5  -4 536.991 245.566   2
   2   5  -3 3981.55 616.934   2
   2   5  -2 2740.66 482.265   2
   2   5  -1 276.218 169.118   1
   2   5  -1 26.9637 47.8391   2
   2   5   0 8838.27 813.217   2
  -2  -5   0 8284.93 795.383   1
   2   5   0 8075.64 763.577   1
   2   5   1 3707.58 511.597   2
  -2  -5  -1 4655.05 555.311   1
   2   5   1 3825.47 495.936   1
   2   5   2 1849.49 331.863   1
  -2  -5  -2 2193.67 387.002   1
  -2  -5  -3-7.37672 46.2483   1
   2   5   3-13.6042 56.8704   1
   2   5   4 140.079 95.5969   1
  -2  -5  -4 59.0259 53.1309   1
  -2  -5  -5 1166.20 267.056   1
   2   6  -7 34868.4 2392.26   2
   2   6  -6 40528.3 2532.07   2
   2   6  -5 39452.8 2424.55   2
   2   6  -4 58006.4 2994.68   2
   2   6  -3 77914.7 3376.11   2
   2   6  -2 59234.3 2736.90   2
   2   6  -1 30738.6 1800.87   2
   2   6   0 87416.5 3260.83   2
   2   6   1 34032.9 1784.30   2
   2   6   1 32693.3 1686.45   1
   2   6   2 59478.7 2438.24   2
   2   6   2 56650.4 2296.66   1
  -2  -6  -2 62759.5 2526.70   1
   2   6   3 60737.2 2323.61   1
  -2  -6  -3 61249.3 2453.97   1
   2   6   3 62139.4 2435.01   2
   2   6   4 36383.5 1677.18   2
  -2  -6  -4 33726.8 1687.46   1
   2   7  -5 199.080 148.819   2
   2   7  -4-711.871 323.965   2
   2   7  -3-1.96902 214.676   2
   2   7  -2 58.9180 95.4824   2
   2   7  -1 702.449 315.173   2
   2   7   0 990.474 319.642   2
   2   7   1 1371.49 374.595   2
   2   7   2 2275.70 447.867   2
   2   7   3 528.976 231.669   2
   2   8  -4 22134.9 1947.19   2
   2   8  -3 31185.4 2263.78   2
   2   8  -2 29110.3 2176.45   2
   2   8  -1 35242.1 2346.79   2
   2   8   0 32318.9 2166.99   2
   2   8   1 34699.3 2148.94   2
   2   9  -1 488.489 284.746   2
   2   9   0 904.753 360.726   2
  -3   9   0 13108.8 1242.35   2
  -3   9  -1 11482.0 1247.87   2
  -3   9  -2 11068.1 1285.08   2
   3  -8  -4-61.8072 118.345   3
   3  -8  -3 356.357 298.880   3
  -3   8   1 1473.53 370.793   2
  -3   8   0 66.6623 113.790   2
  -3   8  -1 196.890 115.763   2
  -3   8  -2-3.64243 101.350   2
  -3   8  -3 1358.66 430.188   2
   3  -7  -5 26276.2 2004.76   3
   3  -7  -4 36188.4 2254.39   3
  -3   7   3 48080.6 1727.76   2
   3  -7  -3 50820.9 2571.33   3
   3  -7  -2 42139.7 2219.90   3
  -3   7   2 41184.3 1798.19   2
   3  -7  -1 43160.4 2009.23   2
  -3   7   1 44156.2 2026.17   2
  -3   7   0 47458.3 2260.80   2
  -3   7  -1 46722.7 2350.94   2
  -3   7  -1 41768.6 2055.59   3
  -3   7  -2 27973.4 1865.85   2
  -3   7  -3 41121.3 2440.02   2
  -3   7  -4 27333.5 2011.87   2
  -3   7  -5 29937.2 2228.12   2
   3  -6  -6 256.861 213.798   3
   3  -6  -5 900.127 326.545   3
   3  -6  -4 1673.67 437.674   3
   3  -6  -3 65.0216 78.4184   3
  -3   6   3 372.941 102.994   1
   3  -6  -3 364.231 117.579   2
  -3   6   3 240.678 83.5499   1
   3  -6  -2 950.407 278.353   3
   3  -6  -2 1171.05 261.559   2
  -3   6   2 1017.14 242.599   2
  -3   6   1 3.73508 59.8346   3
   3  -6  -1 136.194 64.1971   2
   3  -6  -1 101.454 105.090   3
  -3   6   1 69.2154 95.6961   2
  -3   6   0 306.605 163.083   3
   3  -6   0 247.028 145.580   2
  -3   6   0 113.132 90.7720   2
  -3   6  -1 2144.02 442.856   2
  -3   6  -2-82.9312 141.169   2
  -3   6  -2 192.934 102.670   3
  -3   6  -3-71.2101 86.9571   2
  -3   6  -4-117.014 137.616   2
  -3   6  -5-16.9657 124.639   2
  -3   6  -6 95.6536 132.664   2
   3  -5  -7 18478.4 1667.26   3
   3  -5  -6 36219.8 2261.34   3
   3  -5  -5 50130.7 2581.56   3
   3  -5  -4 61967.6 2766.60   3
   3  -5  -3 57629.3 1786.36   2
  -3   5   3 54674.2 1519.90   1
  -3   5   3 55579.5 1569.41   1
   3  -5  -3 56717.4 2469.04   3
   3  -5  -2 77098.7 2557.49   2
  -3   5   2 78343.4 3051.80   3
  -3   5   2 80222.6 2479.61   2
   3  -5  -2 84579.0 2987.01   3
   3  -5  -1 51883.3 2077.11   2
  -3   5   1 55378.2 2066.14   2
   3  -5  -1 55997.2 2117.89   3
  -3   5   1 53172.7 2252.29   3
  -3   5   0 78624.8 2717.08   2
   3  -5   0 79050.5 2532.76   3
   3  -5   1 112543. 3763.11   2
  -3   5  -1 114576. 3688.74   2
  -3   5  -1 108775. 3229.39   3
  -3   5  -2 93482.4 3376.93   2
  -3   5  -2 89574.9 2572.94   3
  -3   5  -3 51281.6 2448.01   2
  -3   5  -4 93780.2 3702.64   2
  -3   5  -5 55249.4 2799.04   2
  -3   5  -6 37675.7 2372.45   2
  -3   5  -7 28586.3 2128.55   2
   3  -4  -8 885.907 386.660   3
   3  -4  -7 786.108 332.225   3
   3  -4  -6 786.041 301.230   3
   3  -4  -5 147.184 165.318   3
   3  -4  -4 2283.77 173.778   2
   3  -4  -4 2819.88 499.787   3
  -3   4   3 33.8138 35.2907   1
   3  -4  -3 81.2930 98.7227   3
   3  -4  -3 26.5123 38.4482   2
  -3   4   2 1972.47 244.055   1
   3  -4  -2 1609.48 316.819   3
   3  -4  -2 1949.79 283.590   2
   3  -4  -1 1550.92 283.596   2
   3  -4  -1 1456.83 275.757   3
  -3   4   1 1424.01 259.671   2
   3  -4   0 13549.8 935.550   2
  -3   4   0 12837.9 878.846   2
   3  -4   0 12570.2 738.917   3
   3  -4   1 978.633 281.730   2
  -3   4  -1 953.341 256.711   2
   3  -4   2 1036.15 286.996   2
  -3   4  -2 1313.61 315.016   2
  -3   4  -3 6623.71 755.564   2
  -3   4  -4-30.6190 105.644   2
  -3   4  -5 6.01695 55.2683   2
  -3   4  -6 40.2614 79.5821   2
  -3   4  -7 145.547 155.575   2
  -3   4  -8 465.785 381.176   2
   3  -3  -9 28396.3 2180.17   3
   3  -3  -8 33237.5 2254.66   3
   3  -3  -7 41799.9 2406.76   3
   3  -3  -6 82125.5 3410.88   3
   3  -3  -5 136305. 4510.77   3
   3  -3  -4 142041. 3287.36   2
   3  -3  -4 144222. 4442.26   3
   3  -3  -3 247631. 5632.95   2
  -3   3   3 246793. 5440.82   1
   3  -3  -3 250943. 6500.24   3
  -3   3   2 125753. 3109.59   1
   3  -3  -2 123558. 3248.79   2
   3  -3  -2 122931. 3634.11   3
  -3   3   1 212413. 5058.50   1
   3  -3  -1 210882. 5192.58   2
  -3   3   1 207345. 5167.28   2
   3  -3  -1 208586. 5197.51   3
   3  -3   0 143266. 3965.21   2
  -3   3   0 143299. 3944.92   2
   3  -3   0 147466. 3621.01   3
   3  -3   1 311348. 7493.05   2
  -3   3  -1 301020. 7444.41   2
   3  -3   1 303800. 6609.48   3
   3  -3   2 213811. 5697.65   2
  -3   3  -2 207887. 5669.52   2
   3  -3   3 135001. 4167.23   2
  -3   3  -3 122638. 3988.14   2
  -3   3  -4 70097.7 2815.00   2
  -3   3  -5 74036.9 3061.52   2
  -3   3  -6 59978.4 2819.08   2
  -3   3  -7 29464.7 1983.96   2
  -3   3  -8 28158.3 2028.02   2
   3  -2  -9-122.144 144.661   3
   3  -2  -8 349.152 202.737   3
   3  -2  -7 123.083 51.9639   1
   3  -2  -7 188.458 180.848   3
   3  -2  -7 184.136 61.5090   2
   3  -2  -6 3620.64 295.614   2
   3  -2  -6 3824.71 286.551   1
   3  -2  -6 3990.71 659.395   3
   3  -2  -5 39.5187 71.0995   3
   3  -2  -5-14.2651 30.6955   2
   3  -2  -5 86.7949 47.4912   1
   3  -2  -4 19711.3 733.897   1
  -3   2   4 19033.2 723.361   1
   3  -2  -3 5117.44 355.605   1
   3  -2  -3 4605.90 368.397   2
  -3   2   3 4527.67 320.390   1
   3  -2  -3 4370.53 541.038   3
   3  -2  -2 16549.7 989.593   3
  -3   2   2 17694.3 760.606   1
   3  -2  -2 17117.9 821.813   2
  -3   2   1 35535.6 1287.51   1
   3  -2  -1 35158.1 1333.84   2
   3  -2  -1 34154.0 1369.97   3
  -3   2   0 3234.62 366.023   1
   3  -2   0 2817.35 350.039   2
   3  -2   0 3463.43 311.486   3
   3  -2   1 108.742 45.0388   3
   3  -2   1 92.9822 48.9321   2
   3  -2   2 145.273 118.623   2
   3  -2   3 846.267 230.913   2
  -3   2  -3 796.539 231.406   2
   3  -2   4 5741.66 668.350   2
  -3   2  -4 5790.77 670.257   2
  -3   2  -5 1387.72 347.772   2
  -3   2  -6 2959.17 535.166   2
  -3   2  -7 156.290 173.069   2
  -3   2  -8-345.158 204.293   2
  -3   2  -9 1228.87 408.265   2
   3  -1 -10 24973.7 2030.79   3
   3  -1  -9 38390.4 2483.48   3
   3  -1  -8 63726.5 3163.67   3
   3  -1  -7 32866.2 1345.33   2
   3  -1  -7 30415.4 1335.22   1
   3  -1  -7 32435.5 2037.49   3
   3  -1  -6 93047.9 2735.25   1
   3  -1  -6 87187.5 3530.54   3
   3  -1  -5 156060. 3937.07   2
   3  -1  -5 154950. 3947.23   1
  -3   1   4 167291. 4057.46   1
   3  -1  -4 167170. 4114.68   1
   3  -1  -3 193708. 4613.82   1
  -3   1   3 191803. 4562.37   1
   3  -1  -2 199430. 4679.68   1
  -3   1   2 191427. 4638.53   1
   3  -1  -1 82396.8 2336.73   1
  -3   1   1 77555.4 2283.78   1
  -3   1   0 201318. 5002.33   1
   3  -1   0 206613. 5038.47   2
   3  -1   1 358166. 8304.59   2
   3  -1   2 428325. 9794.59   2
   3  -1   2 410512. 8922.39   3
   3  -1   3 153390. 4234.52   2
  -3   1  -3 146079. 4242.47   2
   3  -1   3 146873. 3340.54   3
   3  -1   4 150435. 4342.56   2
  -3   1  -4 140705. 4303.35   2
  -3   1  -5 78610.8 2954.61   2
  -3   1  -6 95754.3 3617.75   1
  -3   1  -6 98716.8 3593.73   2
  -3   1  -7 51746.9 2576.51   1
  -3   1  -8 45209.6 2513.79   1
  -3   1  -9 34137.1 2250.90   1
   3   0 -10 49.5784 102.315   3
   3   0  -9 972.106 387.064   3
   3   0  -8 910.645 342.830   3
   3   0  -8 532.423 181.183   2
   3   0  -7 997.973 245.762   1
   3   0  -7 618.895 195.709   2
   3   0  -6 798.951 219.424   1
   3   0  -5 4632.75 484.938   1
  -3   0   4 8383.39 610.702   1
   3   0  -4 9071.85 653.159   1
  -3   0   3 7632.44 550.195   1
   3   0  -3 8125.90 593.953   1
   3   0  -2 8708.56 597.118   1
  -3   0   2 8055.31 559.846   1
   3   0  -1 23118.5 1048.91   1
  -3   0   1 23235.9 1040.07   1
   3   0   0 8898.36 622.693   1
   3   0   1 36158.3 1478.60   1
   3   0   1 36229.9 1472.79   2
   3   0   2 6047.26 553.860   2
   3   0   2 5586.71 403.736   3
  -3   0  -3 11682.1 875.749   1
   3   0   3 11143.5 808.693   2
   3   0   3 11934.5 636.132   3
  -3   0  -4 238.463 120.889   1
   3   0   4 323.295 138.308   2
   3   0   4 411.429 129.315   3
  -3   0  -5 2235.79 420.243   1
   3   0   5 2936.95 448.131   2
  -3   0  -6 40.0505 62.8878   1
  -3   0  -7 506.373 201.915   1
  -3   0  -8-22.2060 65.6690   1
  -3   0  -9-371.897 218.803   1
   3   1 -10 18836.4 1740.08   3
   3   1  -9 56310.3 2502.63   2
   3   1  -9 56441.3 3011.75   3
   3   1  -8 52015.7 2301.16   2
   3   1  -7 89062.7 3284.12   1
   3   1  -7 103564. 3438.38   2
   3   1  -6 88922.4 2930.36   2
   3   1  -6 75438.3 2845.37   1
   3   1  -5 214093. 5425.81   2
   3   1  -5 194342. 5406.43   1
  -3  -1   4 262303. 6401.38   1
   3   1  -4 246174. 6340.41   1
  -3  -1   3 294622. 7074.99   1
   3   1  -3 296572. 7128.11   1
   3   1  -2 220598. 5446.79   1
  -3  -1   2 212851. 5339.97   1
   3   1  -1 308472. 7285.85   1
   3   1   0 218310. 5416.00   1
   3   1   1 295716. 7065.29   1
   3   1   2 375684. 8805.71   1
   3   1   2 376152. 8589.55   3
   3   1   2 378429. 8794.42   2
  -3  -1  -3 190244. 5205.20   1
   3   1   3 196068. 5105.79   2
   3   1   3 198619. 4943.26   3
  -3  -1  -4 50557.5 2150.08   1
   3   1   4 55101.7 2072.99   2
   3   1   4 54617.7 1972.89   3
  -3  -1  -5 88078.7 3144.01   1
   3   1   5 90668.8 3026.47   2
   3   1   5 91345.6 3012.05   3
  -3  -1  -6 54012.2 2407.95   1
  -3  -1  -7 46038.4 2289.61   1
  -3  -1  -8 33214.9 1982.18   1
   3   2 -10 109.117 136.384   3
   3   2  -9 1168.68 381.647   2
   3   2  -8 219.841 155.077   2
   3   2  -7-69.8274 95.1741   2
   3   2  -6-22.3522 100.129   1
   3   2  -6 38.8799 70.4503   2
   3   2  -5 1486.67 333.060   1
   3   2  -5 1093.69 280.097   2
   3   2  -4 232.835 126.897   1
   3   2  -4 272.586 142.897   2
  -3  -2   3 623.348 185.107   1
   3   2  -3 922.684 241.262   1
   3   2  -2 6929.06 640.132   1
   3   2  -1 13229.2 880.255   1
   3   2   0 19780.7 1078.01   1
   3   2   1 8539.69 685.502   1
   3   2   2 232.173 121.092   1
  -3  -2  -2 236.641 116.758   1
   3   2   2 552.564 166.220   3
  -3  -2  -3 3489.07 470.777   1
   3   2   3 2999.54 401.049   2
   3   2   3 4009.58 500.095   3
  -3  -2  -4 203.730 112.779   1
   3   2   4 385.973 135.290   2
   3   2   4 149.143 73.1217   3
  -3  -2  -5 5211.67 630.042   1
   3   2   5 4746.01 547.140   2
   3   2   5 5124.46 616.192   3
  -3  -2  -6 670.169 234.612   1
   3   2   6 836.239 235.942   2
  -3  -2  -7-513.391 216.380   1
   3   3 -10 15738.7 1450.98   2
   3   3  -9 31092.2 2046.23   2
   3   3  -8 46256.5 2484.08   2
   3   3  -7 66919.2 3053.13   2
   3   3  -6 73294.4 3046.93   2
   3   3  -5 88650.8 3248.73   2
   3   3  -4 114293. 3682.08   2
   3   3  -4 105829. 3669.26   1
  -3  -3   3 86458.4 3040.09   1
   3   3  -3 88410.6 3051.94   1
   3   3  -2 186338. 5166.22   1
   3   3  -1 108868. 3410.30   1
   3   3   0 192452. 5142.64   1
  -3  -3   0 189659. 5121.66   1
   3   3   1 133603. 3935.86   1
   3   3   1 139342. 4082.18   3
  -3  -3  -1 132705. 3914.83   1
   3   3   2 201355. 5424.31   1
   3   3   2 202982. 5589.97   3
  -3  -3  -2 212999. 5523.17   1
   3   3   3 140554. 4174.37   1
  -3  -3  -3 145837. 4245.09   1
   3   3   3 149823. 4456.24   3
   3   3   4 71762.8 2522.17   2
  -3  -3  -4 75768.3 2749.70   1
   3   3   5 57276.2 2182.93   2
  -3  -3  -5 59476.5 2420.85   1
  -3  -3  -6 57487.7 2453.71   1
  -3  -3  -7 49882.5 2321.71   1
   3   4  -9 748.784 348.730   2
   3   4  -8-105.865 92.1032   2
   3   4  -7-139.349 207.074   2
   3   4  -6 1372.29 382.649   2
   3   4  -5 3206.81 565.093   2
   3   4  -4 1874.91 406.461   2
   3   4  -3 3476.46 536.625   2
   3   4  -2 162.008 111.825   1
  -3  -4   2-62.4936 120.850   1
  -3  -4   1 1249.06 295.878   1
   3   4  -1 685.159 224.427   1
   3   4   0 1895.20 360.769   1
  -3  -4   0 1557.76 330.081   1
   3   4   1 5575.00 622.841   1
   3   4   1 5793.54 708.060   3
  -3  -4  -1 5751.43 637.841   1
  -3  -4  -2 2935.66 444.909   1
   3   4   2 3399.85 474.574   1
   3   4   3 505.435 180.794   1
  -3  -4  -3 229.829 125.406   1
   3   4   4-0.86101 77.1748   2
  -3  -4  -4 244.591 138.701   1
  -3  -4  -5 60.5099 52.0995   1
  -3  -4  -6 496.930 210.868   1
   3   5  -8 30453.3 2222.40   2
   3   5  -7 56581.5 3044.76   2
   3   5  -6 47046.8 2717.74   2
   3   5  -5 72723.4 3299.67   2
   3   5  -4 74876.1 3192.93   2
   3   5  -3 70729.5 2976.11   2
   3   5  -2 100484. 3652.32   2
   3   5  -1 143033. 4518.57   2
  -3  -5   1 132299. 4351.74   1
  -3  -5   0 97991.1 3475.68   1
  -3  -5  -1 83004.2 3113.56   1
  -3  -5  -2 79416.6 2984.60   1
  -3  -5  -3 69939.9 2745.65   1
  -3  -5  -4 30805.2 1705.77   1
  -3  -5  -5 38293.6 1922.97   1
   3   6  -7 350.030 203.672   2
   3   6  -6 338.703 294.900   2
   3   6  -5 201.348 204.685   2
   3   6  -4 1901.82 492.582   2
   3   6  -3 60.2045 95.6675   2
   3   6  -2 64.8488 94.1693   2
   3   6  -1 205.594 149.773   2
   3   6   0-6.89924 48.2998   2
  -3  -6   0 244.373 157.425   1
   3   6   1 547.175 223.100   2
  -3  -6  -1 258.931 195.884   1
  -3  -6  -2-9.09715 92.2754   1
  -3  -6  -3 857.336 266.931   1
  -3  -6  -4 108.146 104.486   1
   3   7  -5 22083.4 1980.28   2
   3   7  -4 26001.3 2067.72   2
   3   7  -3 28561.5 2081.19   2
   3   7  -2 31152.5 2090.99   2
   3   7  -1 41701.5 2386.80   2
   3   7   0 47783.0 2501.85   2
   3   7   1 29303.6 1864.93   2
   3   7   2 25370.6 1687.47   2
  -3  -7  -2 26077.0 1768.42   1
  -3  -7  -3 29856.3 1867.65   1
   3   8  -3-244.899 209.965   2
   3   8  -2 1213.76 438.692   2
   3   8  -1 1965.46 557.973   2
   3   8   0 2211.18 525.397   2
   3   8   1 523.736 247.035   2
  -4   9   0-470.776 238.575   2
  -4   9  -1 440.005 154.176   2
   4  -8  -4 17629.3 1616.41   3
   4  -8  -3 18310.2 1569.33   3
   4  -8  -2 17170.7 1426.44   3
  -4   8   1 19201.8 1400.82   2
  -4   8   0 32049.9 1964.84   2
  -4   8  -1 22933.4 1734.18   2
  -4   8  -2 25187.2 1918.72   2
  -4   8  -3 19360.1 1747.46   2
   4  -7  -5 1891.33 518.229   3
   4  -7  -4 674.390 302.555   3
   4  -7  -3 336.424 217.424   3
  -4   7   2 995.355 247.161   2
  -4   7   2 1111.47 254.040   1
   4  -7  -2 1074.40 318.439   3
   4  -7  -1 86.0021 93.6786   3
  -4   7   1 345.083 188.157   2
  -4   7   0 23.0050 80.0289   2
  -4   7  -1 2295.77 496.722   2
  -4   7  -2 39.1754 98.3785   2
  -4   7  -3 144.261 178.562   2
  -4   7  -4 87.6255 125.680   2
   4  -6  -6 32279.9 2267.76   3
   4  -6  -5 33464.9 2209.23   3
   4  -6  -4 35516.8 2159.37   3
   4  -6  -3 74735.8 3074.49   3
  -4   6   3 68637.2 2047.37   1
  -4   6   2 17492.7 988.970   1
   4  -6  -2 15051.8 1083.14   2
  -4   6   2 16076.0 1058.46   2
   4  -6  -2 16293.8 1207.78   3
   4  -6  -1 45854.7 2020.06   3
  -4   6   1 44927.7 2006.54   2
  -4   6   0 61066.3 2615.01   2
   4  -6   0 64079.3 2333.34   3
  -4   6  -1 54655.9 2536.91   2
  -4   6  -2 35933.0 2087.05   2
  -4   6  -3 30614.4 2014.57   2
  -4   6  -4 24491.2 1860.52   2
  -4   6  -5 24178.8 1949.51   2
   4  -5  -7-299.305 212.089   3
   4  -5  -6 1472.24 435.198   3
   4  -5  -5-24.7106 89.1378   3
   4  -5  -4 407.174 123.748   2
   4  -5  -4 573.802 242.333   3
   4  -5  -3 7054.18 602.405   2
  -4   5   3 8040.81 512.425   1
   4  -5  -3 7985.09 848.029   3
  -4   5   2 1664.64 271.959   1
   4  -5  -2 1136.23 257.933   2
   4  -5  -2 1628.72 356.963   3
  -4   5   1 1997.36 354.134   2
   4  -5  -1 1645.38 352.679   2
   4  -5  -1 1571.84 326.535   3
   4  -5   0 12.7958 37.5215   3
   4  -5   0 165.915 134.217   2
  -4   5   0 107.002 136.817   2
  -4   5  -1 239.134 174.389   2
  -4   5  -2 81.5936 110.389   2
  -4   5  -3 423.476 211.822   2
  -4   5  -4 4122.69 712.456   2
  -4   5  -5 131.085 157.753   2
  -4   5  -6 994.677 422.063   2
   4  -4  -8 19743.4 1811.48   3
   4  -4  -7 23780.1 1881.43   3
   4  -4  -6 41858.5 2410.11   3
   4  -4  -5 38330.2 1134.41   2
   4  -4  -5 49559.6 2437.39   3
   4  -4  -4 83375.3 2340.31   2
  -4   4   4 80756.3 2042.97   1
   4  -4  -3 81680.7 2579.86   2
  -4   4   3 90943.4 2410.60   1
   4  -4  -3 89903.2 3201.70   3
  -4   4   2 82857.3 2476.61   1
   4  -4  -2 79949.5 2618.61   2
   4  -4  -2 81688.6 2858.87   3
  -4   4   1 98683.0 3013.67   1
   4  -4  -1 100184. 3158.32   2
   4  -4  -1 97162.4 3038.30   3
   4  -4   0 138687. 4164.41   2
  -4   4   0 134455. 4094.97   2
   4  -4   0 141686. 3690.21   3
   4  -4   1 185449. 5326.28   2
  -4   4  -1 186302. 5319.19   2
   4  -4   1 184086. 4324.09   3
  -4   4  -2 160533. 4965.18   2
  -4   4  -3 37822.8 2062.56   2
  -4   4  -4 91636.7 3660.65   2
  -4   4  -5 42421.8 2427.51   2
  -4   4  -6 34630.1 2279.11   2
  -4   4  -7 40708.4 2581.67   2
   4  -3  -8 1085.02 401.605   3
   4  -3  -7 1719.20 483.578   3
   4  -3  -6 80.7036 52.4257   2
   4  -3  -6 373.461 73.8684   2
   4  -3  -6 127.075 179.823   3
   4  -3  -5 1871.00 458.950   3
   4  -3  -5 1972.16 232.706   2
  -4   3   4 272.641 88.0234   1
   4  -3  -4 290.826 102.288   2
   4  -3  -4 360.270 211.235   3
   4  -3  -3 482.626 216.032   3
  -4   3   3 400.278 112.241   1
   4  -3  -2 288.875 145.613   3
  -4   3   2 355.769 118.640   1
   4  -3  -2 230.986 91.1072   2
  -4   3   1 1295.91 248.514   1
   4  -3  -1 1408.28 278.380   2
   4  -3  -1 1824.12 310.093   3
  -4   3   0 8712.44 732.349   1
   4  -3   0 9752.35 786.133   2
   4  -3   0 8633.06 580.820   3
  -4   3  -1 2621.79 426.247   2
  -4   3  -1 2616.75 428.755   1
   4  -3   1 3063.68 463.208   2
   4  -3   1 2691.13 236.617   3
  -4   3  -2-50.4197 130.170   2
   4  -3   2-34.3611 91.2098   2
  -4   3  -3 344.933 169.524   2
  -4   3  -4 8606.23 936.148   2
  -4   3  -5 1234.67 348.396   2
  -4   3  -6-153.310 142.431   2
  -4   3  -7-625.200 285.242   2
   4  -2  -9 42328.4 2731.46   3
   4  -2  -8 22461.7 1875.02   3
   4  -2  -7 86686.3 2454.86   2
   4  -2  -7 83791.3 3733.84   3
   4  -2  -6 72678.3 2156.84   2
   4  -2  -6 70952.7 2062.04   1
   4  -2  -6 68073.0 3154.74   3
   4  -2  -5 93840.8 2523.25   1
   4  -2  -5 80021.3 3346.71   3
   4  -2  -4 130822. 3366.36   1
  -4   2   4 130660. 3313.25   1
   4  -2  -3 153543. 3924.93   1
   4  -2  -3 151625. 4033.18   2
  -4   2   3 149458. 3843.38   1
  -4   2   2 122906. 3331.72   1
   4  -2  -2 122590. 3455.46   2
  -4   2   1 123524. 3484.78   1
   4  -2  -1 126506. 3593.99   2
  -4   2   0 135082. 3839.94   1
   4  -2   0 133789. 3866.92   2
  -4   2  -1 239703. 6207.26   1
   4  -2   1 239621. 6185.47   2
  -4   2  -2 122486. 3894.54   1
   4  -2   2 124555. 3854.22   2
  -4   2  -3 80293.6 3046.47   1
  -4   2  -3 82869.7 3098.50   2
  -4   2  -4 50028.7 2386.25   1
  -4   2  -4 48978.3 2345.89   2
  -4   2  -5 56154.3 2696.29   1
  -4   2  -5 56326.0 2675.58   2
  -4   2  -6 50679.1 2653.54   1
  -4   2  -6 50833.7 2647.87   2
  -4   2  -7 41628.1 2482.99   1
  -4   2  -8 24902.0 1980.85   1
   4  -1  -9 1394.03 494.255   3
   4  -1  -8 892.290 368.158   3
   4  -1  -7 2087.89 510.553   3
   4  -1  -7 1759.84 312.071   1
   4  -1  -6 2348.38 341.343   1
   4  -1  -5 5966.47 540.508   1
  -4   1   5 7060.14 573.885   1
  -4   1   4 1037.99 210.192   1
   4  -1  -4 849.766 196.914   1
   4  -1  -3 212.008 101.923   1
  -4   1   3 150.740 77.7982   1
   4  -1  -2 40065.4 1567.90   1
  -4   1   2 36869.4 1488.13   1
  -4   1   1 1327.71 259.521   1
   4  -1  -1 1218.23 241.025   1
   4  -1   0 911.310 219.278   2
  -4   1   0 737.767 193.094   1
   4  -1   1 1755.91 327.316   2
   4  -1   2 3985.71 513.962   2
   4  -1   2 4377.86 317.544   3
  -4   1  -3 2067.02 395.814   1
   4  -1   3 2619.83 222.701   3
   4  -1   3 2893.06 452.708   2
  -4   1  -4 2386.56 462.176   1
  -4   1  -5 316.300 144.952   1
  -4   1  -6-48.4791 86.0267   1
  -4   1  -7 1221.29 398.853   1
  -4   1  -8 296.570 158.165   1
   4   0  -9 33423.6 2363.36   3
   4   0  -8 47602.2 2093.32   2
   4   0  -7 70981.6 2595.47   2
   4   0  -7 65204.6 2518.96   1
   4   0  -6 72122.0 2518.20   2
   4   0  -6 68824.0 2519.51   1
  -4   0   5 117790. 3484.10   1
   4   0  -5 112634. 3482.25   1
  -4   0   4 118074. 3430.75   1
   4   0  -4 117921. 3493.63   1
   4   0  -3 111241. 3317.76   1
  -4   0   3 111408. 3233.53   1
   4   0  -2 480653. 10727.9   1
  -4   0   2 456223. 10623.9   1
   4   0  -1 103183. 3140.85   1
  -4   0   1 102383. 3102.36   1
   4   0   0 269804. 6701.08   1
   4   0   1 307334. 7498.69   1
   4   0   1 298201. 7454.32   2
  -4   0  -2 192190. 5326.43   1
   4   0   2 191496. 5268.00   2
   4   0   2 196299. 4722.99   3
  -4   0  -3 129346. 4115.64   1
   4   0   3 131367. 4015.50   2
   4   0   3 131614. 3419.45   3
  -4   0  -4 87061.4 3306.26   1
   4   0   4 93065.6 2640.60   3
  -4   0  -5 82304.9 3294.34   1
   4   0   5 84638.6 2580.73   3
  -4   0  -6 68850.9 3050.66   1
  -4   0  -7 38647.8 2281.81   1
  -4   0  -8 35021.0 2232.29   1
   4   1  -9 89.4484 125.915   2
   4   1  -8 134.196 188.224   2
   4   1  -7 198.810 79.4920   2
   4   1  -6 621.403 219.464   2
   4   1  -6 570.042 213.081   1
   4   1  -5 9099.73 822.602   1
   4   1  -4 108.248 76.7322   1
  -4  -1   4 115.313 86.2693   1
  -4  -1   3 8069.01 693.463   1
   4   1  -3 7994.32 719.242   1
   4   1  -2 2772.11 410.100   1
  -4  -1   2 2804.01 392.031   1
   4   1  -1 12741.3 903.808   1
   4   1   0 1451.58 293.486   1
   4   1   1 72.0685 82.7379   1
   4   1   2 158.918 112.204   2
  -4  -1  -2 118.964 76.3270   1
   4   1   2 127.956 95.9546   1
   4   1   2 275.848 124.753   3
   4   1   3 2555.90 358.684   3
   4   1   3 2788.48 434.603   2
  -4  -1  -3 2482.75 435.068   1
  -4  -1  -4 212.989 136.905   1
   4   1   4 197.031 66.9934   3
  -4  -1  -5 6434.53 778.914   1
   4   1   5 6723.21 659.802   3
  -4  -1  -6 130.065 87.0939   1
  -4  -1  -7 1024.43 348.135   1
  -4  -1  -8 1180.91 390.206   1
   4   2  -9 33063.8 2025.02   2
   4   2  -8 54511.4 2683.41   2
   4   2  -7 74914.3 3051.56   2
   4   2  -6 76735.2 2973.06   2
   4   2  -5 96711.1 3358.34   2
   4   2  -5 91858.9 3353.25   1
  -4  -2   4 66853.9 2566.79   1
   4   2  -4 69938.6 2719.85   1
  -4  -2   3 142336. 4277.80   1
   4   2  -3 146290. 4378.13   1
   4   2  -2 184036. 5184.26   1
  -4  -2   2 187276. 5140.73   1
   4   2  -1 173922. 4892.21   1
   4   2   0 137946. 4097.62   1
  -4  -2   0 137574. 4107.52   1
   4   2   1 99981.1 3305.64   1
  -4  -2  -1 101630. 3337.94   1
   4   2   2 104208. 3421.06   1
  -4  -2  -2 102396. 3432.16   1
   4   2   2 102457. 3282.24   3
  -4  -2  -3 101860. 3457.99   1
   4   2   3 99396.9 3283.95   2
   4   2   3 98154.1 3255.69   3
  -4  -2  -4 28174.7 1654.99   1
   4   2   4 28122.5 1507.31   3
  -4  -2  -5 90688.8 3425.84   1
  -4  -2  -6 42505.5 2231.83   1
  -4  -2  -7 26208.9 1769.08   1
   4   3  -9 813.910 295.765   2
   4   3  -8 304.519 211.730   2
   4   3  -7 2134.77 491.604   2
   4   3  -6 2032.85 456.755   2
   4   3  -5 4740.73 653.072   2
  -4  -3   4 2686.03 491.622   1
  -4  -3   3 3493.42 526.260   1
   4   3  -2 181.329 154.437   1
  -4  -3   2 10.6170 62.4636   1
   4   3  -1 520.543 208.391   1
  -4  -3   1 588.577 210.453   1
   4   3   0 537.589 201.371   1
  -4  -3   0 685.778 214.624   1
   4   3   1-29.3644 101.766   3
  -4  -3  -1 179.820 111.077   1
  -4  -3  -2 2528.51 436.181   1
   4   3   2 2822.65 474.846   3
  -4  -3  -3 936.441 276.786   1
  -4  -3  -4 2967.82 510.166   1
  -4  -3  -5 47.0134 98.8613   1
  -4  -3  -6 98.6307 75.4761   1
   4   4  -9 17855.6 1664.26   2
   4   4  -8 42993.5 2617.09   2
   4   4  -7 26011.6 1903.00   2
   4   4  -6 72457.8 3231.99   2
   4   4  -5 52482.9 2568.35   2
   4   4  -4 50128.6 2449.74   2
  -4  -4   3 79134.5 3117.83   1
  -4  -4   2 129502. 4285.34   1
  -4  -4   1 150728. 4706.29   1
  -4  -4   0 118856. 3970.17   1
  -4  -4  -1 76002.4 2955.39   1
  -4  -4  -2 90049.0 3302.06   1
  -4  -4  -3 60719.2 2624.70   1
  -4  -4  -4 59239.0 2624.21   1
  -4  -4  -5 45339.2 2296.88   1
  -4  -4  -6 36633.0 2078.09   1
   4   5  -7 1610.17 490.018   2
   4   5  -6-500.213 259.083   2
   4   5  -5 352.561 254.124   2
   4   5  -4 453.807 262.896   2
   4   5  -3-93.0767 109.037   2
  -4  -5   2 3770.91 627.715   1
  -4  -5   1 90.9586 110.975   1
  -4  -5   0 4180.37 648.403   1
  -4  -5  -1 194.077 141.994   1
  -4  -5  -2 1507.94 379.934   1
  -4  -5  -3-135.092 197.507   1
  -4  -5  -4-370.527 194.190   1
  -4  -5  -5-275.814 169.334   1
   4   6  -6 30905.2 2317.56   2
   4   6  -5 28939.0 2098.85   2
   4   6  -4 37198.9 2335.23   2
   4   6  -3 34425.9 2171.26   2
   4   6  -2 35096.3 2157.41   2
   4   6  -1 85818.0 3620.26   2
  -4  -6   1 88971.6 3675.83   1
  -4  -6   0 26509.9 1784.56   1
  -4  -6  -1 30434.8 1933.20   1
  -4  -6  -2 28540.0 1861.22   1
  -4  -6  -3 20805.3 1566.43   1
  -4  -6  -4 24750.9 1700.65   1
   4   7  -4 468.052 308.142   2
   4   7  -3-69.5279 111.360   2
   4   7  -2 1076.85 381.949   2
   4   7  -1-252.134 187.149   2
   4   7   0 965.867 362.076   2
  -4  -7  -1 377.537 236.683   1
   4   7   1 76.9120 103.903   2
   4   7   2 98.5997 115.001   2
  -4  -7  -2 150.525 74.2967   1
   4   8  -1 24957.5 2001.63   2
   4   8   0 22565.0 1835.67   2
   4   8   1 16141.8 1515.45   2
   5  -8  -4 405.718 238.798   3
   5  -8  -3-109.761 128.740   3
   5  -8  -2 419.901 215.097   3
  -5   8   1 298.573 179.059   2
  -5   8   0 266.197 178.418   2
  -5   8  -1 316.192 212.259   2
  -5   8  -2-82.5473 128.182   2
   5  -7  -5 18348.2 1700.25   3
   5  -7  -4 27844.0 1948.05   3
   5  -7  -3 18590.2 1480.21   3
  -5   7   2 25043.1 1356.36   1
   5  -7  -2 22738.2 1561.26   3
  -5   7   1 33453.1 1783.54   1
  -5   7   1 32976.8 1927.00   2
   5  -7  -1 32441.4 1772.69   3
  -5   7   0 37515.4 2135.71   2
  -5   7  -1 27136.4 1886.70   2
  -5   7  -2 27750.3 2016.46   2
  -5   7  -3 14148.0 1483.68   2
   5  -6  -6-55.9335 211.030   3
   5  -6  -5 138.770 86.4903   3
   5  -6  -4 49.9200 127.427   3
   5  -6  -3 436.001 240.212   3
  -5   6   3 217.191 106.662   1
  -5   6   2 14.5494 93.0638   1
   5  -6  -2-118.000 131.626   3
  -5   6   1 98.4005 88.5126   1
   5  -6  -1 33.2610 58.8996   3
  -5   6   0 180.863 139.942   2
   5  -6   0-9.76730 42.1278   3
  -5   6  -1 516.528 255.117   2
  -5   6  -2 220.333 211.431   2
  -5   6  -3 1960.80 530.111   2
  -5   6  -4 387.862 197.587   2
   5  -5  -7 20280.7 1830.76   3
   5  -5  -6 19517.4 1694.90   3
   5  -5  -5 24667.7 1811.16   3
  -5   5   4 32733.4 1169.92   1
   5  -5  -4 33596.7 2029.20   3
   5  -5  -3 49728.2 2069.80   2
  -5   5   3 53668.5 1866.51   1
   5  -5  -3 55945.2 2513.83   3
  -5   5   2 34551.4 1548.91   1
   5  -5  -2 31511.6 1660.51   2
   5  -5  -2 34074.1 1764.01   3
  -5   5   1 42090.8 1892.13   1
   5  -5  -1 40215.0 1997.47   2
   5  -5  -1 41134.4 1820.35   3
  -5   5   0 72812.1 2814.61   1
  -5   5   0 74427.3 2971.94   2
   5  -5   0 69372.0 2311.39   3
  -5   5  -1 57138.8 2612.17   2
  -5   5  -2 28620.2 1852.92   2
  -5   5  -3 44144.4 2485.38   2
  -5   5  -4 24671.9 1891.39   2
  -5   5  -5 25175.7 1983.64   2
   5  -4  -7 726.555 324.772   3
   5  -4  -6 1194.03 385.154   3
  -5   4   5 99.3057 43.9199   1
   5  -4  -5 430.388 203.205   3
  -5   4   4 330.228 113.555   1
   5  -4  -4 214.296 57.5799   2
   5  -4  -4 365.537 192.211   3
  -5   4   3 55.5468 81.8179   1
   5  -4  -3 325.428 155.896   2
   5  -4  -3 207.514 146.820   3
   5  -4  -2 376.146 170.955   2
  -5   4   2 286.431 143.391   1
   5  -4  -2 216.321 137.521   3
  -5   4   1 1818.80 342.263   1
   5  -4  -1 2646.00 439.846   2
   5  -4  -1 1697.01 319.237   3
  -5   4   0 378.735 153.926   1
   5  -4   0 229.392 107.775   3
  -5   4  -1 66.2694 153.864   1
   5  -4   1 13.0156 25.3907   3
  -5   4  -2 1756.12 408.591   2
  -5   4  -2 1745.03 425.266   1
  -5   4  -3 581.368 255.084   2
  -5   4  -4-93.9217 115.050   2
  -5   4  -5-16.7008 78.3939   2
  -5   4  -6 1181.25 436.359   2
  -5   4  -6 1176.33 423.342   1
   5  -3  -8 24723.4 2047.96   3
   5  -3  -7 44982.4 2731.17   3
   5  -3  -6 42363.1 2522.22   3
  -5   3   5 43392.8 1465.10   1
   5  -3  -5 38415.5 1564.68   2
   5  -3  -5 38850.4 2277.68   3
   5  -3  -4 107311. 3192.21   2
  -5   3   4 109112. 3000.25   1
   5  -3  -4 101439. 3870.88   3
   5  -3  -3 97632.0 3050.39   2
  -5   3   3 97545.6 2900.74   1
   5  -3  -3 93645.9 3465.20   3
  -5   3   2 151573. 4177.84   1
   5  -3  -2 149074. 4304.81   2
   5  -3  -2 149277. 4481.37   3
  -5   3   1 88838.6 2967.26   1
   5  -3  -1 89826.7 3040.71   2
   5  -3  -1 90228.9 2939.43   3
  -5   3   0 132983. 4143.41   1
   5  -3   0 134371. 4203.02   2
   5  -3   0 141222. 3731.83   3
  -5   3  -1 99889.6 3502.76   1
   5  -3   1 102043. 2593.35   3
  -5   3  -2 82058.1 3214.69   1
  -5   3  -3 52211.5 2555.03   1
  -5   3  -4 56184.7 2790.82   1
  -5   3  -5 46861.4 2644.25   1
  -5   3  -6 27723.2 2076.00   1
   5  -2  -8 1421.99 484.010   3
   5  -2  -7 1005.47 424.411   3
   5  -2  -6 1396.66 431.350   3
   5  -2  -6 1063.81 231.617   1
  -5   2   5-32.0811 42.6708   1
   5  -2  -5 58.0491 31.5487   1
   5  -2  -4 3804.97 447.593   1
  -5   2   4 3437.42 396.592   1
   5  -2  -3 249.971 108.486   1
  -5   2   3 228.349 113.177   1
   5  -2  -2 249.557 118.684   2
  -5   2   2 26.9361 43.1639   1
   5  -2  -1-32.8098 100.575   2
  -5   2   1 365.165 175.598   1
  -5   2   0 3876.85 519.719   1
   5  -2   0 4151.21 551.726   2
  -5   2  -1 3985.37 561.637   1
   5  -2   2 1503.98 148.728   3
  -5   2  -2 1574.44 377.027   1
   5  -2   2 1754.37 169.921   3
  -5   2  -3 2882.65 535.003   1
  -5   2  -4 553.487 252.808   1
  -5   2  -5 2321.25 515.587   1
  -5   2  -6 835.932 302.719   1
   5  -1  -8 28003.2 2142.03   3
   5  -1  -7 64165.7 2372.17   2
   5  -1  -6 58507.2 2226.39   1
  -5   1   5 36805.7 1601.61   1
   5  -1  -5 37103.7 1665.33   1
   5  -1  -4 72525.5 2532.24   1
  -5   1   4 69539.6 2422.03   1
   5  -1  -3 147417. 4196.14   1
  -5   1   3 143987. 4074.66   1
   5  -1  -2 127503. 3818.03   1
  -5   1   2 126089. 3732.83   1
   5  -1  -1 122028. 3736.49   1
  -5   1   1 118342. 3663.75   1
   5  -1  -1 121510. 3813.86   2
  -5   1   0 99032.6 3299.50   1
   5  -1   0 96726.4 3281.46   2
  -5   1  -1 117905. 3808.91   1
   5  -1   1 114437. 3776.26   2
  -5   1  -2 61508.2 2582.97   1
   5  -1   2 60828.7 1818.80   3
  -5   1  -3 101163. 3677.60   1
   5  -1   3 97550.3 2500.55   3
  -5   1  -4 64502.6 2912.09   1
  -5   1  -5 73507.4 3287.55   1
  -5   1  -6 37101.0 2300.57   1
  -5   1  -7 32566.5 2261.86   1
   5   0  -9 387.303 189.203   3
   5   0  -8 27.8819 104.468   2
   5   0  -7 8.22902 45.5292   2
   5   0  -6 6106.88 682.608   1
   5   0  -5 2554.22 424.240   1
  -5   0   5 2300.96 388.125   1
   5   0  -4 1380.86 309.781   1
  -5   0   4 1170.55 271.179   1
  -5   0   3 209.461 106.772   1
   5   0  -3 171.435 96.7300   1
  -5   0   2 314.372 148.564   1
   5   0  -2 346.008 152.650   1
   5   0  -1 5873.71 647.368   1
  -5   0   1 4638.67 565.000   1
  -5   0   0 98.7783 80.2480   1
   5   0   0 190.692 131.159   1
  -5   0  -1 8512.89 820.991   1
   5   0   1 7583.37 764.702   2
   5   0   2 409.439 134.620   3
  -5   0  -2 241.313 138.739   1
  -5   0  -3 224.285 133.256   1
   5   0   3 76.3819 65.0386   3
  -5   0  -4-98.0143 146.391   1
   5   0   4-10.0061 72.6047   3
  -5   0  -5 119.831 73.6662   1
  -5   0  -6 697.847 301.985   1
  -5   0  -7 201.731 177.529   1
   5   1  -8 46568.4 2332.29   2
   5   1  -7 52289.8 2370.24   2
   5   1  -6 84103.5 3160.09   2
  -5  -1   5 65694.0 2566.46   1
  -5  -1   4 86933.3 3064.77   1
   5   1  -4 84570.5 3106.19   1
   5   1  -3 135963. 4244.06   1
  -5  -1   3 136827. 4156.56   1
   5   1  -2 245908. 6509.39   1
  -5  -1   2 237006. 6365.60   1
   5   1  -1 145551. 4448.21   1
  -5  -1   1 148030. 4422.99   1
   5   1   0 96451.0 3323.96   1
  -5  -1   0 93622.5 3275.04   1
  -5  -1  -1 110599. 3722.51   1
  -5  -1  -2 91189.9 3328.18   1
   5   1   2 88055.5 2900.22   3
  -5  -1  -3 61656.7 2702.48   1
   5   1   3 62310.3 2266.24   3
  -5  -1  -4 93722.6 3602.12   1
   5   1   4 90266.9 2973.26   3
  -5  -1  -5 51085.2 2612.18   1
  -5  -1  -6 32385.8 2087.42   1
  -5  -1  -7 20406.2 1694.70   1
   5   2  -9 680.000 322.493   2
   5   2  -8 19.2262 95.2420   2
   5   2  -7 175.445 96.4591   2
   5   2  -6 80.6304 78.3090   2
  -5  -2   5 1811.53 407.316   1
  -5  -2   4 489.720 194.655   1
  -5  -2   3 368.517 191.226   1
  -5  -2   2 890.066 256.782   1
  -5  -2   1 416.659 171.962   1
  -5  -2   0 85.7479 97.0264   1
  -5  -2  -1 13459.5 1094.28   1
  -5  -2  -2 6274.35 765.739   1
   5   2   2 6085.25 678.436   3
  -5  -2  -3 615.823 257.167   1
   5   2   3 635.954 171.882   3
  -5  -2  -4 14.6667 114.184   1
  -5  -2  -5 517.988 241.854   1
  -5  -2  -6 67.7958 100.540   1
  -5  -2  -7 116.811 133.028   1
   5   3  -9 17887.1 1622.29   2
   5   3  -8 24797.6 1876.36   2
   5   3  -7 35259.1 2146.20   2
   5   3  -6 54974.2 2674.86   2
   5   3  -5 56415.3 2661.07   2
  -5  -3   4 34928.7 1940.24   1
  -5  -3   3 94856.5 3523.45   1
  -5  -3   2 83802.9 3217.49   1
  -5  -3   1 116092. 3965.84   1
  -5  -3   0 47060.1 2240.66   1
  -5  -3  -1 61062.3 2662.61   1
  -5  -3  -2 58888.0 2668.14   1
  -5  -3  -3 58105.3 2685.38   1
  -5  -3  -4 58155.8 2770.40   1
  -5  -3  -5 47229.5 2526.53   1
  -5  -3  -6 32346.1 2089.91   1
   5   4  -8 155.101 92.7188   2
   5   4  -7-227.001 180.293   2
   5   4  -6 659.561 289.182   2
   5   4  -5 282.910 179.118   2
  -5  -4   4 232.164 194.694   1
  -5  -4   3 725.368 280.483   1
  -5  -4   2 570.641 234.092   1
  -5  -4   1 180.468 139.733   1
  -5  -4   0 130.916 119.167   1
  -5  -4  -1 460.864 197.672   1
  -5  -4  -2-118.026 173.405   1
  -5  -4  -3 1218.33 357.620   1
  -5  -4  -4 454.585 217.711   1
  -5  -4  -5 1393.16 398.964   1
   5   5  -6 38869.5 2470.53   2
   5   5  -5 42295.7 2491.42   2
   5   5  -4 34974.6 2209.04   2
   5   5  -3 48955.4 2600.42   2
  -5  -5   3 42275.2 2432.68   1
  -5  -5   2 65797.8 3073.46   1
  -5  -5   1 53066.1 2680.02   1
  -5  -5   0 39132.5 2244.23   1
  -5  -5  -1 39003.4 2236.44   1
  -5  -5  -2 42147.2 2362.13   1
  -5  -5  -3 28157.2 1898.29   1
  -5  -5  -4 33695.0 2105.48   1
   5   6  -4-38.1794 102.044   2
   5   6  -3 423.216 206.455   2
   5   6  -2 182.073 215.178   2
  -5  -6   2 40.1930 175.495   1
  -5  -6   1-194.544 159.737   1
  -5  -6   0 83.7022 47.9892   1
  -5  -6  -1 77.7658 110.091   1
  -5  -6  -2 455.542 258.293   1
  -5  -6  -3 328.866 177.916   1
   5   7  -1 23545.8 1911.43   2
  -5  -7   1 23990.3 1965.14   1
   5   7   0 15106.8 1502.37   2
  -5  -7   0 17122.9 1604.45   1
   5   7   1 17825.7 1602.13   2
  -5  -7  -1 13645.0 1399.53   1
  -5  -7  -2 20856.6 1738.79   1
   6  -8  -3 12716.7 1294.68   3
  -6   8  -1 14489.5 1432.74   1
   6  -7  -4-7.70137 185.627   3
   6  -7  -3 1836.12 441.674   3
   6  -7  -2-155.940 124.794   3
  -6   7   1-523.787 220.801   1
  -6   7   0 626.988 283.489   1
  -6   7  -1-67.7349 106.328   1
  -6   7  -2-68.7236 117.517   2
  -6   7  -2-440.836 250.188   1
   6  -6  -5 13424.9 1409.70   3
   6  -6  -4 38402.4 2320.81   3
   6  -6  -3 16402.9 1367.62   3
  -6   6   2 32569.1 1675.45   1
   6  -6  -2 31786.6 1827.97   3
  -6   6   1 31092.7 1754.67   1
   6  -6  -1 29624.5 1564.76   3
  -6   6   0 23078.3 1603.09   1
  -6   6  -1 18141.7 1508.12   1
  -6   6  -2 19546.0 1644.41   1
  -6   6  -2 22459.4 1828.26   2
  -6   6  -3 15799.1 1557.29   1
  -6   6  -3 17165.2 1661.38   2
   6  -5  -6 105.973 72.3549   3
   6  -5  -5 375.733 230.821   3
   6  -5  -4 2211.93 518.893   3
  -6   5   3 144.713 119.079   1
   6  -5  -3 326.633 195.574   3
  -6   5   2 271.746 162.471   1
   6  -5  -2-60.0041 121.413   3
  -6   5   1 1644.51 369.080   1
   6  -5  -1 760.628 244.892   3
  -6   5   0 1375.72 361.009   1
   6  -5   0 1557.93 294.672   3
  -6   5  -1 1089.91 347.541   1
  -6   5  -2 209.103 83.7046   1
  -6   5  -3 1340.64 429.591   1
  -6   5  -4 95.6907 125.287   1
   6  -4  -7 22237.6 1946.80   3
   6  -4  -6 13859.7 1434.09   3
   6  -4  -5 26694.3 1931.45   3
  -6   4   4 42211.8 1684.71   1
   6  -4  -4 39203.0 2254.84   3
   6  -4  -3 56103.7 2340.60   2
  -6   4   3 58394.6 2205.57   1
   6  -4  -3 57613.2 2629.99   3
  -6   4   2 57663.4 2325.72   1
   6  -4  -2 59074.0 2477.10   3
  -6   4   1 45603.5 2123.22   1
   6  -4  -1 47388.8 1986.61   3
  -6   4   0 50465.8 2381.37   1
   6  -4   0 51253.3 1860.22   3
  -6   4  -1 56522.9 2620.21   1
   6  -4   1 52692.7 1575.22   3
  -6   4  -2 23978.3 1721.79   1
  -6   4  -3 77307.6 3506.64   1
  -6   4  -4 30278.3 2154.72   1
   6  -3  -7 27.6905 67.7985   3
   6  -3  -6-145.016 190.203   3
   6  -3  -5 1754.93 479.936   3
  -6   3   5 1635.48 289.618   1
   6  -3  -4 17.2808 90.7462   3
  -6   3   4-10.1420 43.6264   1
   6  -3  -4-61.3413 58.1077   2
   6  -3  -3 204.524 156.728   3
  -6   3   3 475.427 179.819   1
   6  -3  -2 61.7323 114.949   3
  -6   3   2 125.072 97.4466   1
   6  -3  -1 185.170 121.023   3
  -6   3   1 379.942 174.381   1
  -6   3   0 2997.75 519.000   1
   6  -3   0 2450.35 373.922   3
  -6   3  -1 1537.46 394.690   1
   6  -3   1 1517.55 224.135   3
  -6   3  -2 949.026 340.837   1
  -6   3  -3 219.382 129.904   1
  -6   3  -4-128.681 138.934   1
  -6   3  -5 37.2346 185.417   1
   6  -2  -8 34594.8 2558.62   3
   6  -2  -7 31843.1 2301.18   3
  -6   2   6 37194.3 1621.44   1
   6  -2  -6 36152.1 2362.58   3
  -6   2   5 44446.7 1829.11   1
   6  -2  -5 41840.4 1872.15   1
   6  -2  -4 67008.3 2512.22   1
   6  -2  -4 66365.1 2610.36   2
  -6   2   4 64822.2 2381.65   1
   6  -2  -3 90115.9 3153.86   2
  -6   2   3 89187.0 3025.12   1
  -6   2   2 88906.7 3103.27   1
  -6   2   1 59535.7 2463.77   1
  -6   2   0 68875.9 2799.39   1
  -6   2  -1 41262.6 2144.75   1
  -6   2  -2 60242.0 2715.44   1
   6  -2   2 49900.6 1476.41   3
  -6   2  -3 52789.8 2696.40   1
  -6   2  -4 44308.7 2555.67   1
  -6   2  -5 29619.0 2128.57   1
   6  -1  -8 1479.00 496.025   3
   6  -1  -7 33.6638 105.211   2
  -6   1   6 1719.24 343.113   1
   6  -1  -5 1071.26 274.846   1
  -6   1   5 1048.18 276.604   1
  -6   1   4 603.056 197.360   1
   6  -1  -4 474.291 190.473   1
   6  -1  -3 6313.91 706.733   1
  -6   1   3 6555.95 689.736   1
  -6   1   2 2384.38 420.500   1
  -6   1   1 2607.29 462.554   1
  -6   1   0 13310.9 1100.36   1
  -6   1  -1 641.130 253.099   1
   6  -1   2 844.147 179.573   3
  -6   1  -2 799.223 274.289   1
  -6   1  -3 188.762 156.062   1
  -6   1  -4-8.75736 82.3516   1
  -6   1  -5 133.391 166.198   1
   6   0  -8 24347.7 1560.25   2
   6   0  -7 35323.2 1901.15   2
  -6   0   6 54884.2 2366.56   1
  -6   0   5 42163.3 2002.11   1
  -6   0   4 41950.2 1994.73   1
  -6   0   3 150528. 4550.89   1
  -6   0   2 51771.1 2288.78   1
  -6   0   1 96795.8 3456.88   1
  -6   0   0 80415.2 3122.02   1
  -6   0  -1 62448.6 2739.67   1
  -6   0  -2 80495.5 3265.87   1
   6   0   2 74914.0 2531.61   3
  -6   0  -3 75560.3 3309.00   1
  -6   0  -4 65003.5 3138.32   1
  -6   0  -5 41198.3 2496.23   1
  -6   0  -6 19762.0 1736.13   1
   6   1  -8 841.796 287.643   2
   6   1  -7 86.2059 123.296   2
  -6  -1   6 1806.71 425.329   1
  -6  -1   5 232.814 131.606   1
  -6  -1   4 464.442 223.131   1
  -6  -1   3 3239.29 527.296   1
  -6  -1   2 2295.68 445.123   1
  -6  -1   1-183.449 130.629   1
  -6  -1   0 1123.20 307.788   1
  -6  -1  -1 964.981 305.731   1
  -6  -1  -2-2.96241 126.702   1
   6   1   2 202.624 118.335   3
  -6  -1  -3 3156.14 600.983   1
  -6  -1  -4 1376.87 415.462   1
  -6  -1  -5 268.306 189.622   1
   6   2  -9 15619.2 1467.30   2
   6   2  -8 21331.8 1633.43   2
   6   2  -7 32603.7 2021.79   2
   6   2  -6 61707.8 2862.14   2
  -6  -2   5 43289.8 2233.90   1
  -6  -2   4 61660.8 2766.32   1
  -6  -2   3 67651.8 2883.66   1
  -6  -2   2 71631.4 2972.65   1
  -6  -2   1 61400.0 2720.68   1
  -6  -2   0 45926.6 2324.95   1
  -6  -2  -1 55032.6 2638.00   1
  -6  -2  -2 66151.1 3006.46   1
  -6  -2  -3 26717.5 1846.11   1
  -6  -2  -4 59847.5 3013.15   1
  -6  -2  -5 21652.3 1752.66   1
   6   3  -8-162.426 156.840   2
   6   3  -7 1715.08 477.709   2
   6   3  -6 306.784 194.900   2
  -6  -3   5 27.4307 84.3020   1
  -6  -3   4 1320.28 379.883   1
  -6  -3   3 792.394 286.496   1
  -6  -3   2 567.194 243.023   1
  -6  -3   1 1557.77 397.674   1
  -6  -3   0 53.4358 48.2561   1
  -6  -3  -1 826.749 257.341   1
  -6  -3  -2-37.8757 88.5149   1
  -6  -3  -3 1764.06 448.472   1
  -6  -3  -4-220.451 225.509   1
  -6  -3  -5 166.282 157.929   1
   6   4  -6 26733.1 1965.48   2
   6   4  -5 32487.5 2191.11   2
  -6  -4   4 35138.0 2173.89   1
  -6  -4   3 39893.9 2334.42   1
  -6  -4   2 44471.3 2466.37   1
  -6  -4   1 39306.9 2297.36   1
  -6  -4   0 41129.4 2362.46   1
  -6  -4  -1 52665.8 2736.84   1
  -6  -4  -2 37232.2 2252.32   1
  -6  -4  -3 36308.6 2277.01   1
  -6  -4  -4 28783.0 2042.97   1
   6   5  -5 80.3923 140.895   2
  -6  -5   4 457.081 272.610   1
   6   5  -4 74.9945 77.0198   2
  -6  -5   3 207.531 151.750   1
  -6  -5   2 1396.73 445.019   1
  -6  -5   1 441.084 274.648   1
  -6  -5   0-20.4439 65.4545   1
  -6  -5  -1 457.384 282.845   1
  -6  -5  -2 671.832 295.509   1
  -6  -5  -3-251.837 246.675   1
  -6  -6   1 11020.7 1277.52   1
  -6  -6   0 20521.4 1782.59   1
   7  -7  -4 10867.9 1263.77   3
  -7   7   0 9877.72 1113.88   1
  -7   7  -1 15399.5 1492.76   1
   7  -6  -5 329.410 221.410   3
   7  -6  -4 202.862 224.390   3
   7  -6  -3 273.764 121.692   3
   7  -6  -2 62.4539 81.9241   3
  -7   6   2-101.539 102.985   1
  -7   6   1 1286.99 349.827   1
  -7   6   0 72.5808 104.773   1
  -7   6  -1-319.526 204.325   1
  -7   6  -2-203.985 177.568   1
   7  -5  -5 11600.5 1307.20   3
   7  -5  -4 23772.2 1776.10   3
  -7   5   3 19138.6 1256.81   1
   7  -5  -3 18947.0 1472.54   3
  -7   5   2 19749.4 1374.72   1
   7  -5  -2 19222.9 1367.08   3
  -7   5   1 25253.6 1664.56   1
   7  -5  -1 25506.0 1426.57   3
  -7   5   0 19434.7 1526.60   1
  -7   5  -1 13761.5 1345.09   1
  -7   5  -2 33299.1 2240.59   1
   7  -4  -6 268.659 197.851   3
   7  -4  -5 1374.38 434.147   3
  -7   4   4 540.710 198.099   1
   7  -4  -4 670.330 296.429   3
  -7   4   3 220.471 135.469   1
   7  -4  -3 324.817 190.824   3
  -7   4   2 128.717 110.150   1
   7  -4  -2 276.330 161.176   3
  -7   4   1 2434.53 494.208   1
   7  -4  -1 2016.31 382.176   3
  -7   4   0 771.882 285.198   1
  -7   4  -1-195.506 157.881   1
  -7   4  -2 41.6530 85.2425   1
  -7   4  -3 24.8152 146.201   1
   7  -3  -6 16682.8 1652.17   3
   7  -3  -5 33228.6 2280.60   3
  -7   3   5 37821.6 1751.44   1
  -7   3   4 29269.0 1550.88   1
   7  -3  -4 24756.3 1828.92   3
  -7   3   3 56075.3 2364.66   1
   7  -3  -3 49006.9 2543.30   3
  -7   3   2 38743.7 1968.88   1
   7  -3  -2 33820.7 1899.57   3
  -7   3   1 52340.7 2455.51   1
   7  -3  -1 49859.5 2201.76   3
  -7   3   0 37321.3 2126.05   1
   7  -3   0 36946.4 1661.24   3
  -7   3  -1 41712.3 2342.28   1
  -7   3  -2 38436.7 2339.13   1
  -7   3  -3 39755.6 2483.20   1
   7  -2  -7 245.500 139.716   3
  -7   2   6 319.824 138.595   1
  -7   2   5 1464.28 329.823   1
  -7   2   4 126.620 106.860   1
  -7   2   3 286.631 138.972   1
  -7   2   2 29.0141 64.3359   1
  -7   2   1 1614.11 392.664   1
  -7   2   0 1878.22 435.411   1
  -7   2  -1 128.164 71.4796   1
  -7   2  -2 82.5235 99.6752   1
  -7   2  -3 82.7990 101.511   1
  -7   2  -4 2477.25 605.222   1
  -7   1   6 25954.0 1562.78   1
  -7   1   5 38394.4 1946.55   1
  -7   1   4 43890.4 2117.01   1
  -7   1   3 35544.7 1903.55   1
  -7   1   2 38293.7 2041.16   1
  -7   1   1 45165.9 2306.00   1
  -7   1   0 52911.1 2605.55   1
  -7   1  -1 33234.6 2045.29   1
  -7   1  -2 53451.2 2799.12   1
  -7   1  -3 35609.9 2310.49   1
  -7   1  -4 34211.9 2331.43   1
  -7   0   6-104.240 49.5474   1
  -7   0   5 177.096 129.644   1
  -7   0   4 1840.11 417.857   1
  -7   0   3 2764.57 508.283   1
  -7   0   2-183.362 137.657   1
  -7   0   1 321.622 128.682   1
  -7   0   0 1489.31 403.154   1
  -7   0  -1 846.850 288.895   1
  -7   0  -2 118.145 110.147   1
  -7   0  -3-286.008 198.723   1
  -7   0  -4 423.295 261.667   1
   7   1  -8 14391.7 1312.50   2
   7   1  -7 28197.6 1899.18   2
  -7  -1   6 34476.2 2004.07   1
  -7  -1   5 40873.4 2214.80   1
  -7  -1   4 40037.9 2182.08   1
  -7  -1   3 53816.9 2582.40   1
  -7  -1   2 39814.6 2188.90   1
  -7  -1   1 46989.7 2447.26   1
  -7  -1   0 70807.1 3168.94   1
  -7  -1  -1 51004.3 2678.05   1
  -7  -1  -2 32051.4 2127.01   1
  -7  -1  -3 44657.6 2616.47   1
  -7  -1  -4 23372.0 1901.79   1
   7   2  -8 702.878 322.946   2
   7   2  -7 256.391 182.079   2
  -7  -2   6 567.545 255.133   1
  -7  -2   5 164.319 159.570   1
  -7  -2   4 532.913 240.463   1
  -7  -2   3 850.002 310.298   1
  -7  -2   2 2045.52 471.951   1
  -7  -2   1 49.8943 91.0504   1
  -7  -2   0 677.056 278.905   1
  -7  -2  -1 308.476 220.610   1
  -7  -2  -2 212.351 120.202   1
  -7  -2  -3 872.801 346.649   1
   7   3  -6 24780.3 1926.46   2
  -7  -3   5 22049.9 1722.72   1
  -7  -3   4 34930.2 2203.57   1
  -7  -3   3 21530.1 1675.65   1
  -7  -3   2 32630.9 2137.37   1
  -7  -3   1 25093.9 1840.95   1
  -7  -3   0 41754.5 2441.78   1
  -7  -3  -1 36415.4 2309.62   1
  -7  -3  -2 26156.7 1970.34   1
  -7  -4   4 679.281 325.737   1
  -7  -4   3 115.806 121.916   1
  -7  -4   2 520.970 269.057   1
  -7  -4   1-60.5728 92.3983   1
  -7  -4   0 167.263 148.462   1
  -7  -4  -1-196.129 173.266   1
  -8   6   1 9683.49 1099.00   1
  -8   6   0 10603.4 1209.28   1
   8  -5  -5 497.863 314.129   3
   8  -5  -4-313.910 205.136   3
   8  -5  -3 347.803 179.233   3
  -8   5   2-28.8204 76.4663   1
  -8   5   1 567.030 247.210   1
  -8   5   0 321.839 206.653   1
   8  -4  -5 14320.7 1524.89   3
   8  -4  -4 12559.1 1336.51   3
  -8   4   3 16926.1 1309.23   1
   8  -4  -3 14362.4 1348.24   3
  -8   4   2 17971.6 1413.75   1
   8  -4  -2 14708.2 1245.82   3
  -8   4   1 24453.4 1761.20   1
  -8   4   0 27175.6 1945.98   1
  -8   4  -1 8674.05 1118.68   1
   8  -3  -5-347.864 241.343   3
   8  -3  -4 87.7228 162.948   3
  -8   3   4 259.856 156.362   1
   8  -3  -3 888.278 335.764   3
  -8   3   3 909.410 285.150   1
   8  -3  -2-166.121 152.435   3
  -8   3   2-135.182 178.015   1
   8  -3  -1 229.967 144.962   3
  -8   3   1 317.719 189.240   1
  -8   3   0-115.899 129.561   1
  -8   3  -1 561.760 262.577   1
  -8   2   5 24319.8 1577.88   1
  -8   2   4 23779.9 1581.45   1
  -8   2   3 23892.8 1645.20   1
  -8   2   2 26775.3 1794.64   1
  -8   2   1 41804.7 2381.44   1
  -8   2   0 27380.2 1936.01   1
  -8   2  -1 28956.6 2058.85   1
  -8   2  -2 21648.9 1837.85   1
  -8   1   6 48.5014 83.7498   1
  -8   1   5 20.0940 129.257   1
  -8   1   4 5093.12 725.532   1
  -8   1   3-256.683 168.271   1
  -8   1   2 995.444 347.623   1
  -8   1   1 1255.98 386.379   1
  -8   1   0-329.663 189.250   1
  -8   1  -1 489.571 263.128   1
  -8   1  -2 560.199 309.549   1
  -8   0   7 22928.3 1682.27   1
  -8   0   6 18846.6 1488.16   1
  -8   0   5 18657.2 1482.02   1
  -8   0   4 43232.1 2388.28   1
  -8   0   3 10295.4 1087.43   1
  -8   0   2 33674.5 2089.97   1
  -8   0   1 42592.0 2433.49   1
  -8   0   0 37120.7 2318.66   1
  -8   0  -1 32584.0 2222.02   1
  -8  -1   6 210.558 160.831   1
  -8  -1   5-45.5518 85.7909   1
  -8  -1   4 3049.23 610.814   1
  -8  -1   3 22.4271 97.0081   1
  -8  -1   2 89.2743 152.224   1
  -8  -1   1 20.0832 112.247   1
  -8  -1   0-96.2242 127.141   1
  -8  -1  -1 80.8223 77.5379   1
  -8  -2   5 21768.6 1768.58   1
  -8  -2   4 25159.2 1902.54   1
  -8  -2   3 22939.8 1804.21   1
  -8  -2   2 27855.6 1999.83   1
  -8  -2   1 26436.9 1962.91   1
  -8  -2   0 30978.0 2175.11   1
  -9   4   2 1159.04 346.044   1
   9  -3  -4 12792.4 1419.17   3
  -9   3   3 10930.1 1157.09   1
  -9   3   2 22388.6 1750.50   1
  -9   3   1 20191.4 1709.58   1
  -9   2   4 513.178 254.270   1
  -9   2   3-517.740 251.641   1
  -9   2   2 213.532 103.215   1
  -9   2   1 203.368 86.3954   1
  -9   1   5 16938.4 1452.44   1
  -9   1   4 14297.6 1351.68   1
  -9   1   3 14323.7 1407.24   1
  -9   1   2 22278.4 1780.63   1
  -9   0   5 1606.76 448.433   1
  -9   0   4 1276.77 417.556   1
   0   0   0    0.00    0.00   0
TITL ME_BrTsO_130625_av_outrej_Freq in P-1
REM P-1 (#2 in standard setting)
CELL 0.71073   6.967395   7.179713   7.735808  91.7748 101.4018  96.6825
ZERR    1.00   0.000388   0.000349   0.000432   0.0042   0.0047   0.0043
LATT  1
SFAC C H N F Sb I
UNIT 10.00 10.00 2.00 6.00 1.00 1.00
TREF
HKLF 4
END
;
_shelx_hkl_checksum              51508
loop_
_space_group_symop_operation_xyz
'x, y, z'
'-x, -y, -z'
loop_
_atom_site_label
_atom_site_type_symbol
_atom_site_fract_x
_atom_site_fract_y
_atom_site_fract_z
_atom_site_U_iso_or_equiv
_atom_site_adp_type
_atom_site_occupancy
_atom_site_site_symmetry_order
_atom_site_calc_flag
_atom_site_refinement_flags_posn
_atom_site_refinement_flags_adp
_atom_site_refinement_flags_occupancy
C2A C 0.2975(5) 0.4017(5) 0.1027(5) 0.0327(8) Uani 1 1 d . . .
H2A H 0.3118 0.2785 0.1404 0.039 Uiso 1 1 calc R U .
C3A C 0.2206(5) 0.4256(6) -0.0714(4) 0.0374(9) Uani 1 1 d . . .
H3A H 0.1836 0.3205 -0.1539 0.045 Uiso 1 1 calc R U .
C4A C 0.1979(6) 0.6032(6) -0.1245(5) 0.0409(9) Uani 1 1 d . . .
H4A H 0.1449 0.6224 -0.2446 0.049 Uiso 1 1 calc R U .
C5A C 0.2522(5) 0.7536(5) -0.0032(4) 0.0415(13) Uani 1 1 d . . .
H5A H 0.2356 0.8775 -0.0378 0.050 Uiso 1 1 calc R U .
C6A C 0.3313(5) 0.7214(5) 0.1696(5) 0.0351(8) Uani 1 1 d . . .
H6A H 0.3712 0.8248 0.2537 0.042 Uiso 1 1 calc R U .
N1A N 0.3531(4) 0.5484(4) 0.2213(3) 0.0284(6) Uani 1 1 d . . .
I1A I 0.5000 0.5000 0.5000 0.02659(13) Uani 1 2 d S . P
F1B F 0.2492(3) 0.0326(3) 0.6488(3) 0.0521(6) Uani 1 1 d . . .
F2B F -0.0243(3) 0.2541(3) 0.5394(3) 0.0448(6) Uani 1 1 d . . .
F3B F 0.1111(4) 0.0583(3) 0.3037(3) 0.0528(6) Uani 1 1 d . . .
Sb1B Sb 0.0000 0.0000 0.5000 0.02537(13) Uani 1 2 d S . P
loop_
_atom_site_aniso_label
_atom_site_aniso_U_11
_atom_site_aniso_U_22
_atom_site_aniso_U_33
_atom_site_aniso_U_23
_atom_site_aniso_U_13
_atom_site_aniso_U_12
C2A 0.0262(19) 0.0389(19) 0.0320(18) 0.0005(16) 0.0078(14) -0.0023(15)
C3A 0.0269(19) 0.057(2) 0.0263(18) -0.0075(18) 0.0056(15) -0.0015(17)
C4A 0.034(2) 0.066(3) 0.0240(18) 0.0068(19) 0.0062(15) 0.0125(19)
C5A 0.040(3) 0.051(3) 0.036(3) 0.014(3) 0.006(2) 0.013(3)
C6A 0.035(2) 0.039(2) 0.0316(18) -0.0005(17) 0.0047(15) 0.0074(16)
N1A 0.0228(15) 0.0400(16) 0.0216(13) 0.0010(13) 0.0042(11) 0.0011(12)
I1A 0.0238(2) 0.0348(2) 0.02014(19) 0.00263(14) 0.00356(13) 0.00101(14)
F1B 0.0388(13) 0.0490(13) 0.0568(14) 0.0076(11) -0.0134(11) -0.0040(11)
F2B 0.0610(15) 0.0275(10) 0.0418(12) -0.0023(10) 0.0018(11) 0.0044(10)
F3B 0.0723(17) 0.0514(14) 0.0428(12) 0.0138(11) 0.0283(12) 0.0090(12)
Sb1B 0.0288(2) 0.0234(2) 0.0214(2) 0.00138(14) 0.00150(14) -0.00115(14)
loop_
_atom_type_symbol
_atom_type_description
_atom_type_scat_dispersion_real
_atom_type_scat_dispersion_imag
_atom_type_scat_source
C C 0.0033 0.0016 'International Tables Vol C Tables 4.2.6.8 and 6.1.1.4'
H H 0.0000 0.0000 'International Tables Vol C Tables 4.2.6.8 and 6.1.1.4'
F F 0.0171 0.0103 'International Tables Vol C Tables 4.2.6.8 and 6.1.1.4'
I I -0.4742 1.8119 'International Tables Vol C Tables 4.2.6.8 and 6.1.1.4'
N N 0.0061 0.0033 'International Tables Vol C Tables 4.2.6.8 and 6.1.1.4'
Sb Sb -0.5866 1.5461 'International Tables Vol C Tables 4.2.6.8 and 6.1.1.4'
loop_
_geom_angle_atom_site_label_1
_geom_angle_atom_site_label_2
_geom_angle_atom_site_label_3
_geom_angle
_geom_angle_site_symmetry_1
_geom_angle_site_symmetry_3
N1A C2A C3A 121.6(3) . .
N1A C2A H2A 119.2 . .
C3A C2A H2A 119.2 . .
C4A C3A C2A 119.0(3) . .
C4A C3A H3A 120.5 . .
C2A C3A H3A 120.5 . .
C3A C4A C5A 119.7(3) . .
C3A C4A H4A 120.1 . .
C5A C4A H4A 120.1 . .
C4A C5A C6A 118.8(3) . .
C4A C5A H5A 120.6 . .
C6A C5A H5A 120.6 . .
N1A C6A C5A 121.5(3) . .
N1A C6A H6A 119.3 . .
C5A C6A H6A 119.3 . .
C6A N1A C2A 119.5(3) . .
C6A N1A I1A 121.0(2) . .
C2A N1A I1A 119.4(2) . .
N1A I1A N1A 180.0 . 2_666
F1B Sb1B F1B 180.0 . 2_556
F1B Sb1B F3B 88.84(11) . 2_556
F1B Sb1B F3B 91.16(11) 2_556 2_556
F1B Sb1B F3B 91.16(12) . .
F1B Sb1B F3B 88.84(11) 2_556 .
F3B Sb1B F3B 180.0 2_556 .
F1B Sb1B F2B 90.20(9) . .
F1B Sb1B F2B 89.80(9) 2_556 .
F3B Sb1B F2B 89.96(10) 2_556 .
F3B Sb1B F2B 90.04(10) . .
F1B Sb1B F2B 89.80(9) . 2_556
F1B Sb1B F2B 90.20(9) 2_556 2_556
F3B Sb1B F2B 90.04(10) 2_556 2_556
F3B Sb1B F2B 89.96(10) . 2_556
F2B Sb1B F2B 180.0 . 2_556
loop_
_geom_bond_atom_site_label_1
_geom_bond_atom_site_label_2
_geom_bond_distance
_geom_bond_site_symmetry_2
C2A N1A 1.343(4) .
C2A C3A 1.372(5) .
C2A H2A 0.9500 .
C3A C4A 1.368(6) .
C3A H3A 0.9500 .
C4A C5A 1.376(5) .
C4A H4A 0.9500 .
C5A C6A 1.379(5) .
C5A H5A 0.9500 .
C6A N1A 1.333(5) .
C6A H6A 0.9500 .
N1A I1A 2.252(3) .
I1A N1A 2.252(3) 2_666
F1B Sb1B 1.869(2) .
F2B Sb1B 1.8730(18) .
F3B Sb1B 1.873(2) .
Sb1B F1B 1.869(2) 2_556
Sb1B F3B 1.873(2) 2_556
Sb1B F2B 1.8731(18) 2_556
loop_
_geom_torsion_atom_site_label_1
_geom_torsion_atom_site_label_2
_geom_torsion_atom_site_label_3
_geom_torsion_atom_site_label_4
_geom_torsion
N1A C2A C3A C4A -0.8(5)
C2A C3A C4A C5A 0.0(5)
C3A C4A C5A C6A 0.9(5)
C4A C5A C6A N1A -1.0(5)
C5A C6A N1A C2A 0.2(5)
C5A C6A N1A I1A 176.1(3)
C3A C2A N1A C6A 0.7(5)
C3A C2A N1A I1A -175.2(3)
