#------------------------------------------------------------------------------
#$Date: 2015-07-05 14:23:03 +0300 (Sun, 05 Jul 2015) $
#$Revision: 140285 $
#$URL: svn://www.crystallography.net/cod/cif/1/51/94/1519496.cif $
#------------------------------------------------------------------------------
#
# This file is available in the Crystallography Open Database (COD),
# http://www.crystallography.net/
#
# All data on this site have been placed in the public domain by the
# contributors.
#
data_1519496
loop_
_publ_author_name
'Zhang, Zhenhua'
'Du, Haifeng'
_publ_section_title
;
 Cis-selective and highly enantioselective hydrogenation of
 2,3,4-trisubstituted quinolines.
;
_journal_issue                   11
_journal_name_full               'Organic letters'
_journal_page_first              2816
_journal_page_last               2819
_journal_paper_doi               10.1021/acs.orglett.5b01240
_journal_volume                  17
_journal_year                    2015
_chemical_absolute_configuration ad
_chemical_formula_moiety         'C22 H20 Br N'
_chemical_formula_sum            'C22 H20 Br N'
_chemical_formula_weight         378.30
_space_group_crystal_system      triclinic
_space_group_IT_number           1
_space_group_name_Hall           'P 1'
_space_group_name_H-M_alt        'P 1'
_symmetry_space_group_name_Hall  'P 1'
_symmetry_space_group_name_H-M   'P 1'
_atom_sites_solution_hydrogens   geom
_atom_sites_solution_primary     direct
_audit_creation_date             2015-03-17
_audit_creation_method
;
Olex2 1.2
(compiled 2015.01.26 svn.r3150 for OlexSys, GUI svn.r4998)
;
_cell_angle_alpha                102.328(8)
_cell_angle_beta                 106.299(8)
_cell_angle_gamma                90.659(7)
_cell_formula_units_Z            1
_cell_length_a                   6.134(3)
_cell_length_b                   7.123(4)
_cell_length_c                   10.777(6)
_cell_measurement_reflns_used    2086
_cell_measurement_temperature    173.1500
_cell_measurement_theta_max      32.7919
_cell_measurement_theta_min      2.9360
_cell_volume                     440.2(4)
_computing_cell_refinement       'CrystalClear (Rigaku Inc., 2007)'
_computing_data_collection       'CrystalClear (Rigaku Inc., 2007)'
_computing_data_reduction        'CrystalClear (Rigaku Inc., 2007)'
_computing_molecular_graphics    'Olex2 (Dolomanov et al., 2009)'
_computing_publication_material  'CIFTAB (Sheldrick, 2013)'
_computing_structure_refinement  'SHELXL (Sheldrick, 2014)'
_computing_structure_solution
;
'SHELXT (Sheldrick, 2014)'
;
_diffrn_ambient_temperature      173.1500
_diffrn_detector_area_resol_mean 28.5714
_diffrn_measured_fraction_theta_full 0.994
_diffrn_measured_fraction_theta_max 0.991
_diffrn_measurement_details
;
scan:
    Number of images: 360
               Slice: -110.0000 - 70.0000
         Image width: 0.5000
            Exp time: 10.0000
       Rotation axis: Omega
               Omega: 0.0000
                 Chi: 45.0000
                 Phi: 0.0000
                 XTD: 40.1708
              2theta: -21.1662
scan:
    Number of images: 360
               Slice: -110.0000 - 70.0000
         Image width: 0.5000
            Exp time: 10.0000
       Rotation axis: Omega
               Omega: 0.0000
                 Chi: 45.0000
                 Phi: 90.0000
                 XTD: 40.1708
              2theta: -21.1662
scan:
    Number of images: 360
               Slice: -110.0000 - 70.0000
         Image width: 0.5000
            Exp time: 10.0000
       Rotation axis: Omega
               Omega: 0.0000
                 Chi: 45.0000
                 Phi: 180.0000
                 XTD: 40.1708
              2theta: -21.1662
scan:
    Number of images: 360
               Slice: -110.0000 - 70.0000
         Image width: 0.5000
            Exp time: 10.0000
       Rotation axis: Omega
               Omega: 0.0000
                 Chi: 45.0000
                 Phi: 270.0000
                 XTD: 40.1708
              2theta: -21.1662
;
_diffrn_measurement_device
;
Saturn724+ (2x2 bin mode)
;
_diffrn_measurement_device_details
;
AFC10: Fixed Chi 2 circle
;
_diffrn_measurement_device_type  'Saturn724+ CCD'
_diffrn_measurement_method       '\w scans at fixed \c = 45\%'
_diffrn_orient_matrix_type       d*Trek
_diffrn_orient_matrix_UB_11      0.0195
_diffrn_orient_matrix_UB_12      0.0318
_diffrn_orient_matrix_UB_13      0.1662
_diffrn_orient_matrix_UB_21      -0.1176
_diffrn_orient_matrix_UB_22      -0.0735
_diffrn_orient_matrix_UB_23      0.0392
_diffrn_orient_matrix_UB_31      0.0375
_diffrn_orient_matrix_UB_32      -0.0823
_diffrn_orient_matrix_UB_33      0.0408
_diffrn_radiation_detector       CCD
_diffrn_radiation_monochromator  'Graphite Monochromator'
_diffrn_radiation_type           MoK\a
_diffrn_radiation_wavelength     0.71073
_diffrn_reflns_av_R_equivalents  0.0442
_diffrn_reflns_av_unetI/netI     0.0568
_diffrn_reflns_laue_measured_fraction_full 0.994
_diffrn_reflns_laue_measured_fraction_max 0.991
_diffrn_reflns_limit_h_max       7
_diffrn_reflns_limit_h_min       -7
_diffrn_reflns_limit_k_max       9
_diffrn_reflns_limit_k_min       -9
_diffrn_reflns_limit_l_max       13
_diffrn_reflns_limit_l_min       -13
_diffrn_reflns_number            7216
_diffrn_reflns_point_group_measured_fraction_full 0.976
_diffrn_reflns_point_group_measured_fraction_max 0.970
_diffrn_reflns_theta_full        26.000
_diffrn_reflns_theta_max         27.449
_diffrn_reflns_theta_min         2.936
_diffrn_source                   'Sealed Tube'
_diffrn_source_current           30.0000
_diffrn_source_power             1.5000
_diffrn_source_voltage           50.0000
_exptl_absorpt_coefficient_mu    2.336
_exptl_absorpt_correction_T_max  1.0000
_exptl_absorpt_correction_T_min  0.6088
_exptl_absorpt_correction_type   multi-scan
_exptl_absorpt_process_details   'CrystalClear (Rigaku Inc., 2007)'
_exptl_crystal_colour            Colorless
_exptl_crystal_density_diffrn    1.427
_exptl_crystal_description       Plate
_exptl_crystal_F_000             194
_exptl_crystal_size_max          0.52
_exptl_crystal_size_mid          0.26
_exptl_crystal_size_min          0.05
_refine_diff_density_max         0.407
_refine_diff_density_min         -0.447
_refine_diff_density_rms         0.057
_refine_ls_abs_structure_details
;
 Classical Flack method preferred over Parsons because s.u. lower.
;
_refine_ls_abs_structure_Flack   0.018(12)
_refine_ls_extinction_method     none
_refine_ls_goodness_of_fit_ref   1.093
_refine_ls_hydrogen_treatment    constr
_refine_ls_matrix_type           full
_refine_ls_number_parameters     218
_refine_ls_number_reflns         3884
_refine_ls_number_restraints     3
_refine_ls_restrained_S_all      1.093
_refine_ls_R_factor_all          0.0418
_refine_ls_R_factor_gt           0.0404
_refine_ls_shift/su_max          0.000
_refine_ls_shift/su_mean         0.000
_refine_ls_structure_factor_coef Fsqd
_refine_ls_weighting_details
'w=1/[\s^2^(Fo^2^)+(0.0402P)^2^+0.0109P] where P=(Fo^2^+2Fc^2^)/3'
_refine_ls_weighting_scheme      calc
_refine_ls_wR_factor_gt          0.0902
_refine_ls_wR_factor_ref         0.0911
_reflns_Friedel_coverage         0.959
_reflns_friedel_fraction_full    0.958
_reflns_friedel_fraction_max     0.950
_reflns_number_gt                3777
_reflns_number_total             3884
_reflns_threshold_expression     'I > 2\s(I)'
_cod_data_source_file            ol5b01240_si_001.cif
_cod_data_source_block           sa4001
_cod_depositor_comments          'Adding full bibliography for 1519496.cif.'
_cod_database_code               1519496
_shelx_space_group_comment
;
The symmetry employed for this shelxl refinement is uniquely defined
by the following loop, which should always be used as a source of
symmetry information in preference to the above space-group names.
They are only intended as comments.
;
_diffrn_number_total             1984
_olex2_refinement_description
;
1. Fixed Uiso
 At 1.2 times of:
  All C(H) groups, All N(H) groups
 At 1.5 times of:
  All C(H,H,H) groups
2.a Ternary CH refined with riding coordinates:
 C1(H1A), C2(H2), C3(H3)
2.b Aromatic/amide H refined with riding coordinates:
 N1(H1), C5(H5), C7(H7), C8(H8), C11(H11), C12(H12), C13(H13), C14(H14),
 C15(H15), C18(H18), C19(H19), C20(H20), C21(H21), C22(H22)
2.c Idealised Me refined as rotating group:
 C16(H16A,H16B,H16C)
;
_shelx_res_file
;
    sa4001.res created by SHELXL-2014/7

TITL sa4001 in P1 #1
CELL 0.71073 6.1336 7.1227 10.7775 102.328 106.299 90.659
ZERR 1 0.0033 0.0039 0.0064 0.008 0.008 0.007
LATT -1
SFAC C H Br N
UNIT 22 20 1 1

L.S. 4
PLAN  20
BOND
fmap 2
MORE -1
BOND $H
ACTA 52
CONF
OMIT 0 0 1
OMIT 0 0 -1
REM <olex2.extras>
REM <HklSrc "%.\\sa4001.hkl">
REM </olex2.extras>

WGHT    0.040200    0.010900
FVAR       1.45430
BR1   3   -0.098780   -0.279760    0.133380    11.00000    0.04595    0.03231 =
         0.04142    0.00355    0.01513   -0.01027
N1    4    0.638106    0.283471    0.542241    11.00000    0.04354    0.03438 =
         0.02241    0.00589    0.01218   -0.00581
AFIX  43
H1    2    0.627593    0.315111    0.621833    11.00000   -1.20000
AFIX   0
C1    1    0.827908    0.366574    0.510546    11.00000    0.02992    0.02684 =
         0.02551    0.00537    0.00858    0.00305
AFIX  13
H1A   2    0.937458    0.268663    0.503507    11.00000   -1.20000
AFIX   0
C2    1    0.736460    0.418105    0.373935    11.00000    0.02892    0.02231 =
         0.02365    0.00456    0.01016    0.00442
AFIX  13
H2    2    0.866927    0.467426    0.351523    11.00000   -1.20000
AFIX   0
C3    1    0.634716    0.229651    0.269375    11.00000    0.02578    0.02374 =
         0.02384    0.00420    0.00790    0.00236
AFIX  13
H3    2    0.759743    0.144724    0.272160    11.00000   -1.20000
AFIX   0
C4    1    0.456486    0.127373    0.310112    11.00000    0.03035    0.01921 =
         0.03024    0.00605    0.01069    0.00424
C5    1    0.283608   -0.002573    0.217409    11.00000    0.03369    0.02233 =
         0.02468    0.00614    0.01129    0.00267
AFIX  43
H5    2    0.269672   -0.022347    0.127305    11.00000   -1.20000
AFIX   0
C6    1    0.133187   -0.101713    0.260509    11.00000    0.03281    0.02042 =
         0.03737    0.00620    0.01302    0.00151
C7    1    0.148551   -0.075172    0.393390    11.00000    0.03930    0.02154 =
         0.03507    0.00969    0.01971    0.00409
AFIX  43
H7    2    0.045767   -0.142168    0.420367    11.00000   -1.20000
AFIX   0
C8    1    0.317100    0.051127    0.485297    11.00000    0.04350    0.02880 =
         0.02922    0.01306    0.01718    0.00682
AFIX  43
H8    2    0.328380    0.069364    0.574998    11.00000   -1.20000
AFIX   0
C9    1    0.472703    0.153123    0.445456    11.00000    0.03503    0.02139 =
         0.02606    0.00687    0.01353    0.00619
C10   1    0.948319    0.540161    0.619040    11.00000    0.03134    0.02927 =
         0.02043    0.00702    0.00747    0.00362
C11   1    1.164291    0.608149    0.624326    11.00000    0.03355    0.03810 =
         0.02461    0.00763    0.00882    0.00602
AFIX  43
H11   2    1.237132    0.543670    0.564592    11.00000   -1.20000
AFIX   0
C12   1    1.272527    0.772315    0.718532    11.00000    0.03345    0.03685 =
         0.03798    0.01218    0.00585   -0.00160
AFIX  43
H12   2    1.415706    0.818637    0.719808    11.00000   -1.20000
AFIX   0
C13   1    1.169498    0.867063    0.810086    11.00000    0.04670    0.02984 =
         0.03125    0.00486    0.00346   -0.00146
AFIX  43
H13   2    1.243154    0.976049    0.873384    11.00000   -1.20000
AFIX   0
C14   1    0.955191    0.798270    0.806819    11.00000    0.04843    0.03409 =
         0.03027   -0.00027    0.01727    0.00250
AFIX  43
H14   2    0.884666    0.861871    0.868050    11.00000   -1.20000
AFIX   0
C15   1    0.845100    0.635339    0.712960    11.00000    0.03689    0.03293 =
         0.02873    0.00633    0.01222    0.00402
AFIX  43
H15   2    0.702301    0.589139    0.712383    11.00000   -1.20000
AFIX   0
C16   1    0.570202    0.577450    0.377278    11.00000    0.03350    0.02303 =
         0.02949    0.00517    0.00957    0.00649
AFIX 137
H16A  2    0.427385    0.525096    0.380359    11.00000   -1.50000
H16B  2    0.546582    0.627713    0.299045    11.00000   -1.50000
H16C  2    0.632725    0.679134    0.454520    11.00000   -1.50000
AFIX   0
C17   1    0.560721    0.263213    0.129088    11.00000    0.02839    0.01732 =
         0.02784    0.00399    0.00773   -0.00071
C18   1    0.706636    0.220359    0.049536    11.00000    0.03012    0.02643 =
         0.02506    0.00425    0.00972    0.00268
AFIX  43
H18   2    0.839913    0.162110    0.080342    11.00000   -1.20000
AFIX   0
C19   1    0.655665    0.263442   -0.074907    11.00000    0.04425    0.03358 =
         0.02477    0.00766    0.01300   -0.00302
AFIX  43
H19   2    0.753682    0.232107   -0.126960    11.00000   -1.20000
AFIX   0
C20   1    0.459153    0.353029   -0.121915    11.00000    0.04366    0.03205 =
         0.03089    0.00941    0.00869   -0.00314
AFIX  43
H20   2    0.426632    0.385474   -0.203987    11.00000   -1.20000
AFIX   0
C21   1    0.312004    0.393245   -0.043842    11.00000    0.03843    0.02790 =
         0.03007    0.00667    0.00320   -0.00005
AFIX  43
H21   2    0.178725    0.451375   -0.074847    11.00000   -1.20000
AFIX   0
C22   1    0.360963    0.347991    0.079570    11.00000    0.03031    0.02599 =
         0.02809    0.00492    0.00909    0.00327
AFIX  43
H22   2    0.259327    0.374549    0.129733    11.00000   -1.20000
AFIX   0
HKLF 4

REM  sa4001 in P1 #1
REM R1 =  0.0404 for    3777 Fo > 4sig(Fo)  and  0.0418 for all    3884 data
REM    218 parameters refined using      3 restraints

END

WGHT      0.0402      0.0109

REM Highest difference peak  0.407,  deepest hole -0.447,  1-sigma level  0.057
Q1    1   0.1779 -0.1219  0.3529  11.00000  0.05    0.28
Q2    1  -0.3022 -0.3164  0.1004  11.00000  0.05    0.26
Q3    1   0.6858  0.2396  0.6339  11.00000  0.05    0.26
Q4    1  -0.0078 -0.1136  0.1529  11.00000  0.05    0.25
Q5    1  -0.1752 -0.2294  0.0405  11.00000  0.05    0.25
Q6    1   0.4715  0.1028  0.3762  11.00000  0.05    0.23
Q7    1   0.1002 -0.0569  0.3266  11.00000  0.05    0.23
Q8    1   0.4248  0.0462  0.3562  11.00000  0.05    0.23
Q9    1   0.0878 -0.2416  0.1633  11.00000  0.05    0.23
Q10   1  -0.0062 -0.2160  0.0715  11.00000  0.05    0.23
Q11   1  -0.2076 -0.3278  0.2009  11.00000  0.05    0.23
Q12   1  -0.2192 -0.2573  0.0229  11.00000  0.05    0.22
Q13   1   0.1797 -0.0321  0.2211  11.00000  0.05    0.22
Q14   1   0.1060  0.2386  0.2807  11.00000  0.05    0.22
Q15   1   0.1096 -0.1029  0.4055  11.00000  0.05    0.21
Q16   1  -0.0758 -0.3563  0.0150  11.00000  0.05    0.21
Q17   1   0.1759  0.0092  0.0992  11.00000  0.05    0.21
Q18   1   0.6333  0.5722 -0.0786  11.00000  0.05    0.20
Q19   1   0.6021 -0.0385 -0.0009  11.00000  0.05    0.20
Q20   1   0.4713 -0.0360  0.0771  11.00000  0.05    0.19
;
_shelx_res_checksum              85577
_shelx_hkl_file
;
   0   0  -1   -0.42    0.70
   0   0  -1    0.34    0.69
   0   0   1   -1.76    0.85
   0   0   1    1.25    0.52
   0   0  -2  696.71    6.54
   0   0   2  731.22    6.74
   0   0   2  700.33    7.67
   0   0   2  684.61    5.56
   0   0  -2  680.80    5.59
   0   0   3 1618.48   13.16
   0   0   3 1580.24   15.58
   0   0   3 1586.02   11.61
   0   0  -3 1616.02   11.84
   0   0  -4 1474.56   14.11
   0   0   4 1326.89   12.35
   0   0   4 1361.24   12.60
   0   0   4 1332.93   15.69
   0   0   4 1347.30   11.07
   0   0  -4 1448.77   11.51
   0   0  -5 1169.50   30.45
   0   0   5 1034.24   26.99
   0   0  -5 1270.35   33.21
   0   0   5 1033.53   26.88
   0   0   5  998.36   27.65
   0   0   5 1084.85   27.68
   0   0  -5 1140.82   28.90
   0   0  -6  632.10   22.66
   0   0  -6  671.90   29.69
   0   0   6  523.05   21.72
   0   0   6  533.44   18.40
   0   0  -6  625.30   21.25
   0   0  -7  560.57   24.27
   0   0  -7  542.74   30.46
   0   0   7  403.46   35.61
   0   0   7  435.81   38.86
   0   0  -7  518.31   21.11
   0   0  -8  522.02   30.83
   0   0  -8  590.67   50.24
   0   0   8  449.75   28.47
   0   0   8  495.24   29.94
   0   0  -8  480.65   27.91
   0   0  -9  366.92   24.85
   0   0  -9  427.08   41.06
   0   0   9  425.77   30.07
   0   0   9  400.86   28.74
   0   0  -9  235.12   26.02
   0   0 -10  255.64   21.40
   0   0 -10  217.42   31.82
   0   0  10  192.32   20.56
   0   0  10  168.06   24.15
   0   0 -11   15.69    5.05
   0   0 -11   23.78    6.70
   0   0  11   38.98   10.53
   0   0 -12  330.78   64.40
   0   0 -12  270.20   50.54
   0   0  12  218.10   30.55
   0   0 -13   17.16    6.29
   0   0 -13   36.20   10.68
   0   0  13   36.57   12.42
   0   1 -13   11.60    5.29
   0   1 -13    6.98    5.70
   0  -1  13    8.16    7.49
   0   1 -12  248.81   27.54
   0   1 -12  249.96   41.44
   0  -1  12  266.71   31.69
   0   1 -11   11.93    4.12
   0   1 -11   14.03    5.70
   0  -1  11    1.80    7.39
   0   1 -10  171.72   17.91
   0   1 -10  172.18   29.47
   0  -1  10  126.13   16.79
   0  -1  10   70.52   10.08
   0   1  -9  218.45   24.82
   0   1  -9  230.23   30.18
   0  -1   9  193.07   24.46
   0  -1   9  174.23   20.92
   0   1  -9  162.76   17.95
   0   1  -8  514.42   30.54
   0   1  -8  507.50   38.81
   0  -1   8  506.98   31.93
   0  -1   8  439.38   25.36
   0   1  -8  438.51   25.01
   0   1  -7  796.23   32.57
   0   1  -7  864.65   42.41
   0  -1   7  781.32   33.65
   0  -1   7  719.33   28.47
   0   1  -7  757.57   29.85
   0   1  -6  600.28   21.09
   0  -1   6  524.15   18.30
   0   1  -6  654.77   30.34
   0  -1   6  651.63   24.86
   0  -1   6  520.49   17.38
   0   1  -6  534.94   17.81
   0   1  -5 1449.84   36.79
   0  -1   5 1691.57   42.41
   0   1  -5 1585.86   41.02
   0  -1   5 1647.97   40.61
   0   1  -4 3067.72   21.82
   0  -1   4 3161.51   23.32
   0  -1   3 3518.08   23.13
   0  -1   3 3700.18   26.69
   0  -1   3 3638.50   22.32
   0   1  -3 3722.35   22.68
   0  -1   2 9294.26   55.91
   0  -1   2 9999.00  243.26
   0   1  -2 9038.90   54.32
   0  -1   1 1045.82    8.26
   0  -1   1 1000.48    7.86
   0   1   0  300.99    3.45
   0  -1   0  285.78    3.39
   0   1   0  299.97    2.50
   0  -1  -1   60.93    3.82
   0  -1  -1   70.77    1.78
   0   1   1   49.21    2.65
   0  -1  -1   76.05    2.95
   0   1   1   58.22    3.80
   0  -1  -1   75.51    2.78
   0   1   3  824.81    9.73
   0   1   3  809.46    8.10
   0  -1  -3  889.70   11.45
   0  -1  -3  829.85    9.02
   0   1   4 1358.46   13.62
   0  -1  -4 1384.00   12.79
   0  -1  -5  426.98   16.76
   0  -1  -5  509.30   23.92
   0   1   5  472.10   16.53
   0   1   5  529.27   21.82
   0  -1  -5  416.62   14.87
   0  -1  -6  619.54   26.11
   0  -1  -6  664.35   33.41
   0   1   6  736.84   30.03
   0  -1  -6  582.42   23.75
   0  -1  -7  419.06   17.83
   0  -1  -7  495.08   32.55
   0   1   7  472.04   24.03
   0  -1  -7  342.24   13.12
   0  -1  -8  444.65   32.93
   0  -1  -8  499.13   45.57
   0   1   8  348.16   31.14
   0  -1  -9  390.13   27.48
   0  -1  -9  449.06   42.14
   0   1   9  458.51   35.29
   0  -1 -10  238.60   20.57
   0  -1 -10  230.15   26.20
   0   1  10  152.60   25.44
   0  -1 -11   65.62   11.78
   0  -1 -11   61.66   13.56
   0   1  11   73.88   14.04
   0  -1 -12   14.88    6.52
   0  -1 -12   16.39    7.16
   0   1  12   18.12    6.72
   0   2 -13    8.46    4.98
   0   2 -13   12.69    6.64
   0  -2  13   12.38    7.49
   0   2 -12   73.48   13.71
   0   2 -12  101.41   19.29
   0  -2  12  100.62   14.79
   0   2 -11   77.68   13.71
   0   2 -11   78.03   19.17
   0  -2  11  118.70   21.95
   0   2 -10  437.75   42.06
   0   2 -10  450.07   62.97
   0  -2  10  433.42   43.01
   0   2  -9  319.84   35.45
   0   2  -9  325.99   51.96
   0  -2   9  314.84   36.93
   0  -2   9  204.89   22.18
   0  -2   9  215.76   23.27
   0   2  -8  408.90   24.71
   0   2  -8  439.37   43.56
   0  -2   8  449.59   28.71
   0  -2   8  374.99   21.13
   0   2  -7  141.96   12.89
   0  -2   7  165.79   14.46
   0   2  -7  186.88   26.12
   0  -2   7  232.71   21.84
   0  -2   7  164.60   13.74
   0   2  -6  730.92   25.02
   0  -2   6  734.74   25.01
   0   2  -6  825.77   35.03
   0  -2   6  831.60   30.10
   0  -2   6  709.81   23.17
   0  -2   6  728.55   23.89
   0   2  -5 2268.55   56.42
   0  -2   5 2082.61   51.95
   0   2  -5 2147.21   54.02
   0  -2   5 1931.49   47.59
   0  -2   5 2202.30   54.23
   0   2  -4  117.83    3.60
   0  -2   4  123.37    3.75
   0   2  -4  160.85   18.57
   0  -2   4  109.02   12.53
   0  -2   4  124.03    3.75
   0  -2   4  118.34    4.31
   0  -2   4  114.66    3.33
   0  -2   3 3404.02   23.12
   0  -2   3 3412.13   22.85
   0   2  -2 2523.27   19.46
   0  -2   2 2537.90   19.28
   0   2  -2 2599.01   19.20
   0  -2   2 2704.18   19.27
   0   2  -2 2699.40   19.20
   0  -2   2 2786.15   20.07
   0   2  -2 2763.43   20.20
   0  -2   2 2624.61   18.77
   0  -2   1  881.10    9.79
   0  -2   1  858.33    8.73
   0  -2   0 3119.02   22.94
   0   2   0 3304.49   20.36
   0   2   0 3321.11   21.78
   0   2   0 3307.55   23.72
   0  -2   0 3314.50   29.90
   0  -2  -1 5061.40   34.54
   0  -2  -1 4912.35   29.69
   0   2   1 4883.31   29.54
   0   2   1 4852.64   31.60
   0  -2  -1 4885.21   31.83
   0   2   1 4662.80   31.72
   0  -2  -2 2917.24   23.99
   0   2   2 2864.48   19.03
   0   2   2 2984.35   22.48
   0   2   2 2960.77   23.20
   0  -2  -2 2988.83   22.62
   0  -2  -3  780.56   21.83
   0   2   3  896.21   23.79
   0  -2  -3  749.10   19.52
   0   2   3  892.15   22.77
   0   2   3  914.30   24.47
   0  -2  -3  743.92   20.30
   0  -2  -3  729.20   19.65
   0   2   4  826.25   21.49
   0   2   4  890.44   24.65
   0   2   4  914.74   24.90
   0  -2  -4  942.26   24.95
   0  -2  -5 1063.47   43.21
   0  -2  -5 1132.90   45.26
   0   2   5  996.63   39.48
   0   2   5 1073.90   43.86
   0   2   5 1081.24   43.47
   0  -2  -6  798.38   29.70
   0  -2  -6  774.03   32.10
   0   2   6  721.81   27.41
   0   2   6  797.10   28.81
   0  -2  -7 1619.37  111.96
   0  -2  -7 1657.22  117.81
   0   2   7 1708.59  118.03
   0   2   7 1851.25  199.94
   0  -2  -8   45.66    7.20
   0  -2  -8   55.72    9.52
   0   2   8  110.68   10.82
   0   2   8  138.42   17.42
   0  -2  -9  224.99   20.05
   0  -2  -9  239.41   24.61
   0   2   9  201.28   18.39
   0   2   9  212.30   21.71
   0  -2 -10  162.88   19.46
   0  -2 -10  173.33   27.08
   0   2  10  201.73   23.36
   0   2  10  180.24   32.66
   0  -2 -11    9.82    5.34
   0  -2 -11    7.09    5.91
   0   2  11    1.26    5.75
   0   2  11   15.15    4.21
   0  -2 -12   24.25    7.23
   0  -2 -12   20.62    6.59
   0   2  12   22.78    8.41
   0   3 -13   13.00    5.72
   0   3 -13   33.05   11.96
   0  -3  13   38.82   14.64
   0   3 -12   41.68    8.47
   0   3 -12   63.29   16.28
   0  -3  12   58.60   13.27
   0   3 -11  195.24   18.82
   0   3 -11  222.12   27.37
   0  -3  11  224.02   24.42
   0   3 -10   46.62    7.31
   0  -3  10   55.46    9.90
   0   3  -9  208.03   23.59
   0   3  -9  232.18   34.38
   0  -3   9  164.85   21.72
   0   3  -8  161.58   12.54
   0   3  -8  193.26   25.09
   0  -3   8  161.04   16.24
   0  -3   8  127.00   10.31
   0  -3   8  126.75    8.95
   0   3  -7  401.10   16.50
   0  -3   7  426.46   15.78
   0   3  -7  537.46   38.42
   0  -3   7  461.90   19.69
   0  -3   7  390.95   14.39
   0  -3   7  427.03   14.93
   0   3  -6  526.00   22.23
   0  -3   6  519.95   21.45
   0   3  -6  602.46   28.62
   0  -3   6  512.48   20.29
   0  -3   6  477.40   39.48
   0   3  -5 1939.60   63.57
   0  -3   5 1887.65   61.58
   0   3  -5 2244.91   74.12
   0  -3   5 1908.48   62.30
   0  -3   5 2021.21   66.84
   0  -3   5 1925.61   62.46
   0  -3   5 1823.00   59.40
   0  -3   4  642.22   17.22
   0   3  -4  517.98   20.19
   0  -3   4  598.04   17.37
   0  -3   4  697.41   18.93
   0  -3   4  654.61   18.40
   0  -3   4  640.75   20.59
   0  -3   4  634.18   17.58
   0   3  -3  847.52   22.35
   0  -3   3  880.67   23.58
   0   3  -3  938.21   24.69
   0  -3   3  786.71   23.51
   0   3  -3  931.14   24.54
   0  -3   3  915.91   23.96
   0   3  -3  964.21   25.28
   0  -3   3  902.65   26.16
   0  -3   2 1556.24   16.01
   0  -3   2 1546.34   13.92
   0   3  -2 1671.70   14.70
   0  -3   2 1631.31   13.43
   0   3  -2 1578.41   15.18
   0  -3   2 1583.75   18.30
   0  -3   1 1015.07   10.63
   0  -3   1 1043.47    9.34
   0  -3   1 1064.70    9.50
   0   3  -1 1129.05   12.19
   0  -3   1 1056.24    9.75
   0  -3  -1 1192.32   31.80
   0   3   1 1018.29   26.74
   0  -3  -1 1123.35   27.85
   0   3   1 1016.14   25.30
   0   3   1  981.61   25.30
   0  -3  -1 1168.96   30.04
   0   3   1  855.81   26.88
   0  -3  -2 1043.44   26.16
   0   3   2  791.64   20.18
   0   3   2  766.92   20.71
   0  -3  -2 1039.41   27.18
   0   3   2  721.05   21.22
   0  -3  -3 2090.82   69.84
   0  -3  -3 2228.18   72.09
   0   3   3 2211.88   71.50
   0   3   3 2339.30   76.58
   0  -3  -3 2145.59   70.19
   0  -3  -4  612.78   27.67
   0  -3  -4  525.15   23.50
   0   3   4  556.24   22.48
   0   3   4  581.75   24.94
   0   3   4  643.01   27.34
   0  -3  -5  979.76   35.82
   0   3   5  799.27   27.44
   0   3   5  880.89   31.89
   0   3   5  914.57   32.89
   0  -3  -6  469.41   34.47
   0  -3  -6  447.60   35.37
   0   3   6  629.50   44.65
   0   3   6  628.02   50.85
   0  -3  -7   40.09    7.24
   0  -3  -7   70.36   10.78
   0   3   7   63.50    9.49
   0   3   7   83.74   14.97
   0  -3  -8  249.38   21.61
   0  -3  -8  281.81   38.07
   0   3   8  202.39   18.51
   0   3   8  214.95   25.73
   0  -3  -9   72.75   14.79
   0  -3  -9   62.56   13.80
   0   3   9   52.73   11.55
   0   3   9   49.93   11.78
   0  -3 -10   25.55    8.34
   0  -3 -10   39.20   12.19
   0   3  10   10.20    7.87
   0   3  10   15.84    5.85
   0  -3 -11  116.35   19.97
   0  -3 -11  106.47   22.10
   0   3  11   99.91   17.60
   0   3  11   70.98   17.10
   0   4 -13  116.23   22.39
   0  -4  13  109.35   23.00
   0   4 -12   32.72    7.90
   0   4 -12   88.61   16.40
   0  -4  12   37.93   11.22
   0   4 -11   84.28   15.63
   0   4 -11  107.04   19.24
   0  -4  11   83.92   17.34
   0   4 -10   72.70   13.12
   0   4 -10  102.96   21.65
   0  -4  10  115.23   19.74
   0   4  -9  284.12   21.50
   0   4  -9  309.05   39.78
   0  -4   9  269.69   20.83
   0   4  -8  178.65   25.25
   0   4  -8  249.50   36.69
   0  -4   8  225.94   27.23
   0  -4   8  210.76   23.00
   0  -4   8  219.71   24.24
   0   4  -7  436.97   25.84
   0   4  -7  512.10   42.69
   0  -4   7  519.92   31.61
   0  -4   7  454.03   27.83
   0  -4   7  447.67   25.95
   0   4  -6  283.19   17.89
   0  -4   6  232.67    9.41
   0   4  -6  353.22   15.21
   0  -4   6  252.81   12.03
   0  -4   6  243.81   12.93
   0  -4   6  236.04   10.26
   0   4  -5  509.34   18.84
   0  -4   5  442.88   36.78
   0   4  -5  544.28   23.14
   0  -4   5  489.48   41.29
   0  -4   5  479.40   40.52
   0  -4   5  483.05   40.36
   0   4  -4  393.07   33.07
   0  -4   4  454.43   38.11
   0   4  -4  428.94   35.94
   0  -4   4  399.16   34.10
   0  -4   4  411.13   34.24
   0  -4   4  450.26   37.67
   0  -4   4  473.33   39.61
   0  -4   3 1128.97   37.85
   0  -4   3 1309.20   43.73
   0  -4   3 1171.67   40.73
   0  -4   3 1234.48   41.26
   0   4  -3 1408.54   46.54
   0  -4   3 1238.78   40.88
   0   4  -3 1430.86   47.61
   0  -4   3 1273.55   44.17
   0  -4   2  816.25   27.47
   0  -4   2  932.05   31.91
   0  -4   2  905.84   30.09
   0  -4   2  927.62   31.17
   0   4  -2 1230.87   40.71
   0  -4   2  933.70   31.06
   0   4  -2 1149.07   40.62
   0  -4   1 1261.12   41.89
   0  -4   1 1335.29   44.76
   0  -4   1 1440.39   46.98
   0  -4   1 1462.00   47.66
   0   4  -1 1339.04   44.39
   0  -4   1 1339.11   44.01
   0   4  -1 1341.03   45.17
   0  -4   0  244.00   11.28
   0  -4   0  266.36    9.14
   0  -4   0  255.63    8.91
   0   4   0  240.85    9.52
   0  -4   0  254.27    9.95
   0  -4  -1 2515.83   82.94
   0  -4  -1 2346.32   75.45
   0   4   1 2277.66   73.25
   0   4   1 2322.88   75.61
   0  -4  -1 2374.13   77.36
   0   4   1 2405.65   81.88
   0  -4  -2 1299.21   52.90
   0  -4  -2 1189.55   46.33
   0   4   2 1374.27   53.47
   0   4   2 1396.28   55.32
   0  -4  -2 1123.28   44.72
   0   4   2 1399.08   58.57
   0  -4  -3  145.83   10.84
   0  -4  -3  119.78    5.27
   0   4   3  198.46    7.91
   0   4   3  174.01    8.90
   0   4   3  175.43   23.14
   0  -4  -4  410.08   26.20
   0  -4  -4  438.80   27.33
   0   4   4  496.28   28.33
   0   4   4  557.09   33.01
   0   4   4  529.62   43.10
   0  -4  -5  296.00   23.20
   0  -4  -5  255.15   28.64
   0   4   5  288.45   20.45
   0   4   5  336.01   25.31
   0   4   5  328.21   31.06
   0  -4  -6  144.45   15.07
   0   4   6  110.99   10.44
   0   4   6  129.64   18.43
   0  -4  -7  250.54   21.50
   0  -4  -7  232.74   29.17
   0   4   7  236.47   20.79
   0   4   7  259.35   43.54
   0  -4  -8  126.77   21.91
   0  -4  -8  127.12   27.32
   0   4   8  154.23   16.28
   0   4   8  155.82   27.46
   0  -4  -9  192.80   23.24
   0  -4  -9  132.09   23.47
   0   4   9  203.79   24.52
   0   4   9  156.81   28.12
   0  -4 -10  136.12   22.85
   0  -4 -10   93.86   25.21
   0   4  10  175.55   28.11
   0   4  10  132.80   30.99
   0   5 -12   11.42    8.26
   0  -5  12    4.45    7.08
   0   5 -11   78.96   17.99
   0   5 -11  139.53   17.28
   0  -5  11  141.09   17.97
   0   5 -10   35.68    7.39
   0   5 -10   78.39   15.23
   0  -5  10   61.08   12.89
   0   5  -9   28.64    5.90
   0   5  -9   49.69    9.51
   0  -5   9   38.66    9.59
   0  -5   9   26.45    4.63
   0   5  -8   45.72    7.10
   0   5  -8   54.56    6.48
   0  -5   8   80.59    9.85
   0  -5   8   82.08    6.96
   0   5  -7  458.24   31.15
   0   5  -7  522.68   34.43
   0  -5   7  578.06   37.65
   0  -5   7  485.45   30.62
   0  -5   7  507.47   32.42
   0   5  -6  329.09   23.87
   0   5  -6  360.35   26.33
   0  -5   6  361.90   27.15
   0  -5   6  306.60   21.84
   0  -5   6  296.93   21.70
   0  -5   5  479.82   28.65
   0  -5   5  464.94   27.68
   0  -5   5  499.60   29.74
   0  -5   4  797.38   28.77
   0  -5   4  642.43   25.17
   0  -5   4  844.88   30.21
   0   5  -4  879.67   30.69
   0   5  -4  970.47   34.14
   0  -5   3  240.67   11.71
   0  -5   3  223.52   14.08
   0  -5   3  244.76   10.66
   0   5  -3  239.27   16.59
   0  -5   3  236.63    9.43
   0   5  -3  251.68   21.28
   0  -5   2  423.48   36.01
   0  -5   2  386.96   32.78
   0  -5   2  423.57   35.39
   0   5  -2  443.73   38.27
   0  -5   2  376.36   31.42
   0   5  -2  465.41   46.16
   0  -5   1  610.83   26.42
   0  -5   1  585.64   23.88
   0  -5   1  646.95   25.87
   0   5  -1  588.00   25.35
   0  -5   1  609.22   24.97
   0   5  -1  573.19   29.29
   0  -5   0  281.36   13.00
   0  -5   0  289.85   10.81
   0  -5   0  272.32    9.65
   0   5   0  368.21   13.89
   0  -5   0  278.86   11.44
   0   5   0  383.78   28.85
   0  -5  -1  439.29   19.78
   0  -5  -1  402.89   13.64
   0  -5  -1  392.48   13.30
   0   5   1  471.66   17.36
   0   5   1  410.80   27.56
   0  -5  -2  459.34   29.03
   0   5   2  360.05   20.47
   0   5   2  417.62   24.84
   0   5   2  376.65   29.63
   0  -5  -3  655.92   47.75
   0  -5  -3  597.95   41.39
   0   5   3  547.77   37.68
   0   5   3  569.40   40.01
   0   5   3  630.82   53.10
   0  -5  -4  378.18   27.54
   0  -5  -4  301.21   33.67
   0   5   4  317.44   35.20
   0   5   4  348.83   46.62
   0  -5  -5  243.53   27.31
   0  -5  -5  237.79   24.98
   0   5   5  226.21   22.96
   0   5   5  234.88   36.72
   0  -5  -6  236.47   21.03
   0  -5  -6  206.69   23.29
   0   5   6  219.29   19.10
   0   5   6  191.51   34.56
   0  -5  -7  114.76   18.56
   0   5   7  136.94   15.99
   0   5   7  153.89   24.98
   0  -5  -8  170.73   25.98
   0   5   8  159.08   23.46
   0   5   8  162.34   31.25
   0  -5  -9  123.83   21.45
   0   5   9   97.12   17.07
   0   5   9   81.00   18.04
   0   6 -11    4.20    5.63
   0  -6  11   23.51   10.40
   0   6 -10    9.14    3.77
   0   6 -10   28.40    7.82
   0  -6  10   23.94    8.19
   0   6  -9  291.30   29.89
   0   6  -9  332.74   34.72
   0  -6   9  368.55   38.63
   0   6  -8  502.64   37.69
   0  -6   8  540.70   87.20
   0  -6   8  505.51   38.20
   0  -6   7   83.05   10.48
   0  -6   7   83.08   10.53
   0  -6   7   92.16   10.70
   0  -6   6  197.94   15.10
   0  -6   6  186.35   14.68
   0  -6   6  185.82   14.71
   0  -6   6  178.82   14.33
   0  -6   5  339.46   23.94
   0  -6   5  385.92   25.82
   0  -6   5  360.21   24.02
   0  -6   5  366.53   24.74
   0  -6   4  294.47   33.04
   0  -6   4  323.64   36.11
   0   6  -4  394.51   25.89
   0   6  -4  401.11   26.72
   0  -6   3  185.14   15.61
   0  -6   3  145.59   11.98
   0  -6   3  170.30   13.40
   0   6  -3  117.82   15.34
   0   6  -3  128.63   11.91
   0  -6   2  287.77   22.32
   0  -6   2  263.46   20.47
   0  -6   2  313.87   22.30
   0   6  -2  377.17   28.19
   0   6  -2  379.77   37.49
   0  -6   1  708.24   50.33
   0  -6   1  657.07   45.24
   0  -6   1  719.38   49.33
   0   6  -1  800.43   59.05
   0   6  -1  769.69   56.63
   0  -6   0  560.35   37.19
   0  -6   0  503.43   31.12
   0  -6   0  504.21   31.14
   0   6   0  600.22   37.91
   0   6   0  565.43   44.76
   0  -6  -1  285.58   34.15
   0   6   1  324.26   35.71
   0   6   1  283.53   46.10
   0  -6  -2  220.81   18.51
   0   6   2  174.93   13.22
   0   6   2  145.06   21.78
   0  -6  -3  339.67   34.68
   0   6   3  300.77   29.36
   0   6   3  261.59   44.21
   0  -6  -4  143.71   16.36
   0   6   4  154.42   13.86
   0   6   4  142.92   24.80
   0  -6  -5   43.51   10.69
   0   6   5   84.32   14.60
   0   6   5   62.20   12.45
   0  -6  -6  121.04   15.80
   0   6   6  164.49   19.25
   0   6   6  140.48   23.93
   0  -6  -7   55.58   13.78
   0   6   7   69.79   11.35
   0   6   7   56.00   15.56
   0  -7  10  169.53   26.96
   0  -7  10  154.96   25.27
   0  -7   9  164.10   22.52
   0  -7   9  182.28   25.65
   0  -7   9  194.34   27.46
   0  -7   8   11.16    3.95
   0  -7   8   24.96    8.16
   0  -7   8    6.70    4.53
   0  -7   8   15.01    4.56
   0  -7   7  120.19   20.29
   0  -7   7  100.81   17.61
   0  -7   7  144.21   15.69
   0  -7   7  120.70   20.69
   0  -7   6  209.54   17.24
   0  -7   6  208.47   17.87
   0  -7   6  212.62   17.32
   0  -7   6  244.84   20.12
   0  -7   5  254.28   21.42
   0  -7   5  269.27   22.28
   0  -7   5  242.97   19.90
   0  -7   5  236.56   20.08
   0  -7   4  366.98   29.91
   0  -7   4  377.53   30.06
   0   7  -4  356.82   28.40
   0   7  -4  361.44   29.23
   0  -7   3  109.11   13.49
   0  -7   3   91.92   10.12
   0   7  -3  116.82   15.04
   0   7  -3  130.34   14.89
   0  -7   2  188.03   20.75
   0  -7   2  159.13   15.47
   0   7  -2  155.36   21.43
   0   7  -2  185.53   27.24
   0  -7   1  327.40   27.95
   0   7  -1  302.30   34.31
   0   7  -1  284.14   34.70
   0  -7   0  162.54   23.14
   0   7   0  152.62   23.01
   0   7   0  195.69   26.26
   0  -7  -1  151.53   16.33
   0   7   1  189.04   15.29
   0  -7  -2   79.93   16.02
   0   7   2  102.30   17.25
   0   7   2   92.23   19.43
   0  -7  -3  184.43   22.44
   0   7   3  227.12   23.78
   0   7   3  167.98   29.85
   0  -7  -4  154.34   19.16
   0   7   4  164.16   18.61
   0   7   4  105.00   18.58
   0  -7  -5  132.55   21.11
   0   7   5  170.25   22.98
   0   7   5  137.37   31.01
   0  -7  -6  112.83   24.06
   0   7   6   82.13   15.47
   0   7   6   67.01   16.77
   0  -8   9   21.17    8.67
   0  -8   9    9.46    4.80
   0  -8   8   68.94   10.37
   0  -8   8   64.12   10.45
   0  -8   8   70.99   11.43
   0  -8   7   13.26    4.94
   0  -8   7   24.97    5.84
   0  -8   7   33.41    6.82
   0  -8   6   13.66    4.09
   0  -8   6   27.83    7.42
   0  -8   6   15.45    5.74
   0  -8   6   25.47    7.06
   0  -8   5   24.02    7.11
   0  -8   5   20.32    5.58
   0  -8   5   27.80    7.71
   0  -8   4  104.46   14.66
   0   8  -4  140.50   17.52
   0   8  -4  153.88   20.47
   0  -8   3  182.83   20.44
   0   8  -3  146.62   24.01
   0   8  -3  235.76   26.02
   0  -8   2  239.43   26.25
   0   8  -2  239.58   30.91
   0   8  -2  258.91   28.26
   0  -8   1  183.28   25.12
   0   8  -1  185.72   25.87
   0   8  -1  198.68   33.23
   0  -8   0   78.03   14.15
   0   8   0   89.28   19.05
   0   8   0   88.46   19.86
   0  -8  -1  249.08   29.63
   0   8   1  180.88   28.00
   0   8   1  168.81   39.68
   0  -8  -2   69.53   14.72
   0   8   2   62.55   10.56
   0   8   2   73.57   16.87
   0  -8  -3   31.88   12.56
   0   8   3   13.93    5.70
   0   8   3    8.15    5.99
   0  -9   5  186.15   33.21
   0  -9   5  207.70   36.98
   0  -9   4  136.22   23.02
   0  -9   4  153.59   25.59
   0  -9   3   99.75   17.19
   0   9  -3   96.23   17.48
   0  -9   2  107.63   18.71
   0   9  -2  147.73   24.28
   0  -9   1   19.66    8.64
   0   9  -1    1.88    6.21
   0  -9   0   82.59   17.54
   0   9   0   45.77   10.42
   1  -9   0   57.90   13.60
  -1   9   0   56.06   13.95
   1  -9   1   59.35   13.15
  -1   9  -1   57.83   17.31
   1  -9   1  109.56   22.51
   1  -9   2   64.60   14.29
  -1   9  -2   59.79   14.67
   1  -9   2  103.38   18.49
   1  -9   3   28.15    9.86
  -1   9  -3   18.68    6.57
   1  -9   3   38.54   13.34
   1  -9   4   55.68   11.69
  -1   9  -4   55.12   10.78
   1  -9   4   43.24   10.16
   1  -8  -4   10.79    7.18
  -1   8   4    7.44    4.48
  -1   8   4    9.21    6.55
   1  -8  -3   91.62   15.38
  -1   8   3   88.77   12.70
  -1   8   3  106.98   17.43
   1  -8  -2   91.58   15.19
  -1   8   2   73.27   11.39
  -1   8   2   83.25   13.68
   1  -8  -1   60.00   12.58
  -1   8   1   39.89    9.93
  -1   8   1   50.88   12.23
   1  -8   0   45.43   10.79
  -1   8   0   54.21   11.84
  -1   8   0   75.27   14.63
   1  -8   1  113.63   16.23
  -1   8  -1   95.71   22.91
   1  -8   2   46.24    9.43
  -1   8  -2   45.63   11.17
   1  -8   2   71.68   13.13
   1  -8   3   67.24   11.98
  -1   8  -3   68.28   13.43
   1  -8   3   64.02   12.62
   1  -8   4  142.94   18.48
  -1   8  -4   97.32   17.65
   1  -8   4  135.96   18.64
   1  -8   5   33.33    8.25
  -1   8  -5   19.77    5.37
   1  -8   5   36.38    9.81
   1  -8   6   89.60   13.20
   1  -8   6   92.72   14.16
   1  -8   6  100.26   16.12
   1  -8   7   28.68    7.77
   1  -8   8   33.21    9.00
   1  -8   8   29.74    8.80
   1  -7  -6   57.74   13.91
  -1   7   6   55.49    9.95
   1  -7  -5   49.25   11.36
  -1   7   5   72.86   12.16
  -1   7   5   63.17   12.43
   1  -7  -4  142.93   20.06
  -1   7   4  143.79   18.55
  -1   7   4  126.39   17.60
   1  -7  -3  194.03   23.01
  -1   7   3  137.99   15.80
  -1   7   3  176.43   21.70
   1  -7  -2  209.08   22.66
  -1   7   2  166.17   16.49
  -1   7   2  145.13   16.56
   1  -7  -1  119.76   20.11
  -1   7   1  133.51   20.84
   1  -7   0  256.61   22.50
  -1   7   0  265.07   32.87
  -1   7   0  297.12   25.50
   1  -7   1  370.35   30.17
  -1   7  -1  422.70   39.69
  -1   7  -1  400.87   32.88
   1  -7   2  221.34   19.23
  -1   7  -2  160.57   28.42
   1  -7   2  169.77   22.92
   1  -7   3   45.46    7.75
   1  -7   3   29.21    5.05
  -1   7  -3   29.17    6.52
   1  -7   3   44.25    9.29
   1  -7   4  323.07   26.04
   1  -7   4  331.06   26.28
  -1   7  -4  368.93   29.52
   1  -7   4  305.48   25.70
   1  -7   5  426.44   32.53
   1  -7   5  486.16   36.71
  -1   7  -5  590.11   94.88
   1  -7   5  433.43   33.82
   1  -7   6   57.59   10.52
   1  -7   6   58.19   10.76
   1  -7   6   76.55   13.88
   1  -7   6   86.12   15.59
   1  -7   7   56.83    9.95
   1  -7   7   42.15    9.04
   1  -7   7   70.36   13.57
  -1   7  -8  205.02   23.04
   1  -7   8  190.01   22.30
   1  -7   8  202.72   22.88
  -1   7  -9   33.93    8.81
   1  -7   9   27.17    7.91
  -1   7 -10   27.14    8.88
   1  -7  10   17.14    8.35
   1  -6  -8   70.58   13.77
  -1   6   8   94.08   16.65
  -1   6   8   82.77   17.60
   1  -6  -7   63.33   14.20
  -1   6   7   87.42   13.82
  -1   6   7   96.93   19.90
   1  -6  -6  187.85   24.48
  -1   6   6  179.21   22.82
  -1   6   6  145.66   25.89
   1  -6  -5  142.87   16.44
  -1   6   5   93.22   16.58
  -1   6   5  110.75   22.38
   1  -6  -4  189.12   18.37
  -1   6   4  204.09   17.47
  -1   6   4  221.48   30.20
   1  -6  -3  175.73   20.19
  -1   6   3  175.42   17.78
  -1   6   3  184.69   28.91
   1  -6  -2  316.85   23.65
  -1   6   2  292.30   20.71
  -1   6   2  296.47   36.62
   1  -6  -1  308.50   35.25
  -1   6   1  380.22   24.92
  -1   6   1  392.87   26.62
   1  -6   0  166.87   20.53
  -1   6   0  177.36   27.34
  -1   6   0  158.46   18.97
   1  -6   1  136.02   12.38
  -1   6  -1  147.97   17.36
  -1   6  -1  122.63   11.68
   1  -6   2  384.00   28.17
   1  -6   2  374.36   25.89
   1  -6   2  372.43   26.14
  -1   6  -2  446.47   32.55
   1  -6   2  393.31   29.49
   1  -6   3   75.46   10.11
   1  -6   3   66.11    7.70
   1  -6   3   71.98    9.13
  -1   6  -3  118.12   17.62
   1  -6   3   84.46   12.83
   1  -6   4  157.79   18.33
   1  -6   4  176.84   20.20
  -1   6  -4  191.26   22.09
   1  -6   4  181.79   21.53
   1  -6   5   60.10    6.39
  -1   6  -5   40.38    5.13
  -1   6  -5   35.81    5.04
   1  -6   5   72.00    8.66
   1  -6   6  196.09   19.34
  -1   6  -6  153.91   15.71
   1  -6   6  219.45   22.89
   1  -6   6  237.66   24.11
   1  -6   7  311.99   24.70
  -1   6  -7  284.46   23.92
   1  -6   7  323.49   27.63
   1  -6   7  315.32   25.84
   1  -6   8   86.66   14.64
  -1   6  -8  111.68   19.76
   1  -6   8   73.53   14.10
   1  -6   8   97.31   17.35
  -1   6  -9   21.82    6.61
   1  -6   9   10.34    5.83
  -1   6 -10  110.22   16.30
   1  -6  10  109.30   16.79
  -1   6 -11   39.81   11.09
   1  -6  11   43.82   11.22
  -1   5   9   94.75   15.48
  -1   5   9   58.92   16.94
   1  -5  -8  126.42   16.60
  -1   5   8  115.31   15.24
  -1   5   8  108.50   23.44
   1  -5  -7  134.17   16.57
  -1   5   7  110.02   19.66
  -1   5   7   88.89   20.37
   1  -5  -6   95.63   15.16
   1  -5  -6   86.80   11.26
  -1   5   6  150.77   20.53
  -1   5   6  134.24   25.36
   1  -5  -5  289.03   23.23
  -1   5   5  307.59   20.50
  -1   5   5  321.40   23.07
  -1   5   5  347.48   31.93
   1  -5  -4  446.22   31.17
  -1   5   4  424.45   27.95
  -1   5   4  483.19   55.28
   1  -5  -3  112.11   11.40
  -1   5   3  258.43   19.30
  -1   5   3  271.61   34.93
   1  -5  -2 1487.14   84.95
  -1   5   2 1449.28   81.97
  -1   5   2 1303.94   81.54
   1  -5  -1  898.84   32.76
  -1   5   1  687.18   24.60
  -1   5   1  733.94   32.72
   1  -5   0  590.66   22.91
  -1   5   0  519.65   19.21
  -1   5   0  572.32   22.98
   1  -5   1  461.26   18.11
   1  -5   1  466.92   15.67
   1  -5   1  450.91   15.44
  -1   5  -1  438.89   17.11
  -1   5  -1  435.79   17.71
   1  -5   2  868.16   30.82
   1  -5   2  874.49   29.28
   1  -5   2  913.10   31.06
  -1   5  -2 1163.28   43.12
   1  -5   2  900.36   32.86
   1  -5   3  647.02   23.07
   1  -5   3  699.28   25.22
  -1   5  -3  734.63   25.44
   1  -5   3  649.95   22.33
  -1   5  -3  694.90   30.66
   1  -5   3  731.97   27.37
   1  -5   4  385.97   24.54
   1  -5   4  428.42   25.19
  -1   5  -4  374.23   22.25
  -1   5  -4  404.79   24.27
   1  -5   4  459.68   27.91
   1  -5   5  511.13   35.46
   1  -5   5  543.21   37.95
  -1   5  -5  624.17   49.16
   1  -5   5  573.01   40.81
   1  -5   6  696.70   43.49
   1  -5   6  846.91   52.88
  -1   5  -6 1047.62   70.06
   1  -5   6  819.20   52.69
   1  -5   6  797.12   50.59
  -1   5  -7  178.05   21.47
   1  -5   7  186.11   15.88
   1  -5   7  174.63   13.43
  -1   5  -8  151.30   19.39
  -1   5  -8  186.40   25.42
   1  -5   8  162.74   22.14
   1  -5   8  135.06   17.87
  -1   5  -9   11.78    3.12
  -1   5  -9    8.13    5.67
   1  -5   9    9.50    6.85
   1  -5   9   15.04    4.55
  -1   5 -10   72.84   17.31
   1  -5  10   61.10   12.10
  -1   5 -11   68.90   19.83
   1  -5  11   49.12   11.15
  -1   5 -12   36.62   12.50
   1  -5  12   16.02    7.88
   1  -4 -10   13.25    6.05
   1  -4 -10    0.91    3.68
  -1   4  10   20.54    7.00
  -1   4  10   18.92    5.81
   1  -4  -9   45.28    9.55
   1  -4  -9   41.66    8.10
  -1   4   9   33.63    8.83
  -1   4   9   42.92    8.29
   1  -4  -8   99.88   15.96
  -1   4   8   58.35   10.79
  -1   4   8   43.03    9.82
   1  -4  -7   51.28    8.97
   1  -4  -7   51.57    8.70
  -1   4   7   99.89   13.31
  -1   4   7  100.77   19.77
   1  -4  -6  750.73   48.70
   1  -4  -6  720.85   47.26
  -1   4   6  805.89   50.07
  -1   4   6  930.64   59.04
  -1   4   6  893.73   71.39
   1  -4  -5  599.05   43.76
   1  -4  -5  531.30   36.72
  -1   4   5  395.42   27.46
  -1   4   5  413.57   29.84
  -1   4   5  477.50   46.65
   1  -4  -4 1184.00   42.54
   1  -4  -4 1088.91   36.13
  -1   4   4 1037.89   34.41
  -1   4   4 1074.64   37.66
  -1   4   4 1028.36   41.49
  -1   4   3  502.19   16.57
  -1   4   3  623.65   24.23
  -1   4   3  604.25   25.57
  -1   4   3  575.27   25.13
   1  -4  -2  553.54   24.77
  -1   4   2  501.35   18.73
  -1   4   2  528.88   27.15
   1  -4  -1 1404.09   47.59
  -1   4   1 1291.95   43.11
  -1   4   1 1312.21   48.05
   1  -4   0  645.63   23.23
  -1   4   0  625.44   21.59
  -1   4   0  740.02   25.49
   1  -4   0  589.88   20.60
   1  -4   1  202.89    9.84
   1  -4   1  205.39    7.27
  -1   4  -1  249.10   13.74
   1  -4   1  205.57    8.51
  -1   4  -1  243.56   11.06
   1  -4   2  202.80   13.85
   1  -4   2  250.92   10.22
  -1   4  -2  268.39   13.99
   1  -4   2  231.71    8.43
  -1   4  -2  295.11   14.21
   1  -4   2  271.92   13.49
   1  -4   3  864.96   34.36
   1  -4   3  866.91   34.71
  -1   4  -3 1021.57   41.97
   1  -4   3  838.06   33.32
  -1   4  -3  977.30   39.40
   1  -4   3  862.69   35.98
   1  -4   4  158.81   13.53
   1  -4   4  185.93   16.07
  -1   4  -4  270.01   29.83
   1  -4   4  157.49   13.59
  -1   4  -4  221.03   19.44
   1  -4   4  145.62   17.27
   1  -4   4  120.37   11.91
  -1   4  -5  277.34   10.66
   1  -4   5  305.66   11.20
  -1   4  -5  384.69   25.27
   1  -4   5  377.07   16.42
   1  -4   5  301.07   13.91
   1  -4   5  346.98   15.09
  -1   4  -6  386.12   22.53
   1  -4   6  244.23   14.51
  -1   4  -6  453.82   29.38
   1  -4   6  236.77   16.86
   1  -4   6  180.89   16.60
   1  -4   6  218.59   14.42
  -1   4  -7  219.57   18.37
   1  -4   7  318.48   22.47
  -1   4  -7  304.33   40.48
   1  -4   7  368.99   28.39
   1  -4   7  284.75   22.34
   1  -4   7  327.75   23.69
  -1   4  -8  183.76   15.17
   1  -4   8  145.49   10.47
  -1   4  -8  248.38   32.31
   1  -4   8  207.88   18.34
   1  -4   8  223.36   16.50
  -1   4  -9   67.56   12.11
  -1   4  -9   94.85   21.10
   1  -4   9   71.94   13.23
   1  -4   9   84.12   11.36
  -1   4 -10   33.44    6.69
  -1   4 -10   51.47   15.48
   1  -4  10   29.16    8.77
  -1   4 -11  119.90   26.94
   1  -4  11  138.66   19.33
  -1   4 -12   40.95   15.06
   1  -4  12   29.63   10.81
   1  -3 -11   13.78    6.04
   1  -3 -11   29.63    7.95
  -1   3  11   13.41    6.32
  -1   3  11   12.02    4.57
   1  -3 -10  250.02   31.25
   1  -3 -10  261.18   32.18
  -1   3  10  191.70   24.83
  -1   3  10  181.33   31.54
   1  -3  -9  387.01   31.67
   1  -3  -9  322.90   32.01
  -1   3   9  381.09   30.80
  -1   3   9  372.23   35.11
   1  -3  -8  405.44   39.84
   1  -3  -8  434.62   42.67
  -1   3   8  523.77   50.83
  -1   3   8  471.90   54.79
   1  -3  -7 1144.63   72.18
   1  -3  -7 1231.13   81.32
  -1   3   7 1104.80   69.89
  -1   3   7 1173.08   73.92
   1  -3  -6  274.98   18.50
   1  -3  -6  286.66   25.14
  -1   3   6  294.07   17.24
  -1   3   6  345.44   22.60
  -1   3   6  351.55   30.75
   1  -3  -5  822.93   30.48
   1  -3  -5  805.21   27.82
  -1   3   5  701.94   23.91
  -1   3   5  815.20   30.05
  -1   3   5  739.23   33.92
   1  -3  -4 1256.06   50.79
   1  -3  -4 1154.01   45.20
  -1   3   4 1210.02   47.17
  -1   3   4 1343.30   53.68
  -1   3   4 1319.16   53.59
   1  -3  -3  920.20   32.35
   1  -3  -3  924.25   30.10
  -1   3   3  945.58   30.70
  -1   3   3  966.72   32.88
  -1   3   3  978.50   35.29
   1  -3  -2  458.38   14.58
  -1   3   2  345.55   10.59
  -1   3   2  377.56   12.03
   1  -3  -2  416.26   12.46
  -1   3   2  340.17   14.99
  -1   3   1  571.67   15.63
  -1   3   1  616.19   17.00
   1  -3  -1  619.88   17.02
  -1   3   1  590.14   17.44
   1  -3  -1  579.17   16.56
  -1   3   0  556.09    7.42
  -1   3   0  559.02    8.02
   1  -3   0  627.14    8.53
   1  -3   0  660.05   12.08
   1  -3   1  555.04    7.87
  -1   3  -1  558.23    7.26
  -1   3  -1  584.91   10.16
   1  -3   1  527.52    5.46
  -1   3  -1  575.78   14.03
   1  -3   1  531.32    7.82
   1  -3   1  546.08   10.58
   1  -3   2 1180.39   29.92
   1  -3   2 1187.93   30.03
  -1   3  -2 1227.69   31.16
   1  -3   2 1200.42   30.26
  -1   3  -2 1223.18   31.80
   1  -3   2 1195.43   30.76
   1  -3   2 1197.14   34.63
   1  -3   2 1061.46   28.74
   1  -3   3 2237.75   55.61
   1  -3   3 2347.32   57.95
  -1   3  -3 2484.48   61.99
   1  -3   3 2232.77   55.59
  -1   3  -3 2550.12   63.95
   1  -3   3 2103.35   53.08
   1  -3   3 2225.35   55.64
   1  -3   3 2195.66   55.81
   1  -3   4  218.94    8.02
   1  -3   4  221.29    8.79
   1  -3   4  233.19   11.33
   1  -3   4  233.72    8.93
   1  -3   4  230.19   10.07
  -1   3  -5 2752.59   90.34
   1  -3   5 2981.41   97.78
  -1   3  -5 3149.37  104.46
   1  -3   5 3122.58  104.01
   1  -3   5 2617.73   86.21
   1  -3   5 3157.06  104.34
  -1   3  -6  258.81   13.90
   1  -3   6  317.10   11.47
  -1   3  -6  346.73   23.67
   1  -3   6  344.01   15.32
   1  -3   6  341.11   13.42
  -1   3  -7  276.67   16.80
   1  -3   7  226.32   13.48
  -1   3  -7  303.80   31.19
   1  -3   7  257.32   19.39
   1  -3   7  269.24   17.02
  -1   3  -7  252.25   15.01
  -1   3  -8  197.04   22.00
   1  -3   8  163.82   18.21
  -1   3  -8  256.74   35.03
   1  -3   8  219.70   26.50
   1  -3   8  184.97   20.86
  -1   3  -8  181.02   20.01
  -1   3  -9  201.55   19.69
  -1   3  -9  248.70   29.34
   1  -3   9  241.45   27.09
  -1   3 -10  108.18   16.79
  -1   3 -10  126.65   27.39
   1  -3  10  127.56   22.48
  -1   3 -11   28.01    5.31
   1  -3  11   50.77   11.22
  -1   3 -12   29.77    9.11
   1  -3  12   13.12    7.86
   1  -2 -12   36.15   12.40
   1  -2 -12   57.59   12.05
  -1   2  12   84.18   15.95
   1  -2 -11  171.92   22.91
   1  -2 -11  142.56   27.93
  -1   2  11  202.21   24.76
   1  -2 -10   51.27    9.79
   1  -2 -10   45.95   10.32
  -1   2  10   41.07    9.13
  -1   2  10   60.10   13.21
   1  -2  -9  270.30   27.70
   1  -2  -9  230.77   29.27
  -1   2   9  295.34   33.69
   1  -2  -8   14.31    8.19
   1  -2  -8    8.47    4.53
  -1   2   8   16.16    4.93
   1  -2  -7  790.71   46.15
   1  -2  -7  856.54   53.17
  -1   2   7  695.40   43.61
   1  -2  -6  448.65   38.57
   1  -2  -6  512.03   24.07
  -1   2   6  447.87   37.14
  -1   2   6  565.47   30.57
   1  -2  -5  541.02   21.57
   1  -2  -5  518.31   24.90
  -1   2   5  461.68   16.05
  -1   2   5  503.86   21.07
   1  -2  -5  499.49   17.88
   1  -2  -4  637.57   18.79
   1  -2  -4  593.48   19.96
  -1   2   4  460.05   12.47
  -1   2   4  498.25   20.79
   1  -2  -4  618.66   19.90
   1  -2  -3  612.13   10.02
   1  -2  -3  619.75    6.68
  -1   2   3  527.85    9.36
   1  -2  -3  602.04    9.14
   1  -2  -3  639.39   11.02
   1  -2  -2  732.00   10.39
  -1   2   2  747.79    6.39
  -1   2   2  772.60    6.42
   1  -2  -2  740.11    9.36
  -1   2   2  752.74   11.01
   1  -2  -2  709.19   12.09
   1  -2  -1  313.40    6.50
  -1   2   1  272.30    5.16
  -1   2   1  293.99    5.69
   1  -2  -1  298.94    5.86
  -1   2   1  321.65    7.19
   1  -2   0 3841.71   26.30
   1  -2   0 3824.09   28.34
   1  -2   0 3754.78   28.12
   1  -2   1 9180.57   54.52
  -1   2  -1 9880.65  240.20
  -1   2  -1 9475.59   56.77
   1  -2   1 9484.75   56.53
   1  -2   1 9584.37  233.65
   1  -2   1 9514.24  231.95
   1  -2   1 9473.85   59.67
   1  -2   3 3581.06   22.25
   1  -2   3 3639.89   29.16
   1  -2   3 3817.57   27.32
  -1   2  -3 3840.10   26.45
   1  -2   4  542.89   13.95
   1  -2   4  585.22   18.19
   1  -2   4  588.28   17.61
  -1   2  -5  247.45    9.08
   1  -2   5  329.15   11.56
  -1   2  -5  287.22   19.73
   1  -2   5  348.01   15.64
   1  -2   5  362.12   13.46
  -1   2  -5  241.39    9.34
  -1   2  -6  398.14   33.04
   1  -2   6  300.45   25.12
   1  -2   6  367.01   32.63
   1  -2   6  341.73   28.94
  -1   2  -6  417.41   34.74
  -1   2  -7  350.77   13.08
   1  -2   7  270.77   10.78
  -1   2  -7  402.32   29.16
   1  -2   7  302.60   15.56
   1  -2   7  276.02   11.10
  -1   2  -7  318.07   12.00
  -1   2  -8  272.46   19.63
   1  -2   8  206.40   15.07
  -1   2  -8  292.65   40.42
   1  -2   8  270.39   23.23
   1  -2   8  238.57   17.34
  -1   2  -8  242.42   17.33
  -1   2  -9  267.96   18.76
  -1   2  -9  305.63   33.80
   1  -2   9  257.64   21.02
   1  -2   9  242.09   16.68
  -1   2 -10   37.53    6.99
  -1   2 -10   43.65   11.89
   1  -2  10   14.98    8.10
   1  -2  10   19.12    3.69
  -1   2 -11   44.59    8.20
  -1   2 -11   45.07    9.95
   1  -2  11   51.97   12.55
   1  -2  12   73.86   15.20
   1  -1 -13   62.42   13.37
   1  -1 -13   52.70   11.97
  -1   1  13   51.47   12.29
   1  -1 -12  107.41   15.69
   1  -1 -12  134.04   20.57
  -1   1  12   98.92   15.73
   1  -1 -11  108.95   18.20
   1  -1 -11   91.35   18.13
  -1   1  11   62.80   13.43
   1  -1 -10  177.95   28.34
   1  -1 -10  189.57   25.21
  -1   1  10   96.15   15.83
  -1   1  10  106.64   15.66
   1  -1  -9  782.64   50.79
   1  -1  -9  720.03   60.50
  -1   1   9  675.95   44.18
  -1   1   9  672.27   42.45
   1  -1  -9  531.12   33.54
   1  -1  -8  578.25   35.04
   1  -1  -8  583.28   43.66
  -1   1   8  524.48   31.65
  -1   1   8  485.04   32.59
   1  -1  -8  443.44   25.57
   1  -1  -7  972.09   34.77
   1  -1  -7  948.50   41.90
  -1   1   7  859.27   31.87
  -1   1   7  803.41   27.87
   1  -1  -7  831.76   28.47
   1  -1  -6  497.50   19.16
   1  -1  -6  496.07   27.43
  -1   1   6  475.62   40.56
  -1   1   6  422.38   37.82
   1  -1  -6  465.25   38.54
   1  -1  -5  392.07   17.57
  -1   1   5  352.25   11.79
  -1   1   5  399.82   13.23
  -1   1   5  365.24   15.20
   1  -1  -5  365.79   10.67
  -1   1   4 1182.33   12.48
   1  -1  -4 1079.74   11.56
  -1   1   4 1141.40   10.78
   1  -1  -4 1023.47   12.20
  -1   1   4 1081.00   11.19
   1  -1  -4 1046.91   10.39
   1  -1  -3 4823.72   33.33
   1  -1  -3 4604.75   29.88
  -1   1   3 4533.93   29.75
   1  -1  -3 4681.72   31.68
   1  -1  -2  379.93    6.57
  -1   1   2  438.26    8.85
  -1   1   2  436.22    6.02
  -1   1   2  442.71    7.20
   1  -1  -1 6622.08   40.64
  -1   1   1 7013.60   43.42
  -1   1  -1  503.97    6.08
   1  -1   1  456.27    5.68
  -1   1  -1  483.44    6.98
   1  -1   1  469.11    7.28
  -1   1  -1  523.66    7.30
  -1   1  -3 1629.96   11.49
   1  -1   3 1553.87   11.15
   1  -1   3 1599.17   14.09
   1  -1   3 1609.82   14.46
   1  -1   3 1630.74   14.26
  -1   1  -3 1546.51   13.22
   1  -1   4 1428.61   35.65
   1  -1   4 1159.12   29.83
   1  -1   4 1227.52   31.50
   1  -1   4 1146.65   31.09
   1  -1   4 1478.89   37.48
  -1   1  -4 1478.52   37.15
  -1   1  -5 1071.44   35.38
   1  -1   5  975.66   32.28
  -1   1  -5 1035.58   39.34
   1  -1   5  834.02   30.14
   1  -1   5 1001.27   33.42
  -1   1  -5  992.84   33.05
  -1   1  -6  454.11   37.84
   1  -1   6  431.80   36.07
  -1   1  -6  454.29   38.86
   1  -1   6  375.14   32.80
   1  -1   6  434.65   36.26
  -1   1  -6  412.12   34.30
  -1   1  -7  558.94   20.27
   1  -1   7  411.58   15.30
  -1   1  -7  634.13   39.99
   1  -1   7  377.45   17.82
   1  -1   7  400.67   14.98
  -1   1  -7  441.04   15.97
  -1   1  -8  166.99   13.11
  -1   1  -8  210.27   26.46
   1  -1   8  165.59   15.53
   1  -1   8  183.53   13.89
  -1   1  -8  127.83   10.03
  -1   1  -9  173.81   13.21
  -1   1  -9  161.55   21.82
   1  -1   9  118.23   14.23
   1  -1   9  172.12   12.67
  -1   1 -10  203.29   16.53
  -1   1 -10  172.63   29.01
   1  -1  10  181.64   17.88
   1  -1  10  195.52   15.58
  -1   1 -11   63.21   11.35
  -1   1 -11   53.43   12.83
   1  -1  11   22.48    7.12
  -1   1 -12  193.36   53.55
  -1   1 -12  179.58   40.55
   1  -1  12  194.59   55.92
   1   0 -13   21.99    8.54
   1   0 -13   53.89   11.60
  -1   0  13   23.34    9.12
   1   0 -12  126.09   17.57
   1   0 -12  122.96   16.73
  -1   0  12  136.28   19.99
   1   0 -11  127.08   21.44
   1   0 -11  102.94   21.75
  -1   0  11  128.46   21.92
   1   0 -10  109.12   12.82
   1   0 -10  108.57   14.82
  -1   0  10   89.03   12.31
   1   0  -9  490.11   32.34
   1   0  -9  476.69   45.30
  -1   0   9  556.64   37.54
  -1   0   9  472.45   29.63
   1   0  -9  360.33   22.83
   1   0  -8  284.11   12.77
   1   0  -8  351.11   33.13
  -1   0   8  345.90   16.29
  -1   0   8  342.14   12.38
   1   0  -8  259.66    9.69
   1   0  -7  346.31   29.65
   1   0  -7  411.34   42.59
  -1   0   7  301.83   26.55
  -1   0   7  298.46   24.87
   1   0  -7  290.24   24.16
   1   0  -6  564.20   20.40
   1   0  -6  532.42   23.75
  -1   0   6  476.04   18.44
  -1   0   6  439.54   14.98
   1   0  -6  453.85   15.29
   1   0  -5 2143.27   54.20
  -1   0   5 2261.60   56.55
   1   0  -5 1996.00   50.65
  -1   0   5 1989.93   50.11
  -1   0   5 2495.02   63.00
   1   0  -5 1850.64   46.99
  -1   0   5 2350.91   57.83
   1   0  -5 1908.63   47.06
  -1   0   4 1755.31   16.53
   1   0  -4 1848.57   16.42
   1   0  -4 1713.98   12.28
   1   0  -4 1838.83   13.24
  -1   0   3 1643.18   13.82
  -1   0   3 1735.67   14.76
  -1   0   3 1734.44   15.56
   1   0  -3 1714.14   14.57
   1   0  -3 1659.04   11.92
   1   0  -2 5894.44   37.11
   1   0  -2 5806.04   36.29
  -1   0   2 5747.86   36.10
  -1   0   0  458.36    5.18
  -1   0  -1 1419.30    9.99
   1   0   1 1357.68   11.50
  -1   0  -2 1085.99    9.41
  -1   0  -2 1157.27   11.25
  -1   0  -3  836.30    9.48
   1   0   3  757.06    8.41
  -1   0  -3  842.74   10.13
   1   0   3  818.68    9.50
  -1   0  -3  789.44    9.68
   1   0   3  816.71    9.77
  -1   0  -3  790.99    9.26
  -1   0  -4  618.56   17.33
   1   0   4  507.27   14.17
  -1   0  -4  662.98   18.64
  -1   0  -4  608.16   17.46
   1   0   4  515.31   14.71
  -1   0  -4  631.08   17.31
  -1   0  -5  303.53   11.86
   1   0   5  224.19    9.11
  -1   0  -5  337.98   13.84
   1   0   5  225.39    9.41
  -1   0  -5  317.34   12.02
  -1   0  -6  682.59   28.32
   1   0   6  780.24   31.44
  -1   0  -6  708.65   31.40
   1   0   6  815.37   33.07
  -1   0  -6  650.92   26.68
  -1   0  -7  470.87   18.72
  -1   0  -7  401.49   25.86
   1   0   7  352.12   14.28
  -1   0  -7  340.26   13.53
  -1   0  -8  785.49   49.83
  -1   0  -8  812.32   54.07
   1   0   8  728.99   46.07
  -1   0  -9  192.56   19.73
  -1   0  -9  177.33   28.11
   1   0   9  218.11   21.76
  -1   0 -10  333.76   26.17
  -1   0 -10  318.12   41.19
   1   0  10  292.27   24.47
  -1   0 -11   11.84    4.96
  -1   0 -11   26.76    8.48
  -1   0 -12    4.26    5.12
  -1   0 -12    4.70    5.57
   1   1 -13   12.93    6.87
   1   1 -13   14.87    6.23
  -1  -1  13    9.84    7.56
   1   1 -12   75.57   12.63
   1   1 -12  101.18   16.00
  -1  -1  12   55.93   12.01
   1   1 -11  232.87   19.37
   1   1 -11  269.81   22.75
  -1  -1  11  322.59   27.14
   1   1 -10  566.19   39.13
   1   1 -10  524.76   50.90
  -1  -1  10  554.80   40.35
   1   1  -9  318.34   23.92
   1   1  -9  338.48   36.67
  -1  -1   9  208.97   18.56
   1   1  -8  541.59   20.72
   1   1  -8  536.07   31.69
  -1  -1   8  487.40   20.48
   1   1  -7  319.34   27.47
   1   1  -7  386.96   41.42
  -1  -1   7  383.96   33.59
   1   1  -6 1552.27   51.41
   1   1  -6 1726.56   57.63
   1   1  -5  802.67   21.81
  -1  -1   5  647.87   17.55
   1   1  -5  798.68   22.15
  -1  -1   5  651.03   20.20
   1   1  -5  724.78   19.76
   1   1  -4  610.66    8.63
   1   1  -4  632.63   11.54
   1   1  -4  588.77    8.30
   1   1  -3 1736.48   13.81
  -1  -1   3 1705.70   11.21
  -1  -1   2 3612.75   24.24
   1   1  -2 3624.51   22.89
   1   1  -2 3479.21   22.01
  -1  -1  -1 4707.09   31.06
   1   1   1 4873.07   31.81
  -1  -1  -1 4965.14   32.01
   1   1   1 4636.84   31.07
  -1  -1  -1 4651.04   30.67
  -1  -1  -2 3251.08   23.57
   1   1   2 3072.09   21.93
   1   1   2 3226.32   23.63
   1   1   2 3022.26   22.76
  -1  -1  -3  394.73    7.61
   1   1   3  375.43    6.74
  -1  -1  -3  412.40    7.83
   1   1   3  403.27    6.73
   1   1   3  424.74    8.51
  -1  -1  -3  350.40    6.89
  -1  -1  -3  359.02    6.87
  -1  -1  -4 2531.85   63.71
   1   1   4 2372.65   59.27
   1   1   4 1972.99   49.39
   1   1   4 2728.29   69.49
  -1  -1  -4 2099.27   52.92
   1   1   4 2507.06   62.96
  -1  -1  -4 2278.00   56.97
  -1  -1  -5  741.06   30.81
  -1  -1  -5  764.35   31.32
   1   1   5  683.29   29.19
   1   1   5  661.67   27.21
  -1  -1  -5  619.43   25.47
  -1  -1  -6 2460.58   82.41
  -1  -1  -6 2539.68  142.40
   1   1   6 2537.57  142.95
   1   1   6 2428.02   81.11
  -1  -1  -7  714.03   41.69
  -1  -1  -7  767.52   48.18
   1   1   7  928.09   54.90
   1   1   7  925.42   52.97
  -1  -1  -8   27.00    7.30
  -1  -1  -8   12.29    5.16
   1   1   8   11.48    8.54
   1   1   8    0.77    3.46
  -1  -1  -9   96.48   13.70
  -1  -1  -9  126.54   21.15
   1   1   9   91.84   16.72
   1   1   9   59.79    9.74
  -1  -1 -10   50.42   10.33
  -1  -1 -10   54.24   10.79
   1   1  10   53.91   11.94
   1   1  10   65.91   13.43
  -1  -1 -11   26.49    6.83
  -1  -1 -11   51.67   11.73
   1   1  11   51.71   11.76
   1   1  11   36.09    8.87
  -1  -1 -12   74.51   14.91
  -1  -1 -12   68.78   15.81
   1   1  12   62.17   15.16
   1   2 -13   59.89   17.27
   1   2 -13   62.35   11.42
  -1  -2  13   53.90   14.61
   1   2 -12  136.94   15.33
   1   2 -12  151.81   18.73
  -1  -2  12  166.20   19.63
   1   2 -11  135.86   23.00
   1   2 -11  152.02   15.56
  -1  -2  11  162.47   18.08
   1   2 -10  150.61   12.05
   1   2 -10  163.57   14.89
  -1  -2  10  200.80   17.18
   1   2  -9  228.86   17.51
   1   2  -9  254.53   20.41
  -1  -2   9  211.58   18.45
   1   2  -8  483.33   18.45
   1   2  -8  461.14   18.79
  -1  -2   8  472.36   20.17
   1   2  -7  189.86   16.74
   1   2  -7  213.60   19.89
  -1  -2   7  289.51   25.86
   1   2  -6 1780.33   58.56
   1   2  -6 1930.05   64.20
  -1  -2   6 1920.66   63.68
   1   2  -6 1563.42   51.54
   1   2  -5 1947.21   49.18
  -1  -2   5 1831.32   46.19
  -1  -2   5 2072.21   52.71
   1   2  -5 1822.17   45.89
  -1  -2   5 1917.00   46.68
  -1  -2   5 1697.79   41.35
   1   2  -4  861.09   14.67
  -1  -2   4  897.48   10.25
  -1  -2   4  964.83   16.10
  -1  -2   4  883.56   13.72
   1   2  -4  825.76    8.81
  -1  -2   4  890.65    7.21
  -1  -2   3 1084.03   11.16
  -1  -2   3 1030.80    8.84
   1   2  -2 3224.33   22.62
  -1  -2   2 3244.41   19.87
  -1  -2   2 3359.06   20.81
   1   2  -2 3244.55   22.50
  -1  -2   2 3100.50   21.32
  -1  -2   1 4124.30   28.33
   1   2  -1 4124.44   27.32
   1   2  -1 4220.69   24.61
  -1  -2   1 4137.24   24.17
  -1  -2   1 4033.30   27.39
   1   2   0 2558.71   18.55
   1   2   0 2572.42   20.06
   1   2   1  793.98   10.14
   1   2   2 3086.94   23.00
   1   2   2 3056.98   24.92
  -1  -2  -2 3080.29   23.70
  -1  -2  -3 1996.49   50.13
   1   2   3 2289.78   57.06
  -1  -2  -3 1915.26   48.31
  -1  -2  -4  828.04   29.68
  -1  -2  -4  779.83   26.75
   1   2   4  645.40   22.16
   1   2   4  788.82   27.68
   1   2   4  848.18   29.73
  -1  -2  -5  308.52   26.96
  -1  -2  -5  295.82   25.21
   1   2   5  288.60   25.92
   1   2   5  284.51   25.14
  -1  -2  -6   37.76    6.96
  -1  -2  -6   34.75    5.49
   1   2   6   98.72    8.99
   1   2   6   87.50    7.72
  -1  -2  -7  109.27   13.92
  -1  -2  -7  141.26   19.45
   1   2   7   79.33   11.50
   1   2   7   75.65    9.62
  -1  -2  -8  250.78   25.73
  -1  -2  -8  293.73   40.05
   1   2   8  282.10   29.59
   1   2   8  315.05   39.33
  -1  -2  -9  120.32   21.04
  -1  -2  -9  162.63   18.81
   1   2   9  117.28   22.08
   1   2   9  126.52   23.67
  -1  -2 -10  171.30   22.47
  -1  -2 -10  172.49   29.57
   1   2  10  190.51   24.81
   1   2  10  120.84   22.13
  -1  -2 -11  127.31   27.88
   1   2  11  133.04   23.01
   1   2  11   83.90   19.77
   1   3 -13   92.97   13.89
   1   3 -13  107.92   16.49
  -1  -3  13  130.51   21.06
   1   3 -12   45.81    8.70
   1   3 -12   51.60   10.64
  -1  -3  12   31.01    7.62
   1   3 -11   90.18   14.50
   1   3 -11  131.16   21.73
  -1  -3  11   70.32   14.11
   1   3 -10  269.15   26.80
   1   3 -10  281.86   28.65
  -1  -3  10  327.98   33.57
   1   3  -9  287.41   32.16
  -1  -3   9  249.72   29.92
   1   3  -8  616.61   35.96
  -1  -3   8  643.02   38.95
   1   3  -7  178.00   19.69
   1   3  -7  227.66   12.52
  -1  -3   7  243.22   11.93
   1   3  -6  448.05   37.94
   1   3  -6  480.51   40.66
  -1  -3   6  628.10   26.83
   1   3  -6  392.46   32.87
  -1  -3   6  542.35   21.38
  -1  -3   6  438.35   36.12
   1   3  -5  272.49   15.53
  -1  -3   5  321.83   12.16
  -1  -3   5  377.88   15.42
  -1  -3   5  408.27   14.34
  -1  -3   5  420.75   16.07
   1   3  -5  288.36   13.38
  -1  -3   5  357.90   12.41
   1   3  -4  899.59   25.46
  -1  -3   4  882.41   23.41
  -1  -3   4  896.88   27.61
  -1  -3   4  859.65   24.33
  -1  -3   4  934.28   23.87
  -1  -3   4  964.32   25.22
   1   3  -4  963.70   25.52
  -1  -3   4  868.59   22.39
  -1  -3   3 1650.18   43.52
  -1  -3   3 1788.90   44.87
  -1  -3   3 1840.96   46.95
  -1  -3   3 1957.20   48.34
  -1  -3   3 1838.15   45.63
   1   3  -3 2119.12   52.99
  -1  -3   3 1813.00   45.44
   1   3  -2  375.63   11.92
  -1  -3   2  342.13   10.39
  -1  -3   2  405.46   12.55
   1   3  -2  374.13   10.95
   1   3  -2  416.68   10.88
  -1  -3   2  359.85    9.45
   1   3  -2  420.99   12.89
  -1  -3   2  333.21    9.87
  -1  -3   1  755.77   20.32
  -1  -3   1  800.91   22.32
  -1  -3   1  825.18   22.11
   1   3  -1  747.06   19.60
   1   3  -1  746.21   18.72
  -1  -3   1  760.23   19.13
  -1  -3   0  211.60    7.52
  -1  -3   0  206.39    8.77
  -1  -3   0  210.88    7.25
  -1  -3   0  216.73    6.70
  -1  -3   0  190.75    7.16
  -1  -3  -1 3826.04   94.09
   1   3   1 4500.93  110.39
   1   3   1 4512.89  110.61
  -1  -3  -1 4063.75   99.84
   1   3   1 4397.06  109.04
  -1  -3  -2 1047.07   36.35
  -1  -3  -2 1019.49   33.90
   1   3   2 1186.77   39.16
   1   3   2 1224.52   40.96
  -1  -3  -2 1044.09   34.93
   1   3   2 1232.34   41.89
  -1  -3  -3  582.70   25.72
  -1  -3  -3  548.40   22.54
   1   3   3  483.31   40.14
   1   3   3  524.32   22.36
  -1  -3  -3  508.75   18.47
   1   3   3  512.43   19.72
  -1  -3  -4  996.56   36.73
  -1  -3  -4  900.99   31.18
   1   3   4 1021.22   36.00
   1   3   4 1031.50   36.72
  -1  -3  -5  237.98   17.56
  -1  -3  -5  229.11   14.30
   1   3   5  299.30   20.07
   1   3   5  298.50   27.67
  -1  -3  -6  466.39   32.31
  -1  -3  -6  447.68   29.23
   1   3   6  466.31   31.46
   1   3   6  424.67   31.11
  -1  -3  -7  415.06   41.03
  -1  -3  -7  412.92   49.94
   1   3   7  334.47   34.03
   1   3   7  336.44   38.48
  -1  -3  -8  221.82   19.73
  -1  -3  -8  241.29   23.89
   1   3   8  274.10   23.56
   1   3   8  237.25   24.62
  -1  -3  -9  102.06   15.30
  -1  -3  -9   97.57   20.44
   1   3   9  112.18   17.72
   1   3   9  105.35   17.93
  -1  -3 -10   18.54    8.04
  -1  -3 -10   18.53    4.98
   1   3  10    5.68    5.81
   1   3  10   22.57    5.81
   1   4 -13   19.66    8.12
  -1  -4  13   56.74   12.31
   1   4 -12   32.89   11.04
   1   4 -12   40.73   10.58
  -1  -4  12   63.59   13.29
   1   4 -11  114.98   22.18
   1   4 -11  165.10   18.76
  -1  -4  11  111.47   20.47
   1   4 -10   96.71   16.36
   1   4 -10   88.74   13.82
  -1  -4  10  144.36   20.85
   1   4  -9   30.41    4.09
   1   4  -9   27.46    5.74
  -1  -4   9   62.60    9.53
   1   4  -8  508.05   42.27
   1   4  -8  698.92   49.94
  -1  -4   8  717.69   50.88
  -1  -4   8  547.16   37.36
   1   4  -7  596.41   41.28
  -1  -4   7  610.90   36.57
  -1  -4   7  656.31   38.64
  -1  -4   7  569.42   32.15
  -1  -4   7  568.43   32.29
   1   4  -6  733.28   26.40
  -1  -4   6  647.40   25.02
  -1  -4   6  573.41   20.02
  -1  -4   6  656.23   24.65
   1   4  -6  808.70   27.62
  -1  -4   6  601.82   20.79
   1   4  -5 1172.23   47.20
  -1  -4   5 1189.34   48.30
  -1  -4   5 1227.83   48.57
  -1  -4   5 1230.23   48.92
   1   4  -5 1195.77   47.38
  -1  -4   5 1165.61   45.99
   1   4  -4 1725.41   68.27
  -1  -4   4 1464.06   59.41
  -1  -4   4 1339.08   53.74
  -1  -4   4 1565.33   61.10
  -1  -4   4 1614.86   63.26
   1   4  -4 1780.99   69.90
  -1  -4   4 1550.33   60.95
   1   4  -3  529.40   19.34
  -1  -4   3  655.32   23.90
  -1  -4   3  564.02   18.91
  -1  -4   3  599.68   20.27
   1   4  -3  578.56   20.80
  -1  -4   3  578.12   20.35
  -1  -4   2  451.29   18.05
  -1  -4   2  497.91   18.42
   1   4  -2  435.34   15.13
  -1  -4   2  426.07   14.43
   1   4  -2  412.76   24.21
  -1  -4   1 1619.09   54.74
  -1  -4   1 1691.43   55.44
   1   4  -1 1551.11   50.64
   1   4  -1 1588.68   51.64
  -1  -4   1 1649.53   53.56
   1   4  -1 1711.84   56.97
  -1  -4   0 1734.57   58.23
  -1  -4   0 1807.63   58.98
   1   4   0 1587.64   51.81
   1   4   0 1625.40   52.87
  -1  -4   0 1753.12   57.08
  -1  -4  -1 1383.89   55.93
  -1  -4  -1 1344.43   52.77
   1   4   1 1254.64   49.30
   1   4   1 1222.82   48.09
  -1  -4  -1 1331.21   52.39
   1   4   1 1335.35   54.28
  -1  -4  -2  791.38   33.88
  -1  -4  -2  703.48   28.36
   1   4   2  545.29   22.25
   1   4   2  555.66   23.20
  -1  -4  -2  680.95   27.77
   1   4   2  582.14   26.37
  -1  -4  -3  268.62   14.49
  -1  -4  -3  262.54   10.86
   1   4   3  229.66    9.25
   1   4   3  253.91   11.57
   1   4   3  277.50   21.30
  -1  -4  -4  694.75   49.96
  -1  -4  -4  635.21   44.34
   1   4   4  644.99   45.32
   1   4   4  611.74   51.08
  -1  -4  -5  250.40   29.18
  -1  -4  -5  248.51   27.74
   1   4   5  268.02   30.55
   1   4   5  259.59   35.81
  -1  -4  -6  229.05   24.52
  -1  -4  -6  227.56   22.58
   1   4   6  233.15   23.74
   1   4   6  208.52   27.08
  -1  -4  -7  166.88   17.51
  -1  -4  -7  139.94   17.32
   1   4   7  119.53   19.60
   1   4   7  139.30   29.32
  -1  -4  -8  101.79   15.22
  -1  -4  -8   98.02   19.26
   1   4   8  121.50   16.80
   1   4   8  120.33   24.78
  -1  -4  -9  205.07   57.42
  -1  -4  -9  159.25   30.14
   1   4   9  164.53   23.49
   1   4   9  133.04   27.99
   1   5 -12   25.54    6.75
  -1  -5  12   38.97   12.03
  -1  -5  12   30.51    8.17
   1   5 -11   63.70   14.55
  -1  -5  11   93.06   19.27
  -1  -5  11   70.28   13.94
   1   5 -10   35.88    9.34
  -1  -5  10   98.72   19.02
  -1  -5  10   83.82   16.04
   1   5  -9  594.21   47.96
  -1  -5   9  637.03   96.15
  -1  -5   9  668.25  100.26
   1   5  -8  882.53   58.90
  -1  -5   8  847.71   57.53
  -1  -5   8  898.12   60.15
   1   5  -7   69.31   10.33
  -1  -5   7   35.82    7.30
  -1  -5   7   42.81    7.84
  -1  -5   7   27.73    4.09
  -1  -5   7   43.20    6.59
   1   5  -6  530.43   39.33
  -1  -5   6  644.38   45.86
  -1  -5   6  551.62   39.08
   1   5  -6  631.88   43.89
  -1  -5   6  547.61   38.08
   1   5  -5  164.68   12.49
  -1  -5   5  176.83   12.44
  -1  -5   5  137.30   14.65
  -1  -5   5  177.09   11.89
   1   5  -5  139.44   15.54
  -1  -5   4  152.18   10.04
  -1  -5   4  152.31    6.53
  -1  -5   4  159.24    7.82
   1   5  -4  147.50   18.93
  -1  -5   3  456.49   18.93
  -1  -5   3  417.42   16.11
  -1  -5   3  455.06   18.76
   1   5  -3  451.76   16.07
  -1  -5   3  384.21   13.71
   1   5  -3  433.47   24.69
  -1  -5   2  391.55   16.86
  -1  -5   2  348.79   12.69
  -1  -5   2  350.84   13.99
   1   5  -2  407.45   15.71
  -1  -5   2  361.08   12.94
   1   5  -2  388.31   23.41
  -1  -5   1  832.28   30.43
  -1  -5   1  880.04   30.37
   1   5  -1  804.31   27.51
   1   5  -1  827.81   28.13
  -1  -5   1  855.64   29.06
   1   5  -1  819.83   32.60
  -1  -5   0  198.33   12.18
  -1  -5   0  209.50    8.69
   1   5   0  216.65    8.66
   1   5   0  218.60    8.76
  -1  -5   0  224.77    9.04
   1   5   0  253.67   29.15
  -1  -5  -1  207.93   15.64
  -1  -5  -1  207.69   12.79
   1   5   1  258.75   15.45
   1   5   1  301.44   17.83
  -1  -5  -1  187.96   12.06
   1   5   1  300.68   39.82
  -1  -5  -2  279.28   21.96
  -1  -5  -2  289.26   20.56
   1   5   2  290.38   20.84
   1   5   2  276.65   19.93
   1   5   2  304.23   39.92
  -1  -5  -3  517.95   36.18
  -1  -5  -3  415.78   26.46
   1   5   3  457.08   29.00
   1   5   3  494.49   31.73
   1   5   3  491.91   53.87
  -1  -5  -4  366.32   27.48
   1   5   4  373.00   26.04
   1   5   4  343.89   31.16
  -1  -5  -5   71.60   13.27
  -1  -5  -5   75.85   10.38
   1   5   5   99.46   14.43
   1   5   5   97.69   15.54
  -1  -5  -6  239.27   25.77
  -1  -5  -6  191.61   26.25
   1   5   6  224.98   22.14
   1   5   6  230.86   31.15
  -1  -5  -7  140.47   18.40
  -1  -5  -7  103.73   17.81
   1   5   7  137.54   17.06
   1   5   7  113.02   26.06
  -1  -5  -8   68.23   16.41
   1   5   8  115.46   17.90
   1   5   8   96.91   17.67
   1   6 -12   44.23   12.12
  -1  -6  12   91.25   18.20
  -1  -6  12   40.98   11.76
   1   6 -11   29.78    7.44
  -1  -6  11   57.77   12.32
  -1  -6  11   72.59   12.79
   1   6 -10  172.67   32.47
  -1  -6  10  281.76   35.19
  -1  -6  10  305.35   37.69
   1   6  -9   56.98   12.25
  -1  -6   9   54.99   11.29
  -1  -6   9   48.06   10.51
   1   6  -8  152.61   20.11
  -1  -6   8  213.32   19.33
  -1  -6   8  232.66   20.13
  -1  -6   8  201.67   16.58
   1   6  -7   95.63   11.19
  -1  -6   7  108.20   12.74
  -1  -6   7  130.47   14.49
  -1  -6   7  102.04   11.43
   1   6  -6  190.51   15.07
  -1  -6   6  167.97   13.81
  -1  -6   6  166.77   12.83
   1   6  -6  184.50   13.72
  -1  -6   5  333.97   37.62
  -1  -6   5  324.33   36.46
  -1  -6   5  271.70   29.77
  -1  -6   5  323.31   35.62
   1   6  -5  303.55   45.40
  -1  -6   4  497.43   33.77
  -1  -6   4  455.43   30.22
  -1  -6   4  337.28   22.69
  -1  -6   4  441.54   28.11
   1   6  -4  457.51   34.05
  -1  -6   3  482.34   32.55
  -1  -6   3  466.57   30.31
   1   6  -3  544.68   34.21
  -1  -6   3  435.01   27.53
   1   6  -3  462.92   33.59
  -1  -6   2  401.73   27.60
  -1  -6   2  352.17   24.40
  -1  -6   2  456.88   29.43
   1   6  -2  396.45   28.52
  -1  -6   2  411.35   26.13
   1   6  -2  383.90   28.74
  -1  -6   1  593.62   39.21
  -1  -6   1  557.70   34.90
  -1  -6   1  695.61   43.73
   1   6  -1  573.37   36.93
  -1  -6   1  604.92   37.98
   1   6  -1  538.08   44.92
  -1  -6   0  505.27   34.25
  -1  -6   0  526.69   33.22
   1   6   0  443.95   27.92
   1   6   0  574.85   36.06
  -1  -6   0  455.11   28.89
   1   6   0  528.44   45.08
  -1  -6  -1  523.16   36.86
  -1  -6  -1  499.39   33.21
   1   6   1  581.61   38.73
  -1  -6  -2  379.46   38.46
  -1  -6  -2  339.04   32.30
   1   6   2  341.16   32.85
   1   6   2  299.68   43.69
  -1  -6  -3  167.46   24.67
  -1  -6  -3  106.13   13.72
   1   6   3  144.71   18.87
   1   6   3  149.30   33.31
  -1  -6  -4  231.75   24.53
  -1  -6  -4  214.61   19.91
   1   6   4  218.76   20.86
   1   6   4  185.75   30.30
  -1  -6  -5  237.17   31.04
   1   6   5  186.85   23.25
   1   6   5  169.66   28.41
  -1  -6  -6  121.32   19.40
   1   6   6  130.19   18.94
   1   6   6  108.97   24.93
  -1  -6  -7   27.75    8.87
   1   6   7   37.41   10.10
   1   6   7   53.17   16.02
   1   7 -11   64.58   12.21
  -1  -7  11   99.55   19.69
  -1  -7  11  103.53   19.95
   1   7 -10    7.41    4.56
  -1  -7  10   24.29    8.98
  -1  -7  10    8.92    4.71
   1   7  -9   36.63    8.52
  -1  -7   9   13.08    5.77
  -1  -7   9   30.87    7.47
  -1  -7   8  116.83   14.02
  -1  -7   8  101.21   16.96
  -1  -7   8  100.96   16.58
  -1  -7   7  140.48   15.35
  -1  -7   7  156.51   16.03
  -1  -7   7  165.14   16.69
  -1  -7   7  176.44   17.37
  -1  -7   6  108.73   18.64
  -1  -7   6  124.06   20.97
  -1  -7   6   91.37   14.96
   1   7  -6  127.13   20.28
  -1  -7   5   98.70   15.00
  -1  -7   5   99.66   14.24
  -1  -7   5  100.63   13.34
   1   7  -5   98.63   20.25
  -1  -7   4  299.60   25.61
  -1  -7   4  324.83   26.44
  -1  -7   4  337.08   26.47
   1   7  -4  256.61   34.72
  -1  -7   3  360.75   29.69
  -1  -7   3  379.58   30.00
   1   7  -3  364.94   28.50
   1   7  -3  282.63   48.32
  -1  -7   2  422.77   35.00
  -1  -7   2  467.44   36.35
   1   7  -2  510.59   40.67
   1   7  -2  473.03   46.05
  -1  -7   1  206.70   18.60
  -1  -7   1  193.35   15.49
   1   7  -1  351.94   28.40
   1   7  -1  313.32   48.83
  -1  -7   0   67.10   13.08
  -1  -7   0   19.71    3.84
   1   7   0   12.66    3.66
   1   7   0    8.39    5.70
  -1  -7  -1  356.39   35.20
   1   7   1  334.22   30.31
  -1  -7  -2   65.14   13.75
   1   7   2   59.90   13.84
  -1  -7  -3   50.58   11.16
   1   7   3   65.35   10.39
   1   7   3   71.30   12.35
  -1  -7  -4  151.20   22.53
   1   7   4  145.68   19.95
   1   7   4  110.54   28.93
  -1  -7  -5  120.48   20.89
   1   7   5  116.77   18.96
   1   7   5  108.82   25.35
  -1  -8   9    7.91    4.80
  -1  -8   9   81.80   15.84
  -1  -8   8   63.57   10.95
  -1  -8   8   54.34   12.06
  -1  -8   7  134.91   19.52
  -1  -8   7  185.97   26.14
  -1  -8   7  153.47   21.41
  -1  -8   6  249.51   27.97
  -1  -8   6  310.28   34.25
   1   8  -6  269.73   29.61
  -1  -8   5  255.04   31.99
  -1  -8   5  303.26   36.81
   1   8  -5  376.88   64.71
  -1  -8   4  100.23   14.06
   1   8  -4   48.52   13.92
  -1  -8   3  240.61   30.18
   1   8  -3  211.17   46.33
  -1  -8   2   50.99   10.51
   1   8  -2   78.25   17.61
  -1  -8   1  149.41   19.81
   1   8  -1  118.78   24.44
   1   8   0   93.55   20.01
  -1  -8  -1   97.54   15.65
   1   8   1   77.86   19.42
  -1  -8  -2  184.53   30.90
   1   8   2  112.03   21.50
  -1  -8  -3   62.76   14.68
   1   8   3   81.00   20.86
  -1  -9   5   40.42   11.97
   1   9  -5   27.73    8.49
  -1  -9   4   37.97   11.74
   1   9  -4   75.56   15.36
  -1  -9   3   34.82   10.51
   1   9  -3   14.36    5.13
  -1  -9   2  127.50   25.41
   1   9  -2   56.02   16.33
   2  -8  -4   73.60   15.19
  -2   8   4  101.19   19.30
   2  -8  -4  108.13   20.95
   2  -8  -3  102.36   17.76
  -2   8   3  107.64   17.65
   2  -8  -3  103.55   18.04
   2  -8  -2   69.24   12.58
  -2   8   2   74.59   12.11
   2  -8  -2   80.26   14.07
   2  -8  -1  103.93   17.05
  -2   8   1   77.17   17.05
   2  -8  -1   70.12   14.92
   2  -8   0   29.70    8.61
  -2   8   0   43.65    9.80
   2  -8   0   37.80   10.94
   2  -8   1  212.44   23.99
  -2   8  -1  186.22   31.43
   2  -8   1  213.37   24.73
   2  -8   2    5.15    4.48
  -2   8  -2   26.11    7.44
   2  -8   2   30.91   10.42
   2  -8   3   42.18    8.99
  -2   8  -3   47.90   12.82
   2  -8   3   68.09   14.13
  -2   8  -4   93.30   14.45
   2  -8   4   77.58   13.87
  -2   8  -5  108.38   15.99
   2  -8   5   85.83   14.09
   2  -8   6   24.99    7.92
   2  -8   6   28.11    8.64
   2  -8   7   87.81   18.17
   2  -8   7   69.05   14.92
  -2   7   6   36.86   11.32
   2  -7  -5   25.82   10.23
  -2   7   5   26.46    6.96
   2  -7  -4   42.79   10.60
  -2   7   4   81.68   14.34
   2  -7  -3   17.68    7.59
  -2   7   3   17.33    5.32
   2  -7  -2   33.43    9.08
  -2   7   2   17.48    5.27
   2  -7  -2   42.87   10.46
   2  -7  -1  456.24   35.53
  -2   7   1  478.05   37.00
   2  -7  -1  516.65   83.93
   2  -7   0   67.35   12.04
  -2   7   0   32.30    7.28
   2  -7   0   52.94   12.05
   2  -7   1  197.08   16.70
  -2   7  -1  152.91   20.59
   2  -7   1  154.18   14.68
   2  -7   2   66.61   11.93
  -2   7  -2   66.85   15.88
   2  -7   2   92.37   16.97
   2  -7   3   89.65   15.08
  -2   7  -3   94.43   20.18
   2  -7   3   70.69   13.05
   2  -7   4   84.93   14.97
   2  -7   4  101.36   16.94
  -2   7  -4   79.07   16.22
   2  -7   4  110.38   19.80
  -2   7  -5   13.85    3.76
  -2   7  -5   23.15    5.33
   2  -7   5   35.60    8.45
  -2   7  -6   56.33    9.13
   2  -7   6   28.26    6.06
   2  -7   6   38.35    8.56
  -2   7  -7   34.38    7.46
   2  -7   7   52.06   11.47
   2  -7   7   29.42    7.36
  -2   7  -8   27.27    7.56
   2  -7   8   20.96    6.40
   2  -7   8   26.35    7.88
  -2   7  -9   27.39    7.88
   2  -7   9   18.46    6.93
   2  -6  -8  116.92   19.84
  -2   6   8  113.66   19.46
  -2   6   8  131.13   22.75
   2  -6  -7   34.08    9.47
  -2   6   7    9.72    4.68
  -2   6   7    3.98    6.34
   2  -6  -6   81.47   13.75
  -2   6   6  168.14   22.30
  -2   6   6  178.29   24.01
   2  -6  -5  218.50   23.36
  -2   6   5  261.31   25.50
  -2   6   5  275.66   27.61
   2  -6  -4  350.68   28.47
  -2   6   4  284.86   22.85
  -2   6   4  333.17   27.75
   2  -6  -3  346.29   34.89
  -2   6   3  392.89   38.28
   2  -6  -2  729.69   49.80
  -2   6   2  637.65   43.18
   2  -6  -2  719.97   50.08
   2  -6  -1  315.12   23.33
  -2   6   1  293.60   20.93
   2  -6  -1  363.30   27.55
   2  -6   0  229.37   26.34
  -2   6   0  161.80   24.46
   2  -6   0  226.53   27.47
   2  -6   1  124.37   14.81
  -2   6  -1  157.10   24.33
   2  -6   1  115.08   14.87
   2  -6   2  346.24   24.11
   2  -6   2  314.55   20.98
  -2   6  -2  376.65   29.72
   2  -6   2  349.00   25.96
   2  -6   3  254.72   18.32
  -2   6  -3  261.38   18.11
   2  -6   3  214.13   14.76
  -2   6  -3  260.65   33.05
   2  -6   3  239.92   19.37
   2  -6   4  238.43   16.68
  -2   6  -4  157.53   20.93
  -2   6  -4  219.11   20.89
   2  -6   4  244.59   19.48
   2  -6   5  181.97   17.79
  -2   6  -5  191.33   29.74
  -2   6  -5  204.55   20.75
   2  -6   5  206.38   21.86
  -2   6  -6  297.27   30.71
   2  -6   6  253.34   21.17
   2  -6   6  277.12   22.55
  -2   6  -7   36.55    9.94
   2  -6   7   13.02    5.96
   2  -6   7   21.49    7.10
  -2   6  -8  111.62   23.15
   2  -6   8  144.24   19.44
   2  -6   8  167.73   21.60
  -2   6  -9   18.39    6.71
   2  -6   9   19.22    6.30
  -2   6 -10   45.89   17.97
   2  -6  10   38.72   13.78
   2  -5  -9   85.91   16.04
  -2   5   9   75.02   12.07
  -2   5   9   83.05   13.75
   2  -5  -8   22.32    8.72
  -2   5   8   16.07    5.55
  -2   5   8   33.12    8.79
   2  -5  -7  148.72   16.78
  -2   5   7  193.93   19.25
  -2   5   7  257.13   25.70
   2  -5  -6  405.20   33.41
  -2   5   6  395.21   32.12
  -2   5   6  455.28   37.61
   2  -5  -5   79.00   10.42
  -2   5   5   77.14    9.34
  -2   5   5   93.02   12.02
   2  -5  -4  866.16   55.58
  -2   5   4  812.74   51.56
  -2   5   4  835.62   53.74
   2  -5  -3   24.05    7.72
  -2   5   3   29.71    4.79
  -2   5   3   51.19    7.76
   2  -5  -2  172.38   14.94
  -2   5   2  155.52   12.53
   2  -5  -2  168.56   14.45
   2  -5  -1  473.38   28.44
  -2   5   1  539.14   31.95
   2  -5  -1  434.36   27.24
   2  -5   0  476.64   28.50
  -2   5   0  480.46   28.84
   2  -5   0  428.92   27.20
   2  -5   1   82.24    7.47
  -2   5  -1   73.33    6.03
  -2   5  -1   79.40    8.91
   2  -5   1   94.90    6.13
  -2   5  -1   92.12   14.46
   2  -5   1  104.71   10.74
   2  -5   2   75.97   10.02
   2  -5   2  119.65    8.83
  -2   5  -2  151.53   15.21
   2  -5   2  129.95    8.27
  -2   5  -2  155.14   18.68
   2  -5   2  100.15    9.56
   2  -5   3  316.49   20.00
   2  -5   3  396.80   23.38
  -2   5  -3  492.04   33.34
   2  -5   3  353.07   20.60
  -2   5  -3  500.70   43.72
   2  -5   3  395.29   25.43
   2  -5   4  236.50   16.65
   2  -5   4  255.95   18.32
  -2   5  -4  323.86   27.79
  -2   5  -4  273.40   20.36
   2  -5   4  213.17   17.60
   2  -5   5    9.08    2.59
   2  -5   5    8.20    2.83
  -2   5  -5   32.12    6.10
  -2   5  -5   27.42    5.73
   2  -5   5   18.26    8.48
   2  -5   6  131.01    9.02
  -2   5  -6  197.90   26.17
   2  -5   6  149.76   13.26
   2  -5   6  133.87   12.15
  -2   5  -7   24.91    6.23
   2  -5   7   25.74    8.74
   2  -5   7   47.33    8.92
  -2   5  -8  181.98   28.26
   2  -5   8  223.14   22.54
   2  -5   8  222.82   22.08
  -2   5  -9   15.96    7.98
   2  -5   9    7.94    6.08
   2  -5   9    6.04    4.59
  -2   5 -10   14.08    3.80
   2  -5  10    8.91    6.84
  -2   5 -11   10.05    5.97
   2  -5  11   21.60   10.74
   2  -4 -10   86.57   13.64
  -2   4  10   87.26   14.62
   2  -4 -10  118.22   17.77
   2  -4  -9   86.28   16.57
  -2   4   9   96.27   15.77
  -2   4   9   92.11   16.19
  -2   4   9  126.74   15.87
   2  -4  -8  279.40   23.53
  -2   4   8  305.04   23.49
  -2   4   8  311.07   26.09
  -2   4   8  335.32   27.34
   2  -4  -7  388.04   38.73
  -2   4   7  342.41   33.01
  -2   4   7  310.57   31.55
  -2   4   7  330.82   33.44
   2  -4  -6  371.78   25.57
  -2   4   6  305.52   33.20
  -2   4   6  400.94   25.42
  -2   4   6  382.49   25.89
  -2   4   6  387.47   26.95
   2  -4  -5  111.99   12.47
  -2   4   5   95.73    7.05
  -2   4   5  126.77    9.59
  -2   4   5  124.70   11.30
  -2   4   5  122.29   12.53
   2  -4  -4 1174.08   67.49
  -2   4   4 1053.89   58.78
  -2   4   4 1118.44   62.43
  -2   4   4 1165.78   66.56
  -2   4   4 1188.15   68.13
   2  -4  -3  569.98   22.00
  -2   4   3  522.19   20.03
   2  -4  -3  538.43   22.24
   2  -4  -2  230.83   20.47
  -2   4   2  182.74   16.54
   2  -4  -2  240.70   22.17
   2  -4  -1  153.80   14.47
  -2   4   1  154.14   14.17
   2  -4  -1  145.56   14.49
   2  -4   0  190.61   16.74
  -2   4   0  196.47   16.80
  -2   4   0  221.12   19.58
   2  -4   0  191.56   16.01
  -2   4   0  220.12   19.71
   2  -4   0  157.08   15.63
   2  -4   1  418.71   35.02
  -2   4  -1  464.54   38.50
  -2   4  -1  464.50   38.65
   2  -4   1  416.25   34.39
  -2   4  -1  507.63   25.23
   2  -4   1  399.22   34.51
   2  -4   2 1324.17   51.95
   2  -4   2 1471.22   57.61
  -2   4  -2 1412.44   55.45
   2  -4   2 1420.71   55.67
  -2   4  -2 1556.05   65.41
   2  -4   2 1260.49   51.91
   2  -4   3  215.00   18.08
  -2   4  -3  202.91   24.09
   2  -4   3  196.79   16.83
  -2   4  -3  224.15   25.56
   2  -4   3  179.16   17.22
   2  -4   4  549.51   18.42
   2  -4   4  596.44   20.01
  -2   4  -4  718.51   29.69
  -2   4  -4  738.46   27.20
   2  -4   4  649.31   25.35
   2  -4   5 1419.10   78.94
   2  -4   5 1415.43   78.74
  -2   4  -5 1530.91   87.89
   2  -4   5 1704.75   97.13
   2  -4   5 1662.31   94.31
  -2   4  -6  376.76   37.43
   2  -4   6  401.48   30.01
   2  -4   6  442.54   32.31
   2  -4   7   89.26    5.97
  -2   4  -7  141.51   17.28
   2  -4   7  136.07   13.04
   2  -4   7  118.14   10.96
  -2   4  -8  188.73   31.41
   2  -4   8  148.35   20.61
   2  -4   8  144.51   19.41
  -2   4  -9  145.22   25.12
   2  -4   9  180.99   20.04
   2  -4   9  143.31   15.02
  -2   4 -10   75.18   20.04
   2  -4  10   98.36   16.13
  -2   4 -11   18.12    7.19
   2  -4  11   21.89    8.38
   2  -3 -11   91.93   14.75
  -2   3  11  101.19   14.71
  -2   3  11   91.17   15.42
   2  -3 -11   84.51   13.16
   2  -3 -10   98.41   17.42
  -2   3  10  134.51   16.00
  -2   3  10  128.66   16.54
   2  -3 -10  127.27   15.33
   2  -3  -9   44.55    9.91
  -2   3   9   66.34   11.33
  -2   3   9   97.50   16.38
   2  -3  -8  155.72   17.12
  -2   3   8  211.08   21.22
  -2   3   8  246.19   25.04
   2  -3  -7  468.50   31.43
  -2   3   7  393.13   25.65
  -2   3   7  470.52   30.92
   2  -3  -6  558.16   33.96
  -2   3   6  496.08   28.34
  -2   3   6  575.35   33.16
  -2   3   6  627.54   36.91
   2  -3  -5   68.69    6.34
  -2   3   5   52.92    3.40
  -2   3   5   57.84    4.84
  -2   3   5   68.39    6.32
   2  -3  -4   91.26   10.44
  -2   3   4   61.48    8.03
  -2   3   4   69.03    6.74
   2  -3  -4   80.19    9.14
   2  -3  -3  626.59   22.67
  -2   3   3  644.18   21.66
  -2   3   3  658.24   21.76
   2  -3  -3  638.67   24.30
   2  -3  -2  837.01   28.73
  -2   3   2  818.60   27.89
  -2   3   2  710.38   23.26
  -2   3   2  823.64   26.82
   2  -3  -1  129.19    6.38
  -2   3   1  113.32    5.22
  -2   3   1  117.92    3.78
   2  -3  -1  144.11    4.80
   2  -3  -1  133.32    8.57
   2  -3   0 5083.95  124.65
  -2   3   0 4920.16  120.37
  -2   3   0 5441.52  174.59
   2  -3   0 5009.42  122.36
   2  -3   0 5198.05  168.52
   2  -3   1 3060.40   75.17
  -2   3  -1 2943.35   72.20
  -2   3  -1 3035.68   74.78
   2  -3   1 3212.94   79.10
   2  -3   2  241.37   10.06
   2  -3   2  248.16    8.62
  -2   3  -2  213.40    8.74
   2  -3   2  257.86    9.72
   2  -3   2  255.01   11.59
  -2   3  -3  742.41   25.44
   2  -3   3  830.68   28.19
   2  -3   3  899.93   32.10
  -2   3  -4  236.79   20.51
   2  -3   4  186.86   17.97
  -2   3  -5  521.37   21.86
   2  -3   5  374.58   17.19
   2  -3   5  382.31   15.75
  -2   3  -6  316.04   17.76
   2  -3   6  258.20   14.58
  -2   3  -6  396.97   37.75
   2  -3   6  272.36   19.50
   2  -3   6  285.24   18.49
  -2   3  -7   31.58    4.89
   2  -3   7   16.76    2.35
  -2   3  -7   43.91    7.94
   2  -3   7   25.92    8.31
   2  -3   7   28.29    5.78
  -2   3  -8   29.08    4.34
  -2   3  -8   43.76    7.07
   2  -3   8   43.41    9.13
   2  -3   8   51.12    6.75
  -2   3  -9  146.82   18.95
   2  -3   9  188.79   20.18
   2  -3   9  124.88   19.80
  -2   3 -10   61.68   17.19
   2  -3  10   35.18   10.54
  -2   3 -11   18.02    8.81
   2  -3  11    9.65   10.44
  -2   2  12   48.52   11.92
   2  -2 -11   43.06    9.86
   2  -2 -11   38.40    8.09
  -2   2  11   15.65    5.50
   2  -2 -11   28.03    5.83
   2  -2 -10   93.64   15.58
   2  -2 -10  106.78   17.51
  -2   2  10   61.20   11.90
   2  -2 -10   99.17   15.94
   2  -2  -9  419.23   40.67
  -2   2   9  310.50   31.44
   2  -2  -9  433.08   41.97
   2  -2  -8  296.13   33.50
  -2   2   8  329.70   37.28
   2  -2  -8  290.12   32.62
   2  -2  -7  458.56   27.98
  -2   2   7  394.29   24.03
  -2   2   7  416.28   25.59
   2  -2  -7  485.02   29.10
   2  -2  -6  403.40   17.12
  -2   2   6  287.32   12.50
  -2   2   6  304.50   12.68
  -2   2   6  371.06   16.08
   2  -2  -6  429.89   17.39
   2  -2  -5  554.12   24.01
  -2   2   5  451.92   38.32
  -2   2   5  512.17   18.58
  -2   2   5  543.48   24.29
   2  -2  -5  532.44   23.16
  -2   2   4 1148.69   40.75
  -2   2   4 1273.50   41.96
  -2   2   4 1240.32   42.03
   2  -2  -4  964.87   33.70
   2  -2  -4 1175.39   39.93
  -2   2   3 2713.01   67.50
  -2   2   3 2811.40   69.32
  -2   2   3 3102.90   76.40
   2  -2  -3 2993.30   74.88
   2  -2  -3 3283.69   82.45
   2  -2  -2 1607.72   41.10
  -2   2   2 1938.24   48.57
  -2   2   2 1898.06   46.99
   2  -2  -2 1632.31   40.65
   2  -2  -2 1545.98   39.48
   2  -2  -2 1621.22   41.94
   2  -2  -1 3091.63   22.25
  -2   2   1 3047.23   21.78
  -2   2   1 3055.65   20.92
   2  -2  -1 3233.38   22.17
   2  -2  -1 2972.35   22.98
  -2   2   1 3132.46   24.79
   2  -2   1   34.11    2.28
  -2   2  -1   17.51    4.72
   2  -2   1   37.93    2.85
   2  -2   1   42.84    5.43
  -2   2  -2  504.51   14.43
   2  -2   2  574.72   15.92
   2  -2   2  539.79   16.06
  -2   2  -2  449.76   13.77
  -2   2  -3  854.13   22.82
   2  -2   3  894.32   23.81
  -2   2  -3  888.66   24.39
   2  -2   3  901.66   24.68
  -2   2  -3  860.97   23.24
  -2   2  -4  388.16   14.71
   2  -2   4  353.34   15.50
   2  -2   4  462.87   18.76
  -2   2  -4  376.13   14.34
  -2   2  -5  105.11    8.90
   2  -2   5  138.74   11.64
  -2   2  -5  114.90   10.98
   2  -2   5  130.95   14.11
   2  -2   5  160.44   14.95
  -2   2  -5  123.65   11.49
  -2   2  -6  319.30   11.37
   2  -2   6  338.47   11.92
  -2   2  -6  339.69   15.53
   2  -2   6  319.84   15.45
   2  -2   6  415.57   16.62
  -2   2  -7  598.78   41.30
   2  -2   7  524.31   36.24
   2  -2   7  617.96   45.43
   2  -2   7  606.90   42.66
  -2   2  -8  143.33   10.31
  -2   2  -8  157.41   17.92
   2  -2   8  104.01   11.58
   2  -2   8  100.08    8.39
  -2   2  -9  246.89   19.61
  -2   2  -9  250.04   37.61
   2  -2   9  255.52   23.68
   2  -2   9  250.96   20.55
  -2   2 -10   22.49    6.58
   2  -2  10   14.81    5.85
   2  -2  10   40.27    7.67
  -2   2 -11  116.05   21.34
   2  -2  11  126.33   20.19
   2  -1 -13   17.00    6.20
  -2   1  13   18.29    9.33
   2  -1 -12  109.54   15.60
   2  -1 -12  113.37   16.04
  -2   1  12   86.61   14.20
   2  -1 -11  120.77   22.26
   2  -1 -11  107.70   19.16
  -2   1  11   93.57   18.26
   2  -1 -10  350.41   29.26
   2  -1 -10  354.99   29.19
  -2   1  10  370.63   30.95
   2  -1 -10  335.16   26.45
   2  -1  -9  741.56   47.94
   2  -1  -9  725.79   46.85
  -2   1   9  827.52   53.43
   2  -1  -9  528.26   33.28
   2  -1  -9  712.24   44.80
   2  -1  -8  219.30   14.74
  -2   1   8  289.19   19.46
   2  -1  -8  193.29   11.86
   2  -1  -8  229.29   14.65
   2  -1  -7  244.95   11.91
  -2   1   7  255.47   12.48
   2  -1  -7  196.20   12.23
   2  -1  -7  213.40    9.80
   2  -1  -6  358.40   31.21
  -2   1   6  353.17   30.21
  -2   1   6  392.71   33.56
   2  -1  -6  389.23   36.76
   2  -1  -6  379.42   32.00
   2  -1  -5 2553.25   83.70
  -2   1   5 2334.07   78.26
  -2   1   5 2539.11   82.72
  -2   1   5 2704.26   88.68
   2  -1  -5 2097.44   71.20
   2  -1  -5 2404.52   78.28
   2  -1  -4  157.39    7.29
  -2   1   4  153.34    5.97
  -2   1   4  171.38    6.32
  -2   1   4  162.86    6.35
  -2   1   4  173.19    7.54
   2  -1  -4  131.73    7.98
   2  -1  -4  167.89    6.86
   2  -1  -3  648.30    9.48
  -2   1   3  572.72    8.27
   2  -1  -3  640.35    8.35
  -2   1   3  569.21    9.18
   2  -1  -3  619.20    9.19
  -2   1   2  866.06    9.02
  -2   1   2  915.25    9.63
   2  -1  -2  865.57    9.29
  -2   1   2  923.43   10.45
  -2   1   2  979.42   10.92
  -2   1   1 1518.48   14.05
   2  -1   0 1578.27   11.94
  -2   1   0 1491.91   13.60
   2  -1   0 1538.68   13.26
  -2   1   0 1522.55   14.27
   2  -1   0 1553.14   15.62
  -2   1  -1 1524.28   10.12
   2  -1   1 1558.17   15.83
  -2   1  -1 1499.81   14.00
  -2   1  -2 1742.04   11.22
   2  -1   2 1625.75   14.77
  -2   1  -2 1737.77   16.38
  -2   1  -2 1605.73   15.43
  -2   1  -3  390.50   10.52
  -2   1  -3  409.52   10.66
   2  -1   3  355.71   10.74
   2  -1   3  394.71   12.34
   2  -1   3  391.45   13.30
  -2   1  -3  443.12   13.25
  -2   1  -4  677.11   22.52
   2  -1   4  625.09   20.88
  -2   1  -4  654.24   23.51
   2  -1   4  636.88   23.07
  -2   1  -4  608.27   21.48
  -2   1  -5  999.46   39.36
   2  -1   5  857.54   33.90
  -2   1  -5  967.98   39.51
   2  -1   5  805.96   33.59
  -2   1  -6  386.90   14.42
   2  -1   6  285.15   10.77
  -2   1  -6  355.49   14.98
   2  -1   6  313.72   13.68
  -2   1  -7 1185.69   81.57
   2  -1   7  856.33   58.94
  -2   1  -7 1143.96   79.45
   2  -1   7  976.54   67.74
  -2   1  -8  157.08   11.63
  -2   1  -8  169.44   23.29
   2  -1   8  179.17   13.30
  -2   1  -9   35.94    6.25
  -2   1  -9   45.37    9.54
   2  -1   9   45.43    7.11
  -2   1 -10  123.72   22.64
   2  -1  10   84.88   14.38
  -2   1 -11   25.78    7.78
   2   0 -13   68.29   11.81
   2   0 -13   85.15   15.37
  -2   0  13   58.96   19.49
   2   0 -12   41.74    9.08
   2   0 -12   37.61    8.06
  -2   0  12   59.97   12.88
   2   0 -11  258.27   21.36
   2   0 -11  312.52   26.48
  -2   0  11  305.57   26.21
   2   0 -10  194.45   16.94
   2   0 -10  201.58   21.48
  -2   0  10  147.48   17.06
   2   0 -10  174.46   12.06
   2   0  -9  142.59   18.18
   2   0  -9  172.57   21.05
  -2   0   9   61.39    9.94
   2   0  -9  102.35    7.60
   2   0  -9  122.28   13.77
   2   0  -8  672.74   39.61
   2   0  -8  625.83   37.23
  -2   0   8  472.41   29.39
   2   0  -8  532.22   30.10
   2   0  -8  568.33   32.25
  -2   0   7  568.92   25.14
  -2   0   7  614.54   26.68
   2   0  -7  524.21   22.06
   2   0  -7  541.24   21.90
   2   0  -6  974.78   33.71
  -2   0   6  784.06   27.72
  -2   0   6  879.08   31.02
   2   0  -6  893.05   30.61
   2   0  -6  853.61   28.38
   2   0  -5 1415.68   36.94
  -2   0   5 1012.52   26.52
  -2   0   5 1308.10   34.40
   2   0  -5 1097.59   28.62
   2   0  -5 1081.52   28.16
   2   0  -5 1373.70   34.61
   2   0  -4  480.12    7.85
   2   0  -3 2923.85   21.92
   2   0  -3 2949.42   22.13
  -2   0   3 2945.98   21.36
   2   0  -2 2416.70   18.71
  -2   0   1 1607.23   12.78
   2   0   0  800.54    9.24
   2   0   0  802.92   10.70
   2   0   1  374.96    6.49
   2   0   1  383.99    8.26
   2   0   1  371.21    8.02
  -2   0  -2  939.75   10.91
  -2   0  -2  986.91    9.32
   2   0   2  892.24   10.52
   2   0   2  891.84   10.05
   2   0   2  913.44   12.49
  -2   0  -3 1198.30   30.43
   2   0   3 1202.32   30.52
  -2   0  -3 1250.19   32.70
   2   0   3 1220.30   31.51
   2   0   3 1209.99   32.46
   2   0   3 1159.49   30.69
  -2   0  -3 1212.15   31.92
  -2   0  -4 1197.46   39.65
   2   0   4 1357.76   44.65
  -2   0  -4 1229.03   41.55
   2   0   4 1423.05   48.38
   2   0   4 1324.58   44.55
  -2   0  -5  652.72   26.65
   2   0   5  526.50   21.82
  -2   0  -5  677.81   28.35
   2   0   5  587.97   27.80
   2   0   5  546.72   24.01
  -2   0  -6  834.73   47.85
   2   0   6  845.58   47.99
  -2   0  -6  858.74   49.69
   2   0   6  993.21   58.22
   2   0   6  754.68   43.52
  -2   0  -7  193.32   15.45
  -2   0  -7  191.98   15.79
   2   0   7  306.77   24.88
   2   0   7  243.46   18.48
  -2   0  -8   39.89    5.83
  -2   0  -8   30.25    5.87
   2   0   8   15.25    9.23
   2   0   8    1.78    3.13
  -2   0  -9  145.03   12.45
  -2   0  -9  143.96   19.17
   2   0   9  160.37   17.53
   2   0   9  108.86   17.38
  -2   0 -10   41.55    7.58
  -2   0 -10   32.32    8.67
   2   0  10   43.78   13.24
   2   0  10   26.42    6.07
  -2   0 -11   87.59   12.72
  -2   0 -11   70.16   19.31
   2   0  11   76.04   14.24
   2   1 -13  108.30   16.37
  -2  -1  13   90.45   14.98
   2   1 -12  186.32   21.23
   2   1 -12  187.46   21.25
  -2  -1  12  180.99   21.54
   2   1 -11   52.94    9.99
   2   1 -11   87.04   15.69
  -2  -1  11   33.04    9.23
   2   1 -10  530.95   36.80
   2   1 -10  538.94   37.90
  -2  -1  10  485.85   35.07
   2   1  -9  710.97   50.23
   2   1  -9  647.08   46.15
  -2  -1   9  714.27   51.48
   2   1  -8  710.03   26.71
  -2  -1   8  667.37   25.52
   2   1  -7  579.55   24.68
  -2  -1   7  744.42   32.04
  -2  -1   7  762.21   32.15
   2   1  -7  523.17   20.41
   2   1  -7  589.11   23.02
  -2  -1   6  469.68   17.58
   2   1  -6  465.41   17.01
   2   1  -6  473.34   17.09
   2   1  -6  531.86   17.76
   2   1  -5 1537.02   39.83
  -2  -1   5 1680.79   42.98
   2   1  -5 1570.17   39.95
   2   1  -5 1643.52   40.88
  -2  -1   5 1574.68   39.15
  -2  -1   4  597.00    8.90
  -2  -1   4  622.08   10.71
  -2  -1   4  572.53    8.47
   2   1  -4  534.36    6.95
  -2  -1   4  545.90    6.70
   2   1  -3 1779.51   16.64
   2   1  -3 1697.38   13.51
   2   1  -3 1780.35   15.15
  -2  -1   3 1873.54   14.79
   2   1  -2 1398.20   14.15
  -2  -1   2 1269.11   13.71
   2   1  -2 1321.94   12.60
   2   1  -1 2366.74   19.13
  -2  -1   1 2381.73   19.40
  -2  -1   1 2349.63   16.38
   2   1  -1 2430.14   16.14
  -2  -1   1 2373.72   19.29
  -2  -1   0 1639.80   12.42
   2   1   0 1524.64   11.80
  -2  -1   0 1554.15   14.55
  -2  -1  -1  813.60    9.16
  -2  -1  -1  864.42   10.39
   2   1   1  861.29   10.54
   2   1   1  809.95    9.07
   2   1   1  793.03    9.12
   2   1   1  811.92   11.61
  -2  -1  -2 2986.78   73.87
  -2  -1  -2 3256.08   80.63
  -2  -1  -2 3477.07   86.28
   2   1   2 3490.68   86.09
   2   1   2 3388.48   83.97
   2   1   2 3363.04   83.87
  -2  -1  -3  663.05   23.77
   2   1   3  742.97   25.47
   2   1   3  775.91   27.51
  -2  -1  -3  625.82   21.88
  -2  -1  -4  708.76   29.27
   2   1   4  739.65   29.97
  -2  -1  -4  744.77   30.72
   2   1   4  781.42   33.01
   2   1   4  716.44   29.99
  -2  -1  -5  266.18   12.14
  -2  -1  -5  267.32   11.94
   2   1   5  243.14   13.35
   2   1   5  248.64   11.23
  -2  -1  -6   50.57    5.66
  -2  -1  -6   69.80    7.62
   2   1   6   58.16    8.26
   2   1   6   56.49    6.53
  -2  -1  -7  419.23   27.52
  -2  -1  -7  491.07   32.90
   2   1   7  475.05   33.10
   2   1   7  405.87   26.95
  -2  -1  -8  159.06   21.15
  -2  -1  -8  174.55   27.41
   2   1   8  180.00   28.69
   2   1   8  149.00   19.77
  -2  -1  -9  206.68   20.44
  -2  -1  -9  164.87   25.38
   2   1   9  207.07   22.13
   2   1   9  158.42   16.02
  -2  -1 -10   81.08   14.15
  -2  -1 -10   75.36   19.25
   2   1  10   63.56   13.94
  -2  -1 -11   75.41   14.48
  -2  -1 -11   60.54   17.16
   2   1  11   75.28   16.83
   2   2 -13   43.68    9.36
  -2  -2  13   90.96   18.14
  -2  -2  13   65.15   14.42
   2   2 -12   69.25   13.47
  -2  -2  12  110.85   18.73
   2   2 -11  119.86   19.49
  -2  -2  11  106.49   18.51
   2   2 -10  113.75   10.67
  -2  -2  10  151.48   14.02
   2   2  -9   48.94    6.41
  -2  -2   9   63.12    9.59
  -2  -2   9   80.43   10.71
   2   2  -8  207.71   14.40
  -2  -2   8  147.32   13.04
  -2  -2   8  147.20   12.18
   2   2  -7  318.88   27.32
  -2  -2   7  405.38   35.60
  -2  -2   7  327.39   28.46
   2   2  -6  969.46   33.49
  -2  -2   6  894.10   31.97
  -2  -2   6  840.51   28.99
   2   2  -6  784.59   26.69
   2   2  -6  851.22   27.68
  -2  -2   6  826.32   26.98
  -2  -2   5 1361.55   46.42
  -2  -2   5 1253.96   41.64
   2   2  -5 1078.51   35.71
   2   2  -5 1035.74   33.83
  -2  -2   5 1172.90   38.24
   2   2  -4 1630.87   41.94
  -2  -2   4 1460.75   37.50
  -2  -2   4 1731.75   44.91
  -2  -2   4 1577.69   39.59
   2   2  -4 1642.07   41.00
   2   2  -4 1498.61   37.55
  -2  -2   4 1570.82   39.42
  -2  -2   3 3168.61   25.96
   2   2  -3 3412.64   84.46
  -2  -2   3 2704.06   66.17
   2   2  -3 3526.56   86.14
  -2  -2   3 2960.36   73.11
   2   2  -2  101.90   11.28
   2   2  -2   64.64    4.76
   2   2  -1  935.98   11.43
   2   2  -1  997.77   11.60
   2   2  -1 1005.24    7.15
  -2  -2   1 1020.65   11.86
  -2  -2   0 1069.41   28.14
   2   2   0 1069.40   27.93
   2   2   0 1073.51   26.86
   2   2   0 1071.61   26.92
   2   2   0 1024.65   27.20
  -2  -2   0  943.75   24.86
  -2  -2  -1 1369.09   35.75
   2   2   1 1641.18   41.72
   2   2   1 1656.12   41.61
   2   2   1 1440.77   37.49
  -2  -2  -2  395.33   15.43
  -2  -2  -2  449.03   16.70
   2   2   2  505.96   18.27
  -2  -2  -2  424.93   15.09
   2   2   2  491.22   18.73
  -2  -2  -3  527.75   23.14
  -2  -2  -3  519.27   22.15
   2   2   3  455.45   38.40
  -2  -2  -3  483.67   40.26
   2   2   3  442.22   37.64
  -2  -2  -4  718.12   26.55
  -2  -2  -4  706.38   25.50
   2   2   4  777.18   29.09
   2   2   4  739.98   27.41
  -2  -2  -5  380.32   23.89
  -2  -2  -5  369.14   22.68
   2   2   5  430.00   26.52
   2   2   5  416.38   25.91
  -2  -2  -6  196.99   23.15
  -2  -2  -6  227.69   26.01
   2   2   6  248.89   29.00
   2   2   6  254.56   29.21
  -2  -2  -7  428.29   41.77
  -2  -2  -7  439.44   42.88
   2   2   7  378.06   38.08
   2   2   7  351.00   34.90
  -2  -2  -8  161.79   14.81
  -2  -2  -8  168.75   15.56
   2   2   8  155.75   15.86
   2   2   8  172.67   15.66
  -2  -2  -9   96.90   17.99
  -2  -2  -9  118.38   19.26
   2   2   9   97.85   18.70
   2   2   9   88.35   16.56
  -2  -2 -10   26.11    7.27
  -2  -2 -10   45.38   13.27
   2   2  10   29.65    9.90
   2   2  10   27.71    7.03
   2   3 -13   79.75   12.69
  -2  -3  13   74.07   13.38
  -2  -3  13   88.03   14.72
   2   3 -12  118.47   16.08
  -2  -3  12  127.25   18.83
  -2  -3  12  110.38   17.14
   2   3 -11  124.51   20.28
  -2  -3  11   93.90   16.97
  -2  -3  11  121.40   21.18
   2   3 -10   73.97    9.61
  -2  -3  10   89.19   12.27
  -2  -3  10   92.07   12.15
   2   3  -9  225.19   25.75
  -2  -3   9  327.90   37.54
  -2  -3   9  298.33   33.64
   2   3  -8 1917.78  108.19
  -2  -3   8 2094.70  144.42
  -2  -3   8 2117.13  145.32
   2   3  -7 1295.24   44.94
  -2  -3   7 1223.04   43.82
  -2  -3   7 1125.07   38.95
   2   3  -7 1265.56   41.55
   2   3  -6  331.79   34.48
  -2  -3   6  231.46   21.16
  -2  -3   6  257.87   22.18
   2   3  -6  291.27   24.44
   2   3  -6  309.49   27.30
  -2  -3   6  251.32   20.98
   2   3  -5 1380.19   55.15
  -2  -3   5 1509.92   60.78
  -2  -3   5 1338.31   43.92
   2   3  -5 1296.30   50.70
   2   3  -5 1363.87   53.44
  -2  -3   5 1438.17   56.33
  -2  -3   4  341.46   14.98
  -2  -3   4  301.10   10.32
  -2  -3   4  300.71   10.66
  -2  -3   4  288.25   11.00
   2   3  -3 1263.97   42.61
  -2  -3   3 1598.58   53.63
   2   3  -3 1156.28   38.59
   2   3  -3 1264.50   41.91
  -2  -3   3 1346.72   44.44
   2   3  -2  674.98   19.63
  -2  -3   2  773.57   21.89
   2   3  -2  664.50   18.15
   2   3  -2  684.64   19.56
  -2  -3   2  651.63   18.02
  -2  -3   1 1296.45   43.55
   2   3  -1 1186.07   39.51
  -2  -3   0 3053.85  249.97
   2   3   0 2890.85  236.56
   2   3   0 2830.81   91.04
  -2  -3   0 2744.25   88.28
  -2  -3  -1 1439.93   48.47
  -2  -3  -1 1590.45   52.74
   2   3   1 1460.90   48.38
   2   3   1 1512.70   49.49
  -2  -3  -1 1432.15   46.86
   2   3   1 1391.83   47.32
  -2  -3  -2  427.18   36.66
  -2  -3  -2  453.05   38.03
   2   3   2  371.25   31.11
  -2  -3  -2  396.68   33.06
   2   3   2  354.00   30.48
  -2  -3  -3  337.57   16.10
  -2  -3  -3  343.00   13.96
   2   3   3  309.87   12.80
   2   3   3  329.86   15.39
  -2  -3  -4  808.31   47.56
  -2  -3  -4  743.75   42.86
   2   3   4  755.45   43.93
   2   3   4  690.71   40.97
  -2  -3  -5  519.79   34.84
  -2  -3  -5  485.24   31.46
   2   3   5  437.23   30.00
   2   3   5  414.30   28.14
  -2  -3  -6  160.18   17.73
  -2  -3  -6  170.24   17.81
   2   3   6  208.49   21.85
   2   3   6  183.91   19.99
  -2  -3  -7  172.28   15.93
  -2  -3  -7  136.18   22.88
   2   3   7  125.01   20.97
   2   3   7  135.25   23.95
  -2  -3  -8   74.19   13.08
  -2  -3  -8   71.60   12.76
   2   3   8   61.05   11.48
   2   3   8   78.43   13.88
  -2  -3  -9  172.86   23.59
  -2  -3  -9  163.30   32.38
   2   3   9  193.64   54.38
   2   3   9  169.03   33.82
   2   4 -13   13.02    5.54
  -2  -4  13   28.25   12.62
  -2  -4  13   14.27    8.39
   2   4 -12  143.52   20.89
  -2  -4  12  203.11   24.40
  -2  -4  12  186.61   22.30
   2   4 -11  105.19   20.33
  -2  -4  11  122.78   21.85
  -2  -4  11  150.57   16.53
   2   4 -10  158.22   26.79
  -2  -4  10  201.51   19.10
  -2  -4  10  187.67   17.10
  -2  -4   9  690.10   47.68
  -2  -4   9  746.99   50.63
   2   4  -8  218.34   33.75
  -2  -4   8  166.46   21.94
  -2  -4   8  147.44   17.44
  -2  -4   8  119.08   13.07
  -2  -4   8  128.78   14.15
   2   4  -7  200.25   25.62
  -2  -4   7  277.65   19.15
  -2  -4   7  266.74   15.91
  -2  -4   7  273.14   17.49
   2   4  -7  159.29   11.80
  -2  -4   7  264.17   15.47
   2   4  -6  639.93   23.66
  -2  -4   6  559.01   23.28
  -2  -4   6  546.05   21.28
  -2  -4   6  580.96   21.01
   2   4  -6  659.59   23.62
  -2  -4   6  586.12   20.55
   2   4  -5  365.93   34.46
  -2  -4   5  592.51   27.03
  -2  -4   5  544.94   20.43
  -2  -4   5  515.24   17.97
   2   4  -5  424.30   37.18
  -2  -4   5  554.52   19.73
   2   4  -4  305.13   34.35
  -2  -4   4  489.70   41.74
  -2  -4   4  403.99   33.19
  -2  -4   4  381.40   31.38
   2   4  -4  336.90   34.02
  -2  -4   4  406.70   34.02
  -2  -4   3  719.08   30.99
   2   4  -3  698.00   29.05
  -2  -4   2  895.39   37.55
  -2  -4   2  951.74   38.92
   2   4  -2  912.01   37.18
  -2  -4   1  569.59   25.64
  -2  -4   1  583.57   24.87
   2   4  -1  405.56   33.90
   2   4  -1  528.65   20.51
   2   4  -1  486.89   41.26
  -2  -4   0  172.77   16.43
  -2  -4   0  176.00   15.81
   2   4   0  110.34    9.51
  -2  -4   0  171.79   14.52
  -2  -4  -1  247.34   11.13
   2   4   1  257.56    9.99
  -2  -4  -1  246.86    9.62
   2   4   1  237.94   12.13
  -2  -4  -2  483.33   29.70
  -2  -4  -2  503.08   29.53
   2   4   2  573.05   32.98
  -2  -4  -2  425.11   24.74
   2   4   2  570.47   34.10
  -2  -4  -3  474.07   35.24
  -2  -4  -3  474.60   33.55
   2   4   3  547.33   38.56
   2   4   3  543.71   39.54
  -2  -4  -4  283.95   22.36
  -2  -4  -4  273.62   19.48
   2   4   4  276.09   19.72
   2   4   4  305.31   23.91
  -2  -4  -5   99.91   13.85
  -2  -4  -5  108.36   11.91
   2   4   5   74.74    9.29
   2   4   5   80.68   10.15
  -2  -4  -6  236.71   20.70
  -2  -4  -6  217.20   17.53
   2   4   6  270.18   22.61
   2   4   6  302.86   40.49
  -2  -4  -7  166.69   22.46
  -2  -4  -7  174.93   21.90
   2   4   7  162.51   20.91
   2   4   7  183.54   35.53
  -2  -4  -8   53.45   11.64
  -2  -4  -8   60.29   13.49
   2   4   8   67.33   12.65
   2   4   8   55.79   13.79
   2   5 -13   85.62   20.82
  -2  -5  13  159.87   30.28
  -2  -5  13   86.21   17.56
   2   5 -12   64.69   13.59
  -2  -5  12   54.47   11.56
  -2  -5  12   68.96   16.44
   2   5 -11  168.12   31.39
  -2  -5  11  228.38   29.32
  -2  -5  11  209.94   26.43
   2   5 -10  246.18   35.74
  -2  -5  10  287.66   28.36
  -2  -5  10  268.13   25.56
   2   5  -9   50.93    9.25
  -2  -5   9   57.53   10.82
  -2  -5   9   90.70   13.69
   2   5  -8  263.62   30.93
  -2  -5   8  360.85   26.77
  -2  -5   8  355.15   25.01
   2   5  -8  341.55   22.85
   2   5  -7  145.01   27.49
  -2  -5   7  194.37   23.77
  -2  -5   7  101.52   17.47
  -2  -5   7  183.53   20.82
   2   5  -7  116.29   18.44
  -2  -5   7  155.21   17.27
   2   5  -6  306.01   28.85
  -2  -5   6  296.84   24.17
  -2  -5   6  269.75   20.09
  -2  -5   6  311.85   22.27
   2   5  -6  315.41   28.09
   2   5  -5  410.09   29.79
  -2  -5   5  353.71   27.03
  -2  -5   5  352.69   24.40
  -2  -5   5  388.13   27.00
   2   5  -5  403.82   35.27
   2   5  -4  526.98   32.08
  -2  -5   4  498.23   30.60
  -2  -5   4  417.32   23.44
   2   5  -4  502.45   31.32
  -2  -5   3  601.14   36.37
  -2  -5   3  584.02   35.02
   2   5  -3  562.68   34.62
  -2  -5   2 1051.87   61.05
  -2  -5   2  986.36   56.46
   2   5  -2 1044.91   60.28
  -2  -5   1  819.62   48.30
  -2  -5   1  942.33   54.09
   2   5  -1  910.43   50.84
  -2  -5   1  858.26   48.02
   2   5  -1  893.11   54.63
  -2  -5   0 1111.09   77.48
  -2  -5   0 1234.07   85.12
   2   5   0 1300.75   88.81
  -2  -5   0 1120.89   76.70
   2   5   0 1495.23  103.41
  -2  -5  -1  778.97   55.25
  -2  -5  -1  793.82   55.08
   2   5   1  720.48   49.57
  -2  -5  -1  712.69   49.19
   2   5   1  821.73   57.80
  -2  -5  -2  887.99   55.66
   2   5   2  873.24   54.57
  -2  -5  -2  638.22   40.00
   2   5   2  886.14   56.89
  -2  -5  -3   60.21    8.53
  -2  -5  -3   91.39   10.22
   2   5   3   93.16   10.20
   2   5   3   86.65   14.31
  -2  -5  -4  290.12   26.28
  -2  -5  -4  270.00   21.88
   2   5   4  242.61   20.01
   2   5   4  225.13   42.01
  -2  -5  -5  300.65   29.75
  -2  -5  -5  289.39   27.34
   2   5   5  240.73   23.13
   2   5   5  246.08   39.49
  -2  -5  -6  209.68   25.28
  -2  -5  -6  192.27   21.32
   2   5   6  193.20   22.01
   2   5   6  186.49   38.33
  -2  -5  -7   56.22   13.94
  -2  -5  -7   70.18   12.04
   2   5   7   79.46   12.35
   2   5   7   53.65   17.35
   2   6 -12   53.94   15.29
  -2  -6  12   90.03   18.77
  -2  -6  12   50.43   11.45
   2   6 -11   48.13    9.61
  -2  -6  11   51.46   10.95
  -2  -6  11   55.79   10.29
   2   6 -10   53.48   12.29
  -2  -6  10   93.65   18.88
  -2  -6  10   68.97   12.92
   2   6  -9   43.49    8.95
  -2  -6   9   29.03    8.14
  -2  -6   9   12.33    4.23
   2   6  -8  105.41   31.13
  -2  -6   8  140.81   13.33
  -2  -6   8  174.17   14.45
   2   6  -8  142.78   11.50
   2   6  -7  220.86   19.86
  -2  -6   7  241.16   21.10
  -2  -6   7  239.06   19.27
   2   6  -7  181.00   35.14
   2   6  -6  276.44   27.51
  -2  -6   6  274.64   28.41
  -2  -6   6  322.65   30.87
   2   6  -6  280.03   34.57
  -2  -6   5  512.02   36.08
  -2  -6   5  560.21   36.90
   2   6  -5  568.42   40.98
  -2  -6   4  725.01   49.84
  -2  -6   4  742.53   50.47
   2   6  -4  623.99   48.41
  -2  -6   3  218.82   18.51
  -2  -6   3  231.02   17.07
   2   6  -3  218.09   24.92
  -2  -6   2 1002.31   68.26
  -2  -6   2 1034.76   68.55
   2   6  -2 1090.52  106.34
  -2  -6   1   10.45    6.27
  -2  -6   1   18.71    4.22
   2   6  -1   43.61    5.51
  -2  -6   1   12.69    1.82
   2   6  -1   52.97    8.94
  -2  -6   0  404.04   40.52
  -2  -6   0  400.69   38.51
   2   6   0  266.76   25.37
   2   6   0  263.17   30.49
  -2  -6  -1  157.22   21.87
  -2  -6  -1  140.35   18.24
   2   6   1  115.90   14.75
  -2  -6  -2   94.86   16.72
  -2  -6  -2   87.30   14.09
   2   6   2   52.20    8.49
   2   6   2   68.70   16.32
  -2  -6  -3  113.58   19.18
   2   6   3  139.00   13.53
   2   6   3  128.73   23.64
  -2  -6  -4  232.19   30.95
  -2  -6  -4  194.62   23.94
   2   6   4  210.47   25.68
   2   6   4  210.58   35.70
  -2  -6  -5  151.87   23.46
  -2  -6  -5  110.95   15.62
   2   6   5   98.32   14.19
   2   6   5  102.52   19.69
  -2  -6  -6   58.23   12.71
   2   6   6   24.52    7.91
   2   6   6   23.91   11.29
   2   7 -11   52.44   11.07
  -2  -7  11   63.05   13.35
   2   7 -10   90.72   13.32
  -2  -7  10   94.20   15.14
   2   7  -9   97.82   12.73
  -2  -7   9   98.73   14.05
   2   7  -8  115.18   15.17
  -2  -7   8  177.83   23.57
   2   7  -8  129.54   16.21
  -2  -7   7  321.13   33.75
   2   7  -7  202.68   28.68
  -2  -7   6  315.33   31.05
  -2  -7   6  269.01   25.96
   2   7  -6  267.84   37.09
  -2  -7   5  111.83   18.68
  -2  -7   5  130.37   21.52
   2   7  -5  170.16   28.74
  -2  -7   4  258.49   21.92
  -2  -7   4  237.53   20.39
   2   7  -4  198.12   29.64
  -2  -7   3  160.74   16.53
  -2  -7   3  133.04   20.94
   2   7  -3  243.82   32.79
  -2  -7   2  118.18   20.22
  -2  -7   2  114.10   18.34
   2   7  -2  117.02   22.44
  -2  -7   1  307.24   30.17
  -2  -7   1  321.50   29.70
   2   7  -1  242.18   38.73
  -2  -7   0  109.43   19.66
  -2  -7   0  131.13   21.09
   2   7   0  158.56   22.22
  -2  -7  -1  215.78   24.79
  -2  -7  -1  176.66   18.33
   2   7   1  230.08   37.69
  -2  -7  -2  461.28   71.26
   2   7   2  377.22   48.46
  -2  -7  -3  134.95   20.62
   2   7   3  133.52   20.94
   2   7   4   32.00   10.98
  -2  -8   9   54.37   11.93
  -2  -8   9   33.36    9.98
  -2  -8   8   17.31    6.96
  -2  -8   8   18.49    8.87
  -2  -8   7  151.61   21.77
  -2  -8   7  151.66   21.97
   2   8  -7  172.61   23.43
  -2  -8   6   95.16   14.76
  -2  -8   6   94.17   14.51
   2   8  -6   40.04   10.99
  -2  -8   5  242.04   27.93
  -2  -8   5  238.11   26.49
   2   8  -5  186.82   40.78
  -2  -8   4  174.02   21.07
  -2  -8   4  155.58   18.24
   2   8  -4  107.81   16.91
  -2  -8   3   78.63   15.84
   2   8  -3   41.50   10.58
  -2  -8   2  176.52   22.99
   2   8  -2  100.26   21.24
  -2  -8   1  179.79   26.59
   2   8  -1  139.90   27.65
  -2  -8   0  109.96   17.28
   2   8   0  101.97   23.53
  -2  -8  -1   74.40   14.94
   2   8   1   58.12   11.39
   3  -8  -3    7.21    5.50
  -3   8   3    1.45    4.93
   3  -8  -3   -1.89    7.10
   3  -8  -2   15.44    6.21
  -3   8   2   34.88   12.30
   3  -8  -2   13.77    8.14
  -3   8   1  130.80   24.99
   3  -8  -1  176.94   25.88
   3  -8   0    6.32    4.53
  -3   8   0   15.89    7.32
   3  -8   0   13.59   10.16
   3  -8   1   84.77   12.31
  -3   8  -1   42.04   11.48
   3  -8   1  129.99   18.96
   3  -8   2   16.98    7.75
  -3   8  -3   32.51    8.48
   3  -8   3   22.87    7.98
  -3   8  -4   76.89   13.57
   3  -8   4   49.84   10.81
  -3   8  -5   48.28   11.01
   3  -8   5   24.18    9.50
   3  -7  -6   36.82   10.89
  -3   7   6  103.30   19.49
   3  -7  -6   53.74   13.15
   3  -7  -5  107.15   17.15
  -3   7   5   88.13   13.72
   3  -7  -5  130.30   20.06
   3  -7  -4  136.14   20.20
  -3   7   4   95.21   14.44
   3  -7  -4  133.01   20.53
   3  -7  -3  327.63   56.67
  -3   7   3  321.61   39.42
   3  -7  -3  330.26   57.23
   3  -7  -2  108.81   18.80
  -3   7   2   57.72   14.38
   3  -7  -2  107.39   19.75
   3  -7  -1  145.00   16.61
  -3   7   1  134.64   20.19
   3  -7  -1  146.52   17.46
   3  -7   0   21.60    6.14
  -3   7   0   26.09    7.07
   3  -7   0   20.16   10.49
   3  -7   1  147.10   16.88
  -3   7  -1  154.36   25.89
   3  -7   1  142.24   17.35
   3  -7   2  167.24   17.66
  -3   7  -2  127.44   23.40
   3  -7   2  152.83   19.84
  -3   7  -3   74.59   17.55
   3  -7   3   74.36   14.28
  -3   7  -4   25.03    7.43
   3  -7   4   32.91    8.30
  -3   7  -5   18.89    5.41
  -3   7  -5   28.61    7.30
   3  -7   5   30.97    9.63
  -3   7  -6    8.40    2.72
   3  -7   6   13.30    6.08
   3  -7   6   16.45    6.14
  -3   7  -7   16.36    6.30
   3  -7   7   19.73    7.90
   3  -7   7   41.45   13.70
   3  -6  -8   14.52    6.54
  -3   6   8   39.01   10.82
   3  -6  -8   13.20    7.34
   3  -6  -7  187.88   27.07
  -3   6   7  198.73   55.59
   3  -6  -7  170.60   25.05
   3  -6  -6  101.43   13.39
  -3   6   6  123.36   15.12
   3  -6  -6  164.62   22.29
   3  -6  -5  157.01   19.29
  -3   6   5  164.92   18.54
   3  -6  -5  149.78   19.94
   3  -6  -4  159.49   17.43
  -3   6   4  148.31   15.10
   3  -6  -4  138.04   15.93
   3  -6  -3  172.06   16.07
  -3   6   3  244.26   20.02
   3  -6  -2   47.24    9.05
  -3   6   2   20.51    5.85
   3  -6  -2   43.86   15.32
   3  -6  -1  114.65   13.09
  -3   6   1  122.33   17.67
   3  -6  -1  123.94   19.16
   3  -6   0  113.77   12.15
  -3   6   0  130.34   18.85
   3  -6   0  100.72   13.07
   3  -6   1   15.40    3.81
  -3   6  -1   15.51    2.67
  -3   6  -1   14.03    4.33
   3  -6   1   18.11    8.55
   3  -6   2   33.61    4.50
  -3   6  -2   47.91    8.99
  -3   6  -2   77.92   13.86
   3  -6   2   35.95    7.91
   3  -6   3  125.14   15.95
  -3   6  -3  138.51   24.52
  -3   6  -3  195.82   25.58
   3  -6   3  172.67   28.53
  -3   6  -4   11.14    4.12
  -3   6  -4   12.69    4.64
   3  -6   4   18.02    7.88
  -3   6  -5  153.68   22.60
  -3   6  -5  234.60   23.23
   3  -6   5  191.85   21.52
  -3   6  -6  110.65   24.84
   3  -6   6  138.52   17.74
   3  -6   6  157.88   18.61
  -3   6  -7   17.76    5.61
   3  -6   7   23.67    8.45
   3  -6   7   12.30    6.50
  -3   6  -8   21.13    7.21
   3  -6   8   34.43   10.86
   3  -6   8   30.66    9.54
  -3   6  -9   10.92    5.45
   3  -6   9   19.82    9.80
   3  -5  -9   14.27    6.98
  -3   5   9   64.44   12.41
   3  -5  -9   31.66   11.03
   3  -5  -8   30.01    9.13
  -3   5   8   25.46    7.98
   3  -5  -8   55.42   13.49
   3  -5  -7  124.42   15.18
  -3   5   7  130.63   15.32
   3  -5  -7  146.90   17.41
   3  -5  -6   90.30   15.50
  -3   5   6   82.23   14.91
   3  -5  -6  121.78   20.96
   3  -5  -5   35.44    7.34
  -3   5   5   76.97   11.44
   3  -5  -5   66.62   11.69
   3  -5  -4  241.20   18.99
  -3   5   4  181.56   14.38
   3  -5  -4  227.44   19.04
   3  -5  -3  225.33   17.65
  -3   5   3  166.67   13.37
   3  -5  -3  234.83   18.85
   3  -5  -2  239.68   26.90
  -3   5   2  181.06   20.87
   3  -5  -2  213.14   25.03
   3  -5  -1  100.27    9.24
  -3   5   1   85.90    6.53
   3  -5  -1   98.59    7.03
  -3   5   1  113.53   16.39
   3  -5  -1  105.85   13.78
   3  -5   0  152.51   12.08
  -3   5   0  192.87   15.43
   3  -5   0  145.32   10.74
  -3   5   0  217.83   17.77
   3  -5   0  124.54   14.40
   3  -5   1  640.61   44.54
  -3   5  -1  691.89   47.78
  -3   5  -1  693.13   51.12
   3  -5   1  608.71   42.05
  -3   5  -1  744.87   55.80
   3  -5   1  594.31   43.83
   3  -5   2  645.49   40.12
   3  -5   2  731.05   45.55
  -3   5  -2  652.83   42.81
   3  -5   2  689.61   43.15
  -3   5  -2  733.32   58.86
   3  -5   2  671.35   44.92
   3  -5   3   72.07   10.78
   3  -5   3  119.37   13.17
  -3   5  -3  137.09   20.48
  -3   5  -3  174.93   26.53
   3  -5   3   95.34   14.28
  -3   5  -4  262.92   24.81
  -3   5  -4  303.43   22.39
   3  -5   4  251.39   20.19
  -3   5  -5  128.22   17.50
  -3   5  -5  152.38   17.09
   3  -5   5  203.01   21.86
  -3   5  -6   18.42    6.29
   3  -5   6   42.37    9.09
   3  -5   6   47.53   12.03
  -3   5  -7   41.26    9.45
   3  -5   7   12.31    6.56
   3  -5   7   13.79    6.78
  -3   5  -8   28.14    6.01
   3  -5   8   37.17    8.15
   3  -5   8   32.40    8.51
  -3   5  -9   95.93   19.78
   3  -5   9  121.40   19.45
   3  -5   9  106.30   15.62
  -3   5 -10   22.75    8.24
   3  -5  10   39.78   12.84
  -3   4  10   84.94   14.02
   3  -4 -10   94.43   14.70
   3  -4  -9   78.60   13.82
  -3   4   9   81.64   13.42
   3  -4  -9   87.40   17.29
   3  -4  -8  149.74   17.66
  -3   4   8  149.11   14.58
  -3   4   8  129.99   21.73
   3  -4  -8  144.06   17.04
   3  -4  -7  343.63   29.20
  -3   4   7  315.34   24.75
  -3   4   7  297.74   24.97
   3  -4  -7  301.39   26.19
   3  -4  -6  278.23   21.63
  -3   4   6  266.44   18.23
  -3   4   6  238.27   17.92
   3  -4  -6  252.53   19.17
   3  -4  -5  109.96   14.12
  -3   4   5   48.91    6.64
  -3   4   5   66.35    7.83
  -3   4   5   73.42   10.46
   3  -4  -5  114.60   15.21
   3  -4  -4  185.64   15.74
  -3   4   4  206.11   16.79
  -3   4   4  267.42   18.66
   3  -4  -4  175.36   16.44
   3  -4  -3  808.68   46.86
  -3   4   3  960.44   54.04
  -3   4   3  988.40   55.34
   3  -4  -3  833.36   49.24
   3  -4  -2  465.73   17.64
  -3   4   2  554.86   18.84
   3  -4  -2  436.22   15.24
   3  -4  -2  471.37   20.60
   3  -4  -1  140.12    7.84
  -3   4   1  195.62    8.13
   3  -4  -1  128.80    5.83
   3  -4  -1  143.78   10.81
   3  -4   0 1772.51   59.25
  -3   4   0 1651.52   54.93
  -3   4   0 1769.98   58.61
   3  -4   0 1693.16   56.21
   3  -4   0 1694.67   59.28
   3  -4   1  370.83   13.49
  -3   4  -1  313.53   11.60
  -3   4  -1  307.66   11.50
   3  -4   1  384.94   14.42
   3  -4   1  351.45   16.70
   3  -4   2  203.41   14.64
   3  -4   2  242.71   14.00
  -3   4  -2  186.41   11.75
   3  -4   2  223.65   16.08
  -3   4  -3  127.98    9.40
   3  -4   3  145.44   12.54
  -3   4  -4  117.57    9.87
   3  -4   4   80.09    9.29
  -3   4  -5  417.93   37.58
   3  -4   5  350.36   25.95
  -3   4  -6   95.98   15.68
   3  -4   6  105.92   14.65
   3  -4   6  106.84   13.79
  -3   4  -7   57.47   12.90
   3  -4   7   45.13   10.69
   3  -4   7   51.48    9.50
  -3   4  -8   32.67    8.76
   3  -4   8   -7.69    6.47
   3  -4   8   19.44    6.59
  -3   4  -9   57.24   14.98
   3  -4   9   17.17    6.85
   3  -4   9   27.01    6.93
  -3   4 -10   49.13   14.63
   3  -4  10   41.25   14.06
   3  -3 -11   47.83   12.61
  -3   3  11   56.54   12.37
  -3   3  11   56.22   13.22
   3  -3 -11   36.11    8.59
   3  -3 -10   92.58   17.39
  -3   3  10   94.26   17.45
  -3   3  10   98.99   14.81
   3  -3 -10  113.10   16.39
   3  -3  -9  101.95   17.21
  -3   3   9  102.61   16.62
  -3   3   9  121.72   19.96
   3  -3  -9  115.68   19.25
   3  -3  -8   88.32   11.49
  -3   3   8   78.80    9.52
  -3   3   8   88.69   12.11
   3  -3  -8   53.93    8.91
   3  -3  -7  132.06   12.51
  -3   3   7  152.75   11.65
  -3   3   7  142.77   13.28
   3  -3  -7  127.51   11.58
   3  -3  -6  178.57   14.80
  -3   3   6  115.80   14.64
  -3   3   6  212.59   15.99
  -3   3   6  188.82   15.36
   3  -3  -6  199.09   16.55
   3  -3  -5  367.26   22.99
  -3   3   5  342.84   21.62
  -3   3   5  373.61   21.98
  -3   3   5  381.89   23.69
   3  -3  -5  372.37   24.06
   3  -3  -4  428.64   17.12
  -3   3   4  396.11   18.26
  -3   3   4  466.76   16.72
  -3   3   4  512.78   20.01
   3  -3  -4  443.02   19.18
   3  -3  -3  319.03   27.33
  -3   3   3  250.17   21.10
   3  -3  -3  297.05   24.90
  -3   3   3  245.88   21.48
   3  -3  -3  292.22   26.36
   3  -3  -2 1012.31   40.86
  -3   3   2  977.91   39.12
  -3   3   2 1040.77   41.07
   3  -3  -2  937.56   37.16
  -3   3   2  994.88   40.46
   3  -3  -1  938.06   37.47
  -3   3   1  806.96   32.29
  -3   3   1  848.07   33.69
   3  -3  -1 1026.72   40.76
  -3   3   1  858.49   35.52
   3  -3  -1  922.94   38.71
   3  -3   0  308.50   25.77
  -3   3   0  215.19   18.23
  -3   3   0  227.18   19.32
   3  -3   0  272.56   22.96
  -3   3   0  233.40   21.64
   3  -3   0  330.33   29.46
   3  -3   1   26.67    2.89
  -3   3  -1   70.88    6.27
  -3   3  -1   81.42    7.71
   3  -3   1   28.25    3.72
  -3   3  -1  114.76   14.05
   3  -3   1   24.70    6.41
  -3   3  -2  429.43   35.96
  -3   3  -2  507.94   30.20
   3  -3   2  470.67   40.37
  -3   3  -3  512.35   19.37
  -3   3  -3  550.19   39.22
   3  -3   3  481.21   19.78
  -3   3  -4   41.84    5.24
  -3   3  -4   52.63    5.82
   3  -3   4   87.23    9.94
  -3   3  -5   46.86    5.29
   3  -3   5   39.15    8.52
   3  -3   5   35.32    7.56
  -3   3  -6  100.51   10.22
   3  -3   6  113.63   11.70
   3  -3   6  158.34   14.18
  -3   3  -7  240.78   28.48
   3  -3   7  252.82   27.56
   3  -3   7  308.55   30.82
  -3   3  -8  182.39   23.44
   3  -3   8  177.57   20.28
   3  -3   8  151.92   16.20
  -3   3  -9   45.68   10.73
   3  -3   9   78.71   14.73
   3  -3   9   62.79   11.02
  -3   3 -10   40.01    9.60
   3  -3  10   45.89   13.53
   3  -2 -12   60.22   11.35
  -3   2  12   91.21   15.91
  -3   2  12   76.96   14.33
  -3   2  11   50.91    9.59
  -3   2  11   44.84   10.36
   3  -2 -11    8.82    3.61
   3  -2 -10  332.24   32.02
  -3   2  10  319.54   29.85
  -3   2  10  328.69   31.99
   3  -2 -10  289.59   27.06
   3  -2  -9  411.80   41.28
  -3   2   9  418.78   40.70
  -3   2   9  422.29   41.82
   3  -2  -9  445.80   43.02
   3  -2  -8  191.56   15.25
  -3   2   8  193.18   14.90
  -3   2   8  183.58   15.49
   3  -2  -8  224.22   16.88
   3  -2  -7  298.95   23.17
  -3   2   7  263.21   19.83
  -3   2   7  278.70   21.26
   3  -2  -7  274.22   21.01
   3  -2  -6  362.41   15.96
  -3   2   6  472.63   18.54
  -3   2   6  445.76   18.17
   3  -2  -6  378.90   16.17
   3  -2  -5 1314.56   53.14
  -3   2   5 1082.88   45.24
  -3   2   5 1398.32   55.58
  -3   2   5 1277.62   51.57
   3  -2  -5 1284.32   51.96
   3  -2  -4  388.17   33.15
  -3   2   4  366.21   30.94
  -3   2   4  319.31   27.39
   3  -2  -4  407.58   35.06
   3  -2  -3  298.62   12.50
  -3   2   3  265.69   10.45
   3  -2  -3  323.56   12.09
  -3   2   3  278.91   12.00
   3  -2  -3  343.32   14.52
   3  -2  -2  997.21   33.52
  -3   2   2 1052.07   34.95
  -3   2   2 1114.01   37.06
   3  -2  -2 1002.24   33.53
  -3   2   2 1139.31   38.73
   3  -2  -2 1033.51   35.98
   3  -2  -1  770.95   26.04
  -3   2   1  703.69   23.70
  -3   2   1  732.60   25.13
   3  -2  -1  771.06   26.40
  -3   2   1  712.15   27.47
   3  -2  -1  753.13   27.32
   3  -2   0 1276.45   41.80
  -3   2   0 1119.27   36.58
  -3   2   0 1211.61   40.37
   3  -2   0 1198.81   39.73
  -3   2   0 1223.57   41.43
   3  -2   0 1290.79   44.33
   3  -2   1  348.93   12.13
  -3   2  -1  387.62   13.05
  -3   2  -1  397.18   14.92
   3  -2   1  339.34   12.78
  -3   2  -1  464.23   32.25
   3  -2   1  333.17   14.51
  -3   2  -2  687.25   28.47
  -3   2  -2  704.58   31.91
   3  -2   2  671.63   29.25
  -3   2  -3  679.20   28.02
  -3   2  -3  759.21   31.87
   3  -2   3  595.72   27.06
  -3   2  -4  627.48   23.75
   3  -2   4  726.24   27.88
  -3   2  -5  685.61   40.19
   3  -2   5  661.72   39.29
  -3   2  -6  679.26   43.67
   3  -2   6  549.81   36.51
  -3   2  -7  421.42   39.63
  -3   2  -7  590.27   57.07
   3  -2   7  538.94   52.38
  -3   2  -8   18.68    6.67
   3  -2   8   43.84    8.44
  -3   2  -9   12.81    5.70
   3  -2   9   24.47   10.00
   3  -2   9   25.32    7.81
  -3   2 -10   49.50   10.96
   3  -2  10   20.11    4.90
   3  -1 -13   72.21   15.63
  -3   1  13   46.59   11.18
  -3   1  13   38.72   11.99
   3  -1 -12  117.02   18.27
  -3   1  12  101.63   16.11
  -3   1  12  138.28   21.07
   3  -1 -11  163.04   18.95
  -3   1  11  151.70   17.54
  -3   1  11  172.35   19.76
  -3   1  10   59.01    9.38
  -3   1  10   61.30   10.22
   3  -1 -10   85.54   11.54
   3  -1  -9   86.55   10.28
  -3   1   9  106.76    9.45
  -3   1   9  147.15   13.72
   3  -1  -9   94.50    8.48
   3  -1  -8  280.30   21.89
  -3   1   8  246.30   19.29
  -3   1   8  208.46   16.88
   3  -1  -8  246.43   18.39
   3  -1  -7  365.06   23.03
  -3   1   7  413.18   25.46
  -3   1   7  379.82   23.73
   3  -1  -7  289.76   28.72
   3  -1  -7  355.56   21.65
   3  -1  -6  316.73   27.57
  -3   1   6  311.87   27.10
  -3   1   6  306.66   26.79
   3  -1  -6  207.77   24.34
   3  -1  -6  298.13   25.76
   3  -1  -5  562.79   24.40
  -3   1   5  429.01   36.32
  -3   1   5  409.27   34.65
   3  -1  -5  485.59   40.50
   3  -1  -5  494.68   18.63
   3  -1  -4  654.49   23.27
  -3   1   4  625.93   22.71
   3  -1  -4  600.20   21.15
  -3   1   4  598.18   21.57
   3  -1  -4  616.78   22.55
  -3   1   4  637.89   22.57
   3  -1  -3  912.20   24.56
  -3   1   3  728.47   19.48
  -3   1   3  820.24   22.42
   3  -1  -3  893.49   23.81
  -3   1   3  705.32   19.53
   3  -1  -3  924.11   25.61
  -3   1   3  814.29   22.27
   3  -1  -2  901.90   24.24
  -3   1   2  924.25   23.98
  -3   1   2  949.82   25.35
   3  -1  -2  890.66   23.82
   3  -1  -2  801.32   21.61
   3  -1  -1  630.34   16.98
  -3   1   1  642.29   16.89
  -3   1   1  672.90   18.79
   3  -1  -1  640.28   18.17
  -3   1   1  667.82   18.40
   3  -1  -1  593.02   16.53
   3  -1  -1  561.91   17.57
   3  -1   0 1234.10   31.28
  -3   1   0 1401.84   35.00
  -3   1   0 1475.82   38.01
   3  -1   0 1287.43   33.21
   3  -1   0 1117.06   28.97
   3  -1   0 1095.66   30.04
  -3   1  -1  296.38   20.84
   3  -1   1  156.41    9.59
  -3   1  -2  521.68   17.27
  -3   1  -2  499.68   16.70
  -3   1  -2  524.45   19.02
  -3   1  -2  574.14   21.56
   3  -1   2  572.96   22.25
  -3   1  -3  767.35   30.24
  -3   1  -3  771.38   30.31
  -3   1  -3  774.38   32.18
   3  -1   3  721.86   30.89
   3  -1   3  782.89   32.99
  -3   1  -4  218.86    8.84
  -3   1  -4  264.79    9.69
   3  -1   4  272.34   14.24
   3  -1   4  338.10   15.77
  -3   1  -5  178.84   13.48
  -3   1  -5  226.81   13.47
  -3   1  -5  226.63   15.47
   3  -1   5  164.98   14.31
   3  -1   5  204.61   15.19
  -3   1  -6   81.35    9.45
  -3   1  -6  115.45   13.19
  -3   1  -6   97.43   12.65
   3  -1   6  154.85   18.94
   3  -1   6  192.62   22.57
  -3   1  -7   44.03    5.39
  -3   1  -7   43.02    8.16
   3  -1   7   70.75   10.09
   3  -1   7   73.12    9.79
  -3   1  -8  119.65   18.43
  -3   1  -8  125.99   20.70
   3  -1   8   99.09   18.49
   3  -1   8   91.76   15.15
  -3   1  -9  102.53   15.39
   3  -1   9  130.77   21.36
   3  -1   9   94.22   17.16
   3  -1  10   38.24   12.24
   3  -1  10   37.01    8.48
   3   0 -13   48.97   10.27
  -3   0  13   62.21   12.75
  -3   0  13   35.85   11.98
   3   0 -12  170.07   22.71
  -3   0  12  145.31   20.63
  -3   0  12  119.44   17.36
   3   0 -11   48.48   10.72
  -3   0  11   33.07    9.06
  -3   0  11   43.79   10.68
   3   0 -10  496.18   48.25
  -3   0  10  443.83   43.71
  -3   0  10  463.03   45.17
   3   0 -10  474.11   44.93
  -3   0   9  396.26   27.00
  -3   0   9  465.10   31.29
   3   0  -9  322.07   37.55
   3   0  -9  475.38   30.11
   3   0  -8  467.02   28.29
  -3   0   8  444.06   27.26
  -3   0   8  482.62   35.07
   3   0  -8  331.11   24.35
   3   0  -8  438.49   25.62
   3   0  -7  300.03   13.32
  -3   0   7  349.90   14.94
  -3   0   7  386.96   16.60
   3   0  -7  280.93   16.98
   3   0  -7  347.67   13.54
   3   0  -6  543.46   23.52
  -3   0   6  651.54   27.80
  -3   0   6  614.06   26.06
   3   0  -6  501.83   18.00
   3   0  -6  560.48   23.34
   3   0  -5 1284.64   43.67
  -3   0   5 1327.10   44.97
  -3   0   5 1252.94   42.26
   3   0  -5 1180.79   39.86
  -3   0   5 1249.46   41.68
   3   0  -4 1158.52   39.13
  -3   0   4 1221.68   41.41
  -3   0   4 1293.68   43.06
   3   0  -4 1057.86   35.41
   3   0  -4 1096.26   37.02
  -3   0   4 1289.71   42.78
  -3   0   3 1868.34   47.08
  -3   0   3 2064.13   52.62
   3   0  -3 1746.77   44.45
  -3   0   3 1916.59   48.34
   3   0  -3 1675.89   42.38
   3   0  -3 1795.91   46.15
  -3   0   3 1916.27   48.39
   3   0  -2  893.58   24.03
  -3   0   2  800.99   21.11
  -3   0   2  851.10   22.46
   3   0  -2  825.42   21.71
   3   0  -1  196.00   11.89
  -3   0   1  139.20    5.14
  -3   0   1  142.04    6.85
  -3   0   1  163.70   10.57
   3   0   0 1370.39   34.94
  -3   0   0 1351.17   34.09
  -3   0   0 1530.56   39.28
   3   0   0 1397.15   35.40
   3   0   1  704.79   23.69
  -3   0  -1  699.02   23.37
  -3   0  -1  797.22   27.78
  -3   0  -1  824.19   28.51
   3   0   1  728.30   24.77
   3   0   1  757.18   27.37
  -3   0  -2 1690.29   55.00
  -3   0  -2 1850.04   60.21
  -3   0  -2 2003.20   66.28
   3   0   2 1821.82   60.44
   3   0   2 1976.86   65.98
  -3   0  -3  311.50   26.96
  -3   0  -3  350.56   29.32
  -3   0  -3  400.95   34.13
   3   0   3  400.18   34.64
   3   0   3  374.54   32.34
  -3   0  -4  308.12   14.04
  -3   0  -4  400.83   14.97
  -3   0  -4  341.92   13.99
   3   0   4  336.36   15.16
   3   0   4  359.52   15.92
  -3   0  -5  285.86   17.02
  -3   0  -5  345.89   20.60
  -3   0  -5  345.04   21.30
   3   0   5  421.96   27.78
   3   0   5  414.40   25.90
  -3   0  -6  406.01   26.23
  -3   0  -6  467.14   30.93
   3   0   6  478.91   33.78
   3   0   6  411.29   27.60
  -3   0  -7  445.02   42.69
  -3   0  -7  404.21   39.53
   3   0   7  433.71   43.65
   3   0   7  345.10   33.97
  -3   0  -8  202.54   19.23
  -3   0  -8  194.25   19.57
   3   0   8  151.06   16.82
   3   0   8  139.43   14.45
  -3   0  -9   53.88    8.87
  -3   0  -9   42.08    8.19
   3   0   9   80.55   15.01
   3   0   9   48.59    8.75
  -3   0 -10   50.23   13.70
   3   0  10   33.11   11.61
   3   0  10   41.67   10.76
   3   1 -13   19.81    7.92
  -3  -1  13   19.18    6.89
  -3  -1  13   13.04    8.20
   3   1 -12  151.24   19.65
  -3  -1  12  139.90   19.80
  -3  -1  12  142.29   19.61
   3   1 -11   37.87    8.03
  -3  -1  11   62.76   13.30
  -3  -1  11   61.25   11.09
   3   1 -10   97.81   11.39
  -3  -1  10  153.54   17.22
  -3  -1  10  153.51   17.62
   3   1  -9   17.62    4.13
  -3  -1   9   79.84   11.86
  -3  -1   9   75.54   10.92
   3   1  -9   16.54    2.11
   3   1  -9   12.46    2.14
  -3  -1   8  171.79   14.48
  -3  -1   8  166.46   12.21
   3   1  -8   63.87    8.14
   3   1  -8   96.99    6.73
   3   1  -7  792.35   28.96
  -3  -1   7  752.98   29.01
  -3  -1   7  804.45   29.26
   3   1  -7  828.69   28.57
   3   1  -6  783.92   32.79
  -3  -1   6  885.58   36.99
  -3  -1   6  844.11   34.41
   3   1  -6 1048.15   41.88
  -3  -1   6  820.44   32.71
   3   1  -5  443.04   16.93
  -3  -1   5  569.94   20.12
   3   1  -5  419.44   15.35
   3   1  -5  491.78   17.95
  -3  -1   5  545.05   19.05
   3   1  -4 1452.12   48.74
  -3  -1   4 1298.30   43.96
  -3  -1   4 1253.24   41.44
   3   1  -4 1331.64   43.82
   3   1  -4 1405.70   46.57
  -3  -1   4 1180.64   39.22
  -3  -1   3 1077.30   28.07
  -3  -1   3 1230.45   32.76
  -3  -1   3 1172.81   29.87
   3   1  -3 1497.28   37.64
  -3  -1   3 1090.55   28.45
  -3  -1   2  857.68   22.69
  -3  -1   2  885.20   22.78
   3   1  -2  682.73   17.80
   3   1  -2  789.90   22.19
  -3  -1   2  863.82   23.29
   3   1  -1  730.20   20.26
  -3  -1   1  709.74   19.09
  -3  -1   1  582.61   17.86
  -3  -1   1  739.13   19.73
   3   1  -1  695.41   18.05
   3   1   0 2135.89   69.89
  -3  -1   0 2145.31   53.82
  -3  -1   0 2413.91   79.06
  -3  -1   0 2378.49   59.13
   3   1   0 2090.74   67.78
   3   1   0 2278.02   75.21
  -3  -1  -1  874.15   29.34
  -3  -1  -1 1026.81   34.67
  -3  -1  -1 1046.67   35.68
   3   1   1 1010.37   34.07
   3   1   1  924.26   31.42
   3   1   1 1023.72   35.76
  -3  -1  -2  170.47   15.63
  -3  -1  -2  196.48   17.27
  -3  -1  -2  184.96   16.85
   3   1   2  114.10   12.96
   3   1   2  133.50   12.61
   3   1   2  145.17   13.99
  -3  -1  -3  215.72   26.16
  -3  -1  -3  323.21   27.85
  -3  -1  -3  329.87   28.27
   3   1   3  342.68   29.59
   3   1   3  312.86   28.08
  -3  -1  -4  430.73   25.62
  -3  -1  -4  481.56   28.86
   3   1   4  473.08   29.03
   3   1   4  425.25   26.40
  -3  -1  -5  165.82   13.92
  -3  -1  -5  183.57   15.32
   3   1   5  188.58   16.84
   3   1   5  163.25   13.67
  -3  -1  -6  138.18   11.49
  -3  -1  -6  158.38   13.74
   3   1   6  109.64   11.73
   3   1   6   98.00    9.50
  -3  -1  -7   52.19    8.27
  -3  -1  -7   93.66   14.55
   3   1   7   48.02    9.70
   3   1   7   57.19   10.38
  -3  -1  -8   44.64    8.57
  -3  -1  -8   33.38    7.90
   3   1   8   42.35   11.54
   3   1   8   29.44    7.24
  -3  -1  -9  109.41   15.74
   3   1   9  132.83   20.34
   3   1   9  132.98   19.29
  -3  -1 -10   53.65   15.86
   3   1  10   43.62   10.61
   3   1  10   63.54   13.14
   3   2 -13   47.83   11.05
  -3  -2  13   34.97    9.98
   3   2 -12   78.88   13.39
  -3  -2  12  158.09   22.50
  -3  -2  12  108.85   16.09
   3   2 -11  156.12   14.21
  -3  -2  11  161.64   15.09
  -3  -2  11  204.11   18.89
   3   2 -10   65.76    8.60
  -3  -2  10   34.79    9.15
  -3  -2  10   32.24    7.09
   3   2  -9  661.06   42.92
  -3  -2   9  695.92   44.77
   3   2  -8 2507.72  270.64
  -3  -2   8 2414.64  260.80
  -3  -2   8 2416.72  260.59
   3   2  -8 2281.32  245.46
   3   2  -8 2109.48  226.97
  -3  -2   7  598.34   24.41
  -3  -2   7  590.09   22.05
   3   2  -7  489.89   16.90
  -3  -2   7  502.28   17.55
   3   2  -6  475.75   40.11
  -3  -2   6  545.04   25.23
  -3  -2   6  502.51   18.33
   3   2  -6  456.81   38.18
   3   2  -6  432.01   36.00
  -3  -2   6  474.36   39.31
   3   2  -5  597.38   25.50
  -3  -2   5  732.37   31.70
  -3  -2   5  591.14   23.98
   3   2  -5  706.03   28.41
   3   2  -5  714.51   29.01
  -3  -2   5  594.01   24.22
   3   2  -4  556.51   23.10
  -3  -2   4  624.97   20.98
   3   2  -4  494.10   16.87
   3   2  -4  509.00   18.48
   3   2  -3 2401.69   79.15
  -3  -2   3 2374.10   78.17
  -3  -2   3 2127.94   68.60
   3   2  -3 2192.15   70.71
   3   2  -3 2360.13   77.34
  -3  -2   3 2292.33   74.86
  -3  -2   2  932.97   32.39
  -3  -2   2  913.64   30.26
   3   2  -2  685.80   22.52
   3   2  -2  759.88   26.65
   3   2  -1  478.30   18.22
  -3  -2   1  586.47   21.91
   3   2  -1  445.59   14.92
   3   2  -1  455.83   15.53
   3   2  -1  465.90   18.46
  -3  -2   0  627.58   23.98
  -3  -2   0  619.06   22.71
   3   2   0  610.66   21.83
   3   2   0  653.06   22.30
   3   2   0  640.87   24.63
  -3  -2  -1  713.23   30.38
  -3  -2  -1  781.41   32.36
   3   2   1  777.83   31.76
   3   2   1  788.53   31.85
   3   2   1  723.65   30.91
  -3  -2  -2  265.02   23.49
  -3  -2  -2  289.97   25.25
   3   2   2  273.11   23.51
   3   2   2  305.92   26.57
   3   2   2  296.97   26.01
  -3  -2  -3  584.36   22.25
  -3  -2  -3  648.04   24.57
   3   2   3  714.53   26.36
   3   2   3  709.27   27.72
  -3  -2  -4  688.42   48.69
  -3  -2  -4  656.45   46.40
   3   2   4  633.86   45.80
   3   2   4  524.64   38.34
  -3  -2  -5  319.40   23.27
  -3  -2  -5  325.59   23.36
   3   2   5  366.63   26.58
   3   2   5  320.32   23.37
  -3  -2  -6  153.94   20.80
  -3  -2  -6  155.59   20.65
   3   2   6  195.92   18.38
   3   2   6  177.62   27.81
  -3  -2  -7  274.91   26.26
  -3  -2  -7  243.01   23.85
   3   2   7  253.20   25.75
   3   2   7  264.65   26.14
  -3  -2  -8  112.85   14.26
  -3  -2  -8  128.61   15.42
   3   2   8  114.10   15.75
   3   2   8   90.10   11.61
  -3  -2  -9  100.11   17.01
  -3  -2  -9   57.13   10.76
   3   2   9   85.75   16.27
   3   2   9   78.96   14.03
   3   3 -13   66.82   10.87
  -3  -3  13  119.01   18.59
   3   3 -12  106.38   14.36
  -3  -3  12  177.37   24.10
  -3  -3  12  143.30   19.49
   3   3 -11  244.72   24.20
  -3  -3  11  204.39   20.90
  -3  -3  11  210.90   20.94
   3   3 -10  407.32   33.11
  -3  -3  10  354.40   30.81
  -3  -3  10  478.18   37.98
   3   3  -9  455.79   31.82
  -3  -3   9  397.82   29.52
  -3  -3   9  357.16   25.00
   3   3  -8  155.98   20.98
  -3  -3   8  275.41   23.39
  -3  -3   8  258.86   19.14
   3   3  -8  107.27   10.55
  -3  -3   8  206.58   14.61
   3   3  -7  193.58   21.27
  -3  -3   7  258.48   17.79
  -3  -3   7  237.34   15.03
   3   3  -7  152.78   10.06
   3   3  -7  189.16   11.53
  -3  -3   7  210.92   12.66
  -3  -3   6  312.98   15.55
  -3  -3   6  320.26   12.15
   3   3  -6  340.71   12.56
   3   3  -6  371.64   13.68
  -3  -3   6  307.30   11.82
   3   3  -5  771.27   32.38
  -3  -3   5  841.74   36.16
  -3  -3   5  708.92   28.11
   3   3  -5  714.93   28.34
   3   3  -5  710.22   29.02
  -3  -3   5  715.05   29.00
   3   3  -4  178.29   27.00
  -3  -3   4  302.90   26.72
  -3  -3   4  235.37   19.41
   3   3  -4  187.46   15.56
   3   3  -4  184.38   16.41
   3   3  -3  434.14   43.25
  -3  -3   3  492.46   41.85
   3   3  -3  400.84   33.80
   3   3  -2  881.63   36.47
  -3  -3   2  819.31   34.28
   3   3  -2  828.54   33.99
   3   3  -1  662.52   28.19
  -3  -3   1  838.45   35.12
   3   3  -1  609.98   23.73
   3   3  -1  662.66   25.85
   3   3  -1  673.51   29.12
  -3  -3   0  493.57   21.22
  -3  -3   0  477.54   40.55
   3   3   0  456.36   37.92
   3   3   0  445.58   36.84
  -3  -3  -1 1338.37   46.66
  -3  -3  -1 1409.76   48.54
   3   3   1 1375.86   46.01
   3   3   1 1408.47   47.36
   3   3   1 1330.93   46.29
  -3  -3  -2  442.48   27.97
  -3  -3  -2  463.61   27.92
   3   3   2  333.86   19.52
   3   3   2  387.71   23.28
   3   3   2  355.89   22.92
  -3  -3  -3  546.13   39.65
  -3  -3  -3  550.48   39.46
   3   3   3  600.97   42.48
   3   3   3  591.44   42.55
  -3  -3  -4   30.12    5.90
  -3  -3  -4   32.63    5.43
   3   3   4   29.57    5.45
   3   3   4   30.78    6.60
  -3  -3  -5  233.40   20.96
  -3  -3  -5  228.75   19.78
   3   3   5  181.30   29.27
   3   3   5  179.94   28.83
  -3  -3  -6  150.72   16.42
  -3  -3  -6  159.24   16.46
   3   3   6  173.86   17.87
   3   3   6  158.95   16.60
  -3  -3  -7  139.37   19.08
  -3  -3  -7   95.73   17.48
   3   3   7  117.21   16.29
   3   3   7  142.60   19.09
  -3  -3  -8   17.44    6.88
  -3  -3  -8   19.78    6.71
   3   3   8    8.73    5.22
   3   3   8    5.56    5.31
   3   4 -13  101.05   22.49
  -3  -4  13   90.52   16.65
  -3  -4  13   95.72   17.33
   3   4 -12   36.12    7.79
  -3  -4  12   14.22    7.63
  -3  -4  12   15.04    5.24
   3   4 -11  289.69   43.33
  -3  -4  11  374.66   39.75
  -3  -4  11  344.80   35.69
   3   4 -10   39.08    9.37
  -3  -4  10   55.97   13.23
  -3  -4  10   54.82   10.69
   3   4  -9  306.94   38.12
  -3  -4   9  274.84   29.44
  -3  -4   9  244.61   24.11
   3   4  -8  345.19   33.60
  -3  -4   8  263.08   21.18
  -3  -4   8  238.28   16.78
   3   4  -8  289.61   20.91
  -3  -4   8  201.59   13.84
   3   4  -7  528.27   37.94
  -3  -4   7  505.51   38.73
  -3  -4   7  485.24   33.89
   3   4  -7  452.78   33.52
  -3  -4   7  475.54   33.16
   3   4  -6  503.20   36.06
  -3  -4   6  620.08   45.41
  -3  -4   6  536.87   36.90
  -3  -4   6  511.46   35.32
   3   4  -6  571.31   39.87
  -3  -4   6  477.37   33.49
  -3  -4   5  628.43   38.22
   3   4  -5  588.85   34.23
   3   4  -4  583.90   37.80
  -3  -4   4  669.65   26.29
   3   4  -4  525.10   19.79
   3   4  -3  657.94   24.89
  -3  -4   3  812.50   30.25
   3   4  -3  747.13   27.12
   3   4  -2 1095.50   38.66
  -3  -4   2 1398.96   48.63
   3   4  -2 1393.68   48.45
  -3  -4   1 1773.37  100.17
  -3  -4   0  282.38   20.35
  -3  -4   0  261.83   17.17
   3   4   0  453.26   25.70
   3   4   0  471.87   26.66
  -3  -4  -1  804.22   57.17
  -3  -4  -1  824.03   57.57
   3   4   1  680.22   46.81
   3   4   1  723.84   49.90
   3   4   1  679.04   48.17
  -3  -4  -2  229.45   27.25
  -3  -4  -2  260.41   29.38
   3   4   2  210.80   23.22
   3   4   2  243.25   26.96
   3   4   2  260.79   30.13
  -3  -4  -3  168.64   15.17
  -3  -4  -3  187.57   14.84
   3   4   3  156.45   11.94
   3   4   3  162.55   14.13
  -3  -4  -4  338.43   28.74
  -3  -4  -4  319.99   26.23
   3   4   4  336.00   27.28
   3   4   4  341.39   28.82
  -3  -4  -5  291.62   28.80
  -3  -4  -5  246.88   23.39
   3   4   5  251.22   23.78
   3   4   5  274.00   27.56
  -3  -4  -6  160.21   21.69
  -3  -4  -6  161.70   20.65
   3   4   6  131.17   17.12
   3   4   6  171.95   22.44
  -3  -4  -7  126.00   19.00
  -3  -4  -7   86.33   13.44
   3   4   7   88.97   13.78
   3   4   7  104.18   15.93
   3   5 -12   19.24    5.81
  -3  -5  12   23.90    8.77
   3   5 -11  143.17   21.43
  -3  -5  11  206.37   26.06
  -3  -5  11  153.68   18.42
   3   5 -10   83.54   17.00
  -3  -5  10  104.35   20.47
  -3  -5  10   88.32   15.25
   3   5  -9  178.46   24.55
  -3  -5   9  224.44   20.04
  -3  -5   9  178.74   15.04
   3   5  -8  236.60   37.50
  -3  -5   8  311.47   31.77
  -3  -5   8  261.87   25.31
   3   5  -8  200.19   22.64
   3   5  -7  170.44   24.22
  -3  -5   7  225.97   19.56
  -3  -5   7  246.97   16.80
   3   5  -7  178.83   20.15
   3   5  -6  244.52   25.99
  -3  -5   6  300.77   23.22
   3   5  -6  253.50   20.83
   3   5  -5  839.91   53.85
  -3  -5   5  794.44   51.71
   3   5  -5  783.43   49.62
  -3  -5   4  536.08   35.65
   3   5  -4  644.94   41.34
  -3  -5   3  385.92   27.34
  -3  -5   3  479.62   32.09
   3   5  -3  371.02   24.92
  -3  -5   2  575.56   38.44
  -3  -5   2  648.49   41.95
   3   5  -2  849.92   54.24
  -3  -5   1  417.02   28.74
  -3  -5   1  441.88   29.09
   3   5  -1  302.33   34.81
  -3  -5   0  412.23   28.64
   3   5   0  286.02   18.78
   3   5   0  330.53   21.71
   3   5   0  350.24   25.38
  -3  -5  -1  216.03   22.88
  -3  -5  -1  232.58   23.21
   3   5   1  199.38   19.17
   3   5   1  248.23   26.35
  -3  -5  -2  234.13   21.48
  -3  -5  -2  213.46   18.10
   3   5   2  182.59   27.63
   3   5   2  191.76   18.05
  -3  -5  -3  318.26   27.49
  -3  -5  -3  284.55   22.96
   3   5   3  257.64   20.20
   3   5   3  317.98   27.62
  -3  -5  -4  196.04   23.07
  -3  -5  -4  140.80   15.24
   3   5   4  167.33   18.06
   3   5   4  209.43   24.44
  -3  -5  -5   61.78   13.94
  -3  -5  -5   77.06   14.92
   3   5   5   77.40   14.53
   3   5   5   95.47   12.62
  -3  -5  -6   46.59   13.40
  -3  -5  -6   31.35    9.98
   3   5   6   19.32    6.87
   3   5   6   31.27   10.76
   3   6 -12   18.52    6.10
  -3  -6  12   30.92   10.28
   3   6 -11  111.86   23.53
  -3  -6  11  173.34   25.60
   3   6 -10   50.25   13.04
  -3  -6  10   76.68   15.15
   3   6  -9   71.47   18.26
  -3  -6   9  113.20   15.43
   3   6  -8  157.32   24.99
  -3  -6   8  151.59   17.99
   3   6  -8  101.65   22.69
   3   6  -7  327.32   26.24
  -3  -6   7  386.48   31.76
   3   6  -7  343.04   34.88
   3   6  -6  321.97   26.77
  -3  -6   6  271.98   24.41
   3   6  -6  333.62   37.82
   3   6  -5   25.89    6.34
  -3  -6   5   41.92    9.19
   3   6  -5   39.44    7.55
  -3  -6   4  654.71   82.70
  -3  -6   4  646.49   62.67
   3   6  -4  638.66   61.56
  -3  -6   3   57.27   10.95
  -3  -6   3   41.33    6.77
   3   6  -3   53.39    8.19
  -3  -6   2  226.19   20.42
  -3  -6   2  223.26   19.25
   3   6  -2  232.26   36.44
  -3  -6   1  345.59   30.16
  -3  -6   1  387.52   31.01
   3   6  -1  309.95   33.35
  -3  -6   0  145.96   14.26
  -3  -6   0  161.90   14.29
   3   6   0  175.75   29.18
  -3  -6  -1  289.82   27.16
  -3  -6  -2  257.62   27.91
  -3  -6  -2  285.38   29.27
   3   6   2  346.24   40.92
  -3  -6  -3  206.97   25.07
   3   6   3  154.33   20.67
  -3  -6  -4  113.80   16.23
   3   6   4  114.76   24.87
  -3  -6  -5  114.93   21.76
  -3  -6  -5   67.83   12.75
   3   6   5   95.59   24.26
   3   7 -10   52.71   10.97
  -3  -7  10   80.92   16.46
   3   7  -9   66.28   11.71
  -3  -7   9  106.22   17.96
   3   7  -8  135.30   16.36
  -3  -7   8  175.51   22.01
   3   7  -8   88.07   18.96
   3   7  -7   82.28   13.89
  -3  -7   7   81.29   14.47
   3   7  -7   61.91   12.05
  -3  -7   6  228.42   25.20
  -3  -7   6  233.14   25.64
   3   7  -6  152.41   26.79
  -3  -7   5   99.45   18.60
  -3  -7   5  138.56   16.68
   3   7  -5  104.47   21.66
  -3  -7   4  383.20   40.12
  -3  -7   4  394.42   56.31
   3   7  -4  393.62   61.83
  -3  -7   3  151.65   18.75
  -3  -7   3  192.35   21.43
   3   7  -3  112.73   22.68
  -3  -7   2  153.37   18.23
  -3  -7   2  178.24   19.31
   3   7  -2  134.72   23.45
  -3  -7   1  248.50   31.77
  -3  -7   1  311.78   37.98
   3   7  -1  244.52   39.99
  -3  -7   0  290.34   33.17
  -3  -7   0  354.99   38.25
   3   7   0  330.72   46.80
  -3  -7  -1  181.17   27.36
  -3  -7  -1  175.32   23.75
   3   7   1  157.49   32.24
  -3  -7  -2  157.77   26.50
   3   7   2  114.80   26.74
  -3  -7  -3   36.69   11.80
   3   7   3   34.54   10.83
  -3  -8   8  109.99   20.70
  -3  -8   8  108.05   21.22
  -3  -8   7   73.24   15.31
  -3  -8   7   73.60   13.78
   3   8  -7   42.24   16.03
  -3  -8   6  131.55   22.19
  -3  -8   6  175.43   27.89
   3   8  -6   60.97   15.55
  -3  -8   5   88.60   16.54
  -3  -8   5   62.97   11.78
   3   8  -5   60.61   19.66
  -3  -8   4  102.14   16.95
  -3  -8   4   99.54   15.14
   3   8  -4   75.38   19.80
  -3  -8   3   56.53   15.67
  -3  -8   3   35.57    8.75
   3   8  -3   49.18   12.23
  -3  -8   2   87.71   16.78
   3   8  -2   84.96   22.67
  -3  -8   1   70.37   13.64
   3   8  -1   95.11   20.30
  -4   8   0   21.50    7.26
   4  -8   0   23.23   11.12
  -4   8  -1   46.42   16.73
   4  -8   1   91.80   19.13
   4  -7  -5   30.09    9.05
  -4   7   5   36.93   11.00
   4  -7  -5   32.75   13.17
   4  -7  -4   62.33   12.15
  -4   7   4   66.03   12.60
   4  -7  -4   56.06   12.65
   4  -7  -3   64.81   11.58
  -4   7   3   98.58   18.14
   4  -7  -3   82.53   15.80
   4  -7  -2   50.85    9.14
  -4   7   2   47.09    9.94
   4  -7  -2   44.23   10.85
   4  -7  -1   20.82    5.09
  -4   7   1   35.30    9.05
   4  -7  -1   73.38   16.96
   4  -7   0    9.94    4.41
  -4   7   0    7.71    4.98
   4  -7   0   14.26   10.59
  -4   7  -1   88.96   19.85
   4  -7   1   68.65   14.83
  -4   7  -2   93.17   19.56
   4  -7   2   59.53   13.73
  -4   7  -3   53.05   12.20
   4  -7   3   75.14   14.97
  -4   7  -4   23.06    7.96
   4  -7   4    9.23    6.95
  -4   7  -5  149.59   24.56
   4  -7   5  171.28   28.04
   4  -6  -7   59.42   12.98
  -4   6   7   50.47   10.21
   4  -6  -7   58.56   12.73
   4  -6  -6   47.46    9.90
  -4   6   6   57.89   11.84
   4  -6  -6   54.37   14.65
   4  -6  -5   48.67   10.43
  -4   6   5   45.16    9.56
   4  -6  -5   57.04   13.95
   4  -6  -4   42.28    9.34
  -4   6   4   29.03    6.91
   4  -6  -4   54.83   11.27
   4  -6  -3    6.29    4.07
  -4   6   3    6.99    5.08
   4  -6  -2  101.55   17.42
  -4   6   2   99.83   22.69
   4  -6  -2  108.34   20.93
   4  -6  -1   13.22    3.97
  -4   6   1   14.05    5.10
   4  -6  -1   15.59    8.77
   4  -6   0   78.89   13.08
  -4   6   0  116.45   25.06
   4  -6   0   72.62   14.83
   4  -6   1  280.88   25.63
  -4   6  -1  262.26   26.43
  -4   6  -1  315.15   36.24
   4  -6   1  331.38   33.91
  -4   6  -2  104.85   19.68
  -4   6  -2  142.96   20.96
   4  -6   2  181.35   21.67
  -4   6  -3  147.66   23.06
   4  -6   3  165.45   22.19
  -4   6  -4   10.38    3.63
  -4   6  -4   23.87    6.48
   4  -6   4   53.26   10.94
  -4   6  -5    7.33    4.05
  -4   6  -5    7.90    7.10
   4  -6   5   18.32    7.37
  -4   6  -6   21.53    7.03
   4  -6   6    5.49    6.51
   4  -6   6   32.06   11.71
  -4   6  -7   15.57    6.66
   4  -6   7    5.35    6.70
   4  -6   7    6.36    6.38
   4  -5  -9   50.82   12.71
  -4   5   9   38.71   12.21
   4  -5  -9   -0.80    6.71
   4  -5  -8   41.12   11.04
  -4   5   8   25.94    6.68
   4  -5  -8   41.63   11.75
   4  -5  -7  123.60   17.02
  -4   5   7  143.43   18.38
   4  -5  -7  160.67   20.91
   4  -5  -6   55.08   11.17
  -4   5   6   47.63   10.75
   4  -5  -6   65.22   13.86
   4  -5  -5   69.86   12.86
  -4   5   5   63.85   12.01
   4  -5  -5   82.72   15.40
   4  -5  -4  351.70   28.76
  -4   5   4  414.47   33.31
   4  -5  -4  367.73   31.32
   4  -5  -3  329.59   27.19
  -4   5   3  348.65   26.67
  -4   5   3  371.34   30.08
   4  -5  -3  343.65   29.82
   4  -5  -2  204.19   20.81
  -4   5   2  224.13   21.36
  -4   5   2  264.33   28.61
   4  -5  -2  189.56   20.68
   4  -5  -1  213.12   21.17
  -4   5   1  253.56   24.25
  -4   5   1  290.23   34.99
   4  -5  -1  222.85   27.37
   4  -5   0  399.84   27.14
  -4   5   0  374.92   25.25
  -4   5   0  447.60   44.85
   4  -5   0  397.37   30.23
   4  -5   1   63.75    6.85
  -4   5  -1   64.59    7.22
  -4   5  -1   85.39   13.97
   4  -5   1   52.99   11.71
  -4   5  -2   38.32    5.06
  -4   5  -2   29.69    5.55
   4  -5   2   23.08   12.40
  -4   5  -3   76.97   10.99
  -4   5  -3   91.86   15.10
   4  -5   3   46.45   12.95
  -4   5  -4   33.04    6.68
  -4   5  -4   18.19    5.14
   4  -5   4   30.89   11.80
  -4   5  -5   41.91   10.93
  -4   5  -5   60.79   11.27
   4  -5   5   42.36    9.77
  -4   5  -6   30.02    8.13
   4  -5   6   52.57   12.32
   4  -5   6   37.83    9.36
  -4   5  -7   54.70   13.45
   4  -5   7   72.88   13.19
   4  -5   7   77.69   13.85
  -4   5  -8   52.72   11.17
   4  -5   8   16.07    7.99
   4  -5   8   26.39   10.56
   4  -4 -10   58.12   13.11
  -4   4  10   42.44   13.49
   4  -4 -10   21.10    8.67
   4  -4  -9  142.48   20.62
  -4   4   9  205.14   28.88
   4  -4  -9  144.37   20.84
   4  -4  -8   50.37   10.59
  -4   4   8   51.16   10.80
   4  -4  -8   47.39   10.28
   4  -4  -7   83.16   15.83
  -4   4   7   62.09   10.77
  -4   4   7   75.58   14.28
   4  -4  -7   71.16   14.52
   4  -4  -6  129.35   18.64
  -4   4   6  149.46   18.99
  -4   4   6  150.80   21.07
   4  -4  -6  147.12   20.58
   4  -4  -5  118.98   13.69
  -4   4   5  142.14   14.14
  -4   4   5  149.90   16.72
   4  -4  -5  127.76   16.21
   4  -4  -4  105.61   10.36
  -4   4   4  111.79    8.46
  -4   4   4  153.94   10.98
  -4   4   4  131.50   11.35
   4  -4  -4  157.06   14.91
   4  -4  -3   20.67    4.86
  -4   4   3    9.85    3.22
   4  -4  -3   14.77    3.20
  -4   4   3    6.32    4.38
   4  -4  -3   31.09    7.94
   4  -4  -2  182.86   21.05
  -4   4   2  161.24   18.18
   4  -4  -2  147.02   16.56
  -4   4   2  149.67   17.96
   4  -4  -2  164.92   20.11
   4  -4  -1  273.17   19.80
  -4   4   1  273.15   19.61
   4  -4  -1  287.86   20.81
  -4   4   1  272.67   26.92
   4  -4  -1  233.62   19.52
   4  -4   0  144.67   10.98
  -4   4   0   85.31    6.69
  -4   4   0  113.03    9.13
  -4   4   0  137.30   18.75
   4  -4   0  164.99   15.36
   4  -4   1   43.60    5.39
  -4   4  -1   57.30    6.65
  -4   4  -1   85.63   10.56
  -4   4  -1   86.66   14.49
   4  -4   1   81.67   14.76
  -4   4  -2  132.30   15.59
  -4   4  -2  149.03   25.00
   4  -4   2  111.21   16.07
  -4   4  -3  205.86   15.44
  -4   4  -3  229.35   20.24
   4  -4   3  205.68   16.93
  -4   4  -4   16.27    3.36
  -4   4  -4    8.06    5.27
   4  -4   4   51.89   12.99
  -4   4  -5  150.67   13.82
   4  -4   5  116.84   20.93
   4  -4   5  121.72   21.20
  -4   4  -6  111.39   19.42
   4  -4   6   88.43   17.59
   4  -4   6   78.89   16.25
  -4   4  -7   92.13   22.11
   4  -4   7  102.98   17.27
   4  -4   7  107.01   15.66
  -4   4  -8   59.60   14.26
   4  -4   8   98.25   18.99
   4  -4   8   74.23   12.68
  -4   4  -9    8.31    5.79
   4  -4   9   13.97    9.35
   4  -3 -11   12.43    6.98
  -4   3  11   55.71   10.26
  -4   3  11   54.15   11.02
   4  -3 -11   22.52    8.00
   4  -3 -10  146.09   19.09
  -4   3  10  128.41   15.33
  -4   3  10  154.14   19.53
   4  -3 -10  147.15   17.56
   4  -3  -9  155.85   18.02
  -4   3   9  131.61   14.86
  -4   3   9  141.77   17.18
   4  -3  -9  180.09   20.12
   4  -3  -8   97.34   17.40
  -4   3   8   58.40   10.20
  -4   3   8   64.30   12.22
   4  -3  -8  117.34   19.23
   4  -3  -7  195.40   20.84
  -4   3   7  170.19   17.13
  -4   3   7  146.47   16.66
   4  -3  -7  197.96   20.85
   4  -3  -6  189.55   15.38
  -4   3   6  249.80   17.60
  -4   3   6  274.91   20.72
   4  -3  -6  173.42   14.83
   4  -3  -5  513.82   33.78
  -4   3   5  430.28   27.57
  -4   3   5  426.95   28.55
   4  -3  -5  529.18   35.13
   4  -3  -4  505.25   36.14
  -4   3   4  408.19   28.78
   4  -3  -4  393.53   27.75
  -4   3   4  415.67   30.35
   4  -3  -4  541.44   39.59
   4  -3  -3  464.45   27.35
  -4   3   3  486.77   28.26
   4  -3  -3  440.03   25.72
  -4   3   3  446.06   26.89
   4  -3  -3  483.19   30.88
   4  -3  -2  588.31   34.09
  -4   3   2  700.00   40.05
   4  -3  -2  553.34   32.08
  -4   3   2  693.84   40.71
   4  -3  -1  467.68   27.17
  -4   3   1  517.83   29.90
  -4   3   1  535.07   31.09
  -4   3   1  519.93   33.15
   4  -3  -1  451.47   28.45
   4  -3   0  205.86   12.61
  -4   3   0  224.12   13.50
  -4   3   0  245.43   15.20
  -4   3   0  272.77   24.94
   4  -3   0  235.23   16.74
  -4   3  -1  134.35    8.13
  -4   3  -1  144.51    9.89
  -4   3  -1  188.20   24.84
   4  -3   1  147.55   13.52
  -4   3  -2  140.93   11.72
  -4   3  -2  162.97   14.56
   4  -3   2  106.39   12.38
  -4   3  -3  707.38   44.97
  -4   3  -3  781.63   50.60
   4  -3   3  649.38   43.25
  -4   3  -4  159.02   12.69
  -4   3  -4  187.64   15.12
   4  -3   4  226.92   19.66
  -4   3  -5  137.08   14.33
   4  -3   5  204.25   22.56
   4  -3   5  203.45   23.26
  -4   3  -6  130.26   20.76
   4  -3   6  120.60   20.34
   4  -3   6  118.32   20.51
  -4   3  -7  153.16   17.35
   4  -3   7  133.73   15.74
  -4   3  -8   20.77    5.85
   4  -3   8   10.50    6.90
   4  -3   8   10.87    6.33
  -4   3  -9   29.90   12.38
   4  -3   9   26.13    8.98
   4  -2 -12  111.97   22.08
  -4   2  12   72.46   15.23
   4  -2 -11  104.78   15.65
  -4   2  11  100.90   15.15
  -4   2  11   94.74   15.85
   4  -2 -10   41.95   10.45
  -4   2  10   13.38    5.00
  -4   2  10   25.08    6.94
   4  -2 -10   22.31    5.43
   4  -2  -9  364.39   30.05
  -4   2   9  383.60   29.81
  -4   2   9  374.18   29.88
   4  -2  -9  317.34   24.89
   4  -2  -8  101.21   12.25
  -4   2   8  147.25   15.58
  -4   2   8  114.94   13.42
   4  -2  -8  137.96   15.41
   4  -2  -7  281.85   32.16
  -4   2   7  286.58   32.07
  -4   2   7  271.83   31.06
   4  -2  -7  305.91   34.64
   4  -2  -6  128.98   12.20
  -4   2   6  114.66    9.95
  -4   2   6  119.34   12.25
   4  -2  -6  104.11   10.35
   4  -2  -5  272.63   17.40
  -4   2   5  351.00   21.42
  -4   2   5  301.34   18.96
   4  -2  -5  248.45   16.72
   4  -2  -4  418.68   16.89
  -4   2   4  429.80   16.65
  -4   2   4  450.58   18.17
   4  -2  -4  397.80   17.68
   4  -2  -3  259.26   11.03
  -4   2   3  343.25   14.00
  -4   2   3  341.31   14.34
   4  -2  -3  274.97   14.06
   4  -2  -2   44.62    4.04
  -4   2   2   48.45    4.10
  -4   2   2   47.82    5.21
  -4   2   2   68.60    5.74
   4  -2  -2   42.16    7.42
   4  -2  -1  278.75   11.18
  -4   2   1  240.58    9.52
  -4   2   1  234.50   10.45
  -4   2   1  269.33   16.85
   4  -2  -1  257.25   13.44
   4  -2   0  302.83   13.41
  -4   2   0  390.01   14.03
  -4   2   0  415.85   16.54
  -4   2   0  466.82   24.48
   4  -2   0  388.75   19.22
   4  -2   1  302.64   11.93
  -4   2  -1  401.96   13.88
  -4   2  -1  456.23   17.84
  -4   2  -1  399.36   20.52
   4  -2   1  364.24   17.46
  -4   2  -2  171.11    9.73
  -4   2  -2  147.92    8.48
  -4   2  -2  188.31   13.29
  -4   2  -2  220.22   25.22
   4  -2   2  256.19   20.09
  -4   2  -3  361.49   26.52
  -4   2  -3  404.47   30.19
   4  -2   3  390.19   31.10
  -4   2  -4   82.80   11.28
   4  -2   4   75.34   12.39
   4  -2   4   81.21   12.99
  -4   2  -5  134.23   11.27
   4  -2   5  167.37   15.84
   4  -2   5  132.38   13.69
  -4   2  -6   24.08    6.96
   4  -2   6   54.44   10.82
   4  -2   6   55.52   10.05
  -4   2  -7   53.83   10.65
   4  -2   7   12.28    8.97
   4  -2   7   15.46    7.17
  -4   2  -8   71.99   14.78
   4  -2   8   69.18   15.09
   4  -2   8   52.70   11.59
  -4   2  -9   44.44   15.68
   4  -2   9   79.79   16.68
   4  -2   9   60.36   11.30
   4  -1 -12   77.91   12.36
  -4   1  12  116.54   17.88
  -4   1  12  119.00   18.10
   4  -1 -11  176.34   23.00
  -4   1  11  184.78   23.61
  -4   1  11  173.52   22.30
   4  -1 -10  109.67   19.33
  -4   1  10   70.08   12.85
  -4   1  10   88.56   17.11
   4  -1 -10   84.35   14.63
   4  -1  -9   60.36    9.90
  -4   1   9   56.56    9.19
  -4   1   9   71.16   11.66
   4  -1  -9   68.60   10.53
   4  -1  -8   43.65    6.28
  -4   1   8   48.39    7.45
  -4   1   8   35.47    5.98
   4  -1  -8   52.63    6.46
   4  -1  -7  221.71   18.06
  -4   1   7  221.92   17.63
  -4   1   7  250.21   19.48
   4  -1  -7  199.77   15.98
   4  -1  -6  696.97   41.05
  -4   1   6  709.07   41.63
  -4   1   6  668.31   39.18
   4  -1  -6  640.17   37.66
   4  -1  -5  279.58   12.42
  -4   1   5  342.42   14.89
  -4   1   5  315.64   13.59
   4  -1  -5  271.77   12.39
   4  -1  -4  402.47   34.10
  -4   1   4  422.22   35.80
  -4   1   4  414.08   35.09
   4  -1  -4  367.45   31.66
   4  -1  -3 1650.75   65.24
  -4   1   3 1865.25   73.81
  -4   1   3 1938.64   65.26
   4  -1  -3 1969.81   67.11
   4  -1  -2  684.28   28.09
  -4   1   2  442.20   36.71
  -4   1   2  522.94   22.81
  -4   1   2  513.18   22.90
   4  -1  -2  700.06   31.39
   4  -1  -1  276.39   23.41
  -4   1   1  302.78   25.31
  -4   1   1  349.64   29.82
  -4   1   1  379.11   34.68
   4  -1  -1  349.52   32.37
   4  -1   0  436.25   36.58
  -4   1   0  459.66   38.03
  -4   1   0  496.18   18.77
  -4   1   0  512.48   28.84
   4  -1   0  479.70   41.36
   4  -1   1  579.96   20.06
  -4   1  -1  673.16   22.95
  -4   1  -1  674.48   24.75
  -4   1  -1  715.56   31.20
   4  -1   1  747.23   30.72
  -4   1  -2  541.72   18.50
  -4   1  -2  536.28   18.59
  -4   1  -2  570.48   22.17
  -4   1  -2  606.24   23.09
   4  -1   2  791.41   31.57
  -4   1  -3  125.36    9.03
  -4   1  -3  155.82   11.46
  -4   1  -3  129.67   11.42
   4  -1   3  142.71   13.31
   4  -1   3  134.56   12.23
  -4   1  -4  197.57   21.54
  -4   1  -4  227.04   24.83
  -4   1  -4  226.51   25.86
   4  -1   4  162.24   19.49
   4  -1   4  181.46   22.17
  -4   1  -5  158.51   11.14
   4  -1   5  161.71   15.81
   4  -1   5  164.07   14.72
  -4   1  -6  281.29   21.74
  -4   1  -6  333.00   27.40
   4  -1   6  333.09   28.94
   4  -1   6  299.09   25.15
  -4   1  -7  156.09   16.62
   4  -1   7  140.05   18.01
   4  -1   7  124.37   21.68
  -4   1  -8   53.16   11.46
   4  -1   8   54.81   13.54
   4  -1   8   49.45   10.47
  -4   1  -9   47.32   12.98
   4  -1   9   42.99   14.91
   4  -1   9   36.37   11.34
   4   0 -13   12.64    6.25
  -4   0  13   27.32   10.25
  -4   0  13   22.92    8.34
   4   0 -12   21.45    7.01
  -4   0  12   16.54    5.98
  -4   0  12    9.24    6.84
   4   0 -11   32.63    8.44
  -4   0  11   44.18    9.89
  -4   0  11   39.11    8.34
   4   0 -10  165.73   16.44
  -4   0  10  116.55   18.80
  -4   0  10  124.92   20.42
   4   0 -10  121.78   18.79
   4   0  -9   59.94    8.29
  -4   0   9   92.46   11.03
  -4   0   9  102.27   12.44
   4   0  -9   45.49    5.78
   4   0  -8  663.18   43.00
  -4   0   8  749.80   48.45
  -4   0   8  724.08   46.63
   4   0  -8  606.31   38.50
   4   0  -7  633.88   44.75
  -4   0   7  851.89   59.99
  -4   0   7  730.30   51.29
   4   0  -7  772.59   53.89
   4   0  -6  608.19   35.72
  -4   0   6  548.67   33.16
  -4   0   6  543.45   32.04
   4   0  -6  610.79   35.69
   4   0  -5  449.50   18.19
  -4   0   5  545.74   21.79
  -4   0   5  532.87   19.98
   4   0  -5  414.53   16.92
   4   0  -4  702.98   29.31
  -4   0   4  463.29   39.23
  -4   0   4  474.35   39.80
   4   0  -4  699.78   30.29
   4   0  -3  199.45   17.89
  -4   0   3  267.03   23.37
  -4   0   3  285.07   24.24
   4   0  -3  206.45   18.98
   4   0  -2  696.19   28.87
  -4   0   2  828.35   34.63
  -4   0   2  771.70   37.89
   4   0  -2  752.12   32.40
   4   0  -1  134.98   16.71
  -4   0   1  192.71   16.56
  -4   0   1  207.86   18.88
  -4   0   1  243.53   25.66
   4   0   0  798.15   32.55
  -4   0   0  815.28   32.51
  -4   0   0  941.94   38.86
  -4   0   0  883.35   42.96
   4   0   0  975.74   41.22
  -4   0  -1  428.13   15.34
  -4   0  -1  527.79   19.41
  -4   0  -1  475.26   18.39
   4   0   1  433.50   19.20
  -4   0  -2  204.69   11.94
  -4   0  -2  253.38   10.40
  -4   0  -2  278.36   13.22
   4   0   2  173.69   10.41
   4   0   2  197.04   13.21
  -4   0  -3   82.92   13.04
  -4   0  -3  140.11   11.02
  -4   0  -3  152.81   12.95
   4   0   3  129.11   11.60
   4   0   3  174.62   16.28
  -4   0  -4  265.19   30.02
  -4   0  -4  394.90   25.50
  -4   0  -4  416.16   27.83
   4   0   4  377.87   26.00
   4   0   4  345.97   26.47
  -4   0  -5  130.26   13.39
  -4   0  -5  141.54   15.49
   4   0   5   68.96   10.32
   4   0   5   77.59   10.54
  -4   0  -6  143.98   11.88
  -4   0  -6  157.48   14.14
   4   0   6  162.58   15.93
   4   0   6  148.25   14.85
  -4   0  -7   26.82    5.32
  -4   0  -7   30.87    8.30
   4   0   7   18.22    9.85
   4   0   7   28.47    8.83
  -4   0  -8   39.83    8.47
   4   0   8   31.25   10.09
   4   0   8   42.58    9.11
  -4   0  -9   37.40   11.91
   4   0   9   27.41   12.17
   4   0   9   33.03    9.49
   4   1 -13   21.09    9.43
  -4  -1  13   10.51    7.35
  -4  -1  13   12.90    9.09
   4   1 -12  161.19   19.60
  -4  -1  12  195.77   23.40
  -4  -1  12  176.24   21.25
   4   1 -11  161.36   18.49
  -4  -1  11  156.09   18.26
  -4  -1  11  175.48   20.13
   4   1 -10   89.10   13.12
  -4  -1  10   85.81   13.06
  -4  -1  10   99.96   14.46
   4   1 -10   91.33   11.77
   4   1  -9  513.62   36.01
  -4  -1   9  550.14   39.11
  -4  -1   9  481.72   33.47
   4   1  -9  539.55   36.15
   4   1  -8 1113.78   70.50
  -4  -1   8 1008.99   64.37
  -4  -1   8  968.62   61.05
   4   1  -8 1213.80   79.95
  -4  -1   8  820.82   51.29
   4   1  -7   11.32    6.41
  -4  -1   7   13.94    7.76
  -4  -1   7   16.58    5.29
   4   1  -7    6.46    3.52
  -4  -1   7    5.17    3.42
   4   1  -6  845.64   30.91
  -4  -1   6  707.12   27.45
  -4  -1   6  703.52   25.31
   4   1  -6  769.87   28.25
   4   1  -5  259.22   12.06
  -4  -1   5  277.91   13.72
  -4  -1   5  255.97   11.05
   4   1  -5  279.44   12.90
   4   1  -4  775.82   32.88
  -4  -1   4  790.50   31.90
   4   1  -4  693.04   28.13
   4   1  -4  790.15   33.14
   4   1  -3  788.87   32.82
  -4  -1   3  764.22   32.55
  -4  -1   3  711.18   32.54
   4   1  -3  663.38   26.74
   4   1  -3  710.19   29.99
   4   1  -2  608.08   27.61
  -4  -1   2  767.87   32.84
  -4  -1   2  684.20   32.22
   4   1  -2  586.43   23.72
   4   1  -2  666.85   28.94
   4   1  -1  328.41   29.63
  -4  -1   1  352.78   30.50
  -4  -1   1  341.37   30.03
   4   1  -1  319.99   26.72
   4   1  -1  360.29   31.65
   4   1   0  293.90   12.18
  -4  -1   0  285.03   12.92
  -4  -1   0  351.77   14.07
   4   1   0  300.21   11.46
   4   1   0  316.70   14.70
  -4  -1  -1  362.49   14.82
  -4  -1  -1  326.70   13.77
   4   1   1  374.47   15.29
   4   1   1  350.87   15.92
  -4  -1  -2  413.53   25.21
  -4  -1  -2  432.03   26.53
   4   1   2  349.77   21.51
   4   1   2  356.21   23.00
  -4  -1  -3  206.25   15.67
  -4  -1  -3  248.40   19.22
   4   1   3  284.24   22.23
   4   1   3  286.33   22.61
  -4  -1  -4  606.87   40.81
  -4  -1  -4  642.73   44.01
   4   1   4  612.56   41.89
   4   1   4  544.87   38.14
  -4  -1  -5   15.49    4.72
  -4  -1  -5   13.79    7.15
   4   1   5   41.20    8.59
   4   1   5   57.70   10.57
  -4  -1  -6  196.41   19.21
  -4  -1  -6  215.53   22.07
   4   1   6  272.98   27.36
   4   1   6  234.51   24.38
  -4  -1  -7  181.07   22.66
  -4  -1  -7  197.04   25.00
   4   1   7  196.49   25.97
   4   1   7  145.89   19.64
  -4  -1  -8  120.07   17.47
   4   1   8  126.60   20.13
   4   1   8   95.60   14.77
   4   2 -13   67.91   12.35
  -4  -2  13  139.53   24.50
  -4  -2  13   95.83   17.23
   4   2 -12  112.28   14.85
  -4  -2  12   90.69   14.34
  -4  -2  12   83.71   11.48
   4   2 -11   91.28   16.55
  -4  -2  11   71.92   14.17
  -4  -2  11   70.27   12.27
   4   2 -10  454.93   36.72
  -4  -2  10  520.73   43.16
  -4  -2  10  488.09   38.62
   4   2  -9  128.85   14.58
  -4  -2   9   84.54   13.18
  -4  -2   9   82.66    9.75
   4   2  -9  105.56   10.51
   4   2  -8  451.46   30.34
  -4  -2   8  528.73   34.15
   4   2  -8  395.70   25.29
  -4  -2   8  422.77   26.85
   4   2  -7  100.94   11.94
  -4  -2   7  124.99   12.08
  -4  -2   7  113.34    9.45
   4   2  -7   73.08    6.99
  -4  -2   7   95.69    8.06
   4   2  -6  686.74   42.45
  -4  -2   6  727.45   43.49
  -4  -2   6  618.39   35.59
   4   2  -6  585.58   33.68
   4   2  -6  641.31   37.44
   4   2  -5  399.13   27.59
  -4  -2   5  409.60   18.17
  -4  -2   5  393.04   14.40
   4   2  -5  315.97   11.87
   4   2  -5  385.24   16.82
   4   2  -4  187.09   19.04
  -4  -2   4  270.25   10.64
   4   2  -4  163.53    6.93
   4   2  -4  201.37   10.77
   4   2  -3  297.86   15.96
  -4  -2   3  429.26   18.65
  -4  -2   3  366.45   14.81
   4   2  -3  293.53   10.74
   4   2  -3  310.37   13.88
   4   2  -2  627.71   23.56
  -4  -2   2  714.65   26.80
  -4  -2   2  686.06   23.49
   4   2  -2  602.32   20.63
   4   2  -2  725.46   27.67
   4   2  -1  839.56   30.18
  -4  -2   1  963.86   35.45
   4   2  -1  772.24   26.12
   4   2  -1  804.28   27.72
   4   2  -1  863.24   31.72
  -4  -2   0  809.80   30.15
  -4  -2   0  823.42   30.35
   4   2   0  756.24   25.83
   4   2   0  783.78   27.40
   4   2   0  822.11   30.76
  -4  -2  -1  584.29   34.73
  -4  -2  -1  603.51   36.02
   4   2   1  552.89   32.19
   4   2   1  630.46   36.40
   4   2   1  571.62   34.32
  -4  -2  -2  901.83   62.91
  -4  -2  -2  953.76   67.21
   4   2   2  838.77   58.62
   4   2   2  749.05   53.42
  -4  -2  -3  139.52   11.91
  -4  -2  -3  138.12   11.70
   4   2   3  191.34   14.62
   4   2   3  216.46   18.72
  -4  -2  -4  200.15   20.25
  -4  -2  -4  223.92   22.90
   4   2   4  162.77   17.86
   4   2   4  134.68   15.69
  -4  -2  -5  314.24   25.84
  -4  -2  -5  251.05   20.65
   4   2   5  206.18   17.93
   4   2   5  181.71   16.44
  -4  -2  -6  219.61   23.26
  -4  -2  -6  232.75   24.82
   4   2   6  192.92   21.90
   4   2   6  185.20   20.54
  -4  -2  -7   70.96   11.01
  -4  -2  -7   60.45   11.08
   4   2   7   39.94    9.79
   4   2   7   50.65   10.97
  -4  -2  -8   10.87    5.57
  -4  -2  -8   10.57    6.50
   4   2   8    1.83    5.52
   4   3 -13   39.55   12.27
  -4  -3  13   53.65   13.30
  -4  -3  13   33.65   11.35
   4   3 -12   17.95    7.24
  -4  -3  12   23.82    7.23
   4   3 -11  188.52   26.53
  -4  -3  11  103.04   17.27
   4   3 -10  187.78   22.42
  -4  -3  10  249.72   22.08
  -4  -3  10  184.70   15.76
  -4  -3   9  225.82   25.60
  -4  -3   9  177.72   18.00
   4   3  -9  254.75   24.35
   4   3  -8  290.57   26.93
  -4  -3   8  265.66   23.50
  -4  -3   8  231.17   16.48
   4   3  -8  249.09   17.36
   4   3  -7  236.25   30.58
  -4  -3   7  267.41   32.51
  -4  -3   7  242.34   26.85
   4   3  -7  186.24   20.67
   4   3  -7  209.30   23.43
   4   3  -6  476.00   41.89
  -4  -3   6  552.60   40.47
  -4  -3   6  475.52   33.00
   4   3  -6  427.91   29.90
   4   3  -6  422.67   30.41
   4   3  -5  601.84   35.99
  -4  -3   5  678.27   41.13
  -4  -3   5  491.75   27.90
   4   3  -5  546.77   31.03
   4   3  -5  542.77   32.05
   4   3  -4  704.23   41.45
  -4  -3   4  776.11   45.88
  -4  -3   4  645.13   36.15
   4   3  -4  741.16   41.56
   4   3  -4  734.99   42.70
   4   3  -3  617.88   36.78
  -4  -3   3  678.76   40.57
   4   3  -3  612.95   34.33
   4   3  -3  596.48   33.41
   4   3  -3  599.11   35.40
   4   3  -2 1372.04   78.39
  -4  -3   2 1525.56   86.80
   4   3  -2 1059.97   59.19
   4   3  -2 1441.17   82.19
  -4  -3   1  846.98   49.15
   4   3  -1  922.72   51.68
   4   3  -1  688.58   38.85
   4   3  -1  990.05   57.87
  -4  -3   0  122.09   11.43
  -4  -3   0  119.05   10.78
   4   3   0   44.57    4.70
   4   3   0   42.42    4.54
  -4  -3  -1  359.33   24.72
  -4  -3  -1  362.93   25.42
   4   3   1  332.01   36.29
   4   3   1  342.56   23.51
   4   3   1  316.51   36.13
  -4  -3  -2  191.34   16.10
  -4  -3  -2  183.64   15.36
   4   3   2  121.22   10.26
   4   3   2   85.76   11.09
  -4  -3  -3  180.44   18.64
  -4  -3  -3  230.09   23.95
   4   3   3  219.84   22.11
   4   3   3  186.92   20.22
  -4  -3  -4  277.09   22.82
  -4  -3  -4  305.24   24.92
   4   3   4  303.54   23.94
   4   3   4  289.41   23.83
  -4  -3  -5  106.66   19.08
  -4  -3  -5   65.17   11.60
   4   3   5   68.31   11.77
   4   3   5   80.32   15.72
  -4  -3  -6   45.14    9.44
  -4  -3  -6   21.26    5.96
   4   3   6   51.03   10.05
   4   3   6   57.38   13.04
  -4  -3  -7   72.08   12.92
  -4  -3  -7   87.03   14.89
   4   3   7  107.99   18.72
   4   3   7  110.85   19.51
   4   4 -13  147.93   31.43
  -4  -4  13  150.84   28.55
  -4  -4  13  149.90   27.26
   4   4 -12   26.36    7.21
  -4  -4  12   73.43   16.06
  -4  -4  12   66.70   11.61
   4   4 -11  130.69   22.95
  -4  -4  11  131.33   19.76
  -4  -4  11  117.76   15.72
   4   4 -10  168.91   23.03
  -4  -4  10  207.86   24.70
  -4  -4  10  190.08   20.20
   4   4  -9  393.64   49.99
  -4  -4   9  446.23   36.60
  -4  -4   9  383.33   28.96
   4   4  -9  326.94   27.92
   4   4  -8  455.31   53.85
  -4  -4   8  577.50   57.18
  -4  -4   8  511.55   48.55
   4   4  -8  448.48   42.80
   4   4  -7  196.55   20.13
  -4  -4   7  275.48   21.91
  -4  -4   7  272.86   18.41
   4   4  -7  203.08   14.84
   4   4  -6  292.50   28.66
  -4  -4   6  405.26   30.65
  -4  -4   6  278.63   18.66
   4   4  -6  333.50   23.45
   4   4  -5  626.33   48.57
  -4  -4   5  605.46   40.83
   4   4  -5  616.55   39.42
   4   4  -4  341.26   35.91
  -4  -4   4  467.34   32.38
   4   4  -4  374.76   25.41
   4   4  -3  360.15   24.91
  -4  -4   3  433.54   30.34
   4   4  -3  331.99   37.05
  -4  -4   2   24.04    9.63
   4   4  -2   33.91    6.52
  -4  -4   1  718.03   47.69
  -4  -4   1  664.94   43.03
   4   4  -1  543.58   35.94
  -4  -4   0  271.68   21.97
  -4  -4   0  290.05   21.87
   4   4   0  271.49   18.18
   4   4   0  276.39   21.13
  -4  -4  -1  381.23   38.59
  -4  -4  -1  450.46   43.98
   4   4   1  462.80   43.90
   4   4   1  456.38   45.14
  -4  -4  -2  346.25   28.50
  -4  -4  -2  390.28   31.68
   4   4   2  343.21   27.11
   4   4   2  369.81   31.78
  -4  -4  -3  256.48   25.45
  -4  -4  -3  286.90   27.45
   4   4   3  239.72   22.47
   4   4   3  247.92   24.46
  -4  -4  -4  148.07   19.78
  -4  -4  -4  138.43   18.24
   4   4   4  154.87   19.78
   4   4   4  156.44   20.35
  -4  -4  -5  120.93   17.88
  -4  -4  -5  136.54   19.41
   4   4   5  121.27   17.14
   4   4   5  156.14   23.69
  -4  -4  -6   47.40   11.92
   4   4   6   51.25    9.86
   4   4   6   45.79   14.51
   4   5 -12   50.00   12.04
  -4  -5  12   81.33   18.53
   4   5 -11  178.02   27.77
  -4  -5  11  222.30   31.36
   4   5 -10   25.65    7.12
  -4  -5  10   37.16   11.74
   4   5  -9   23.81    7.41
  -4  -5   9  100.95   21.22
   4   5  -8   78.70   17.53
  -4  -5   8  103.60   20.06
   4   5  -8   64.15   12.30
  -4  -5   7  464.71   39.14
   4   5  -7  515.81   40.40
   4   5  -6  174.82   34.14
  -4  -5   6  127.46   19.20
   4   5  -6  160.53   20.94
   4   5  -5  238.08   24.58
  -4  -5   5  312.75   32.22
   4   5  -5  257.31   25.72
   4   5  -4  428.22   42.37
  -4  -5   4  433.68   43.20
   4   5  -4  397.11   39.13
  -4  -5   3  298.15   31.44
  -4  -5   3  250.14   25.48
   4   5  -3  281.41   28.69
  -4  -5   2  187.74   21.31
  -4  -5   2  192.42   20.77
   4   5  -2  226.58   23.65
  -4  -5   1  541.37   43.75
  -4  -5   1  510.01   40.61
   4   5  -1  390.67   32.64
  -4  -5   0  303.90   27.23
  -4  -5   0  326.34   26.34
   4   5   0  255.22   22.06
  -4  -5  -1  196.16   19.82
  -4  -5  -1  277.92   26.97
   4   5   1  226.21   22.56
  -4  -5  -2   92.65   16.00
  -4  -5  -2  142.85   16.50
   4   5   2   98.36   18.78
  -4  -5  -3  140.57   17.88
  -4  -5  -3  128.36   15.76
   4   5   3   95.14   12.76
  -4  -5  -4   44.40   10.89
  -4  -5  -4   64.14   10.65
   4   5   4   99.25   15.97
  -4  -5  -5  159.49   28.78
  -4  -5  -5  121.98   22.26
   4   5   5  166.22   30.44
   4   6 -11   14.91    6.05
  -4  -6  11   43.39   12.03
   4   6 -10   76.29   16.65
  -4  -6  10   77.22   13.69
   4   6  -9  150.36   27.97
  -4  -6   9  213.00   25.76
   4   6  -8  283.49   42.73
  -4  -6   8  311.65   39.33
   4   6  -8  243.72   34.35
   4   6  -7  364.41   38.19
  -4  -6   7  371.36   39.41
   4   6  -7  322.61   35.16
   4   6  -6  176.52   20.22
  -4  -6   6  203.45   23.81
   4   6  -6  131.17   24.02
   4   6  -5  116.68   20.81
  -4  -6   5  163.99   18.91
   4   6  -5  108.53   19.05
  -4  -6   4  301.54   30.55
  -4  -6   4  277.18   27.35
   4   6  -4  269.01   26.21
  -4  -6   3  398.25   63.64
  -4  -6   3  398.54   63.11
   4   6  -3  287.92   27.92
  -4  -6   2  184.40   19.84
  -4  -6   2  212.75   21.75
   4   6  -2  204.83   21.68
  -4  -6   1  219.40   24.92
  -4  -6   1  231.10   24.83
   4   6  -1  213.28   24.86
  -4  -6   0  192.98   26.40
  -4  -6   0  263.15   32.43
   4   6   0  270.97   34.05
  -4  -6  -1  196.71   22.97
  -4  -6  -1  266.58   29.90
  -4  -6  -2  161.73   24.08
  -4  -6  -2  132.72   18.51
   4   6   2  166.94   23.88
  -4  -6  -3   47.59   11.61
  -4  -6  -3   64.66   12.96
   4   6   3   39.36   11.67
   4   7  -9   47.33   10.93
  -4  -7   9  125.36   24.79
   4   7  -8   27.79    8.84
  -4  -7   8   26.95    8.67
   4   7  -7   33.57    9.09
  -4  -7   7   23.95    8.23
   4   7  -7   20.47    8.10
  -4  -7   6  159.55   24.08
  -4  -7   6  144.27   21.95
   4   7  -6  111.06   21.38
  -4  -7   5  191.59   28.24
  -4  -7   5  187.11   26.57
   4   7  -5  165.31   33.30
  -4  -7   4  103.85   17.17
  -4  -7   4  100.92   16.02
   4   7  -4   93.26   20.27
  -4  -7   3   96.89   16.04
  -4  -7   3   97.89   15.29
   4   7  -3   82.67   13.78
  -4  -7   2  134.59   21.33
  -4  -7   2  172.65   24.04
   4   7  -2  123.16   24.83
  -4  -7   1  114.49   17.90
  -4  -7   1  108.78   15.81
   4   7  -1  151.66   24.86
  -4  -7   0   94.96   16.46
  -4  -7   0  136.19   22.17
   4   7   0  156.42   28.42
  -5   7   2   26.18    8.58
   5  -7  -2   30.76   13.70
  -5   7   1   59.54   16.01
   5  -7  -1   26.66   11.21
  -5   7   0   18.43    7.19
   5  -7   0   45.42   16.49
  -5   7  -1   42.94   14.10
   5  -7   1   46.53   12.16
  -5   7  -2    0.29    4.44
   5  -7   2    6.48    7.99
   5  -6  -6    2.31    5.25
  -5   6   6   36.79   11.15
   5  -6  -6   11.38   10.21
   5  -6  -5   26.37    9.60
  -5   6   5   26.78    9.24
   5  -6  -5   15.26    8.53
   5  -6  -4   92.46   13.86
  -5   6   4  125.31   18.68
   5  -6  -4   83.19   14.53
   5  -6  -3   25.64    5.93
  -5   6   3   15.24    6.22
   5  -6  -3   25.17    7.75
   5  -6  -2   20.22    5.18
  -5   6   2   21.37    7.14
   5  -6  -2   47.81   13.29
  -5   6   1  135.08   24.26
   5  -6  -1   98.19   14.90
  -5   6   0  107.46   20.65
   5  -6   0  132.11   20.02
  -5   6  -1    9.96    4.68
   5  -6   1   14.95    8.74
  -5   6  -2   10.35    4.97
  -5   6  -3   24.25    8.45
  -5   6  -3   36.11    9.48
   5  -6   3   37.81   10.98
  -5   6  -4   31.90   10.08
  -5   6  -4   49.52   10.04
   5  -6   4   35.92   14.14
  -5   6  -5    5.90    4.23
  -5   6  -5    0.71    5.38
   5  -6   5   13.53    9.17
   5  -5  -8   17.22    7.67
  -5   5   8   22.44    7.30
   5  -5  -8   53.15   12.68
   5  -5  -7   25.99    8.13
  -5   5   7    6.40    7.00
   5  -5  -7   12.60    9.89
   5  -5  -6   32.34    8.22
  -5   5   6   24.20    7.42
   5  -5  -6   18.54    7.90
   5  -5  -5   37.17    7.97
  -5   5   5   31.67    6.78
   5  -5  -5   34.92   11.49
   5  -5  -4  124.09   14.43
  -5   5   4  159.03   18.32
   5  -5  -4  108.06   19.66
   5  -5  -3   14.59    5.17
  -5   5   3    6.75    3.69
   5  -5  -3   36.43   12.42
   5  -5  -2   50.17    9.64
  -5   5   2   62.76   10.70
  -5   5   2   86.91   16.14
   5  -5  -2   58.95   13.99
   5  -5  -1   41.25    8.21
  -5   5   1   61.59   10.54
  -5   5   1   48.68   12.85
   5  -5  -1   62.20   15.59
  -5   5   0   35.57    6.57
  -5   5   0   33.49    9.31
   5  -5   0   41.66    9.59
  -5   5  -1   10.26    3.88
  -5   5  -1   18.53    5.27
   5  -5   1   12.76    8.88
  -5   5  -2   55.88   10.10
  -5   5  -2   42.13   10.92
   5  -5   2   56.89   16.79
  -5   5  -3    4.96    3.57
  -5   5  -3   15.41    4.78
   5  -5   3   18.16    7.69
  -5   5  -4   90.73   11.40
  -5   5  -4   84.95   12.23
   5  -5   4   72.27   16.45
  -5   5  -5   41.78    9.86
   5  -5   5   53.18   16.57
  -5   5  -6   41.43   16.19
   5  -5   6   55.41   13.76
   5  -5   6   60.19   13.97
   5  -4  -9   10.17    6.44
  -5   4   9   11.85    6.38
   5  -4  -9   11.24    8.70
   5  -4  -8   59.82   13.34
  -5   4   8   41.63    9.19
   5  -4  -8   70.72   12.81
   5  -4  -7   39.80    8.74
  -5   4   7   27.28    7.56
   5  -4  -7   41.11   10.36
   5  -4  -6  151.71   17.50
  -5   4   6  176.82   18.41
  -5   4   6  178.09   19.53
   5  -4  -6  211.53   24.92
   5  -4  -5   97.56   16.85
  -5   4   5   85.69   13.50
  -5   4   5   67.39   11.78
   5  -4  -5  105.72   18.45
   5  -4  -4  142.20   19.07
  -5   4   4  124.41   16.04
  -5   4   4  121.08   16.83
   5  -4  -4  166.93   23.65
   5  -4  -3  176.00   27.02
  -5   4   3  190.93   15.58
  -5   4   3  204.78   28.08
   5  -4  -3  192.76   19.68
   5  -4  -2  128.43   16.99
  -5   4   2  160.90   20.71
  -5   4   2  164.38   29.53
   5  -4  -2  144.30   20.51
   5  -4  -1   85.60    9.30
  -5   4   1  102.42   10.87
  -5   4   1   94.23   16.42
   5  -4  -1   96.01   15.13
   5  -4   0  116.19   14.93
  -5   4   0  203.30   17.22
  -5   4   0  198.59   25.47
   5  -4   0  177.02   29.13
  -5   4  -1   35.86    6.34
  -5   4  -1   32.90    8.67
   5  -4   1   31.19   13.55
  -5   4  -2  250.17   19.83
  -5   4  -2  286.18   36.61
   5  -4   2  214.80   19.63
  -5   4  -3  165.97   16.86
  -5   4  -3  156.70   17.37
   5  -4   3  141.07   16.57
  -5   4  -4   54.41   10.55
  -5   4  -4   69.89   13.80
   5  -4   4   53.19   13.21
  -5   4  -5   11.15    4.70
   5  -4   5   26.89    9.77
   5  -4   5   28.77   11.09
  -5   4  -6   23.65    7.53
   5  -4   6   38.36   10.48
  -5   4  -7   15.39    4.95
   5  -4   7   40.39   13.06
   5  -4   7   31.52   10.16
   5  -3 -10   37.50   12.24
  -5   3  10   52.42    9.75
  -5   3  10   45.95   15.31
   5  -3 -10   33.14   10.78
   5  -3  -9   69.44   14.52
  -5   3   9   93.63   11.89
  -5   3   9   87.03   11.51
   5  -3  -9   82.09   14.57
   5  -3  -8  119.95   14.42
  -5   3   8  104.43   17.46
  -5   3   8  121.70   14.67
   5  -3  -8  106.06   18.68
   5  -3  -7   92.91   16.88
  -5   3   7   57.32   10.63
  -5   3   7   63.85   13.33
   5  -3  -7   79.20   14.89
   5  -3  -6   32.86    7.99
  -5   3   6   55.62    8.56
  -5   3   6   80.48   12.68
   5  -3  -6   69.67   12.65
   5  -3  -5  143.44   15.39
  -5   3   5  187.37   18.77
  -5   3   5  253.42   26.02
   5  -3  -5  168.01   19.24
   5  -3  -4  166.20   12.74
  -5   3   4  211.41   15.67
  -5   3   4  212.27   16.47
   5  -3  -4  117.75   11.62
   5  -3  -3  232.71   17.01
  -5   3   3  262.78   18.59
  -5   3   3  306.81   32.49
   5  -3  -3  235.01   19.52
   5  -3  -2   57.83    5.63
  -5   3   2  100.56    8.40
  -5   3   2  108.04   15.84
   5  -3  -2   55.28    8.83
   5  -3  -1  125.25    9.56
  -5   3   1   71.86    6.02
  -5   3   1   98.77    8.50
  -5   3   1  141.57   20.13
   5  -3  -1  134.23   12.70
   5  -3   0  179.27   16.86
  -5   3   0  250.75   18.12
  -5   3   0  340.05   42.32
   5  -3   0  252.42   21.43
   5  -3   1   51.81    5.58
  -5   3  -1   75.52    7.55
  -5   3  -1  108.78   16.59
   5  -3   1   90.44   11.39
  -5   3  -2   43.61    6.96
  -5   3  -2   45.73    9.64
   5  -3   2   67.47   11.80
  -5   3  -3   56.76    9.72
  -5   3  -3   61.35   10.04
   5  -3   3   73.53   13.00
  -5   3  -4   29.67    7.83
   5  -3   4   43.92   12.13
  -5   3  -5  118.79   15.02
   5  -3   5   80.59   15.84
   5  -3   5  119.43   15.91
  -5   3  -6   26.92    7.93
   5  -3   6   31.80   10.52
   5  -3   6   27.37   11.87
  -5   3  -7   60.58   11.08
   5  -3   7   46.41   16.37
   5  -3   7   35.19   12.37
   5  -2 -11   54.85   11.37
  -5   2  11   55.89   10.75
  -5   2  11   70.36   12.63
   5  -2 -10   38.20    9.18
  -5   2  10   16.01    5.07
  -5   2  10    8.40    5.07
   5  -2 -10   23.29    6.72
   5  -2  -9   19.31    7.59
  -5   2   9   17.69    8.72
  -5   2   9   14.17    6.54
   5  -2  -9    5.35    5.17
   5  -2  -8   15.98    7.60
  -5   2   8   47.38    8.98
  -5   2   8   49.77   10.25
   5  -2  -8   22.25    7.60
   5  -2  -7  257.92   22.19
  -5   2   7  291.07   24.07
  -5   2   7  292.36   24.76
   5  -2  -7  242.93   20.65
   5  -2  -6  420.56   40.99
  -5   2   6  338.12   33.04
  -5   2   6  374.99   36.88
   5  -2  -6  388.06   38.35
   5  -2  -5   84.17    8.49
  -5   2   5  104.62    9.50
  -5   2   5   87.97    8.96
   5  -2  -5   84.93   10.08
   5  -2  -4   64.05    8.50
  -5   2   4   73.67   10.26
  -5   2   4   66.62    9.10
   5  -2  -4   58.94    9.31
   5  -2  -3 1241.54   82.06
  -5   2   3 1154.74   72.40
  -5   2   3 1101.00   80.99
   5  -2  -3 1321.29   88.95
   5  -2  -2   71.89    6.80
  -5   2   2   58.03    6.78
  -5   2   2   83.02   15.34
   5  -2  -2   60.58    8.39
   5  -2  -1  237.34   30.09
  -5   2   1  224.72   24.71
  -5   2   1  275.02   30.80
  -5   2   1  320.28   41.40
   5  -2  -1  293.33   33.76
   5  -2   0  167.42   23.51
  -5   2   0  209.99   23.07
  -5   2   0  248.23   27.92
  -5   2   0  287.16   36.11
   5  -2   0  198.11   24.86
   5  -2   1  314.80   34.19
  -5   2  -1  315.60   34.23
  -5   2  -1  399.17   26.59
  -5   2  -1  470.42   41.24
   5  -2   1  427.91   30.79
  -5   2  -2  150.36   10.08
  -5   2  -2  217.66   16.55
  -5   2  -2  199.24   15.97
   5  -2   2  231.95   21.63
  -5   2  -3  118.42   13.27
  -5   2  -3   93.31   12.00
   5  -2   3  101.35   12.79
  -5   2  -4  110.29   18.13
   5  -2   4   67.79   13.84
   5  -2   4  101.62   19.04
  -5   2  -5   74.17   14.07
   5  -2   5   66.34   13.56
   5  -2   5   61.70   13.10
  -5   2  -6   12.12    6.51
   5  -2   6   15.05    7.08
   5  -2   6    6.89    6.20
  -5   2  -7   35.57    8.89
   5  -2   7   34.17   11.98
   5  -2   7   43.92   11.50
   5  -1 -12    7.92    6.50
  -5   1  12   11.42    5.69
  -5   1  12   18.99    6.19
   5  -1 -11   63.52   12.88
  -5   1  11   69.54   11.37
  -5   1  11  109.55   16.68
   5  -1 -10   61.70   11.40
  -5   1  10   78.07   13.43
  -5   1  10   55.80   10.42
   5  -1 -10   54.33    9.55
   5  -1  -9  125.15   22.55
  -5   1   9  169.52   18.14
  -5   1   9  129.29   22.45
   5  -1  -9  112.53   19.59
   5  -1  -8  540.83   43.26
  -5   1   8  629.81   49.82
  -5   1   8  595.24   47.11
   5  -1  -8  523.54   41.48
   5  -1  -7  460.99   45.14
  -5   1   7  445.33   43.50
  -5   1   7  407.73   39.88
   5  -1  -7  396.86   38.71
   5  -1  -6  134.09   11.59
  -5   1   6  108.21   10.38
  -5   1   6   89.47    8.78
   5  -1  -6  125.41   11.28
   5  -1  -5  578.69   37.62
  -5   1   5  597.12   38.72
  -5   1   5  597.80   38.54
   5  -1  -5  617.11   40.79
   5  -1  -4   17.18    3.94
  -5   1   4   12.89    7.32
  -5   1   4    5.37    4.33
   5  -1  -4   44.54   12.07
   5  -1  -3  892.95   62.09
  -5   1   3 1044.25   72.75
  -5   1   3 1010.95   72.17
   5  -1  -3  800.93   57.11
   5  -1  -2  316.98   29.04
  -5   1   2  470.18   33.97
  -5   1   2  522.78   45.32
   5  -1  -2  450.09   34.33
   5  -1  -1  106.29   14.66
  -5   1   1  108.50    9.80
  -5   1   1  130.73   20.98
   5  -1  -1  100.58   11.27
   5  -1   0  119.98   15.74
  -5   1   0   74.92    6.33
  -5   1   0  116.85   11.17
  -5   1   0  133.00   20.41
   5  -1   0  113.70   11.29
  -5   1  -1  137.75   15.33
  -5   1  -1  155.22   18.29
  -5   1  -1  187.13   22.03
   5  -1   1  154.75   19.87
  -5   1  -2  139.83    9.94
  -5   1  -2  173.91   13.89
  -5   1  -2  167.73   14.03
   5  -1   2  104.59   13.05
  -5   1  -3   69.79    7.24
  -5   1  -3   86.88   10.67
   5  -1   3   94.84   12.92
   5  -1   3   74.42   11.25
  -5   1  -4   45.14    8.47
   5  -1   4   59.09   11.07
   5  -1   4   53.91   10.68
  -5   1  -5  125.33   15.34
   5  -1   5   78.07   14.91
   5  -1   5  103.13   18.03
  -5   1  -6   39.01    9.08
   5  -1   6  110.77   15.91
   5  -1   6   53.56   11.26
   5  -1   7  130.13   20.65
   5  -1   7  103.58   16.69
   5   0 -12  113.27   19.56
  -5   0  12  142.00   23.63
  -5   0  12  109.75   18.57
   5   0 -11  109.75   15.09
  -5   0  11  118.94   17.06
  -5   0  11  103.82   13.84
   5   0 -10  124.51   16.36
  -5   0  10  180.99   20.46
  -5   0  10  185.26   20.32
   5   0 -10  154.97   17.06
   5   0  -9  365.56   29.28
  -5   0   9  371.34   29.69
  -5   0   9  374.30   29.47
   5   0  -9  400.10   30.78
   5   0  -8  130.86   14.79
  -5   0   8  117.37   14.05
  -5   0   8   90.85   10.91
   5   0  -8  172.98   18.10
   5   0  -7   47.57    6.40
  -5   0   7  127.71   11.41
  -5   0   7  109.32    9.58
   5   0  -7   49.77    6.89
   5   0  -6  210.27   24.49
  -5   0   6  142.26   17.47
  -5   0   6  161.30   18.64
   5   0  -6  189.97   22.83
   5   0  -5  566.25   40.38
  -5   0   5  650.45   46.18
  -5   0   5  658.55   46.16
   5   0  -5  610.44   43.80
   5   0  -4   92.81   12.50
  -5   0   4   55.32    7.23
  -5   0   4   64.05    6.75
   5   0  -4   57.24    7.86
   5   0  -3  124.02   16.33
  -5   0   3   69.79    8.26
  -5   0   3   72.42   11.96
   5   0  -3  111.09   10.70
   5   0  -2  185.18   16.22
  -5   0   2  205.63   17.12
  -5   0   2  174.46   18.21
   5   0  -2  213.44   19.54
   5   0  -1  407.33   32.30
  -5   0   1  428.01   31.75
  -5   0   1  426.96   34.97
   5   0   0  381.62   27.19
  -5   0   0  391.71   28.59
  -5   0   0  407.84   29.30
   5   0   0  380.95   28.82
  -5   0  -1  265.47   29.42
  -5   0  -1  256.68   29.21
  -5   0  -1  291.26   32.61
   5   0   1  277.12   32.30
  -5   0  -2  141.82   10.69
   5   0   2  139.35   12.78
   5   0   2  138.95   12.91
  -5   0  -3  168.23   16.56
  -5   0  -3  205.10   21.19
   5   0   3  208.30   21.52
   5   0   3  170.60   19.08
  -5   0  -4  274.13   20.93
  -5   0  -4  300.39   24.71
   5   0   4  293.65   24.70
   5   0   4  339.29   28.97
  -5   0  -5   38.19    8.20
   5   0   5   28.50    8.86
   5   0   5   17.74    8.53
  -5   0  -6   64.19   12.99
   5   0   6   51.01   11.49
   5   0   6   42.21    9.96
  -5   0  -7   84.52   14.66
   5   0   7   61.98   12.93
   5   0   7   60.43   11.21
   5   1 -12   40.06    9.97
  -5  -1  12   30.69    9.16
  -5  -1  12   27.49    7.70
   5   1 -11   33.27    7.98
  -5  -1  11   30.36    9.12
  -5  -1  11   49.69   10.65
   5   1 -10  104.36   18.38
  -5  -1  10   82.10   14.67
  -5  -1  10   64.75   11.70
   5   1 -10   92.37   15.37
   5   1  -9   56.63   10.45
  -5  -1   9   85.18   16.27
  -5  -1   9   58.47   10.50
   5   1  -9   56.52    9.59
   5   1  -8  420.39   41.20
  -5  -1   8  428.29   42.23
  -5  -1   8  426.07   41.19
   5   1  -8  534.01   51.68
   5   1  -7  162.19   13.97
  -5  -1   7  233.20   19.17
  -5  -1   7  206.03   15.13
   5   1  -7  201.23   17.04
   5   1  -6  249.82   32.91
  -5  -1   6  242.14   28.05
  -5  -1   6  234.76   26.37
   5   1  -6  278.02   31.38
   5   1  -5  330.30   29.53
  -5  -1   5  426.61   31.75
  -5  -1   5  423.15   30.12
   5   1  -5  345.66   25.86
   5   1  -4  334.17   35.59
  -5  -1   4  363.82   27.37
  -5  -1   4  349.48   28.23
   5   1  -4  364.42   27.46
   5   1  -3  526.99   38.61
  -5  -1   3  610.58   43.72
  -5  -1   3  565.37   42.72
   5   1  -3  597.73   43.44
   5   1  -2  554.83   39.60
  -5  -1   2  722.03   53.04
   5   1  -2  659.26   47.45
   5   1  -1  745.78   52.75
  -5  -1   1  889.18   62.40
  -5  -1   1  917.06   63.61
   5   1  -1  819.60   58.25
   5   1   0  323.32   35.64
  -5  -1   0  306.48   34.41
   5   1   0  364.89   25.48
  -5  -1  -1   38.82    5.90
  -5  -1  -1   54.35    7.12
   5   1   1   55.81    7.09
   5   1   1   52.36    7.71
  -5  -1  -2  326.25   31.78
  -5  -1  -2  402.34   39.70
   5   1   2  292.78   29.08
   5   1   2  290.63   29.56
  -5  -1  -3   23.55    4.87
  -5  -1  -3    9.37    5.08
   5   1   3   18.85    5.95
   5   1   3   16.67   10.99
  -5  -1  -4  235.93   22.16
  -5  -1  -4  262.27   25.30
   5   1   4  227.03   22.87
   5   1   4  225.78   23.29
  -5  -1  -5  137.28   17.28
  -5  -1  -5  174.98   22.64
   5   1   5  131.78   18.24
   5   1   5  104.54   15.06
  -5  -1  -6   65.73   12.08
   5   1   6   71.92   12.70
   5   1   6   69.94   12.78
  -5  -1  -7   54.39   12.86
   5   1   7   46.96   11.65
   5   2 -12   70.98   12.22
  -5  -2  12   48.18   12.69
  -5  -2  12   46.80   10.98
   5   2 -11  107.56   14.25
  -5  -2  11  109.27   15.38
  -5  -2  11  106.94   13.74
   5   2 -10  172.25   19.42
  -5  -2  10  245.97   28.93
  -5  -2  10  181.18   19.28
   5   2  -9   37.26    7.64
  -5  -2   9   53.29   11.55
  -5  -2   9   41.13    8.12
   5   2  -9   26.96    5.19
   5   2  -8  259.49   39.96
  -5  -2   8  303.38   26.11
  -5  -2   8  269.32   21.83
   5   2  -8  233.38   19.25
   5   2  -7  134.42   17.16
  -5  -2   7  194.52   14.16
   5   2  -7  114.18   10.07
   5   2  -6  257.45   31.80
  -5  -2   6  217.79   17.96
  -5  -2   6  237.50   16.82
   5   2  -6  207.25   16.08
   5   2  -5  399.71   39.62
  -5  -2   5  422.45   28.69
  -5  -2   5  367.38   26.75
   5   2  -5  332.37   36.33
   5   2  -5  424.83   28.44
   5   2  -4  364.54   31.03
  -5  -2   4  395.63   26.98
  -5  -2   4  353.89   23.29
   5   2  -4  328.58   35.85
   5   2  -4  386.44   26.18
   5   2  -3  235.07   38.07
  -5  -2   3  249.44   28.77
  -5  -2   3  250.11   29.77
   5   2  -3  179.61   19.89
   5   2  -3  219.84   25.71
   5   2  -2  532.30   39.65
  -5  -2   2  567.23   37.41
  -5  -2   2  521.54   32.90
   5   2  -2  488.61   30.73
   5   2  -2  544.32   36.68
   5   2  -1   95.93   12.42
  -5  -2   1   30.99    5.57
   5   2  -1   76.68    9.07
   5   2  -1   81.96    9.92
   5   2  -1   83.22   11.11
  -5  -2   0  271.69   20.29
  -5  -2   0  257.08   19.82
   5   2   0  165.29   12.61
   5   2   0  162.30   13.68
  -5  -2  -1  135.32   14.96
  -5  -2  -1  157.99   17.19
   5   2   1  154.04   15.98
   5   2   1  158.54   19.15
  -5  -2  -2  212.04   18.65
  -5  -2  -2  217.23   19.64
   5   2   2  177.08   27.39
   5   2   2  216.89   21.67
  -5  -2  -3  114.17   18.33
  -5  -2  -3   91.08   15.51
   5   2   3   90.53   15.27
   5   2   3   95.94   16.22
  -5  -2  -4  124.21   14.10
  -5  -2  -4  128.52   14.80
   5   2   4  147.19   17.77
   5   2   4  102.94   18.01
  -5  -2  -5   23.55    5.60
  -5  -2  -5   49.85   10.43
   5   2   5   18.09    5.42
   5   2   5   31.42    9.10
  -5  -2  -6    5.72    5.98
  -5  -2  -6   20.42    8.02
   5   2   6   28.63   10.01
   5   2   6   33.50   13.07
   5   3 -12   80.23   18.33
  -5  -3  12  101.34   18.35
  -5  -3  12   87.81   14.29
   5   3 -11   74.61   16.94
  -5  -3  11   62.70   10.72
   5   3 -10  162.02   24.05
  -5  -3  10  203.28   23.33
  -5  -3  10  169.86   18.44
   5   3  -9  108.16   21.84
  -5  -3   9   97.88   18.66
  -5  -3   9   95.23   16.22
   5   3  -9   66.18   11.27
   5   3  -8  255.90   28.24
  -5  -3   8  301.11   26.24
  -5  -3   8  253.17   19.63
   5   3  -8  223.72   17.72
   5   3  -7  277.87   35.87
  -5  -3   7  255.66   27.08
  -5  -3   7  224.11   21.69
   5   3  -7  227.43   23.00
   5   3  -6  393.99   51.42
  -5  -3   6  422.39   41.87
   5   3  -6  320.01   31.36
   5   3  -5  268.28   27.64
  -5  -3   5  233.03   19.81
   5   3  -5  242.92   19.02
   5   3  -4  455.55   37.83
  -5  -3   4  567.59   39.98
  -5  -3   4  509.78   33.53
   5   3  -4  497.39   35.14
   5   3  -3  176.19   14.60
  -5  -3   3  171.92   15.65
   5   3  -3  168.49   11.54
   5   3  -3  213.29   17.12
   5   3  -2   76.40    8.79
  -5  -3   2  115.61   11.40
   5   3  -2   83.90    6.26
   5   3  -2   96.55   10.52
  -5  -3   1  450.25   44.32
  -5  -3   1  463.93   45.56
   5   3  -1  362.37   34.55
   5   3  -1  395.53   39.68
  -5  -3   0  310.33   31.76
  -5  -3   0  318.55   32.05
   5   3   0  302.07   29.22
  -5  -3  -1  174.89   15.78
  -5  -3  -1  204.28   17.32
   5   3   1  207.16   16.44
   5   3   1  209.69   18.73
  -5  -3  -2  196.33   19.49
  -5  -3  -2  234.73   23.13
   5   3   2  234.68   22.11
   5   3   2  207.54   21.12
  -5  -3  -3  172.78   19.73
   5   3   3  133.38   14.69
   5   3   3  145.38   17.12
  -5  -3  -4  145.07   20.79
  -5  -3  -4  135.31   19.77
   5   3   4  119.27   16.81
   5   3   4   92.19   14.09
  -5  -3  -5  113.68   18.93
  -5  -3  -5  112.10   19.40
   5   3   5  120.48   19.94
   5   3   5  111.11   18.63
   5   4 -12   85.41   19.59
  -5  -4  12  107.70   23.37
   5   4 -11  141.31   29.99
  -5  -4  11  101.96   17.19
   5   4 -10   30.75    8.58
  -5  -4  10   45.33   12.52
   5   4  -9   72.44   16.95
  -5  -4   9  168.73   21.18
   5   4  -8  134.23   19.91
  -5  -4   8  157.30   19.23
   5   4  -8  115.78   19.38
   5   4  -7  290.45   37.81
  -5  -4   7  354.91   31.23
   5   4  -7  290.89   22.73
   5   4  -6  123.70   21.53
  -5  -4   6  108.72   16.51
   5   4  -6   85.19   12.78
   5   4  -5  146.28   23.86
  -5  -4   5  140.61   19.20
   5   4  -5  104.05   14.95
   5   4  -4  235.27   20.18
  -5  -4   4  263.39   22.69
   5   4  -4  283.43   24.71
   5   4  -3  187.82   17.28
  -5  -4   3  182.39   29.08
   5   4  -3  199.83   18.28
  -5  -4   2  163.72   23.66
  -5  -4   2  161.86   21.65
   5   4  -2  159.24   21.85
  -5  -4   1  262.29   22.53
  -5  -4   1  288.90   24.78
   5   4  -1  178.57   16.13
  -5  -4   0  304.08   29.85
  -5  -4   0  330.06   31.29
   5   4   0  289.09   28.49
  -5  -4  -1  206.31   23.19
  -5  -4  -1  261.91   28.25
  -5  -4  -2  109.26   15.56
  -5  -4  -2  142.04   19.82
   5   4   2   87.83   17.33
  -5  -4  -3   82.53   14.31
  -5  -4  -3   69.64   11.65
   5   4   3   61.93   12.89
  -5  -4  -4   44.65   14.18
  -5  -4  -4   32.13   10.78
   5   4   4   37.44   13.23
   5   5 -11   93.96   26.16
  -5  -5  11  147.27   27.78
   5   5 -10   93.53   19.89
  -5  -5  10  125.81   20.30
  -5  -5   9  164.04   24.13
   5   5  -8  191.59   29.65
  -5  -5   8  224.04   28.84
   5   5  -8  184.42   22.73
   5   5  -7  275.96   39.39
  -5  -5   7  337.29   35.84
   5   5  -7  320.69   33.18
   5   5  -6  141.09   17.45
  -5  -5   6  191.09   22.61
   5   5  -6  157.67   17.26
   5   5  -5  151.74   16.64
  -5  -5   5  197.62   21.42
   5   5  -5  130.56   21.82
   5   5  -4  326.91   31.66
  -5  -5   4  398.81   63.18
   5   5  -4  312.22   30.00
  -5  -5   3  317.35   32.59
  -5  -5   3  332.45   32.13
   5   5  -3  245.80   24.84
  -5  -5   2  235.41   26.53
  -5  -5   2  295.52   31.68
   5   5  -2  272.74   29.22
  -5  -5   1   96.79   18.10
  -5  -5   1   84.63   14.94
   5   5  -1  145.01   19.67
  -5  -5   0  107.17   14.26
  -5  -5   0  159.29   19.14
   5   5   0  107.41   14.15
  -5  -5  -1  140.21   20.34
  -5  -5  -1  172.38   24.83
  -5  -5  -2   58.80   11.95
  -5  -5  -2   63.26   11.73
   5   5   2   90.53   15.76
  -5  -5  -3  102.32   20.25
  -5  -5  -3  139.61   25.87
   5   5   3  120.93   23.35
   5   6  -9  112.35   22.01
  -5  -6   9  156.60   27.39
  -5  -6   8   59.27   18.80
   5   6  -8   14.73    4.87
   5   6  -7   79.42   13.34
  -5  -6   7   63.08   13.63
   5   6  -7   79.58   12.25
   5   6  -6  131.89   19.20
  -5  -6   6  136.17   20.10
   5   6  -6  116.43   16.95
  -5  -6   5  191.12   22.73
   5   6  -5  223.18   25.80
  -5  -6   4   31.15    9.99
   5   6  -4   28.20    7.70
  -5  -6   3   43.05   12.34
  -5  -6   3   30.69    8.66
   5   6  -3   28.74    7.11
  -5  -6   2  201.26   29.07
  -5  -6   2  212.37   28.92
   5   6  -2  181.90   26.02
  -5  -6   1  111.26   18.16
  -5  -6   1  146.08   20.81
  -5  -6   0   42.19   14.80
  -5  -6   0   99.03   17.33
   5   6   0  134.82   23.40
  -5  -7   6  128.13   24.58
  -5  -7   6  121.94   22.72
   5   7  -6   94.92   22.97
  -5  -7   5   78.03   18.27
  -5  -7   5   42.21   10.63
   5   7  -5   26.69    8.05
  -5  -7   4  199.77   37.09
  -5  -7   4  189.47   34.42
   5   7  -4  125.71   23.66
  -6   6   2   27.57   10.29
   6  -6  -2   13.86    8.21
  -6   6   1   17.04    8.94
   6  -6  -1   19.01    9.25
  -6   6   0   24.41    8.38
   6  -6   0   18.48    8.72
   6  -5  -6   81.76   15.82
  -6   5   6   71.07   14.73
   6  -5  -6   74.18   17.11
   6  -5  -5   20.94    8.10
  -6   5   5   14.37    7.33
   6  -5  -5   28.28   13.40
   6  -5  -4    5.64    4.26
  -6   5   4   12.66    5.16
   6  -5  -4   15.05    8.57
   6  -5  -3   18.52    5.69
  -6   5   3   22.22    9.69
   6  -5  -3   17.50    8.61
  -6   5   2   35.20   10.18
   6  -5  -2   22.31    8.65
  -6   5   1    6.85    3.10
  -6   5   1   18.02    5.85
   6  -5  -1   28.33   11.52
  -6   5   0   38.33    7.71
  -6   5   0   31.62   10.99
   6  -5   0   44.19   10.86
  -6   5  -1   37.65    8.39
  -6   5  -1   48.68   13.30
   6  -5   1   36.75   12.85
  -6   5  -2   87.84   13.15
  -6   5  -2   70.67   18.97
   6  -5   2   75.37   13.76
  -6   5  -3    5.73    5.77
  -6   5  -3   18.16    8.61
   6  -5   3   18.36   11.54
   6  -4  -8   31.87   10.46
  -6   4   8   10.19    5.78
   6  -4  -8   37.12   11.65
   6  -4  -7   -0.33    4.85
  -6   4   7    6.92    5.55
   6  -4  -7   15.95    7.54
   6  -4  -6   59.15   11.16
  -6   4   6  102.00   15.51
   6  -4  -6   74.73   13.39
   6  -4  -5   33.38    7.43
  -6   4   5   26.31    6.07
  -6   4   5   35.42    8.99
   6  -4  -5   46.96   11.16
   6  -4  -4   16.79    4.28
  -6   4   4   25.74    5.26
  -6   4   4   31.75    9.67
   6  -4  -4   25.20    9.29
   6  -4  -3   90.65   15.57
  -6   4   3  107.89   17.49
  -6   4   3  102.49   19.70
   6  -4  -3  105.24   18.69
   6  -4  -2  114.14   12.63
  -6   4   2  163.93   17.36
  -6   4   2  203.31   32.42
  -6   4   1    4.27    3.55
  -6   4   1    0.13    3.48
   6  -4  -1   -3.78    7.25
  -6   4   0  123.29   15.74
  -6   4   0  128.87   21.67
   6  -4   0  125.23   18.72
  -6   4  -1   29.79    7.03
  -6   4  -1   27.91    6.24
   6  -4   1    9.73    7.50
  -6   4  -2   96.86   12.34
  -6   4  -2  101.22   15.58
   6  -4   2  110.10   18.52
  -6   4  -3   19.35    4.90
  -6   4  -3   21.61    8.07
   6  -4   3   44.06   14.05
  -6   4  -4   18.24    7.69
   6  -4   4   46.47   15.02
   6  -3  -9    4.16    6.18
  -6   3   9    3.68    5.67
  -6   3   9    3.17    6.04
   6  -3  -9   18.96    8.96
   6  -3  -8   47.82   11.53
  -6   3   8   75.68   11.03
  -6   3   8   88.19   14.74
   6  -3  -8   52.74   12.85
   6  -3  -7  134.12   16.82
  -6   3   7  160.58   18.07
   6  -3  -7  144.25   18.69
   6  -3  -6  214.54   27.19
  -6   3   6  186.46   22.92
  -6   3   6  203.77   25.63
   6  -3  -6  226.30   28.87
   6  -3  -5   44.39    8.67
  -6   3   5   40.16    7.60
  -6   3   5   60.89   11.66
   6  -3  -5   55.65   12.56
   6  -3  -4   72.00   13.22
  -6   3   4  103.85   17.52
  -6   3   4   76.09   19.50
   6  -3  -4   74.14   15.08
   6  -3  -3   75.45   13.25
  -6   3   3   70.24   12.49
  -6   3   3   82.49   17.14
   6  -3  -3  106.03   19.42
   6  -3  -2   72.30   13.90
  -6   3   2  158.95   15.52
  -6   3   2  170.98   27.15
   6  -3  -2   76.75   14.63
   6  -3  -1    9.46    4.01
  -6   3   1    3.28    4.00
  -6   3   1    6.12    4.17
   6  -3  -1   30.73    9.35
  -6   3   0  147.70   15.30
  -6   3   0  111.08   26.03
   6  -3   0  127.78   23.68
  -6   3  -1   53.17   10.28
  -6   3  -1   62.12   12.37
   6  -3   1   63.96   14.07
  -6   3  -2   30.48    6.47
  -6   3  -2   51.81   10.23
   6  -3   2   56.90   13.08
  -6   3  -3   36.52    8.91
  -6   3  -3   26.57    7.04
  -6   3  -4   25.42    7.12
   6  -3   4   32.62   10.83
   6  -3   4   35.94   12.73
  -6   3  -5    5.87    5.96
   6  -3   5   12.07    7.42
   6  -3   5    8.23    7.65
   6  -2 -10   46.33   14.85
  -6   2  10   67.04   12.84
   6  -2 -10   31.15    9.70
   6  -2  -9   64.49   12.73
  -6   2   9   66.79   12.37
  -6   2   9   84.46   13.39
   6  -2  -9   73.49   11.63
   6  -2  -8  215.83   24.80
  -6   2   8  233.33   26.17
  -6   2   8  238.66   26.65
   6  -2  -8  209.25   24.47
   6  -2  -7   52.40   10.29
  -6   2   7   46.15    9.55
  -6   2   7   55.39   10.67
   6  -2  -7   47.93    9.59
   6  -2  -6   60.91   11.82
  -6   2   6   85.51   15.57
  -6   2   6   93.06   16.56
   6  -2  -6   57.09   12.55
   6  -2  -5  112.87   18.10
  -6   2   5  120.43   19.35
  -6   2   5  114.70   18.80
   6  -2  -5  109.37   18.83
   6  -2  -4   65.41   11.27
  -6   2   4   91.05   14.98
  -6   2   4  126.98   23.86
   6  -2  -4   57.66   11.65
   6  -2  -3  166.16   27.80
  -6   2   3  176.17   27.25
  -6   2   3  224.89   21.77
   6  -2  -3  209.15   21.14
   6  -2  -2  131.22   23.23
  -6   2   2  246.15   20.58
  -6   2   2  268.93   29.95
   6  -2  -2  189.80   17.80
   6  -2  -1   45.12    8.22
  -6   2   1   61.38   10.10
  -6   2   1   74.68   14.07
   6  -2  -1   50.90   10.44
   6  -2   0   42.69    8.78
  -6   2   0   51.44    9.95
  -6   2   0   89.81   18.48
   6  -2   0   59.48   12.39
  -6   2  -1   89.12   15.59
  -6   2  -1   96.49   17.45
   6  -2   1   86.57   17.23
  -6   2  -2  117.16   14.58
  -6   2  -2  103.67   17.94
   6  -2   2   89.00   17.21
  -6   2  -3   13.47    4.83
   6  -2   3   36.30   10.57
   6  -2   3   35.30    9.44
  -6   2  -4   39.28    8.96
   6  -2   4   33.28   10.72
   6  -2   4   28.13    9.52
  -6   2  -5   31.46   10.84
   6  -2   5   46.36   15.47
   6  -2   5   46.03   15.92
   6  -1 -11    2.34    6.02
  -6   1  11    9.01    7.62
  -6   1  11   12.23    5.26
   6  -1 -10   41.72   10.40
  -6   1  10   69.01   12.08
  -6   1  10   47.14   11.04
   6  -1 -10   35.24    8.30
   6  -1  -9  154.88   18.57
  -6   1   9  165.52   19.76
  -6   1   9  153.75   18.60
   6  -1  -9  169.95   20.14
   6  -1  -8   19.82    5.62
  -6   1   8    8.38    7.02
  -6   1   8   17.06    5.08
   6  -1  -8   25.14    7.22
   6  -1  -7   21.90    6.23
  -6   1   7   32.36    7.93
  -6   1   7    5.45    4.29
   6  -1  -7   14.64    9.00
   6  -1  -6   46.48    9.72
  -6   1   6   71.92   13.24
  -6   1   6   67.24   11.74
   6  -1  -6   28.41    7.05
   6  -1  -5  304.42   25.51
  -6   1   5  263.17   22.50
  -6   1   5  337.53   27.85
   6  -1  -5  306.66   26.36
   6  -1  -4   11.45    4.27
  -6   1   4   10.50    4.93
  -6   1   4    4.97    3.28
   6  -1  -4    6.05    7.24
   6  -1  -3   17.16    4.65
  -6   1   3   16.89    6.34
  -6   1   3    8.42    3.06
   6  -1  -3   43.19   13.86
   6  -1  -2   36.89    8.60
  -6   1   2   67.24   10.24
  -6   1   2   87.07   13.89
   6  -1  -2   52.22    9.59
   6  -1  -1  185.71   25.23
  -6   1   1  234.59   20.16
  -6   1   1  265.85   26.57
   6  -1   0  212.11   17.22
  -6   1   0  287.96   24.28
  -6   1   0  228.28   28.43
   6  -1   0  250.12   24.05
  -6   1  -1   86.46   13.43
  -6   1  -1   98.63   16.25
  -6   1  -1   69.03   13.42
   6  -1   1  148.20   17.16
  -6   1  -2   32.42    8.52
   6  -1   2   14.22    7.75
   6  -1   2   20.03   10.86
  -6   1  -3  154.00   19.98
   6  -1   3  150.94   20.67
   6  -1   3  192.40   25.83
  -6   1  -4   25.28    7.47
   6  -1   4   19.74    6.49
   6  -1   4   34.15   10.29
  -6   1  -5   59.15   11.57
   6  -1   5   32.51   12.41
   6  -1   5   46.93   12.67
   6   0 -11   44.80   14.38
  -6   0  11   70.16   14.42
  -6   0  11   83.24   14.59
   6   0 -10   35.04    9.14
  -6   0  10   30.39    8.17
  -6   0  10   53.67   10.93
   6   0 -10   22.57    5.61
   6   0  -9   96.79   17.99
  -6   0   9   88.13   17.21
  -6   0   9   73.39   12.39
   6   0  -9  107.85   14.78
   6   0  -8  150.03   17.57
  -6   0   8   82.75   14.93
  -6   0   8  119.12   13.60
   6   0  -8  112.71   17.37
   6   0  -7  122.18   19.66
  -6   0   7  155.25   14.55
  -6   0   7  129.83   20.56
   6   0  -7  160.26   14.96
   6   0  -6   48.63    9.72
  -6   0   6   41.79    8.14
  -6   0   6   40.58    7.19
   6   0  -6   46.75    9.33
   6   0  -5  241.31   29.58
  -6   0   5  302.67   25.85
  -6   0   5  327.02   27.79
   6   0  -5  249.93   22.84
   6   0  -4  341.91   43.21
  -6   0   4  419.91   41.35
  -6   0   4  422.98   44.03
   6   0  -4  398.31   40.14
   6   0  -3  325.85   39.28
  -6   0   3  412.18   40.55
  -6   0   3  411.07   41.44
   6   0  -3  365.16   36.51
   6   0  -2  326.10   40.46
  -6   0   2  384.37   37.53
  -6   0   2  394.56   40.42
   6   0  -2  453.77   45.04
   6   0  -1  315.11   27.80
  -6   0   1  435.00   35.16
  -6   0   1  380.94   34.03
   6   0   0   29.94    5.37
  -6   0   0   25.79    8.83
  -6   0   0   17.95    5.68
   6   0   0   28.89    9.17
  -6   0  -1  118.89   18.55
  -6   0  -1   84.84   14.14
   6   0   1   83.09   14.92
   6   0   1   73.88   13.61
  -6   0  -2   34.72    6.46
  -6   0  -2   29.00    7.01
   6   0   2   35.87    9.02
   6   0   2   36.59   11.33
   6   0   3   84.02   14.64
   6   0   3   84.03   15.10
  -6   0  -4  132.29   19.90
   6   0   4   71.78   12.89
   6   0   4   79.96   13.69
  -6   0  -5   37.68   11.94
   6   0   5   35.78   11.83
   6   1 -11   87.21   14.71
  -6  -1  11  104.18   19.26
  -6  -1  11  118.26   19.29
   6   1 -10   30.16    7.44
  -6  -1  10   39.56   11.19
  -6  -1  10   33.95    7.71
   6   1  -9   65.29   12.47
  -6  -1   9   98.22   15.39
  -6  -1   9   80.74   13.13
   6   1  -8  144.52   20.35
  -6  -1   8  171.22   19.65
  -6  -1   8  183.95   20.07
   6   1  -8  141.31   16.82
   6   1  -7  168.41   24.94
  -6  -1   7  177.06   15.87
  -6  -1   7  181.58   15.13
   6   1  -7  156.80   14.76
   6   1  -6  151.85   20.55
  -6  -1   6  147.32   15.76
  -6  -1   6  123.48   19.45
   6   1  -6  113.12   18.59
   6   1  -5  174.25   33.30
  -6  -1   5  174.96   28.19
  -6  -1   5  148.03   20.75
   6   1  -5  166.13   22.89
   6   1  -4  144.80   21.88
  -6  -1   4  166.38   22.64
  -6  -1   4  159.03   21.62
   6   1  -4  126.70   17.86
   6   1  -3  137.77   24.62
  -6  -1   3  159.59   21.84
  -6  -1   3  168.39   22.71
   6   1  -3  112.51   16.32
   6   1  -2  130.87   20.61
  -6  -1   2  101.54   14.88
  -6  -1   2  100.83   20.48
   6   1  -2  189.81   20.86
   6   1  -1    9.95    5.08
  -6  -1   1   12.97    4.13
   6   1  -1    8.41    6.46
  -6  -1   0  123.90   19.71
  -6  -1   0  144.56   15.03
   6   1   0   98.38   16.35
   6   1   0   91.28   15.82
  -6  -1  -1  180.27   17.60
  -6  -1  -1  180.95   18.88
   6   1   1  173.47   17.22
   6   1   1  168.35   17.91
  -6  -1  -2   59.70   10.45
  -6  -1  -2   62.80   11.73
   6   1   2   72.02   12.56
   6   1   2   55.59   11.27
  -6  -1  -3   24.60    5.46
  -6  -1  -3   38.17    8.56
   6   1   3   20.81    6.27
   6   1   3   33.42    9.78
  -6  -1  -4   34.35    9.67
   6   1   4   31.56    8.33
   6   1   4   28.93    8.27
  -6  -1  -5   51.61   11.98
   6   1   5   71.81   14.55
   6   1   5   48.68   12.21
   6   2 -11  171.92   36.70
  -6  -2  11  218.70   49.91
  -6  -2  11  182.61   28.23
   6   2 -10   58.10   13.63
  -6  -2  10   46.67   11.44
  -6  -2  10   79.28   12.48
   6   2  -9   32.93    7.29
  -6  -2   9   30.09   10.09
  -6  -2   9   16.00    5.70
   6   2  -9   25.08    5.64
   6   2  -8   73.22   17.23
  -6  -2   8   72.23   14.19
  -6  -2   8   80.36   14.46
   6   2  -8   50.95   10.50
   6   2  -7  199.59   25.38
  -6  -2   7  159.95   16.94
  -6  -2   7  142.19   14.17
   6   2  -7  174.34   17.64
   6   2  -6  283.25   35.65
  -6  -2   6  279.30   23.49
  -6  -2   6  227.92   19.74
   6   2  -5   51.45   10.88
  -6  -2   5   54.89   10.76
  -6  -2   5   35.23    9.54
   6   2  -5   57.67   11.02
   6   2  -4  218.51   34.28
  -6  -2   4  171.89   27.19
  -6  -2   4  195.47   18.57
   6   2  -4  224.09   21.16
   6   2  -3  168.73   27.38
  -6  -2   3  183.96   19.49
  -6  -2   3  147.03   12.15
   6   2  -3  155.74   15.30
   6   2  -2  311.37   25.41
  -6  -2   2  308.18   25.34
   6   2  -2  318.11   24.41
   6   2  -2  307.77   26.13
  -6  -2   1  363.63   29.54
   6   2  -1  289.28   22.35
   6   2  -1  317.04   26.10
  -6  -2   0  138.59   14.33
  -6  -2   0  142.14   16.04
   6   2   0   84.64   14.55
  -6  -2  -1  143.54   16.25
  -6  -2  -1  168.56   19.50
   6   2   1  117.42   13.33
   6   2   1  119.78   15.19
  -6  -2  -2   77.34   14.32
  -6  -2  -2  100.15   12.65
   6   2   2   86.22   11.00
   6   2   2   68.69   14.11
  -6  -2  -3  145.99   20.19
  -6  -2  -3  198.79   55.64
   6   2   3  133.38   18.70
   6   2   3  124.74   18.65
  -6  -2  -4   38.25    9.92
  -6  -2  -4   35.93   10.88
   6   2   4   29.95    8.24
   6   2   4   31.56    9.33
   6   3 -11   19.62    5.61
  -6  -3  11   11.67    7.85
   6   3  -9  144.85   25.97
  -6  -3   9  227.52   26.69
   6   3  -9  126.07   14.56
   6   3  -8  189.04   30.56
  -6  -3   8  252.75   32.24
   6   3  -8  197.83   24.91
   6   3  -7  202.47   29.22
  -6  -3   7  149.04   18.09
   6   3  -7  159.81   17.72
   6   3  -6  112.68   21.99
  -6  -3   6  133.13   14.63
   6   3  -6   79.00   14.61
   6   3  -5   58.92   14.73
  -6  -3   5   80.45   15.19
   6   3  -5   64.42   12.45
   6   3  -4  214.57   30.71
  -6  -3   4  219.16   21.98
   6   3  -4  184.30   19.13
   6   3  -3   96.33   17.92
  -6  -3   3  174.78   19.21
   6   3  -3   71.77   13.32
   6   3  -2   75.70   13.60
  -6  -3   2  137.83   15.86
   6   3  -2   90.88   16.40
  -6  -3   1  126.84   16.23
  -6  -3   1  116.48   13.97
   6   3  -1   97.95   18.13
  -6  -3   0   67.53   12.19
  -6  -3   0   53.90   10.64
   6   3   0   53.04   11.48
  -6  -3  -1  189.66   22.28
  -6  -3  -1  183.60   21.37
   6   3   1  210.34   24.27
  -6  -3  -2   44.31   10.52
  -6  -3  -2   46.90   11.57
   6   3   2   37.19    9.82
  -6  -3  -3   10.83    5.80
   6   3   3   16.50    6.89
   6   4 -10   37.59   12.81
  -6  -4  10   55.31   13.14
   6   4  -9   64.35   17.67
  -6  -4   9  107.00   17.50
   6   4  -8   51.98   11.00
  -6  -4   8   75.61   13.99
   6   4  -8   46.59    8.52
   6   4  -7   76.03   15.56
  -6  -4   7   97.36   15.09
   6   4  -7   51.56   10.18
   6   4  -6  141.58   27.70
  -6  -4   6  183.22   23.68
   6   4  -6  167.78   21.11
   6   4  -5  144.44   19.89
  -6  -4   5  141.43   18.99
   6   4  -5  130.91   17.80
   6   4  -4  180.19   23.43
  -6  -4   4  237.46   29.97
   6   4  -4  180.87   23.37
   6   4  -3   70.87   12.49
  -6  -4   3  117.20   15.97
   6   4  -3  111.45   16.98
  -6  -4   2  144.58   18.21
  -6  -4   2  149.40   18.63
   6   4  -2  149.92   18.59
  -6  -4   1  222.36   27.03
   6   4  -1  202.47   24.20
  -6  -4   0   83.30   13.86
  -6  -4   0  119.95   18.53
   6   4   0  119.40   18.02
  -6  -4  -1   99.37   18.36
  -6  -4  -1   79.89   14.77
   6   4   1   60.67   12.08
  -6  -4  -2   29.14    9.37
  -6  -4  -2   30.47    8.87
   6   4   2   25.02    8.22
   6   5  -9   90.54   21.12
  -6  -5   9  127.53   24.77
   6   5  -8  106.91   26.44
  -6  -5   8  134.39   22.72
   6   5  -8   90.78   14.84
   6   5  -7   90.19   18.77
  -6  -5   7  125.62   19.37
   6   5  -7   96.00   13.69
   6   5  -6  154.52   21.76
  -6  -5   6  207.37   57.95
   6   5  -6  131.01   18.93
   6   5  -5   69.08   15.58
  -6  -5   5  110.78   18.52
   6   5  -5  119.63   17.95
  -6  -5   4   30.91    8.97
   6   5  -4   26.52    8.06
  -6  -5   3  117.96   18.38
  -6  -5   3  175.53   25.14
   6   5  -3   71.05   11.87
  -6  -5   2  172.41   24.34
  -6  -5   2  210.53   58.84
   6   5  -2  157.18   23.02
  -6  -5   1  119.36   20.85
  -6  -5   1  124.73   22.12
   6   5  -1   65.99   12.36
  -6  -5   0    5.42    6.23
  -6  -5   0   15.67    7.58
   6   5   0   17.18    6.65
  -7   4   4   33.69   10.94
   7  -4  -4   43.58   11.43
  -7   4   3    5.32    4.76
  -7   4   3    6.51    6.88
   7  -4  -3    2.00    8.56
  -7   4   2   60.49   10.72
  -7   4   2   41.45   12.49
   7  -4  -2   26.98   10.95
  -7   4   1   28.09    8.67
  -7   4   1   15.47    5.69
   7  -4  -1    8.05    8.82
  -7   4   0   30.35    8.00
  -7   4   0   48.62   13.10
   7  -4   0   62.15   16.45
   7  -3  -7    4.61    5.84
  -7   3   7    0.92    4.28
  -7   3   7    7.08    6.54
   7  -3  -7   29.58   10.42
   7  -3  -6   26.04    9.00
  -7   3   6    8.89    5.00
  -7   3   6    9.53    6.02
   7  -3  -6   19.68    8.62
   7  -3  -5   20.18    6.37
  -7   3   5   35.88    8.32
  -7   3   5   47.45   11.97
   7  -3  -5   11.21    7.28
   7  -3  -4   30.26    7.83
  -7   3   4   19.71    5.91
  -7   3   4   31.47    9.10
   7  -3  -4   14.64    8.11
  -7   3   3    8.36    3.95
  -7   3   3   24.60    6.84
   7  -3  -3   29.74   11.20
  -7   3   2   38.06    7.81
  -7   3   2   27.81    8.56
   7  -3  -2   45.67   12.61
  -7   3   1    4.83    4.51
  -7   3   1   14.82    7.23
   7  -3  -1   15.12    8.29
  -7   3   0   44.17    9.87
  -7   3   0   51.81   12.44
   7  -3   0   34.45   10.62
  -7   3  -1   70.28   12.52
  -7   3  -1   45.23   14.43
   7  -3   1   51.32   12.32
  -7   3  -2   45.60   11.48
   7  -3   2   55.31   15.36
   7  -2  -8   19.12    5.95
  -7   2   8   19.98    7.09
  -7   2   8   43.31   10.04
   7  -2  -8   22.30    9.15
   7  -2  -7   16.98    7.10
  -7   2   7    1.40    5.46
  -7   2   7   17.39    7.53
   7  -2  -7   26.88   11.24
   7  -2  -6   47.49    9.75
  -7   2   6   27.05    6.29
  -7   2   6   30.24    7.42
   7  -2  -6   33.98    9.78
   7  -2  -5   35.97    7.58
  -7   2   5   13.43    4.88
  -7   2   5   23.34    6.51
   7  -2  -5   13.29    7.15
   7  -2  -4   23.16    6.65
  -7   2   4   30.64    7.31
  -7   2   4   62.70   16.87
   7  -2  -4   27.91   11.53
   7  -2  -3   38.80   10.61
  -7   2   3   88.80   12.03
  -7   2   3   77.80   19.71
   7  -2  -3   54.24   12.09
  -7   2   2   71.96   14.41
  -7   2   2   76.63   18.90
   7  -2  -2   48.41   11.89
  -7   2   1  141.34   20.31
  -7   2   1  137.36   29.50
   7  -2  -1  127.41   20.68
  -7   2   0   45.38    8.66
  -7   2   0   43.27   11.64
   7  -2   0   41.50   11.01
  -7   2  -1    3.02    4.96
  -7   2  -1   14.40    5.15
   7  -2   1   25.14    9.07
  -7   2  -2   19.63    8.26
   7  -2   2   37.67   14.41
   7  -1  -9    8.59    5.54
  -7   1   9   31.40    9.74
  -7   1   9   19.97    7.86
   7  -1  -9    8.67    5.46
   7  -1  -8   47.71   12.11
  -7   1   8   87.53   15.94
  -7   1   8   84.13   15.05
   7  -1  -8   64.88   12.87
   7  -1  -7   24.09    6.96
  -7   1   7   27.59    6.88
  -7   1   7   22.89    6.06
   7  -1  -7   30.44    8.79
   7  -1  -6   57.61   15.06
  -7   1   6   76.68   14.86
  -7   1   6   81.69   20.17
   7  -1  -6   70.05   14.81
   7  -1  -5  109.84   18.33
  -7   1   5  194.31   22.50
  -7   1   5  210.67   35.77
   7  -1  -5  141.95   18.24
   7  -1  -4   81.80   15.41
  -7   1   4  105.69   15.04
  -7   1   4  114.62   23.49
   7  -1  -4   89.74   17.23
   7  -1  -3   56.75   13.08
  -7   1   3   61.81   10.62
  -7   1   3   70.27   15.18
   7  -1  -3   78.20   15.21
   7  -1  -2   58.39   13.70
  -7   1   2   61.95   11.36
  -7   1   2   71.71   14.36
   7  -1  -2   75.13   13.55
  -7   1   1   54.11   11.04
  -7   1   1   66.57   16.66
  -7   1   0   11.68    7.32
  -7   1   0   -4.03    4.38
   7  -1   0   29.55   10.91
  -7   1  -1   70.84   12.02
  -7   1  -1   52.88   12.75
  -7   1  -2   53.82   10.57
   7  -1   2   20.65    9.35
   7  -1   2   33.00   11.42
   7   0  -9   18.15    8.15
  -7   0   9   15.75    7.19
  -7   0   9   12.13    5.37
   7   0  -9    6.14    5.54
   7   0  -8   60.71   19.14
  -7   0   8   87.46   13.52
  -7   0   8   85.74   12.95
   7   0  -8   65.21   11.17
   7   0  -7   53.99   13.27
  -7   0   7   65.09   12.58
  -7   0   7   48.50   14.47
   7   0  -7   31.96    7.73
   7   0  -6   65.25   15.32
  -7   0   6  114.82   16.13
  -7   0   6   71.17   17.04
   7   0  -6   88.30   13.46
   7   0  -5   14.77    5.76
  -7   0   5   28.84    8.79
  -7   0   5   14.73    4.72
   7   0  -5   32.78    9.98
   7   0  -4   39.99    7.48
  -7   0   4   33.82    7.35
  -7   0   4   50.52   11.69
   7   0  -4   48.79   10.66
   7   0  -3   83.38   15.87
  -7   0   3  113.37   15.93
  -7   0   3   97.32   21.20
   7   0  -3  104.16   15.96
   7   0  -2   12.79    3.44
  -7   0   2   16.03    7.03
  -7   0   2    7.08    3.95
   7   0  -2   35.94   11.11
   7   0  -1   21.06    5.48
  -7   0   1   37.23   10.30
  -7   0   1   19.90    5.44
   7   0  -1   22.05   11.11
  -7   0   0   62.88   11.37
   7   0   0   68.13   13.51
  -7   0  -1   83.33   14.42
   7   0   1   41.90   10.60
   7   0   1   40.95   11.20
  -7   0  -2   25.00    9.09
   7   0   2    9.37    6.34
   7   0   2    6.09    7.34
   7   1  -9   21.44    7.59
  -7  -1   9   14.32    6.89
  -7  -1   9   17.67    6.36
   7   1  -9   24.10    8.71
   7   1  -8   84.59   15.19
  -7  -1   8   82.82   15.35
  -7  -1   8   73.70   11.31
   7   1  -8   46.29   10.88
   7   1  -7   59.08   11.63
  -7  -1   7   62.97   12.33
  -7  -1   7   56.94   12.73
   7   1  -7   49.21   10.26
   7   1  -6  185.05   31.96
  -7  -1   6  212.13   25.15
  -7  -1   6  169.83   24.90
   7   1  -6  199.79   23.77
   7   1  -5   27.86    6.06
  -7  -1   5   19.79    7.82
  -7  -1   5   31.64    7.67
   7   1  -5   45.84   10.40
   7   1  -4   25.70    7.07
  -7  -1   4   53.57   11.11
  -7  -1   4   28.63    8.05
   7   1  -4   42.30    9.45
   7   1  -3   58.20   13.01
  -7  -1   3   92.76   18.36
  -7  -1   3   68.39   13.02
   7   1  -3   88.39   17.47
   7   1  -2  108.51   13.83
  -7  -1   2  111.93   15.14
  -7  -1   2   92.34   11.71
   7   1  -2  106.25   15.48
  -7  -1   1  131.04   19.29
  -7  -1   1   98.94   15.11
   7   1  -1   79.73   12.11
   7   1  -1   75.46   12.75
  -7  -1   0   40.62    7.90
   7   1   0   12.19    5.53
   7   1   0   35.22    9.13
  -7  -1  -1   83.10   14.86
   7   1   1   47.95   12.00
   7   1   1   46.07   14.55
  -7  -1  -2  132.45   25.02
   7   1   2  101.17   19.06
   7   1   2   70.98   14.63
   7   2  -9   57.26   15.20
  -7  -2   9   47.66   12.69
   7   2  -9   30.43    8.57
   7   2  -8   87.87   21.17
  -7  -2   8  124.63   18.42
   7   2  -8   98.25   14.47
   7   2  -7   14.11    4.57
  -7  -2   7   40.90    9.88
   7   2  -7   52.32   10.84
   7   2  -6   68.43   20.48
  -7  -2   6  115.73   17.73
   7   2  -6   56.84   11.41
   7   2  -5   78.43   17.59
  -7  -2   5   90.73   14.31
   7   2  -5   69.29   13.60
   7   2  -4   65.68   13.89
   7   2  -4   70.83   13.63
   7   2  -3   68.35   13.52
  -7  -2   3  138.58   21.00
   7   2  -3   94.08   16.22
   7   2  -2   71.18   11.72
  -7  -2   2  119.29   18.31
   7   2  -2   69.17   15.01
  -7  -2   1   86.27   14.71
  -7  -2   1   64.27   10.81
   7   2  -1   22.17    7.71
  -7  -2   0   20.32    7.18
  -7  -2   0   27.74   10.52
  -7  -2  -1   22.98    6.75
  -7  -2  -1   48.16   11.65
   7   2   1   40.73   11.79
   7   3  -8   53.63   11.09
  -7  -3   8   57.95   11.99
   7   3  -8   49.23    9.44
   7   3  -7   40.49   13.36
  -7  -3   7   26.82   10.77
   7   3  -7   50.89   10.81
   7   3  -6   55.45   14.75
  -7  -3   6   63.06   11.45
   7   3  -6   68.79   12.52
   7   3  -5  113.15   21.15
  -7  -3   5  194.17   54.74
   7   3  -5  132.90   19.55
   7   3  -4   75.91   12.11
  -7  -3   4   86.07   14.25
   7   3  -4   78.15   12.52
   7   3  -3   36.98    9.71
  -7  -3   3   25.73    8.60
   7   3  -3   35.62    9.13
  -7  -3   2   22.74    7.84
  -7  -3   2   31.83   11.50
   7   3  -2   74.45   15.14
  -7  -3   1  174.43   28.29
  -7  -3   1  158.47   26.21
   7   3  -1  136.96   22.58
   7   4  -6   45.44   11.12
  -7  -4   6   80.13   16.72
   7   4  -6   37.88   10.52
   7   4  -5   56.05   12.56
  -7  -4   5   31.96   11.62
   7   4  -5   50.46   10.81
   7   4  -4   33.45    9.43
  -7  -4   4   85.74   17.22
   7   4  -4   31.82   10.12
  -7  -4   3  215.10   39.05
  -7  -4   3  246.99   44.56
   7   4  -3  170.88   30.69

_computing_structure_solution     'SHELXT 2014/4 (Sheldrick, 2014)'
;
_shelx_hkl_checksum              48269
_shelx_shelxl_version_number     2014/7
_olex2_submission_special_instructions 'No special instructions were received'
loop_
_space_group_symop_operation_xyz
'x, y, z'
loop_
_atom_site_label
_atom_site_type_symbol
_atom_site_fract_x
_atom_site_fract_y
_atom_site_fract_z
_atom_site_U_iso_or_equiv
_atom_site_adp_type
_atom_site_occupancy
_atom_site_site_symmetry_order
_atom_site_calc_flag
_atom_site_refinement_flags_posn
Br1 Br -0.09878(2) -0.27976(2) 0.13338(2) 0.04023(17) Uani 1 1 d .
N1 N 0.6381(8) 0.2835(6) 0.5422(4) 0.0330(9) Uani 1 1 d .
H1 H 0.6276 0.3151 0.6218 0.040 Uiso 1 1 calc R
C1 C 0.8279(8) 0.3666(7) 0.5105(5) 0.0274(10) Uani 1 1 d .
H1A H 0.9375 0.2687 0.5035 0.033 Uiso 1 1 calc R
C2 C 0.7365(8) 0.4181(6) 0.3739(4) 0.0245(9) Uani 1 1 d .
H2 H 0.8669 0.4674 0.3515 0.029 Uiso 1 1 calc R
C3 C 0.6347(8) 0.2297(7) 0.2694(4) 0.0245(9) Uani 1 1 d .
H3 H 0.7597 0.1447 0.2722 0.029 Uiso 1 1 calc R
C4 C 0.4565(9) 0.1274(7) 0.3101(5) 0.0261(11) Uani 1 1 d .
C5 C 0.2836(8) -0.0026(7) 0.2174(5) 0.0262(9) Uani 1 1 d .
H5 H 0.2697 -0.0223 0.1273 0.031 Uiso 1 1 calc R
C6 C 0.1332(8) -0.1017(6) 0.2605(5) 0.0297(11) Uani 1 1 d .
C7 C 0.1486(9) -0.0752(7) 0.3934(5) 0.0296(10) Uani 1 1 d .
H7 H 0.0458 -0.1422 0.4204 0.035 Uiso 1 1 calc R
C8 C 0.3171(9) 0.0511(7) 0.4853(5) 0.0314(10) Uani 1 1 d .
H8 H 0.3284 0.0694 0.5750 0.038 Uiso 1 1 calc R
C9 C 0.4727(9) 0.1531(7) 0.4455(5) 0.0262(10) Uani 1 1 d .
C10 C 0.9483(8) 0.5402(7) 0.6190(4) 0.0268(9) Uani 1 1 d .
C11 C 1.1643(9) 0.6081(7) 0.6243(5) 0.0319(10) Uani 1 1 d .
H11 H 1.2371 0.5437 0.5646 0.038 Uiso 1 1 calc R
C12 C 1.2725(9) 0.7723(8) 0.7185(5) 0.0365(11) Uani 1 1 d .
H12 H 1.4157 0.8186 0.7198 0.044 Uiso 1 1 calc R
C13 C 1.1695(10) 0.8671(8) 0.8101(6) 0.0379(12) Uani 1 1 d .
H13 H 1.2432 0.9760 0.8734 0.046 Uiso 1 1 calc R
C14 C 0.9552(10) 0.7983(8) 0.8068(5) 0.0376(12) Uani 1 1 d .
H14 H 0.8847 0.8619 0.8680 0.045 Uiso 1 1 calc R
C15 C 0.8451(9) 0.6353(7) 0.7130(5) 0.0324(11) Uani 1 1 d .
H15 H 0.7023 0.5891 0.7124 0.039 Uiso 1 1 calc R
C16 C 0.5702(9) 0.5774(7) 0.3773(5) 0.0287(10) Uani 1 1 d .
H16A H 0.4274 0.5251 0.3804 0.043 Uiso 1 1 calc GR
H16B H 0.5466 0.6277 0.2990 0.043 Uiso 1 1 calc GR
H16C H 0.6327 0.6791 0.4545 0.043 Uiso 1 1 calc GR
C17 C 0.5607(8) 0.2632(6) 0.1291(5) 0.0248(9) Uani 1 1 d .
C18 C 0.7066(8) 0.2204(7) 0.0495(5) 0.0271(10) Uani 1 1 d .
H18 H 0.8399 0.1621 0.0803 0.032 Uiso 1 1 calc R
C19 C 0.6557(9) 0.2634(7) -0.0749(5) 0.0335(11) Uani 1 1 d .
H19 H 0.7537 0.2321 -0.1270 0.040 Uiso 1 1 calc R
C20 C 0.4592(10) 0.3530(8) -0.1219(6) 0.0357(11) Uani 1 1 d .
H20 H 0.4266 0.3855 -0.2040 0.043 Uiso 1 1 calc R
C21 C 0.3120(10) 0.3932(8) -0.0438(6) 0.0335(12) Uani 1 1 d .
H21 H 0.1787 0.4514 -0.0748 0.040 Uiso 1 1 calc R
C22 C 0.3610(8) 0.3480(7) 0.0796(5) 0.0282(10) Uani 1 1 d .
H22 H 0.2593 0.3745 0.1297 0.034 Uiso 1 1 calc R
loop_
_atom_site_aniso_label
_atom_site_aniso_U_11
_atom_site_aniso_U_22
_atom_site_aniso_U_33
_atom_site_aniso_U_23
_atom_site_aniso_U_13
_atom_site_aniso_U_12
Br1 0.0460(3) 0.0323(2) 0.0414(3) 0.00355(18) 0.0151(2) -0.01027(18)
N1 0.044(2) 0.034(2) 0.022(2) 0.0059(17) 0.0122(18) -0.0058(19)
C1 0.030(2) 0.027(2) 0.026(2) 0.0054(19) 0.0086(19) 0.0030(19)
C2 0.029(2) 0.022(2) 0.024(2) 0.0046(17) 0.0102(18) 0.0044(18)
C3 0.026(2) 0.024(2) 0.024(2) 0.0042(18) 0.0079(18) 0.0024(18)
C4 0.030(3) 0.019(2) 0.030(3) 0.006(2) 0.011(2) 0.004(2)
C5 0.034(2) 0.022(2) 0.025(2) 0.0061(18) 0.0113(19) 0.0027(19)
C6 0.033(3) 0.020(2) 0.037(3) 0.006(2) 0.013(2) 0.0015(19)
C7 0.039(3) 0.022(2) 0.035(3) 0.0097(19) 0.020(2) 0.0041(19)
C8 0.043(3) 0.029(2) 0.029(3) 0.013(2) 0.017(2) 0.007(2)
C9 0.035(3) 0.021(2) 0.026(2) 0.0069(19) 0.014(2) 0.0062(19)
C10 0.031(2) 0.029(2) 0.020(2) 0.0070(18) 0.0075(18) 0.0036(19)
C11 0.034(3) 0.038(3) 0.025(2) 0.008(2) 0.0088(19) 0.006(2)
C12 0.033(3) 0.037(3) 0.038(3) 0.012(2) 0.006(2) -0.002(2)
C13 0.047(3) 0.030(3) 0.031(3) 0.005(2) 0.003(2) -0.001(2)
C14 0.048(3) 0.034(3) 0.030(3) 0.000(2) 0.017(2) 0.003(2)
C15 0.037(3) 0.033(3) 0.029(3) 0.006(2) 0.012(2) 0.004(2)
C16 0.033(3) 0.023(2) 0.029(3) 0.0052(19) 0.010(2) 0.0065(19)
C17 0.028(2) 0.017(2) 0.028(2) 0.0040(17) 0.0077(18) -0.0007(17)
C18 0.030(2) 0.026(2) 0.025(2) 0.0043(18) 0.0097(18) 0.0027(19)
C19 0.044(3) 0.034(3) 0.025(2) 0.008(2) 0.013(2) -0.003(2)
C20 0.044(3) 0.032(3) 0.031(3) 0.009(2) 0.009(2) -0.003(2)
C21 0.038(3) 0.028(3) 0.030(3) 0.007(2) 0.003(2) 0.000(2)
C22 0.030(2) 0.026(2) 0.028(2) 0.0049(19) 0.0091(19) 0.0033(19)
loop_
_atom_type_symbol
_atom_type_description
_atom_type_scat_dispersion_real
_atom_type_scat_dispersion_imag
_atom_type_scat_source
C C 0.0033 0.0016 'International Tables Vol C Tables 4.2.6.8 and 6.1.1.4'
H H 0.0000 0.0000 'International Tables Vol C Tables 4.2.6.8 and 6.1.1.4'
Br Br -0.2901 2.4595 'International Tables Vol C Tables 4.2.6.8 and 6.1.1.4'
N N 0.0061 0.0033 'International Tables Vol C Tables 4.2.6.8 and 6.1.1.4'
loop_
_geom_angle_atom_site_label_1
_geom_angle_atom_site_label_2
_geom_angle_atom_site_label_3
_geom_angle
C1 N1 H1 119.5
C9 N1 H1 119.5
C9 N1 C1 121.0(4)
N1 C1 H1A 108.3
N1 C1 C2 108.3(4)
N1 C1 C10 111.2(4)
C2 C1 H1A 108.3
C10 C1 H1A 108.3
C10 C1 C2 112.2(4)
C1 C2 H2 107.5
C1 C2 C3 108.0(4)
C3 C2 H2 107.5
C16 C2 C1 111.9(4)
C16 C2 H2 107.5
C16 C2 C3 114.0(4)
C2 C3 H3 106.0
C4 C3 C2 110.5(4)
C4 C3 H3 106.0
C4 C3 C17 115.8(4)
C17 C3 C2 111.8(4)
C17 C3 H3 106.0
C5 C4 C3 122.0(4)
C5 C4 C9 118.5(5)
C9 C4 C3 119.4(5)
C4 C5 H5 120.1
C6 C5 C4 119.8(5)
C6 C5 H5 120.1
C5 C6 Br1 119.3(4)
C7 C6 Br1 119.1(4)
C7 C6 C5 121.5(5)
C6 C7 H7 120.4
C8 C7 C6 119.3(5)
C8 C7 H7 120.4
C7 C8 H8 119.6
C7 C8 C9 120.7(5)
C9 C8 H8 119.6
N1 C9 C4 121.1(5)
N1 C9 C8 118.7(4)
C8 C9 C4 120.1(5)
C11 C10 C1 119.5(4)
C11 C10 C15 118.9(4)
C15 C10 C1 121.6(4)
C10 C11 H11 119.8
C10 C11 C12 120.3(5)
C12 C11 H11 119.8
C11 C12 H12 119.7
C13 C12 C11 120.6(5)
C13 C12 H12 119.7
C12 C13 H13 120.3
C12 C13 C14 119.4(5)
C14 C13 H13 120.3
C13 C14 H14 119.7
C13 C14 C15 120.5(5)
C15 C14 H14 119.7
C10 C15 H15 119.9
C14 C15 C10 120.2(5)
C14 C15 H15 119.9
C2 C16 H16A 109.5
C2 C16 H16B 109.5
C2 C16 H16C 109.5
H16A C16 H16B 109.5
H16A C16 H16C 109.5
H16B C16 H16C 109.5
C18 C17 C3 118.9(4)
C22 C17 C3 122.8(4)
C22 C17 C18 118.2(4)
C17 C18 H18 119.5
C19 C18 C17 121.0(5)
C19 C18 H18 119.5
C18 C19 H19 119.8
C20 C19 C18 120.4(5)
C20 C19 H19 119.8
C19 C20 H20 120.7
C19 C20 C21 118.7(5)
C21 C20 H20 120.7
C20 C21 H21 119.5
C22 C21 C20 121.0(5)
C22 C21 H21 119.5
C17 C22 H22 119.7
C21 C22 C17 120.7(5)
C21 C22 H22 119.7
loop_
_geom_bond_atom_site_label_1
_geom_bond_atom_site_label_2
_geom_bond_distance
Br1 C6 1.906(5)
N1 H1 0.8600
N1 C1 1.455(6)
N1 C9 1.396(7)
C1 H1A 0.9800
C1 C2 1.546(6)
C1 C10 1.523(7)
C2 H2 0.9800
C2 C3 1.550(6)
C2 C16 1.536(6)
C3 H3 0.9800
C3 C4 1.519(7)
C3 C17 1.523(7)
C4 C5 1.403(7)
C4 C9 1.405(7)
C5 H5 0.9300
C5 C6 1.390(7)
C6 C7 1.380(7)
C7 H7 0.9300
C7 C8 1.372(8)
C8 H8 0.9300
C8 C9 1.404(7)
C10 C11 1.387(7)
C10 C15 1.401(7)
C11 H11 0.9300
C11 C12 1.391(7)
C12 H12 0.9300
C12 C13 1.380(8)
C13 H13 0.9300
C13 C14 1.386(8)
C14 H14 0.9300
C14 C15 1.387(7)
C15 H15 0.9300
C16 H16A 0.9600
C16 H16B 0.9600
C16 H16C 0.9600
C17 C18 1.398(7)
C17 C22 1.392(7)
C18 H18 0.9300
C18 C19 1.390(7)
C19 H19 0.9300
C19 C20 1.389(8)
C20 H20 0.9300
C20 C21 1.391(8)
C21 H21 0.9300
C21 C22 1.387(8)
C22 H22 0.9300
loop_
_geom_torsion_atom_site_label_1
_geom_torsion_atom_site_label_2
_geom_torsion_atom_site_label_3
_geom_torsion_atom_site_label_4
_geom_torsion
Br1 C6 C7 C8 179.2(4)
N1 C1 C2 C3 -61.2(5)
N1 C1 C2 C16 65.1(5)
N1 C1 C10 C11 163.6(4)
N1 C1 C10 C15 -17.3(6)
C1 N1 C9 C4 -13.1(7)
C1 N1 C9 C8 168.7(4)
C1 C2 C3 C4 54.9(5)
C1 C2 C3 C17 -174.5(4)
C1 C10 C11 C12 176.8(4)
C1 C10 C15 C14 -177.1(5)
C2 C1 C10 C11 -74.9(5)
C2 C1 C10 C15 104.2(5)
C2 C3 C4 C5 156.6(4)
C2 C3 C4 C9 -27.7(6)
C2 C3 C17 C18 98.3(5)
C2 C3 C17 C22 -76.9(5)
C3 C4 C5 C6 175.9(4)
C3 C4 C9 N1 5.5(7)
C3 C4 C9 C8 -176.3(4)
C3 C17 C18 C19 -174.6(4)
C3 C17 C22 C21 173.5(5)
C4 C3 C17 C18 -133.9(5)
C4 C3 C17 C22 50.9(6)
C4 C5 C6 Br1 -179.4(4)
C4 C5 C6 C7 0.3(7)
C5 C4 C9 N1 -178.6(4)
C5 C4 C9 C8 -0.5(7)
C5 C6 C7 C8 -0.4(7)
C6 C7 C8 C9 0.1(7)
C7 C8 C9 N1 178.5(4)
C7 C8 C9 C4 0.3(7)
C9 N1 C1 C2 41.3(6)
C9 N1 C1 C10 165.1(4)
C9 C4 C5 C6 0.2(7)
C10 C1 C2 C3 175.6(4)
C10 C1 C2 C16 -58.1(5)
C10 C11 C12 C13 1.6(8)
C11 C10 C15 C14 2.0(7)
C11 C12 C13 C14 -0.6(8)
C12 C13 C14 C15 0.3(8)
C13 C14 C15 C10 -1.0(8)
C15 C10 C11 C12 -2.3(7)
C16 C2 C3 C4 -70.1(5)
C16 C2 C3 C17 60.5(5)
C17 C3 C4 C5 28.1(6)
C17 C3 C4 C9 -156.1(4)
C17 C18 C19 C20 1.0(8)
C18 C17 C22 C21 -1.7(7)
C18 C19 C20 C21 -1.9(8)
C19 C20 C21 C22 1.0(8)
C20 C21 C22 C17 0.8(8)
C22 C17 C18 C19 0.9(7)
