#------------------------------------------------------------------------------
#$Date: 2015-07-10 23:18:58 +0300 (Fri, 10 Jul 2015) $
#$Revision: 143323 $
#$URL: svn://www.crystallography.net/cod/cif/1/51/93/1519372.cif $
#------------------------------------------------------------------------------
#
# This file is available in the Crystallography Open Database (COD),
# http://www.crystallography.net/
#
# All data on this site have been placed in the public domain by the
# contributors.
#
data_1519372
loop_
_publ_author_name
'Bedin, Michele'
'Karim, Alavi'
'Reitti, Marcus'
'Carlsson, Anna-Carin C.'
'Topi\'c, Filip'
'Cetina, Mario'
'Pan, Fangfang'
'Havel, Vaclav'
'Al-Ameri, Fatima'
'Sindelar, Vladimir'
'Rissanen, Kari'
'Gr\"afenstein, J\"urgen'
'Erd\'elyi, M\'at\'e'
_publ_section_title
;
 Counterion influence on the N--I--N halogen bond
;
_journal_issue                   7
_journal_name_full               'Chem. Sci.'
_journal_page_first              3746
_journal_paper_doi               10.1039/C5SC01053E
_journal_volume                  6
_journal_year                    2015
_chemical_formula_moiety         'C10 H10 I N2 +, N O3 -'
_chemical_formula_sum            'C10 H10 I N3 O3'
_chemical_formula_weight         347.11
_chemical_name_systematic        '[bis(pyridine)iodine]nitrate'
_chemical_properties_physical    Moisture-sensitive
_space_group_crystal_system      triclinic
_space_group_IT_number           2
_space_group_name_Hall           '-P 1'
_space_group_name_H-M_alt        'P -1'
_symmetry_space_group_name_Hall  '-P 1'
_symmetry_space_group_name_H-M   'P -1'
_atom_sites_solution_hydrogens   geom
_atom_sites_solution_primary     direct
_atom_sites_solution_secondary   difmap
_audit_creation_method           SHELXL-2014/7
_audit_update_record
;
2015-03-23 deposited with the CCDC.
2015-04-20 downloaded from the CCDC.
;
_cell_angle_alpha                99.491(4)
_cell_angle_beta                 94.725(4)
_cell_angle_gamma                117.637(4)
_cell_formula_units_Z            2
_cell_length_a                   7.0864(3)
_cell_length_b                   7.4613(3)
_cell_length_c                   13.5366(6)
_cell_measurement_reflns_used    1672
_cell_measurement_temperature    173.0(1)
_cell_measurement_theta_max      29.2710
_cell_measurement_theta_min      5.8090
_cell_volume                     614.97(5)
_computing_cell_refinement
;
CrysAlisPro, Agilent Technologies,
Version 1.171.37.31 (release 14-01-2014 CrysAlis171 .NET)
(compiled Jan 14 2014,18:38:05)
;
_computing_data_collection
;
CrysAlisPro, Agilent Technologies,
Version 1.171.37.31 (release 14-01-2014 CrysAlis171 .NET)
(compiled Jan 14 2014,18:38:05)
;
_computing_data_reduction
;
CrysAlisPro, Agilent Technologies,
Version 1.171.37.31 (release 14-01-2014 CrysAlis171 .NET)
(compiled Jan 14 2014,18:38:05)
;
_computing_publication_material  'WinGX (Farrugia, 2012)'
_computing_structure_refinement  'SHELXL-2014/7 (Sheldrick, 2014)'
_computing_structure_solution    'SIR97 (Altomare et al., 1999)'
_diffrn_ambient_temperature      173.0(1)
_diffrn_detector_area_resol_mean 5.1977
_diffrn_measured_fraction_theta_full 0.999
_diffrn_measured_fraction_theta_max 0.893
_diffrn_measurement_device_type  'SuperNova, Dual, Cu at zero, Atlas'
_diffrn_measurement_method       '\w scans'
_diffrn_radiation_monochromator  mirror
_diffrn_radiation_source         'SuperNova (Mo) X-ray Source'
_diffrn_radiation_type           MoK\a
_diffrn_radiation_wavelength     0.71073
_diffrn_reflns_av_R_equivalents  0.020
_diffrn_reflns_av_unetI/netI     0.030
_diffrn_reflns_laue_measured_fraction_full 0.999
_diffrn_reflns_laue_measured_fraction_max 0.893
_diffrn_reflns_limit_h_max       9
_diffrn_reflns_limit_h_min       -8
_diffrn_reflns_limit_k_max       10
_diffrn_reflns_limit_k_min       -9
_diffrn_reflns_limit_l_max       16
_diffrn_reflns_limit_l_min       -17
_diffrn_reflns_number            7724
_diffrn_reflns_point_group_measured_fraction_full 0.999
_diffrn_reflns_point_group_measured_fraction_max 0.893
_diffrn_reflns_theta_full        25.250
_diffrn_reflns_theta_max         29.410
_diffrn_reflns_theta_min         3.167
_exptl_absorpt_coefficient_mu    2.609
_exptl_absorpt_correction_T_max  1.000
_exptl_absorpt_correction_T_min  0.470
_exptl_absorpt_correction_type   gaussian
_exptl_absorpt_process_details
;
CrysAlisPro, Agilent Technologies,
Version 1.171.37.31 (release 14-01-2014 CrysAlis171 .NET)
(compiled Jan 14 2014,18:38:05)
Numerical absorption correction based on gaussian integration over
 a multifaceted crystal model.
Empirical absorption correction using spherical harmonics,
 implemented in SCALE3 ABSPACK scaling algorithm.
;
_exptl_crystal_colour            colourless
_exptl_crystal_density_diffrn    1.875
_exptl_crystal_density_method    'not measured'
_exptl_crystal_description       block
_exptl_crystal_F_000             336
_exptl_crystal_size_max          0.288
_exptl_crystal_size_mid          0.232
_exptl_crystal_size_min          0.152
_refine_diff_density_max         0.789
_refine_diff_density_min         -0.796
_refine_diff_density_rms         0.113
_refine_ls_extinction_method     none
_refine_ls_goodness_of_fit_ref   1.000
_refine_ls_hydrogen_treatment    constr
_refine_ls_matrix_type           full
_refine_ls_number_parameters     186
_refine_ls_number_reflns         5116
_refine_ls_number_restraints     142
_refine_ls_restrained_S_all      1.080
_refine_ls_R_factor_all          0.0527
_refine_ls_R_factor_gt           0.0332
_refine_ls_shift/su_max          0.000
_refine_ls_shift/su_mean         0.000
_refine_ls_structure_factor_coef Fsqd
_refine_ls_weighting_details
'w=1/[\s^2^(Fo^2^)+(0.0621P)^2^] where P=(Fo^2^+2Fc^2^)/3'
_refine_ls_weighting_scheme      calc
_refine_ls_wR_factor_gt          0.0956
_refine_ls_wR_factor_ref         0.1043
_reflns_Friedel_coverage         0.000
_reflns_number_gt                3322
_reflns_number_total             5116
_reflns_threshold_expression     'I > 2\s(I)'
_cod_data_source_file            c5sc01053e2.cif
_cod_data_source_block           7-I
_cod_depositor_comments
'Adding full bibliography for 1519367--1519381.cif.'
_cod_database_code               1519372
_shelx_shelxl_version_number     2014/7
_shelx_space_group_comment
;
The symmetry employed for this shelxl refinement is uniquely defined
by the following loop, which should always be used as a source of
symmetry information in preference to the above space-group names.
They are only intended as comments.
;
_shelx_estimated_absorpt_t_min   0.520
_shelx_estimated_absorpt_t_max   0.693
_shelx_res_file
;

    shelxl.res created by SHELXL-2014/7


TITL ME_2_INO3_130629_av_outrej_Freq_gauss_bpc in P-1
CELL  0.71073   7.0864   7.4613  13.5366   99.491   94.725  117.637
ZERR     2.00   0.0003   0.0003   0.0006    0.004    0.004    0.004

LATT   1

SFAC  C    H    N    O    I
UNIT  20   20   6    6    2

OMIT -3.00  180
OMIT  2   4  -6

ACTA 50.50
L.S.  50
PLAN   25
FMAP   2
MERG   2
BOND $H
CONF

SADI 0.01 N1C O1C N1C O2C N1C O3C N1C O4C N1C O5C N1C O6C
SADI O1C O2C O2C O3C O3C O1C O4C O5C O5C O6C O6C O4C
FLAT 0.05 N1C O1C O2C O3C O4C O5C O6C

RIGU N1C O1C O2C O3C O4C O5C O6C
SIMU 0.02 0.02 N1C O1C O2C O3C O4C O5C O6C

SIZE 0.1520 0.2322 0.2884
TEMP -100

WGHT    0.062100
BASF   0.34938
FVAR       7.11181   0.71296
MOLE    1
C2A   1    0.506914    0.733651    0.005964    11.00000    0.03592    0.06528 =
         0.07947    0.04358    0.01881    0.02305
AFIX  43
H2A   2    0.512988    0.655190   -0.055352    11.00000   -1.20000
AFIX   0
C3A   1    0.314671    0.666562    0.042050    11.00000    0.03924    0.09013 =
         0.10844    0.06494    0.02693    0.03317
AFIX  43
H3A   2    0.188987    0.543442    0.005213    11.00000   -1.20000
AFIX   0
C4A   1    0.304980    0.776807    0.130498    11.00000    0.05641    0.12597 =
         0.09352    0.08100    0.04249    0.05738
AFIX  43
H4A   2    0.174197    0.729542    0.156792    11.00000   -1.20000
AFIX   0
C5A   1    0.486911    0.957086    0.181018    11.00000    0.08373    0.12797 =
         0.05101    0.05342    0.03979    0.07673
AFIX  43
H5A   2    0.482379    1.037681    0.241992    11.00000   -1.20000
AFIX   0
C6A   1    0.681008    1.022143    0.141822    11.00000    0.06277    0.10030 =
         0.05029    0.03684    0.02148    0.05801
AFIX  43
H6A   2    0.807891    1.146661    0.176330    11.00000   -1.20000
AFIX   0
N1A   3    0.685083    0.908024    0.056306    11.00000    0.04376    0.06485 =
         0.04673    0.03349    0.01928    0.03507
I1A   5    1.000000    1.000000    0.000000    10.50000    0.03161    0.04544 =
         0.04535    0.02194    0.01367    0.02255
MOLE    2
C2B   1    0.753942    0.481196    0.512435    11.00000    0.04287    0.05721 =
         0.04357    0.01527    0.00761    0.02999
AFIX  43
H2B   2    0.776291    0.433968    0.447145    11.00000   -1.20000
AFIX   0
C3B   1    0.845701    0.690270    0.553767    11.00000    0.03566    0.05199 =
         0.07892    0.02464    0.00902    0.02255
AFIX  43
H3B   2    0.932453    0.788323    0.517645    11.00000   -1.20000
AFIX   0
C4B   1    0.810697    0.756833    0.648456    11.00000    0.05296    0.03784 =
         0.07993    0.00080   -0.01196    0.02261
AFIX  43
H4B   2    0.875447    0.901310    0.678252    11.00000   -1.20000
AFIX   0
C5B   1    0.683262    0.615285    0.699177    11.00000    0.08491    0.06315 =
         0.04095    0.00156   -0.00195    0.04167
AFIX  43
H5B   2    0.656004    0.658127    0.764015    11.00000   -1.20000
AFIX   0
C6B   1    0.596206    0.409531    0.653304    11.00000    0.06630    0.05907 =
         0.03584    0.01146    0.00176    0.03516
AFIX  43
H6B   2    0.504968    0.308662    0.686978    11.00000   -1.20000
AFIX   0
N1B   3    0.634263    0.344956    0.563290    11.00000    0.03913    0.04169 =
         0.03461    0.01202    0.00226    0.02118
I1B   5    0.500000    0.000000    0.500000    10.50000    0.03702    0.03853 =
         0.03402    0.01018    0.00244    0.02034
MOLE    3
N1C   3    0.850726    0.613678    0.259075    11.00000    0.05502    0.04498 =
         0.04685    0.00848    0.01660    0.01564
PART 1
O1C   4    0.794379    0.676157    0.193096    21.00000    0.07423    0.08242 =
         0.05569    0.03751    0.00283    0.03330
O2C   4    0.985035    0.726080    0.335934    21.00000    0.08168    0.07632 =
         0.07316    0.02154   -0.02832    0.00599
O3C   4    0.776264    0.422722    0.254753    21.00000    0.14147    0.05673 =
         0.07945    0.01227    0.01547    0.04676
PART 2
O4C   4    0.920710    0.521092    0.296264   -21.00000    0.09177    0.08985 =
         0.05737    0.00970    0.00220    0.05739
O5C   4    0.741905    0.550046    0.171352   -21.00000    0.11774    0.05626 =
         0.07103    0.01849   -0.00708    0.03224
O6C   4    0.870869    0.781473    0.306771   -21.00000    0.09583    0.05615 =
         0.10965   -0.00230    0.01168    0.01957
HKLF    5

REM  ME_2_INO3_130629_av_outrej_Freq_gauss_bpc in P-1
REM R1 =  0.0332 for    3322 Fo > 4sig(Fo)  and  0.0527 for all    5116 data
REM    186 parameters refined using    142 restraints

END

WGHT      0.0621      0.0000

REM Highest difference peak  0.789,  deepest hole -0.796,  1-sigma level  0.113
Q1    1   0.5461 -0.0776  0.4574  11.00000  0.05    0.79
Q2    1   0.9568  1.0769  0.0451  11.00000  0.05    0.77
Q3    1   0.5633  1.0951  0.2114  11.00000  0.05    0.58
Q4    1   0.8053  0.7996  0.2757  11.00000  0.05    0.51
Q5    1   0.3569  0.7682  0.0943  11.00000  0.05    0.48
Q6    1   0.3663  0.9126  0.1753  11.00000  0.05    0.47
Q7    1   0.3693 -0.1139  0.4859  11.00000  0.05    0.46
Q8    1   0.8369  1.0072  0.3627  11.00000  0.05    0.43
Q9    1   1.1342  1.1225  0.0149  11.00000  0.05    0.40
Q10   1   0.8714  0.9699  0.0272  11.00000  0.05    0.40
Q11   1   0.7675  0.5564  0.1103  11.00000  0.05    0.38
Q12   1   0.9835  1.0784  0.1212  11.00000  0.05    0.37
Q13   1   0.6402  0.2709  0.5818  11.00000  0.05    0.36
Q14   1   0.8572  0.6425  0.1318  11.00000  0.05    0.36
Q15   1   0.8773  0.8296  0.3448  11.00000  0.05    0.35
Q16   1   0.8328  0.6890  0.3707  11.00000  0.05    0.34
Q17   1   0.7778  0.4766  0.1433  11.00000  0.05    0.33
Q18   1   0.9172  0.5236  0.2302  11.00000  0.05    0.33
Q19   1   0.5170 -0.0821  0.3803  11.00000  0.05    0.32
Q20   1   0.6630  0.6255  0.1870  11.00000  0.05    0.32
Q21   1   0.8593  0.7596  0.5932  11.00000  0.05    0.32
Q22   1   0.2527  0.4626 -0.0121  11.00000  0.05    0.31
Q23   1   0.6422  0.3823  0.2352  11.00000  0.05    0.31
Q24   1   0.7214  1.1350  0.1655  11.00000  0.05    0.31
Q25   1   1.1817  0.8991  0.5332  11.00000  0.05    0.31
;
_shelx_res_checksum              51728
_shelx_hkl_file
;
   0   0   3 1471.68 133.704   1
   0   0   4 315769. 1984.32   1
   0   0   5 1649.83 189.439   1
   0   0   6 264066. 2282.92   1
   0   0   7 360.089 182.423   1
   0   0   8 61553.4 1288.43   1
   0   0  -9-3.82524 144.548   1
   0   0  10 32514.5 754.797   1
   0   0  11-78.9491 266.620   1
   0   0  12 34522.2 1257.75   1
   0   0  13 2138.32 423.158   1
   0   0  14 18969.2 1048.85   1
   0   0  15 545.177 361.495   1
   0   0  16 10097.3 895.230   1
   0   1 -16 8939.49 602.874   1
   0  -1  15-106.633 386.107   1
   0  -1  14 23293.9 1132.21   1
   0  -1  13 156.868 306.100   1
   0  -1  12 23221.7 1039.21   1
   0  -1  11 449.561 264.476   1
   0   1 -10 55652.6 971.739   1
   0  -1   9 1077.00 259.893   1
   0  -1   8 84208.5 1481.63   1
   0  -1   7 7706.51 436.623   1
   0  -1   6 145001. 1659.62   1
   0  -1   5 2701.57 224.690   1
   0  -1   4 79929.7 1000.70   1
   1   0   3 145309. 1340.19  -2
   0   1  -4 145309. 1340.19   1
   1   0   2 28912.1 645.290  -2
   0   1  -3 28912.1 645.290   1
   1   0   1 364434. 2562.89  -2
   0   1  -2 364434. 2562.89   1
   0   1   1 139756. 1025.94   1
   0   1   2 416328. 8248.60   1
   0   1   3 1158.85 143.840   1
   0   1   4 97920.7 1238.14   1
   0   1   5 1556.03 214.581   1
   0   1   6 154788. 1856.74   1
   0   1   7 12.8898 190.144   1
   0   1   8 74481.2 1483.60   1
   0  -1  -9 1481.17 217.410   1
   0   1  10 49522.1 1374.53   1
   0   1  11 3146.27 469.793   1
   0   1  12 26757.6 1161.15   1
   0   1  13 210.248 363.723   1
   0   1  14 7351.92 707.881   1
   0   1  15 592.011 427.841   1
   0   2 -16 12581.7 1016.98   1
   0   2 -15 5.86376 393.399   1
   0   2 -14 17608.6 1055.77   1
   0   2 -13-41.5914 330.981   1
   0   2 -12 63495.2 1701.03   1
   0   2 -11 1197.54 331.868   1
   0   2 -10 78490.4 1176.12   1
   0   2  -9 5216.97 311.182   1
   0   2  -8 104497. 1721.53   1
   2   0   5 1522.73 292.895  -2
   0   2  -7 1522.73 292.895   1
   2   0   4 251192. 2417.44  -2
   0   2  -6 251192. 2417.44   1
   2   0   3 7583.43 517.603  -2
   0   2  -5 7583.43 517.603   1
   2   0   2 288797. 787.851  -2
   0   2  -4 288797. 787.851   1
   2   0   1 32195.9 862.089  -2
   0   2  -3 32195.9 862.089   1
   2   0   0 170922. 1533.95  -2
   0   2  -2 170922. 1533.95   1
   2   0  -1 21929.4 514.728  -2
   0   2  -1 21929.4 514.728   1
   0   2   0 158799. 1437.13   1
   0   2   1 1691.39 171.858   1
   0   2   2 170384. 1632.89   1
   0   2   3 14786.7 532.372   1
   0   2   4 204916. 2039.82   1
   0   2   5 753.905 193.289   1
   0   2   6 70317.7 1386.59   1
   0   2   7 518.636 246.673   1
   0  -2  -8 70889.6 1091.92   1
   0   2   9 10139.5 656.779   1
   0   2  10 27237.1 1096.25   1
   0   2  11 320.955 318.343   1
   0   2  12 8849.45 726.708   1
   0   2  13 589.183 396.321   1
   0   2  14 8337.75 802.480   1
   0   2  15 263.948 476.586   1
   0   3 -16 16036.9 1150.95   1
   0   3 -15-96.4418 381.647   1
   0   3 -14 26101.5 1269.27   1
   0   3 -13 171.756 341.294   1
   0   3 -12 25160.0 1143.89   1
   0   3 -11 3715.27 480.912   1
   0   3 -10 71433.4 1655.44   1
   3   0   6 1532.71 261.147  -2
   0   3  -9 1532.71 261.147   1
   3   0   5 91972.1 1351.63  -2
   0   3  -8 91972.1 1351.63   1
   3   0   4 614.010 295.407  -2
   0   3  -7 614.010 295.407   1
   3   0   3 130265. 2367.33  -2
   0   3  -6 130265. 2367.33   1
   3   0   2 3313.98 213.933  -2
   0   3  -5 3313.98 213.933   1
   3   0   1 211217. 928.028  -2
   0   3  -4 211217. 928.028   1
   3   0   0 3400.80 325.935  -2
   0   3  -3 3400.80 325.935   1
   0   3  -2 152302. 1675.35   1
   0   3  -1 61.5139 155.113   1
   0   3   0 273089. 2311.86   1
   0   3   1 51.7590 144.557   1
   0   3   2 100443. 1468.98   1
   0   3   3 964.424 217.104   1
   0   3   4 76063.5 1415.61   1
   0   3   5 673.801 240.232   1
   0   3   6 61966.5 993.113   1
   0   3   7 749.009 260.807   1
   0   3   8 20063.7 919.317   1
   0   3   9 175.054 302.108   1
   0   3  10 11137.5 768.038   1
   0   3  11 919.415 388.395   1
   0   3  12 12141.8 875.600   1
   0   3  13 100.973 416.630   1
   0   4 -16 10424.8 917.320   1
   0   4 -15 377.884 426.202   1
   0   4 -14 24485.1 1223.24   1
   0   4 -13 114.078 386.773   1
   4   0   8 49983.8 1594.20  -2
   0   4 -12 49983.8 1594.20   1
   4   0   7 644.490 482.987  -2
   0   4 -11 644.490 482.987   1
   4   0   6 109393. 1537.06  -2
   0   4 -10 109393. 1537.06   1
   4   0   5 5334.02 401.258  -2
   0   4  -9 5334.02 401.258   1
   4   0   4 137156. 1642.53  -2
   0   4  -8 137156. 1642.53   1
   4   0   3 1178.61 171.180  -2
   0   4  -7 1178.61 171.180   1
   4   0   2 131001. 903.764  -2
   0   4  -6 131001. 903.764   1
   4   0   1 3188.95 376.221  -2
   0   4  -5 3188.95 376.221   1
   0   4  -4 64518.7 1291.64   1
   0   4  -3 178.854 187.923   1
   0   4  -2 109305. 1666.68   1
   0   4  -1 648.392 63.2908   1
   0   4   0 89528.2 1539.25   1
   0   4   1-46.0324 196.372   1
   0   4   2 99405.5 1663.48   1
   0   4   3 823.200 177.061   1
   0  -4  -4 37725.9 806.298   1
   0   4   5 143.130 235.234   1
   0   4   6 60222.4 1523.81   1
   0   4   7 907.110 329.254   1
   0   4   8 30191.4 1195.76   1
   0   4   9 426.523 331.383   1
   0   4  10 11711.7 838.652   1
   0   4  11 867.586 400.509   1
   0   4  12 6763.49 746.088   1
   0   5 -15-18.4673 417.200   1
   5   0   9 22076.2 1205.75  -2
   0   5 -14 22076.2 1205.75   1
   5   0   8 250.911 504.490  -2
   0   5 -13 250.911 504.490   1
   5   0   7 39827.0 1719.10  -2
   0   5 -12 39827.0 1719.10   1
   5   0   6 93.6298 233.693  -2
   0   5 -11 93.6298 233.693   1
   5   0   5 51001.1 1110.09  -2
   0   5 -10 51001.1 1110.09   1
   5   0   4 1229.27 224.713  -2
   0   5  -9 1229.27 224.713   1
   5   0   3 88715.6 847.728  -2
   0   5  -8 88715.6 847.728   1
   5   0   2 2201.45 403.105  -2
   0   5  -7 2201.45 403.105   1
   0   5  -6 54187.4 1381.52   1
   0   5  -5 207.933 226.682   1
   0   5  -4 40676.3 837.130   1
   0   5  -3 209.065 154.599   1
   0   5  -2 22694.5 634.693   1
   0  -5   1-33.2558 152.185   1
   0   5   0 47917.9 605.014   1
   0   5   1 274.141 250.444   1
   0   5   2 21250.7 884.550   1
   0   5   3-97.8172 235.052   1
   0   5   4 30372.1 1117.94   1
   0   5   5 3927.87 499.366   1
   0   5   6 14108.8 853.022   1
   0   5   7 81.1140 323.074   1
   0   5   8 13111.9 869.369   1
   0   5   9 706.250 357.269   1
   0   5  10 3253.66 557.955   1
   6   0   8 15423.5 1271.49  -2
   0   6 -14 15423.5 1271.49   1
   6   0   7 14.9018 528.845  -2
   0   6 -13 14.9018 528.845   1
   6   0   6 17026.3 1359.75  -2
   0   6 -12 17026.3 1359.75   1
   6   0   5 140.477 146.753  -2
   0   6 -11 140.477 146.753   1
   6   0   4 34864.2 1542.11  -2
   0   6 -10 34864.2 1542.11   1
   6   0   3 43.0040 474.068  -2
   0   6  -9 43.0040 474.068   1
   6   0   2 37965.1 1321.44  -2
   0   6  -8 37965.1 1321.44   1
   0   6  -7 1253.03 350.233   1
   0   6  -6 32592.6 1185.50   1
   0   6  -5 36.9030 284.971   1
   0   6  -4 45350.2 1371.46   1
   0   6  -3 1680.75 388.674   1
   0   6  -2 44970.6 1387.96   1
   0   6  -1 534.287 343.106   1
   0   6   0 15409.5 313.235   1
   0   6   1 233.427 124.401   1
   0   6   2 29360.5 637.399   1
   0   6   3 2097.39 422.888   1
   0   6   4 12211.4 820.673   1
   0   6   5-65.8815 334.939   1
   0   6   6 6182.49 657.173   1
   0   6   7 75.8889 372.153   1
   0   6   8 4246.08 590.205   1
   7   0   4-43.6098 576.438  -2
   0   7 -11-43.6098 576.438   1
   7   0   3 23151.0 1180.43  -2
   0   7 -10 23151.0 1180.43   1
   0   7  -9 1366.68 433.904   1
   0   7  -8 18154.6 1002.40   1
   0   7  -7-36.2863 300.377   1
   0   7  -6 20664.9 1052.81   1
   0   7  -5 139.873 331.798   1
   0   7  -4 19682.2 1026.86   1
   0   7  -3 39.4429 332.792   1
   0   7  -2 15094.6 911.802   1
   0   7  -1-37.0944 225.341   1
   0   7   0 11948.3 794.098   1
   0   7   1-58.0385 305.022   1
   0   7   2 8410.43 726.913   1
   0   7   3-40.9926 355.093   1
   0   7   4 5625.00 650.224   1
   0   7   5 415.598 317.563   1
   0   8  -8 15009.8 1030.38   1
   0   8  -7-104.441 398.522   1
   0   8  -6 10363.1 836.571   1
   0   8  -5 200.697 364.610   1
   0   8  -4 6848.31 721.588   1
   0   8  -3-277.422 387.389   1
   0   8  -2 8873.91 742.114   1
   0   8  -1-4.01957 326.131   1
   0   8   0 8361.51 775.063   1
  -1   8   3 5226.33 623.367   1
  -1   8   2 16.4238 313.622   1
  -1   8   1 8021.73 707.875   1
  -1   8   0 160.167 323.589   1
  -1   8  -1 5818.11 610.286   1
  -1   8  -2-138.890 360.585   1
  -1   8  -3 9350.84 788.449   1
  -1   8  -4-146.023 349.437   1
  -1   8  -5 11881.1 868.845   1
  -1   8  -6 108.906 342.312   1
  -1   8  -7 13223.4 920.415   1
  -1   8  -8-358.880 365.390   1
  -1   8  -9 12286.4 899.864   1
  -1   8 -10 151.861 379.382   1
  -1   7   7 4600.37 618.690   1
  -1   7   6 288.449 354.083   1
  -1   7   5 6958.11 666.283   1
  -1   7   4 2.54088 324.338   1
  -1   7   3 9166.29 731.781   1
  -1   7   2-173.538 318.654   1
  -1   7   1 11075.3 382.277   1
   1  -7   0 395.995 102.967   1
  -1   7  -1 23754.5 1076.40   1
  -1   7  -2-125.757 309.518   1
  -1   7  -3 15824.5 880.419   1
  -1   7  -4 988.422 340.087   1
  -1   7  -5 35048.7 1276.43   1
  -1   7  -6 1096.63 362.737   1
  -1   7  -7 23896.5 1071.44   1
  -1   7  -8-41.3257 329.009   1
  -1   7  -9 25500.7 1178.26   1
  -1   7 -10-2.56080 329.047   1
   7  -1   5 27356.7 1263.44  -2
  -1   7 -11 27356.7 1263.44   1
   7  -1   6-154.926 539.241  -2
  -1   7 -12-154.926 539.241   1
   7  -1   7 15762.4 1281.93  -2
  -1   7 -13 15762.4 1281.93   1
  -1   6   9 5014.10 630.012   1
  -1   6   8 67.3182 325.422   1
  -1   6   7 8994.53 736.389   1
  -1   6   6 398.549 344.247   1
  -1   6   5 26829.7 1145.73   1
  -1   6   4 65.7981 290.688   1
  -1   6   3 23847.9 1017.33   1
  -1   6   2 689.629 288.366   1
  -1   6   1 34504.2 1132.36   1
  -1   6   0 71.6702 118.407   1
   1  -6   1 33880.8 466.827   1
  -1   6  -2 24.2798 257.492   1
  -1   6  -3 48719.2 1325.24   1
  -1   6  -4 321.732 241.545   1
  -1   6  -5 9274.43 621.943   1
  -1   6  -6 861.476 280.814   1
  -1   6  -7 31230.3 1146.72   1
  -1   6  -8 50.2156 83.6494   1
  -1   6  -9 20445.7 552.223   1
   6  -1   4 27742.3 1115.38  -2
  -1   6  -9 27742.3 1115.38   1
   6  -1   5 1752.85 497.597  -2
  -1   6 -10 1752.85 497.597   1
   6  -1   6 45870.1 1902.35  -2
  -1   6 -11 45870.1 1902.35   1
   6  -1   7 1137.60 572.765  -2
  -1   6 -12 1137.60 572.765   1
   6  -1   8 25819.9 1680.98  -2
  -1   6 -13 25819.9 1680.98   1
   6  -1   9 530.508 570.265  -2
  -1   6 -14 530.508 570.265   1
  -1   5  11 7586.59 737.981   1
  -1   5  10 336.563 320.860   1
  -1   5   9 6757.93 656.624   1
  -1   5   8 506.375 342.416   1
  -1   5   7 26246.1 1111.32   1
  -1   5   6 38.4412 280.847   1
  -1   5   5 35544.4 1187.42   1
  -1   5   4-60.1646 258.604   1
  -1   5   3 68559.4 1516.90   1
  -1   5   2 99.0700 167.539   1
   1  -5  -1 58484.7 951.980   1
  -1   5   0 447.532 174.854   1
  -1   5  -1 86610.2 761.595   1
   1  -5   2 2194.82 117.192   1
   1  -5   3 81491.4 1107.58   1
  -1   5  -4 267.850 158.736   1
  -1   5  -5 111127. 1331.07   1
   1  -5   6 1690.25 126.639   1
  -1   5  -7 46246.5 783.144   1
   5  -1   3 82090.1 1628.71  -2
  -1   5  -7 82090.1 1628.71   1
   5  -1   4 421.897 198.429  -2
  -1   5  -8 421.897 198.429   1
   5  -1   5 80602.3 1166.67  -2
  -1   5  -9 80602.3 1166.67   1
   5  -1   6 1142.03 262.734  -2
  -1   5 -10 1142.03 262.734   1
   5  -1   7 52544.4 551.612  -2
  -1   5 -11 52544.4 551.612   1
   5  -1   8 186.597 104.938  -2
  -1   5 -12 186.597 104.938   1
   5  -1   9 48029.7 1981.00  -2
  -1   5 -13 48029.7 1981.00   1
   5  -1  10 96.3608 561.428  -2
  -1   5 -14 96.3608 561.428   1
   5  -1  11 17398.1 1155.23  -2
  -1   5 -15 17398.1 1155.23   1
  -1   4  13 5609.21 699.150   1
  -1   4  12 773.005 407.985   1
  -1   4  11 9238.21 780.538   1
  -1   4  10 2024.05 436.817   1
  -1   4   9 31186.3 1220.45   1
  -1   4   8 4635.25 496.901   1
  -1   4   7 13661.8 745.071   1
  -1   4   6 307.368 240.647   1
   1  -4  -5 41526.8 837.923   1
  -1   4   4 11.2162 142.678   1
  -1   4   3 74347.2 1408.63   1
  -1   4   2-72.1925 174.367   1
  -1   4   1 67380.2 1227.01   1
  -1   4   0 4578.78 358.305   1
  -1   4  -1 69269.9 634.726   1
   1  -4   2 404.592 71.2558   1
  -1   4  -3 148996. 902.938   1
  -1   4  -4 907.997 102.512   1
  -1   4  -5 107643. 898.746   1
   4  -1   3 2572.09 175.413  -2
  -1   4  -6 2572.09 175.413   1
  -4   1  -4 121891. 1124.93  -2
   1  -4   7 121891. 1124.93   1
   4  -1   5 265.472 93.2293  -2
  -1   4  -8 265.472 93.2293   1
   4  -1   6 76083.7 420.127  -2
  -1   4  -9 76083.7 420.127   1
   4  -1   7 96.8220 74.5650  -2
  -1   4 -10 96.8220 74.5650   1
   4  -1   8 60636.2 1327.01  -2
  -1   4 -11 60636.2 1327.01   1
   4  -1  10 26747.0 1213.40  -2
  -1   4 -13 26747.0 1213.40   1
  -1   4 -14 947.895 383.095   1
  -1   4 -15 14796.5 1002.58   1
  -1   4 -16 134.812 445.382   1
  -1   3  14 91.6275 348.401   1
  -1   3  13 6976.70 708.762   1
  -1   3  12 1243.66 407.419   1
  -1   3  11 15724.9 912.013   1
  -1   3  10-116.988 275.851   1
  -1   3   9 17259.4 866.018   1
  -1   3   8-15.2889 236.029   1
   1  -3  -7 51106.9 908.994   1
  -1   3   6 8545.60 363.834   1
  -1   3   5 115416. 1708.98   1
  -1   3   4 46.0485 163.026   1
  -1   3   3 132544. 1633.75   1
  -1   3   2 4105.59 303.206   1
  -1   3   1 204259. 1792.15   1
  -1   3   0 11900.5 452.946   1
  -1   3  -1 309237. 2058.37   1
   1  -3   2 1679.37 105.656   1
  -1   3  -3 135926. 865.204   1
   3  -1   2 2090.38 157.587  -2
  -1   3  -4 2090.38 157.587   1
   3  -1   3 66261.9 816.650  -2
  -1   3  -5 66261.9 816.650   1
   3  -1   4 209.516 127.420  -2
  -1   3  -6 209.516 127.420   1
   3  -1   5 162716. 704.267  -2
  -1   3  -7 162716. 704.267   1
   3  -1   6 3813.79 276.196  -2
  -1   3  -8 3813.79 276.196   1
   3  -1   7 97503.7 1206.35  -2
  -1   3  -9 97503.7 1206.35   1
   3  -1   8 1878.31 291.361  -2
  -1   3 -10 1878.31 291.361   1
   3  -1   9 53173.4 1010.36  -2
  -1   3 -11 53173.4 1010.36   1
  -1   3 -12 1655.12 375.327   1
  -1   3 -13 40055.2 1459.21   1
  -1   3 -14 4745.26 622.026   1
  -1   3 -15 21041.2 1224.11   1
  -1   3 -16-23.5698 402.996   1
  -1   2  15 7466.89 751.569   1
  -1   2  14 115.052 392.451   1
  -1   2  13 15908.9 988.715   1
  -1   2  12 92.3494 316.869   1
  -1   2  11 25925.1 1096.33   1
  -1   2  10 297.858 291.263   1
   1  -2  -9 45067.0 885.622   1
   1  -2  -8 1661.50 218.599   1
  -1   2   7 95469.2 1632.86   1
  -1   2   6 4122.85 344.434   1
  -1   2   5 130012. 1630.61   1
  -1   2   4 432.892 152.429   1
  -1   2   3 276646. 1999.92   1
  -1   2   2 11803.0 381.332   1
  -1   2   1 155820. 1231.86   1
  -1   2   0 3907.67 206.756   1
  -1   2  -1 577963. 5407.24   1
   2  -1   0 999999. 11625.5  -2
  -1   2  -1 999999. 11625.5   1
   2  -1   1 258453. 1004.72  -2
  -1   2  -2 258453. 1004.72   1
   2  -1   2 676766. 7346.16  -2
  -1   2  -3 676766. 7346.16   1
   2  -1   3 25863.2 542.831  -2
  -1   2  -4 25863.2 542.831   1
   2  -1   4 276280. 538.567  -2
  -1   2  -5 276280. 538.567   1
   2  -1   5 18211.3 465.600  -2
  -1   2  -6 18211.3 465.600   1
  -2   1  -6 218614. 1708.19  -2
   1  -2   7 218614. 1708.19   1
   2  -1   7 9246.24 307.862  -2
  -1   2  -8 9246.24 307.862   1
  -1   2  -9 103442. 1257.86   1
   2  -1   8 147903. 2003.00  -2
  -1   2  -9 147903. 2003.00   1
   1  -2  10 1166.11 164.860   1
  -1   2 -11 32942.3 816.617   1
  -1   2 -12 680.447 221.250   1
  -1   2 -13 22060.5 759.686   1
   1  -2  14-150.734 271.969   1
   1  -2  15 7885.90 538.195   1
  -1   2 -16 150.822 277.691   1
  -1   1  16-352.512 382.824   1
  -1   1  15 7338.06 759.917   1
  -1   1  14 443.211 359.903   1
  -1   1  13 28461.7 1220.70   1
  -1   1  12 137.461 302.926   1
  -1   1  11 42095.8 1327.28   1
  -1   1  10 764.483 291.205   1
   1  -1  -9 67324.9 1024.96   1
  -1   1   8 1020.12 246.577   1
  -1   1   7 32082.7 881.670   1
  -1   1   6 592.676 176.057   1
  -1   1   5 116171. 1413.26   1
  -1   1   4 0.64058 102.087   1
  -1   1   3 119524. 1105.46   1
  -1   1   2 395.613 79.3900   1
  -1   1   1 160818. 834.095   1
  -1   1   0 14.5830 33.0450   1
  -1   1  -1 159046. 3238.93   1
   1  -1   1 154285. 1055.09  -2
  -1   1  -1 154285. 1055.09   1
  -1   1  -2 2071.17 73.8341  -2
   1  -1   2 2071.17 73.8341   1
  -1   1  -4 77.2812 95.2537  -2
   1  -1   4 77.2812 95.2537   1
  -1   1  -5 357321. 1599.19  -2
   1  -1   5 357321. 1599.19   1
   1  -1   6 30.5961 98.6213   1
  -1   1  -7 155596. 1337.88   1
  -1   1  -8 2781.75 219.524   1
  -1   1  -9 104697. 1252.97   1
  -1   1 -10 388.573 170.284   1
   1  -1  11 44066.3 1306.74   1
   1  -1  12 997.981 322.900   1
   1  -1  13 14286.2 859.203   1
   1  -1  14 53.2960 325.187   1
   1  -1  15 13503.2 945.273   1
   1  -1  16 706.082 417.939   1
  -1   0  16 1751.40 471.978   1
  -1   0  15 16253.4 1020.27   1
  -1   0  14 47.1565 374.177   1
  -1   0  13 21840.6 1051.67   1
  -1   0  12 99.9452 252.127   1
  -1   0  11 51108.6 1381.78   1
   1   0 -10 886.314 181.705   1
   1   0  -9 76850.4 1070.37   1
  -1   0   8 1454.35 247.288   1
  -1   0   7 146902. 1790.23   1
  -1   0   6 11311.3 476.750   1
  -1   0   5 98748.8 1217.50   1
  -1   0   4 721.211 120.744   1
  -1   0   3 536101. 8753.88   1
   1   0  -2 104948. 813.583   1
   0   1   0 156927. 917.465  -2
   1   0  -1 156927. 917.465   1
   0   1  -1 15604.3 394.355  -2
   1   0   0 15604.3 394.355   1
   0   1  -2 328557. 8122.43  -2
   1   0   1 328557. 8122.43   1
   0   1  -3 19893.7 430.557  -2
   1   0   2 19893.7 430.557   1
   0   1  -4 148985. 1228.05  -2
   1   0   3 148985. 1228.05   1
   1   0   4-7.07938 102.048   1
   1   0   5 131549. 1070.83   1
  -1   0  -6 407.064 117.572   1
   1   0   7 62055.8 871.916   1
  -1   0  -8 2272.24 215.206   1
   1   0   9 56537.2 950.931   1
   1   0  10 2351.79 395.710   1
   1   0  11 28614.1 1101.46   1
   1   0  12 855.994 359.274   1
   1   0  13 18937.3 1020.31   1
   1   0  14 1740.12 459.752   1
   1   0  15 7351.27 762.379   1
   1   0  16 104.702 416.330   1
   1   1 -16 234.231 426.313   1
  -1  -1  15 8168.42 544.974   1
   1   1 -14 284.063 243.626   1
   1   1 -13 31293.0 893.713   1
   1   1 -12 1527.82 262.419   1
  -1  -1  11 32477.8 827.436   1
   1   1 -10 648.147 146.654   1
   1   1  -9 120854. 1098.01   1
  -1  -1   8 2633.50 225.598   1
   1   1  -7 117721. 1667.29   1
   1   1  -6 268.167 165.536   1
   1   1  -5 193367. 1823.31   1
   1   1  -4 30436.5 666.099   1
   1   1   1 349753. 1979.60  -2
   1   1  -3 349753. 1979.60   1
   1   1   0 46713.5 848.112  -2
   1   1  -2 46713.5 848.112   1
   1   1  -1 361201. 4485.39  -2
   1   1  -1 361201. 4485.39   1
  -1  -1   2 39360.9 397.260  -2
  -1  -1   0 39360.9 397.260   1
  -1  -1   3 346307. 1304.27  -2
  -1  -1  -1 346307. 1304.27   1
   1   1  -4 31157.1 645.551  -2
   1   1   2 31157.1 645.551   1
   1   1   3 213691. 1832.91   1
   1   1   4 453.558 156.145   1
   1   1   5 101205. 1480.86   1
  -1  -1  -6 2300.11 205.293   1
   1   1   7 112941. 1263.90   1
   1   1   8 54.2830 158.035   1
   1   1   9 59957.7 1486.92   1
   1   1  10 191.775 319.014   1
   1   1  11 23943.5 1057.91   1
   1   1  12 1856.86 449.131   1
   1   1  13 10471.6 813.417   1
   1   1  14 222.158 378.155   1
   1   1  15 5296.81 684.394   1
   1   2 -16 242.131 412.622   1
   1   2 -15 16394.0 1067.19   1
   1   2 -14 404.546 374.395   1
   1   2 -13 56616.7 1720.53   1
   1   2 -12 547.360 342.425   1
   1   2 -11 82868.9 1873.51   1
   1   2 -10 13.2442 179.071   1
   1   2  -9 53768.9 942.768   1
   1   2  -8 1758.34 314.684   1
   1   2  -7 194689. 2227.87   1
   2   1   3 6588.78 459.393  -2
   1   2  -6 6588.78 459.393   1
   2   1   2 188364. 2016.34  -2
   1   2  -5 188364. 2016.34   1
   2   1   1 12581.9 634.102  -2
   1   2  -4 12581.9 634.102   1
   2   1   0 98888.6 805.925  -2
   1   2  -3 98888.6 805.925   1
   2   1  -1 8998.42 199.675  -2
   1   2  -2 8998.42 199.675   1
   2   1  -2 308306. 1178.60  -2
   1   2  -1 308306. 1178.60   1
  -1  -2   0 5377.22 213.704   1
   2   1  -3 5765.94 357.287  -2
   1   2   0 5765.94 357.287   1
   1   2   1 237648. 1265.56   1
  -1  -2  -2 6969.35 216.887   1
  -1  -2  -3 162749. 1328.67   1
   1   2   4 99.2750 169.147   1
   1   2   5 88520.6 1091.17   1
   1   2   6 2905.04 246.155   1
  -1  -2  -7 76579.1 1137.05   1
   1   2   8 155.620 251.875   1
   1   2   9 33942.8 1208.42   1
   1   2  10 2319.27 448.957   1
   1   2  11 11457.4 813.207   1
   1   2  12 362.471 340.189   1
   1   2  13 7220.35 752.984   1
   1   2  14-10.8710 401.079   1
   1   3 -16 1558.98 495.885   1
   1   3 -15 11890.3 916.598   1
   1   3 -14 177.796 351.123   1
   1   3 -13 20871.2 1065.51   1
   1   3 -12 1438.01 385.086   1
   1   3 -11 33751.2 1216.80   1
   1   3 -10 95.5241 296.609   1
   1   3  -9 65482.1 1529.00   1
   3   1   5 96818.5 1763.40  -2
   1   3  -9 96818.5 1763.40   1
   3   1   4 1550.23 261.610  -2
   1   3  -8 1550.23 261.610   1
   3   1   3 184191. 1851.47  -2
   1   3  -7 184191. 1851.47   1
  -3  -1  -2 5415.90 387.728  -2
  -1  -3   6 5415.90 387.728   1
   3   1   1 209423. 2897.05  -2
   1   3  -5 209423. 2897.05   1
   3   1   0 838.928 23.7356  -2
   1   3  -4 838.928 23.7356   1
   3   1  -1 223442. 2378.02  -2
   1   3  -3 223442. 2378.02   1
   3   1  -2 9000.64 482.730  -2
   1   3  -2 9000.64 482.730   1
  -1  -3   1 65573.1 537.443   1
  -1  -3   0 805.642 100.391   1
  -1  -3  -1 47391.2 626.696   1
  -1  -3  -2 750.645 109.010   1
   1   3   3 52996.6 868.590   1
   1   3   4 2549.03 238.510   1
  -1  -3  -5 53494.3 960.387   1
   1   3   6 364.122 244.648   1
   1   3   7 11986.9 719.932   1
   1   3   8-20.6668 300.082   1
   1   3   9 26293.5 1142.51   1
   1   3  10 2650.17 467.042   1
   1   3  11 16024.5 1001.30   1
   1   3  12 677.072 397.919   1
   1   3  13 5054.14 680.136   1
   1   4 -16 887.474 446.183   1
   1   4 -15 4603.14 642.657   1
   1   4 -14 151.897 349.291   1
   1   4 -13 21212.6 1101.97   1
   1   4 -12 173.596 347.764   1
   4   1   6 39019.9 1330.87  -2
   1   4 -11 39019.9 1330.87   1
   4   1   5 1675.32 466.772  -2
   1   4 -10 1675.32 466.772   1
   4   1   4 77427.1 1962.18  -2
   1   4  -9 77427.1 1962.18   1
   4   1   3 718.165 425.460  -2
   1   4  -8 718.165 425.460   1
   4   1   2 95057.9 2336.44  -2
   1   4  -7 95057.9 2336.44   1
   4   1   1 667.331 246.876  -2
   1   4  -6 667.331 246.876   1
   4   1   0 159003. 1796.57  -2
   1   4  -5 159003. 1796.57   1
   4   1  -1 3128.76 305.285  -2
   1   4  -4 3128.76 305.285   1
   1   4  -3 102345. 1249.63   1
  -1  -4   2 73.8561 162.425   1
   1   4  -1 58999.9 950.901   1
  -1  -4   0 60.9209 81.1132   1
  -1  -4  -1 34814.2 583.044   1
  -1  -4  -2 666.027 124.997   1
   1   4   3 54636.2 1377.10   1
   1   4   4 1459.02 213.780   1
   1   4   5 17662.8 872.944   1
   1   4   6 75.3039 285.888   1
   1   4   7 19328.9 977.889   1
   1   4   8 1844.50 449.335   1
   1   4   9 9522.73 780.732   1
   1   4  10 329.668 368.446   1
   1   4  11 6092.69 721.720   1
   1   5 -15 10447.3 886.431   1
   1   5 -14-70.7150 416.545   1
   5   1   7 23724.3 1218.85  -2
   1   5 -13 23724.3 1218.85   1
   5   1   6 27.6454 191.859  -2
   1   5 -12 27.6454 191.859   1
   5   1   5 36980.6 1581.34  -2
   1   5 -11 36980.6 1581.34   1
   5   1   4 872.939 468.749  -2
   1   5 -10 872.939 468.749   1
   5   1   3 23453.8 469.277  -2
   1   5  -9 23453.8 469.277   1
   5   1   2 1765.76 504.339  -2
   1   5  -8 1765.76 504.339   1
   5   1   1 64570.5 1820.88  -2
   1   5  -7 64570.5 1820.88   1
   5   1   0 1102.62 458.513  -2
   1   5  -6 1102.62 458.513   1
   1   5  -5 24567.5 977.720   1
   1   5  -4 4803.52 478.567   1
   1   5  -3 32126.2 1087.61   1
   1   5  -2-71.0720 270.812   1
   1   5  -1 44639.8 1324.38   1
   1   5   0 42.9811 89.2149   1
   1   5   1 37817.2 636.549   1
   1   5   2 1497.42 189.810   1
   1   5   3 19039.5 919.474   1
  -1  -5  -4 88.7907 191.978   1
  -1  -5  -5 20824.5 666.850   1
   1   5   6 2167.61 423.691   1
   1   5   7 8766.64 740.524   1
   1   5   8 109.837 346.946   1
   1   5   9 4848.99 628.556   1
   6   1   6 20084.2 1340.89  -2
   1   6 -13 20084.2 1340.89   1
   6   1   5-47.5445 531.330  -2
   1   6 -12-47.5445 531.330   1
   6   1   4 20694.4 1474.42  -2
   1   6 -11 20694.4 1474.42   1
   6   1   3 103.756 151.671  -2
   1   6 -10 103.756 151.671   1
   6   1   2 35495.2 1562.85  -2
   1   6  -9 35495.2 1562.85   1
   6   1   1-92.2327 486.197  -2
   1   6  -8-92.2327 486.197   1
   1   6  -7 26972.5 1137.95   1
   1   6  -6 466.677 318.747   1
   1   6  -5 44140.9 1427.35   1
   1   6  -4 284.636 301.059   1
   1   6  -3 24263.5 1078.91   1
   1   6  -2 130.123 338.315   1
   1   6  -1 22981.5 1077.48   1
   1   6   0 253.650 308.727   1
   1   6   1 21287.0 1025.34   1
   1   6   2 227.107 332.899   1
   1   6   3 8137.80 704.517   1
   1   6   4 159.242 315.160   1
   1   6   5 6690.87 658.447   1
   1   6   6 127.642 416.351   1
   7   1   2 94.3571 510.291  -2
   1   7 -10 94.3571 510.291   1
   1   7  -9 6561.76 701.898   1
   1   7  -8-36.4712 374.559   1
   1   7  -7 11320.4 844.996   1
   1   7  -6 37.0921 351.038   1
   1   7  -5 12154.1 862.786   1
   1   7  -4-277.449 351.322   1
   1   7  -3 10684.4 834.758   1
   1   7  -2-81.4574 368.009   1
   1   7  -1 6714.18 649.039   1
   1   7   0 27.1404 344.075   1
   1   7   1 6406.11 684.141   1
   1   7   2-18.1112 402.269   1
   1   7   3 5927.12 689.821   1
  -2   9   1-34.6967 410.408   1
  -2   9   0 4874.80 637.259   1
  -2   9  -1 272.304 352.882   1
  -2   9  -2 7489.41 691.242   1
  -2   9  -3 1.44362 354.191   1
  -2   9  -4 6480.40 718.363   1
  -2   9  -5 120.074 383.941   1
  -2   9  -6 5234.05 647.870   1
  -2   9  -7-58.9908 371.297   1
  -2   8   5-2.85014 389.585   1
  -2   8   4 7886.82 726.965   1
  -2   8   3-51.3627 344.079   1
  -2   8   2 9932.80 762.399   1
  -2   8   1 164.647 305.508   1
  -2   8   0 9313.16 721.268   1
  -2   8  -1-3.32223 314.836   1
  -2   8  -2 12999.3 868.599   1
  -2   8  -3 75.0391 333.340   1
  -2   8  -4 16268.4 937.350   1
  -2   8  -5-55.5203 338.538   1
  -2   8  -6 12087.2 843.281   1
  -2   8  -7 283.373 365.824   1
  -2   8  -8 15126.2 934.548   1
  -2   8  -9-108.583 345.702   1
  -2   8 -10 11118.7 851.257   1
  -2   8 -11-4.40057 384.967   1
  -2   7   8 4311.09 589.867   1
  -2   7   7 130.673 349.849   1
  -2   7   6 6780.68 657.325   1
  -2   7   5-86.6159 338.792   1
  -2   7   4 11260.4 777.484   1
  -2   7   3-417.156 307.456   1
  -2   7   2 33156.0 1216.58   1
  -2   7   1 323.456 167.456   1
   2  -7   0 28690.0 596.728   1
   2  -7   1-33.1129 141.947   1
   2  -7   2 30181.5 508.939   1
  -2   7  -3 46.6808 99.8291   1
  -2   7  -4 45576.9 1378.58   1
  -2   7  -5 176.176 286.260   1
  -2   7  -6 43772.9 1379.72   1
  -2   7  -7 336.140 309.381   1
  -2   7  -8 11022.4 753.331   1
  -2   7  -9-107.039 331.654   1
  -2   7 -10 15940.8 954.919   1
  -2   7 -11-25.4238 314.209   1
   7  -2   7 16146.0 1063.40  -2
  -2   7 -12 16146.0 1063.40   1
   7  -2   8 269.129 504.107  -2
  -2   7 -13 269.129 504.107   1
  -2   6  11 249.957 384.643   1
  -2   6  10 2192.16 476.941   1
  -2   6   9 454.321 345.562   1
  -2   6   8 11966.6 845.147   1
  -2   6   7 299.734 271.018   1
  -2   6   6 8913.28 667.324   1
  -2   6   5 1363.36 366.286   1
  -2   6   4 27501.6 1061.72   1
  -2   6   3 67.5169 268.466   1
  -2   6   2 30107.2 1035.05   1
  -2   6   1 214.406 234.043   1
  -2   6   0 47852.6 740.099   1
  -2   6  -1 20.0478 118.676   1
   2  -6   2 32619.6 549.274   1
  -2   6  -3 1027.80 134.189   1
   2  -6   4 49091.7 683.964   1
  -2   6  -5 446.744 260.454   1
  -2   6  -6 37809.4 1172.23   1
  -2   6  -7-20.9014 128.600   1
  -2   6  -8 49973.5 814.359   1
  -2   6  -9 539.822 145.213   1
  -2   6 -10 22514.2 776.443   1
   6  -2   6 32874.9 1242.46  -2
  -2   6 -10 32874.9 1242.46   1
   6  -2   7 472.971 458.530  -2
  -2   6 -11 472.971 458.530   1
   6  -2   8 32143.7 1668.81  -2
  -2   6 -12 32143.7 1668.81   1
   6  -2   9 716.767 526.368  -2
  -2   6 -13 716.767 526.368   1
   6  -2  10 19836.5 429.482  -2
  -2   6 -14 19836.5 429.482   1
   6  -2  11 128.315 533.277  -2
  -2   6 -15 128.315 533.277   1
  -2   5  12 5105.24 675.753   1
  -2   5  11 798.365 370.624   1
  -2   5  10 11594.9 834.267   1
  -2   5   9 670.130 326.202   1
  -2   5   8 17576.9 909.228   1
  -2   5   7 3064.18 426.819   1
  -2   5   6 52456.9 1409.25   1
  -2   5   5 3183.87 396.458   1
  -2   5   4 27232.3 680.893   1
   2  -5  -3 257.047 163.252   1
   2  -5  -2 82191.8 1092.53   1
   2  -5  -1 227.369 133.383   1
   2  -5   0 64312.3 814.627   1
  -2   5  -1-2.49853 96.6011   1
   2  -5   2 82606.3 1041.00   1
   2  -5   3 11.4903 92.1060   1
  -2   5  -4 83264.5 761.503   1
  -2   5  -5 338.383 101.039   1
  -2   5  -6 67204.7 858.332   1
  -2   5  -7 6880.92 235.939   1
   2  -5   8 52668.3 1389.08   1
   5  -2   5 71239.3 963.763  -2
  -2   5  -8 71239.3 963.763   1
   5  -2   6 355.219 229.372  -2
  -2   5  -9 355.219 229.372   1
   5  -2   7 67584.7 1299.25  -2
  -2   5 -10 67584.7 1299.25   1
   5  -2   8 873.385 294.973  -2
  -2   5 -11 873.385 294.973   1
   5  -2   9 29406.1 456.482  -2
  -2   5 -12 29406.1 456.482   1
   5  -2  10 199.602 520.818  -2
  -2   5 -13 199.602 520.818   1
   5  -2  11 24975.0 1562.09  -2
  -2   5 -14 24975.0 1562.09   1
   5  -2  12 30.1072 232.560  -2
  -2   5 -15 30.1072 232.560   1
  -2   4  14 3937.77 641.631   1
  -2   4  13 34.9772 373.678   1
  -2   4  12 8359.62 758.700   1
  -2   4  11 474.285 342.507   1
  -2   4  10 20177.4 1003.88   1
  -2   4   9 121.749 296.604   1
  -2   4   8 19468.5 891.906   1
  -2   4   7 1254.32 207.194   1
   2  -4  -6 25962.6 632.821   1
  -2   4   5 20.4222 109.930   1
   2  -4  -4 79495.8 1489.11   1
  -2   4   3 0.53761 169.784   1
  -2   4   2 78249.3 1278.43   1
  -2   4   1 3641.92 290.018   1
   2  -4   0 178017. 1033.48   1
   2  -4   1 1689.57 126.061   1
   2  -4   2 168999. 1137.73   1
   2  -4   3-14.3565 71.3899   1
  -2   4  -4 241141. 1149.32   1
  -2   4  -5 16421.3 406.549   1
   4  -2   4 201985. 1246.83  -2
  -2   4  -6 201985. 1246.83   1
   4  -2   5 1252.84 225.126  -2
  -2   4  -7 1252.84 225.126   1
   4  -2   6 61595.1 920.499  -2
  -2   4  -8 61595.1 920.499   1
   4  -2   7 260.283 195.061  -2
  -2   4  -9 260.283 195.061   1
   4  -2   8 73584.2 412.032  -2
  -2   4 -10 73584.2 412.032   1
   4  -2   9 2231.06 548.759  -2
  -2   4 -11 2231.06 548.759   1
   4  -2  10 36797.1 1634.70  -2
  -2   4 -12 36797.1 1634.70   1
   4  -2  11-36.7223 430.171  -2
  -2   4 -13-36.7223 430.171   1
   4  -2  12 18628.9 1097.47  -2
  -2   4 -14 18628.9 1097.47   1
   4  -2  13 787.662 538.002  -2
  -2   4 -15 787.662 538.002   1
  -2   4 -16 12559.8 1017.93   1
  -2   3  15 171.143 422.555   1
  -2   3  14 7211.99 743.319   1
  -2   3  13 703.217 402.800   1
  -2   3  12 17744.2 979.034   1
  -2   3  11-268.019 310.438   1
  -2   3  10 24146.0 1022.44   1
  -2   3   9 216.248 265.620   1
  -2   3   8 74539.9 1107.03   1
  -2   3   7 2802.68 244.793   1
  -2   3   6 59329.7 863.214   1
  -2   3   5 3936.13 329.835   1
  -2   3   4 89791.0 927.523   1
   2  -3  -3 5546.86 227.313   1
   2  -3  -2 194406. 1227.62   1
  -2   3   1 1914.15 137.981   1
   2  -3   0 151449. 1003.20   1
   2  -3   1 1198.05 91.4497   1
   2  -3   2 111646. 683.695   1
   2  -3   3 994.030 93.8307   1
   2  -3   4 227894. 1345.42   1
   3  -2   3 348792. 1615.49  -2
  -2   3  -4 348792. 1615.49   1
   3  -2   4 23358.5 489.137  -2
  -2   3  -5 23358.5 489.137   1
   3  -2   5 364522. 2181.06  -2
  -2   3  -6 364522. 2181.06   1
   3  -2   6 1356.10 192.169  -2
  -2   3  -7 1356.10 192.169   1
   3  -2   7 174133. 554.404  -2
  -2   3  -8 174133. 554.404   1
   3  -2   8 979.484 207.391  -2
  -2   3  -9 979.484 207.391   1
   3  -2   9 92168.3 1601.00  -2
  -2   3 -10 92168.3 1601.00   1
   3  -2  10 218.198 393.125  -2
  -2   3 -11 218.198 393.125   1
   3  -2  11 83027.7 1898.97  -2
  -2   3 -12 83027.7 1898.97   1
   3  -2  12 803.340 452.113  -2
  -2   3 -13 803.340 452.113   1
  -2   3 -14 13762.8 932.348   1
  -2   3 -15 417.725 376.448   1
  -2   3 -16 7585.99 830.350   1
  -2   2  15 399.828 395.408   1
  -2   2  14 8206.48 741.645   1
  -2   2  13-17.3756 376.760   1
  -2   2  12 15717.3 898.079   1
  -2   2  11-81.5882 298.688   1
  -2   2  10 57816.8 1478.00   1
   2  -2  -9 209.640 173.227   1
   2  -2  -8 73064.0 1012.46   1
  -2   2   7 14.2042 120.945   1
  -2   2   6 138734. 1731.48   1
   2  -2  -5 820.902 124.369   1
  -2   2   4 35956.6 512.945   1
  -2   2   3 74.9624 64.3131   1
   2  -2  -2 214365. 960.476   1
   2  -2  -1 702.449 63.2937   1
   2  -2   0 72543.5 535.698   1
   2  -2   1 2698.12 97.6711   1
  -2   2  -2 9990.88 163.104   1
   2  -2   2 15370.9 313.487  -2
  -2   2  -2 15370.9 313.487   1
  -2   2  -3 11171.7 341.270   1
   2  -2   3 17116.1 278.926  -2
  -2   2  -3 17116.1 278.926   1
  -2   2  -4 292256. 1356.41  -2
   2  -2   4 292256. 1356.41   1
   2  -2   5 1540.08 136.572  -2
  -2   2  -5 1540.08 136.572   1
   2  -2   6 186329. 479.140  -2
  -2   2  -6 186329. 479.140   1
   2  -2   7 921.380 166.683  -2
  -2   2  -7 921.380 166.683   1
  -2   2  -8 107303. 1206.24  -2
   2  -2   8 107303. 1206.24   1
   2  -2   9 359.789 222.051  -2
  -2   2  -9 359.789 222.051   1
  -2   2 -10 124257. 1414.29  -2
   2  -2  10 124257. 1414.29   1
  -2   2 -11 849.074 390.478  -2
   2  -2  11 849.074 390.478   1
   2  -2  12 19619.4 954.406   1
   2  -2  13 16.6563 294.356   1
  -2   2 -14 14323.7 669.450   1
  -2   2 -15 427.362 273.892   1
   2  -2  16 5053.97 487.954   1
  -2   1  16 8379.33 808.546   1
  -2   1  15 153.987 354.160   1
  -2   1  14 11621.3 834.612   1
  -2   1  13 1640.01 379.848   1
  -2   1  12 33598.4 1219.46   1
  -2   1  11 59.5745 247.633   1
  -2   1  10 49841.7 924.923   1
  -2   1   9 1094.08 191.602   1
  -2   1   8 78548.8 1011.78   1
  -2   1   7 1484.40 238.705   1
   2  -1  -6 116469. 1046.17   1
   2  -1  -5 513.618 105.812   1
  -2   1   4 378640. 2069.23   1
   2  -1  -3 18115.7 285.901   1
   2  -1  -2 62497.8 420.810   1
   2  -1  -1 2680.08 194.036   1
   2  -1   0 756071. 11659.4   1
  -2   1  -1 155597. 543.287   1
  -1   2  -2 250856. 1745.80  -2
   2  -1   1 250856. 1745.80   1
   2  -1   2 401106. 4664.96   1
  -1   2  -3 646587. 13975.4  -2
   2  -1   2 646587. 13975.4   1
  -1   2  -4 17604.8 298.232  -2
   2  -1   3 17604.8 298.232   1
  -1   2  -5 242244. 459.743  -2
   2  -1   4 242244. 459.743   1
   1  -2   6 10838.1 409.805  -2
  -2   1  -5 10838.1 409.805   1
  -1   2  -7 230466. 1603.03  -2
   2  -1   6 230466. 1603.03   1
  -1   2  -8 5471.68 296.120  -2
   2  -1   7 5471.68 296.120   1
  -2   1  -8 74537.3 1434.21   1
   1  -2   9 132618. 1364.04  -2
  -2   1  -8 132618. 1364.04   1
  -2   1  -9 218.050 139.570   1
   2  -1  10 35672.4 1153.87   1
   2  -1  11 2556.77 420.168   1
   2  -1  12 27480.4 1131.22   1
   2  -1  13 2007.71 424.091   1
   2  -1  14 10341.4 774.333   1
   2  -1  15 1551.16 451.405   1
   2  -1  16 7084.32 777.488   1
   2   0 -16 8217.91 576.742   1
  -2   0  15 89.1524 340.999   1
  -2   0  14 15842.8 939.163   1
  -2   0  13-16.4311 304.350   1
  -2   0  12 25773.1 1060.00   1
  -2   0  11 776.772 288.255   1
  -2   0  10 68644.2 1069.70   1
   2   0  -9 2678.28 238.549   1
   2   0  -8 74215.3 969.398   1
  -2   0   7 45.0336 170.906   1
   2   0  -6 202907. 1372.35   1
   2   0  -5 1991.04 152.453   1
   2   0  -4 139563. 935.912   1
   2   0  -3 49571.9 505.767   1
   2   0  -2 261643. 1579.84   1
   0  -2   1 31137.3 341.431  -2
  -2   0   1 31137.3 341.431   1
   0   2  -2 141454. 766.185  -2
   2   0   0 141454. 766.185   1
   0   2  -3 32495.2 379.076  -2
   2   0   1 32495.2 379.076   1
   0   2  -4 235749. 1552.47  -2
   2   0   2 235749. 1552.47   1
   0  -2   5 4223.24 245.738  -2
  -2   0  -3 4223.24 245.738   1
   0  -2   6 231438. 1407.43  -2
  -2   0  -4 231438. 1407.43   1
   0  -2   7 2832.80 230.214  -2
  -2   0  -5 2832.80 230.214   1
  -2   0  -6 101520. 1093.10   1
   2   0   7 122.008 132.332   1
   2   0   8 65356.0 852.812   1
   2   0   9-10.0955 173.174   1
   2   0  10 40357.1 1270.60   1
   2   0  11 232.289 345.361   1
   2   0  12 31470.1 1260.41   1
   2   0  13 68.6165 360.892   1
   2   0  14 9570.35 817.341   1
   2   0  15 553.871 393.164   1
   2   1 -16 12283.2 967.788   1
   2   1 -15 556.767 393.575   1
   2   1 -14 8703.53 763.111   1
   2   1 -13 794.485 350.994   1
   2   1 -12 39761.1 1364.28   1
   2   1 -11 12.3084 282.019   1
   2   1 -10 89455.3 1233.85   1
   2   1  -9 1129.97 192.149   1
   2   1  -8 120623. 1303.14   1
   2   1  -7 379.383 194.711   1
   2   1  -6 149466. 1769.35   1
  -2  -1   5 10966.2 337.294   1
   2   1  -4 262018. 1452.11   1
   2   1  -3 390.329 93.3611   1
  -1  -2   0 3858.19 281.310  -2
  -2  -1   3 3858.19 281.310   1
   1   2  -1 345861. 1481.23  -2
   2   1  -2 345861. 1481.23   1
  -1  -2   2 21212.7 445.184  -2
  -2  -1   1 21212.7 445.184   1
   1   2  -3 130446. 1203.46  -2
   2   1   0 130446. 1203.46   1
  -1  -2   4 9599.83 255.393  -2
  -2  -1  -1 9599.83 255.393   1
  -1  -2   5 142918. 981.014  -2
  -2  -1  -2 142918. 981.014   1
  -1  -2   6 9026.65 320.478  -2
  -2  -1  -3 9026.65 320.478   1
  -2  -1  -4 150030. 1269.30   1
  -2  -1  -5 7697.41 334.164   1
  -2  -1  -6 73323.9 848.577   1
  -2  -1  -7 728.937 150.124   1
   2   1   8 35618.2 1134.23   1
   2   1   9 4831.03 504.705   1
   2   1  10 39569.4 1335.53   1
   2   1  11 1781.54 434.741   1
   2   1  12 11134.0 824.840   1
   2   1  13 59.0817 400.415   1
   2   1  14 6454.64 747.513   1
   2   2 -16 13167.7 1015.61   1
   2   2 -15 206.725 405.857   1
   2   2 -14 14583.9 952.964   1
   2   2 -13 3889.51 556.998   1
   2   2 -12 17433.6 945.880   1
   2   2 -11 853.467 325.414   1
   2   2 -10 42920.4 1275.10   1
   2   2  -9 509.322 171.624   1
   2   2  -8 44642.6 832.613   1
   2   2  -7 266.529 134.898   1
   2   2  -6 42601.7 733.785   1
   2   2   1 7872.96 334.057  -2
   2   2  -5 7872.96 334.057   1
   2   2   0 227677. 1663.02  -2
   2   2  -4 227677. 1663.02   1
   2   2  -1 300.741 111.748  -2
   2   2  -3 300.741 111.748   1
  -2  -2   2 200631. 1473.74  -2
  -2  -2   2 200631. 1473.74   1
  -2  -2   3 131.890 91.6924  -2
  -2  -2   1 131.890 91.6924   1
  -2  -2   4 227525. 1234.05  -2
  -2  -2   0 227525. 1234.05   1
  -2  -2   5 4705.29 209.263  -2
  -2  -2  -1 4705.29 209.263   1
  -2  -2  -2 79678.5 906.178   1
   2   2  -6 105742. 1527.03  -2
   2   2   2 105742. 1527.03   1
   2   2   3 1671.22 177.912   1
   2   2   4 41723.9 778.806   1
  -2  -2  -5 65.5630 117.753   1
   2   2   6 32908.8 616.902   1
  -2  -2  -7 484.929 189.927   1
   2   2   8 17610.5 890.195   1
   2   2   9-31.8851 296.114   1
   2   2  10 6228.59 625.243   1
   2   2  11-1.29518 326.094   1
   2   2  12 9142.01 791.012   1
   2   2  13 1220.16 453.583   1
   2   3 -16 14733.1 1056.07   1
   2   3 -15 166.673 399.145   1
   2   3 -14 20583.3 1139.58   1
   2   3 -13 48.0265 370.444   1
   2   3 -12 17698.3 954.096   1
   2   3 -11 129.805 291.147   1
   2   3 -10 47386.1 1375.24   1
   2   3  -9 369.791 275.607   1
   2   3  -8 47721.0 1280.63   1
  -3  -2  -3 71600.8 1570.05  -2
  -2  -3   8 71600.8 1570.05   1
  -3  -2  -2 741.557 229.990  -2
  -2  -3   7 741.557 229.990   1
   3   2   1 140773. 1609.85  -2
   2   3  -6 140773. 1609.85   1
  -3  -2   0 1761.16 196.739  -2
  -2  -3   5 1761.16 196.739   1
   3   2  -1 149142. 1856.54  -2
   2   3  -4 149142. 1856.54   1
   3   2  -2 1541.34 154.452  -2
   2   3  -3 1541.34 154.452   1
   3   2  -3 177177. 1665.97  -2
   2   3  -2 177177. 1665.97   1
  -3  -2   4 2132.63 169.083  -2
  -2  -3   1 2132.63 169.083   1
  -2  -3   0 85582.7 785.918   1
  -2  -3  -1 9.44630 98.1108   1
  -2  -3  -2 72044.0 931.100   1
  -2  -3  -3 747.263 188.075   1
  -2  -3  -4 33400.1 609.774   1
   2   3   5 333.612 174.588   1
  -2  -3  -6 30393.0 778.207   1
   2   3   7 2306.84 415.493   1
   2   3   8 18836.8 987.616   1
   2   3   9 1380.38 408.338   1
   2   3  10 9258.53 764.135   1
   2   3  11 357.039 358.451   1
   2   3  12 6182.51 725.087   1
   2   4 -15 356.381 400.108   1
   2   4 -14 11003.3 870.470   1
   2   4 -13-7.84674 344.951   1
   2   4 -12 30183.8 1266.64   1
   2   4 -11-68.8139 331.907   1
   4   2   4 45213.5 1402.98  -2
   2   4 -10 45213.5 1402.98   1
   4   2   3 606.342 432.213  -2
   2   4  -9 606.342 432.213   1
   4   2   2 54905.6 808.762  -2
   2   4  -8 54905.6 808.762   1
   4   2   1 261.402 119.811  -2
   2   4  -7 261.402 119.811   1
   4   2   0 34659.9 386.479  -2
   2   4  -6 34659.9 386.479   1
   4   2  -1 5431.17 646.671  -2
   2   4  -5 5431.17 646.671   1
   4   2  -2 82725.0 1821.13  -2
   2   4  -4 82725.0 1821.13   1
  -2  -4   3 2979.15 405.554   1
   4   2  -3 3557.57 475.690  -2
   2   4  -3 3557.57 475.690   1
  -2  -4   2 32514.9 1108.15   1
   4   2  -4 51191.2 1276.09  -2
   2   4  -2 51191.2 1276.09   1
  -2  -4   1 5368.68 226.039   1
  -2  -4   0 42639.0 581.573   1
   2   4   1 328.462 137.489   1
   2   4   2 29363.9 1063.60   1
   2   4   3 1206.06 209.145   1
   2   4   4 23015.2 655.368   1
  -2  -4  -5 975.137 218.016   1
   2   4   6 14106.5 868.077   1
   2   4   7 151.562 332.274   1
   2   4   8 7245.37 697.639   1
   2   4   9 916.332 328.883   1
   2   4  10 4169.13 615.002   1
   2   5 -14 11153.8 898.679   1
   2   5 -13 57.1686 305.935   1
   5   2   5 18134.3 1072.33  -2
   2   5 -12 18134.3 1072.33   1
   5   2   4 750.180 452.901  -2
   2   5 -11 750.180 452.901   1
   5   2   3 26666.8 1332.92  -2
   2   5 -10 26666.8 1332.92   1
   5   2   2 525.110 482.496  -2
   2   5  -9 525.110 482.496   1
   5   2   1 26010.8 1467.61  -2
   2   5  -8 26010.8 1467.61   1
   5   2   0 174.633 455.338  -2
   2   5  -7 174.633 455.338   1
   5   2  -1 45574.1 1584.75  -2
   2   5  -6 45574.1 1584.75   1
   5   2  -2 902.879 438.272  -2
   2   5  -5 902.879 438.272   1
   2   5  -4 28343.1 1083.97   1
   2   5  -3 1.91169 323.483   1
   2   5  -2 51959.6 1471.60   1
   2   5  -1 1984.19 408.548   1
  -2  -5   0 22378.9 482.185   1
   2   5   1 124.684 156.901   1
   2   5   2 17716.1 929.867   1
   2   5   3 1650.04 429.861   1
   2   5   4 18614.0 1014.57   1
   2   5   5 75.6912 308.137   1
   2   5   6 6025.07 642.261   1
   2   5   7 1.39950 312.566   1
   6   2   4 14537.5 1196.99  -2
   2   6 -12 14537.5 1196.99   1
   6   2   3-127.454 471.120  -2
   2   6 -11-127.454 471.120   1
   6   2   2 19892.9 1435.78  -2
   2   6 -10 19892.9 1435.78   1
   6   2   1 783.178 540.385  -2
   2   6  -9 783.178 540.385   1
   6   2   0 16932.6 1146.02  -2
   2   6  -8 16932.6 1146.02   1
   6   2  -1 580.353 520.058  -2
   2   6  -7 580.353 520.058   1
   2   6  -6 8219.22 694.749   1
   2   6  -5-43.5111 304.247   1
   2   6  -4 13779.3 850.907   1
   2   6  -3 343.862 311.327   1
   2   6  -2 12193.8 810.806   1
   2   6  -1 161.481 306.607   1
   2   6   0 7688.64 674.861   1
   2   6   1-6.27409 340.395   1
   2   6   2 7223.06 678.542   1
   2   6   3-43.3801 331.941   1
   2   6   4 5255.89 641.869   1
   2   7  -7-11.2069 358.276   1
   2   7  -6 9037.96 822.966   1
   2   7  -5-4.23072 415.375   1
   2   7  -4 5883.90 693.289   1
   2   7  -3 78.6460 391.863   1
   2   7  -2 4290.05 576.953   1
   2   7  -1 569.690 358.972   1
  -3   9   3 3917.58 588.249   1
  -3   9   2-162.896 398.230   1
  -3   9   1 9568.52 764.213   1
  -3   9   0 72.1473 349.016   1
  -3   9  -1 10172.0 781.342   1
  -3   9  -2-13.2224 355.426   1
  -3   9  -3 7685.53 705.058   1
  -3   9  -4-40.4460 376.045   1
  -3   9  -5 11094.7 852.350   1
  -3   9  -6-422.710 397.560   1
  -3   9  -7 9898.95 831.035   1
  -3   9  -8-88.9943 418.695   1
  -3   9  -9 8440.74 795.615   1
  -3   8   7 5029.91 643.182   1
  -3   8   6 93.9659 383.018   1
  -3   8   5 5314.62 627.554   1
  -3   8   4 176.984 305.675   1
  -3   8   3 5794.09 377.605   1
   3  -8  -2-15.3842 177.791   1
   3  -8  -1 9229.34 419.300   1
  -3   8   0 41.6152 158.542   1
   3  -8   1 20965.0 546.735   1
  -3   8  -2-16.7988 371.565   1
  -3   8  -3 17388.2 961.187   1
  -3   8  -4-151.205 350.998   1
  -3   8  -5 23917.3 1077.20   1
  -3   8  -6 243.705 307.584   1
  -3   8  -7 26679.8 1167.28   1
  -3   8  -8 299.983 324.073   1
  -3   8  -9 17061.6 993.618   1
  -3   8 -10 305.174 350.415   1
  -3   8 -11 11371.8 869.263   1
  -3   8 -12 56.1266 359.260   1
  -3   7   9 3934.98 567.178   1
  -3   7   8-193.960 346.962   1
  -3   7   7 3801.63 539.248   1
  -3   7   6-117.658 304.078   1
  -3   7   5 14707.3 854.048   1
  -3   7   4 298.966 294.196   1
  -3   7   3 16815.2 857.383   1
  -3   7   2 815.936 206.448   1
  -3   7   1 23592.7 611.825   1
  -3   7   0 31.6977 154.352   1
  -3   7  -1 22883.8 577.722   1
  -3   7  -2-99.6110 158.459   1
  -3   7  -3 41035.0 722.158   1
  -3   7  -4 221.413 153.229   1
  -3   7  -5 16553.9 487.979   1
  -3   7  -6 3559.41 447.159   1
  -3   7  -7 21086.2 960.703   1
  -3   7  -8 36.3135 310.353   1
  -3   7  -9 15172.8 872.656   1
  -3   7 -10 11.4181 306.046   1
  -3   7 -11 12464.0 863.662   1
  -3   7 -12-47.0629 331.000   1
   7  -3   9 13526.6 992.971  -2
  -3   7 -13 13526.6 992.971   1
   7  -3  10 428.996 567.624  -2
  -3   7 -14 428.996 567.624   1
  -3   6  11 5079.46 687.294   1
  -3   6  10 223.974 366.778   1
  -3   6   9 7572.21 693.009   1
  -3   6   8 11.4621 318.583   1
  -3   6   7 16850.4 905.075   1
  -3   6   6 307.592 277.430   1
  -3   6   5 24601.0 992.485   1
  -3   6   4 1073.56 312.165   1
  -3   6   3 41935.0 1173.56   1
  -3   6   2 289.504 159.969   1
  -3   6   1 38952.1 784.867   1
   3  -6   0 50.2474 111.959   1
   3  -6   1 81276.1 1009.69   1
  -3   6  -2 2.08762 129.870   1
   3  -6   3 48675.3 870.962   1
   3  -6   4 893.652 148.626   1
  -3   6  -5 79170.1 1139.46   1
  -3   6  -6 63.4341 135.514   1
  -3   6  -7 65172.3 967.163   1
  -3   6  -8 1562.22 221.042   1
  -3   6  -9 39992.7 836.695   1
  -3   6 -10 1566.55 228.959   1
   6  -3   8 29701.1 1207.01  -2
  -3   6 -11 29701.1 1207.01   1
   6  -3   9 478.938 520.352  -2
  -3   6 -12 478.938 520.352   1
   6  -3  10 30916.9 1701.75  -2
  -3   6 -13 30916.9 1701.75   1
   6  -3  11 82.3291 532.475  -2
  -3   6 -14 82.3291 532.475   1
   6  -3  12 12107.9 342.163  -2
  -3   6 -15 12107.9 342.163   1
  -3   5  13 5689.85 680.301   1
  -3   5  12 551.967 388.289   1
  -3   5  11 8545.35 737.833   1
  -3   5  10 57.8543 326.605   1
  -3   5   9 24252.4 1074.31   1
  -3   5   8 1926.35 374.982   1
  -3   5   7 29838.0 1079.53   1
  -3   5   6-34.5505 245.463   1
   3  -5  -5 29161.1 696.028   1
  -3   5   4 579.942 157.908   1
  -3   5   3 27236.9 614.760   1
   3  -5  -2 471.938 141.485   1
  -3   5   1 67519.0 888.618   1
  -3   5   0 564.378 109.757   1
   3  -5   1 47464.2 722.205   1
   3  -5   2 2443.09 192.663   1
   3  -5   3 72703.9 874.275   1
   3  -5   4 2899.02 170.593   1
   3  -5   5 94437.7 1061.42   1
  -3   5  -6 745.363 108.566   1
  -3   5  -7 107336. 1235.88   1
  -3   5  -8 2824.23 252.007   1
   5  -3   6 2912.59 468.763  -2
  -3   5  -8 2912.59 468.763   1
   5  -3   7 85140.9 1191.63  -2
  -3   5  -9 85140.9 1191.63   1
   5  -3   8 2176.39 486.351  -2
  -3   5 -10 2176.39 486.351   1
   5  -3   9 44837.4 1856.02  -2
  -3   5 -11 44837.4 1856.02   1
   5  -3  10 162.929 141.913  -2
  -3   5 -12 162.929 141.913   1
   5  -3  11 32915.3 1909.55  -2
  -3   5 -13 32915.3 1909.55   1
   5  -3  12 920.757 606.547  -2
  -3   5 -14 920.757 606.547   1
   5  -3  13 11517.5 1271.36  -2
  -3   5 -15 11517.5 1271.36   1
  -3   4  14-407.008 359.192   1
  -3   4  13 4776.37 632.514   1
  -3   4  12-3.79480 346.458   1
  -3   4  11 13372.0 851.423   1
  -3   4  10 119.639 318.307   1
  -3   4   9 19676.6 903.748   1
   3  -4  -8 1226.84 207.319   1
   3  -4  -7 38885.0 778.663   1
  -3   4   6 714.760 174.449   1
   3  -4  -5 85482.5 1011.83   1
  -3   4   4 585.868 198.501   1
  -3   4   3 86169.2 1284.35   1
  -3   4   2 4620.91 223.623   1
   3  -4  -1 81933.9 692.625   1
  -3   4   0 9119.56 202.551   1
  -3   4  -1 167435. 960.243   1
   3  -4   2 1449.58 146.951   1
   3  -4   3 74642.2 677.445   1
  -3   4  -4 11598.3 246.601   1
   3  -4   5 34141.6 384.871   1
  -3   4  -6 101.054 82.2287   1
  -3   4  -7 79214.4 1430.37   1
   4  -3   6 122504. 1266.86  -2
  -3   4  -7 122504. 1266.86   1
   4  -3   7 3401.63 253.098  -2
  -3   4  -8 3401.63 253.098   1
   4  -3   8 85405.2 1447.72  -2
  -3   4  -9 85405.2 1447.72   1
   4  -3   9 2678.53 544.953  -2
  -3   4 -10 2678.53 544.953   1
   4  -3  10 62142.1 589.085  -2
  -3   4 -11 62142.1 589.085   1
   4  -3  11 1330.53 512.483  -2
  -3   4 -12 1330.53 512.483   1
   4  -3  12 35425.4 1738.07  -2
  -3   4 -13 35425.4 1738.07   1
   4  -3  13 1459.64 580.861  -2
  -3   4 -14 1459.64 580.861   1
   4  -3  14 24380.0 1378.32  -2
  -3   4 -15 24380.0 1378.32   1
   4  -3  15 2029.52 609.506  -2
  -3   4 -16 2029.52 609.506   1
  -3   3  15 5370.72 671.219   1
  -3   3  14 41.3192 380.081   1
  -3   3  13 10967.3 825.139   1
  -3   3  12 257.563 338.032   1
  -3   3  11 16086.8 890.121   1
  -3   3  10 113.973 272.920   1
  -3   3   9 32763.9 753.360   1
   3  -3  -8 12.7490 154.377   1
  -3   3   7 91976.1 1096.83   1
  -3   3   6 93.4706 184.785   1
   3  -3  -5 108416. 1022.09   1
   3  -3  -4 9.77116 90.4330   1
  -3   3   3 162236. 1020.46   1
   3  -3  -2 500.850 87.2464   1
  -3   3   1 100580. 825.985   1
   3  -3   0 90.9336 54.6504   1
   3  -3   1 152380. 832.673   1
   3  -3   2 86.9737 45.9573   1
  -3   3  -3 139035. 789.653   1
   3  -3   4 3250.83 131.442   1
  -3   3  -5 51201.8 928.874   1
  -3   3  -5 77623.0 869.290  -2
   3  -3   5 77623.0 869.290   1
   3  -3   6 5556.55 234.312  -2
  -3   3  -6 5556.55 234.312   1
   3  -3   7 134377. 1468.34  -2
  -3   3  -7 134377. 1468.34   1
   3  -3   8 309.966 89.8154  -2
  -3   3  -8 309.966 89.8154   1
   3  -3   9 97850.9 454.800  -2
  -3   3  -9 97850.9 454.800   1
  -3   3 -10 196.354 105.093  -2
   3  -3  10 196.354 105.093   1
  -3   3 -11 36263.9 1105.45  -2
   3  -3  11 36263.9 1105.45   1
  -3   3 -12 46.5167 134.749  -2
   3  -3  12 46.5167 134.749   1
  -3   3 -13 40911.8 1050.83  -2
   3  -3  13 40911.8 1050.83   1
   3  -3  14 13.8198 523.655  -2
  -3   3 -14 13.8198 523.655   1
   3  -3  15 11396.8 998.629  -2
  -3   3 -15 11396.8 998.629   1
  -3   3 -16 317.193 408.145   1
  -3   2  16 108.916 411.585   1
  -3   2  15 6804.01 725.892   1
  -3   2  14-253.245 342.878   1
  -3   2  13 16383.0 943.205   1
  -3   2  12 686.345 312.396   1
  -3   2  11 26024.3 1047.23   1
   3  -2 -10 273.851 161.409   1
   3  -2  -9 69040.6 1036.85   1
   3  -2  -8 30.3000 144.676   1
  -3   2   7 65843.9 1248.29   1
   3  -2  -6 9591.37 317.349   1
   3  -2  -5 101923. 894.194   1
  -3   2   4 2182.78 134.139   1
   3  -2  -3 123288. 744.353   1
  -3   2   2 8433.08 150.363   1
   3  -2  -1 216018. 824.985   1
   3  -2   0 4002.44 295.671   1
   3  -2   1 95858.4 1292.17   1
   3  -2   2 1615.90 79.2962   1
   3  -2   3 233438. 1041.30   1
  -2   3  -4 361452. 1486.73  -2
   3  -2   3 361452. 1486.73   1
  -3   2  -4 27371.1 592.762   1
  -2   3  -5 31323.9 397.350  -2
   3  -2   4 31323.9 397.350   1
  -2   3  -6 337372. 1677.29  -2
   3  -2   5 337372. 1677.29   1
   2  -3   7 967.942 159.519  -2
  -3   2  -6 967.942 159.519   1
   2  -3   8 166972. 705.799  -2
  -3   2  -7 166972. 705.799   1
  -2   3  -9 1660.54 230.763  -2
   3  -2   8 1660.54 230.763   1
   2  -3  10 92670.6 1486.18  -2
  -3   2  -9 92670.6 1486.18   1
  -2   3 -11 386.686 328.970  -2
   3  -2  10 386.686 328.970   1
  -2   3 -12 69949.2 1707.16  -2
   3  -2  11 69949.2 1707.16   1
  -2   3 -13 86.2166 151.830  -2
   3  -2  12 86.2166 151.830   1
  -2   3 -14 24444.0 1143.25  -2
   3  -2  13 24444.0 1143.25   1
   3  -2  14 29.6450 333.241   1
   3  -2  15 9027.13 824.693   1
   3  -2  16 231.499 286.967   1
  -3   1  16 261.496 397.265   1
  -3   1  15 14067.5 959.188   1
  -3   1  14 98.6500 355.285   1
  -3   1  13 17570.6 943.513   1
  -3   1  12 620.858 306.951   1
  -3   1  11 24451.6 988.087   1
  -3   1  10 602.862 177.369   1
  -3   1   9 55954.5 906.617   1
   3  -1  -8 5627.14 291.681   1
  -3   1   7 128413. 1679.41   1
  -3   1   6 2965.16 185.637   1
  -3   1   5 110431. 913.029   1
   3  -1  -4 9837.71 254.089   1
   3  -1  -3 263314. 1251.48   1
   3  -1  -2 757.844 60.3697   1
   3  -1  -1 266401. 2132.21   1
   3  -1   0 2326.97 101.123   1
   3  -1   1 209341. 894.567   1
   3  -1   2 2253.64 117.147   1
  -1   3  -4 2513.14 302.092  -2
   3  -1   2 2513.14 302.092   1
  -1   3  -5 70338.6 588.913  -2
   3  -1   3 70338.6 588.913   1
  -1   3  -6 149.441 61.7172  -2
   3  -1   4 149.441 61.7172   1
   1  -3   7 128102. 395.151  -2
  -3   1  -5 128102. 395.151   1
  -1   3  -8 2471.04 272.048  -2
   3  -1   6 2471.04 272.048   1
   1  -3   9 91874.2 1298.60  -2
  -3   1  -7 91874.2 1298.60   1
  -1   3 -10 2661.12 287.804  -2
   3  -1   8 2661.12 287.804   1
  -1   3 -11 44355.8 858.225  -2
   3  -1   9 44355.8 858.225   1
  -1   3 -12 1747.86 467.487  -2
   3  -1  10 1747.86 467.487   1
  -1   3 -13 39552.7 1274.44  -2
   3  -1  11 39552.7 1274.44   1
   3  -1  12 218.963 373.931   1
   3  -1  13 14094.0 901.522   1
   3  -1  14 277.664 358.533   1
   3  -1  15 8100.27 746.061   1
   3   0 -16 58.9390 475.670   1
   3   0 -15 7499.59 762.734   1
   3   0 -14 255.179 341.596   1
   3   0 -13 22287.2 1098.49   1
   3   0 -12 176.191 336.338   1
   3   0 -11 6799.70 581.674   1
   3   0 -10 593.904 177.933   1
   3   0  -9 49937.7 869.521   1
   3   0  -8 732.546 162.568   1
   3   0  -7 102854. 1560.97   1
   3   0  -6 576.529 115.518   1
   3   0  -5 70205.4 767.579   1
   3   0  -4 19179.1 318.040   1
   3   0  -3 171801. 1068.72   1
   3   0  -2 8377.45 219.497   1
  -3   0   1 212518. 1343.16   1
   0   3  -3 1892.68 113.522  -2
   3   0   0 1892.68 113.522   1
   0  -3   4 231225. 1124.13  -2
  -3   0  -1 231225. 1124.13   1
   0   3  -5 2965.58 180.962  -2
   3   0   2 2965.58 180.962   1
   0  -3   6 142572. 1461.33  -2
  -3   0  -3 142572. 1461.33   1
   0   3  -7 841.967 149.388  -2
   3   0   4 841.967 149.388   1
   0  -3   8 82859.1 1220.20  -2
  -3   0  -5 82859.1 1220.20   1
   0  -3   9 2135.52 208.839  -2
  -3   0  -6 2135.52 208.839   1
   0  -3  10 90212.7 1141.17  -2
  -3   0  -7 90212.7 1141.17   1
  -3   0  -8 2751.49 388.908   1
   0   3 -11 3382.25 465.770  -2
   3   0   8 3382.25 465.770   1
   3   0   9 34980.0 1160.97   1
   3   0  10 1022.40 361.764   1
   3   0  11 15032.7 881.590   1
   3   0  12 2266.52 447.373   1
   3   0  13 10331.7 816.891   1
   3   0  14 661.471 425.504   1
   3   1 -16 239.484 479.174   1
   3   1 -15 18830.3 1140.71   1
   3   1 -14 444.457 368.042   1
   3   1 -13 31760.7 1318.65   1
   3   1 -12-23.0418 320.459   1
   3   1 -10 3796.75 437.065   1
   3   1  -9 44625.5 854.837   1
   3   1  -8 2486.40 223.456   1
   3   1  -7 62800.8 905.286   1
   3   1  -6 218.451 162.651   1
   3   1  -5 103278. 976.304   1
   3   1  -4 335.703 87.7079   1
   3   1  -3 40395.8 472.473   1
   1   3  -2 7383.38 264.913  -2
   3   1  -2 7383.38 264.913   1
   1   3  -3 192794. 1328.58  -2
   3   1  -1 192794. 1328.58   1
   1   3  -4 1785.65 210.555  -2
   3   1   0 1785.65 210.555   1
   1   3  -5 228572. 1902.20  -2
   3   1   1 228572. 1902.20   1
   1   3  -6 4601.01 323.229  -2
   3   1   2 4601.01 323.229   1
   1   3  -7 180026. 1367.42  -2
   3   1   3 180026. 1367.42   1
  -1  -3   8 1255.24 181.299  -2
  -3  -1  -4 1255.24 181.299   1
  -3  -1  -5 54076.9 1318.09   1
   1   3  -9 86505.6 1530.21  -2
   3   1   5 86505.6 1530.21   1
  -3  -1  -6 173.886 134.008   1
   3   1   7 37247.1 1155.91   1
   3   1   8 2008.79 381.721   1
   3   1   9 20695.5 983.260   1
   3   1  10 49.6241 322.727   1
   3   1  11 6347.33 649.639   1
   3   1  12-49.5549 364.286   1
   3   1  13 4251.27 628.282   1
   3   2 -16 246.058 376.657   1
   3   2 -15 13645.8 962.219   1
   3   2 -14 703.776 379.474   1
   3   2 -13 26326.4 1195.82   1
   3   2 -12 1369.23 387.759   1
   3   2 -11 25375.0 1075.00   1
   3   2 -10 1587.41 359.094   1
   3   2  -9 42858.9 1225.50   1
   3   2  -8 1372.91 211.164   1
   3   2  -7 74631.8 1060.96   1
  -3  -2   6 18.1290 97.9538   1
  -3  -2   5 57204.1 739.002   1
   2   3  -1 2083.80 218.698  -2
   3   2  -4 2083.80 218.698   1
  -2  -3   2 186953. 1588.75  -2
  -3  -2   3 186953. 1588.75   1
   2   3  -3 835.220 167.025  -2
   3   2  -2 835.220 167.025   1
  -2  -3   4 140139. 1547.00  -2
  -3  -2   1 140139. 1547.00   1
  -2  -3   5 1321.25 162.649  -2
  -3  -2   0 1321.25 162.649   1
   2   3  -6 129309. 1481.55  -2
   3   2   1 129309. 1481.55   1
  -2  -3   7 961.946 245.434  -2
  -3  -2  -2 961.946 245.434   1
  -3  -2  -3 37000.5 737.112   1
   2   3  -8 61517.9 1341.35  -2
   3   2   3 61517.9 1341.35   1
  -3  -2  -4 225.419 119.703   1
   3   2   5 42785.6 869.823   1
   3   2   6 961.913 296.766   1
   3   2   7 18115.6 889.642   1
   3   2   8-260.383 310.055   1
   3   2   9 8738.31 725.555   1
   3   2  10 1396.54 397.626   1
   3   2  11 8878.46 777.698   1
   3   2  12 1506.16 436.261   1
   3   3 -15 8686.98 818.514   1
   3   3 -14 93.5612 353.873   1
   3   3 -13 17580.8 1012.78   1
   3   3 -12 112.267 355.302   1
   3   3 -11 16918.7 912.837   1
   3   3 -10-87.0441 272.361   1
   3   3  -9 40286.8 1255.78   1
   3   3  -8 415.901 148.375   1
   3   3  -7 38302.9 642.125   1
   3   3   0 117.065 154.920  -2
   3   3  -6 117.065 154.920   1
   3   3  -1 77179.4 1216.97  -2
   3   3  -5 77179.4 1216.97   1
   3   3  -2 3276.04 260.997  -2
   3   3  -4 3276.04 260.997   1
   3   3  -3 98222.6 1263.26  -2
   3   3  -3 98222.6 1263.26   1
   3   3  -4 1679.26 327.201  -2
   3   3  -2 1679.26 327.201   1
  -3  -3   5 90415.4 963.036  -2
  -3  -3   1 90415.4 963.036   1
  -3  -3   6 52.6925 83.8405  -2
  -3  -3   0 52.6925 83.8405   1
   3   3   1 25823.2 669.359   1
  -3  -3  -2 712.454 147.960   1
  -3  -3  -3 34391.6 762.837   1
  -3  -3  -4 791.741 181.493   1
   3   3   5 20057.9 951.060   1
   3   3   6 47.8835 307.574   1
   3   3   7 11814.0 804.436   1
   3   3   8 733.810 381.246   1
   3   3   9 7610.40 704.017   1
   3   3  10 522.741 352.662   1
   3   4 -14 229.140 426.287   1
   3   4 -13 14069.2 921.829   1
   3   4 -12 187.178 328.128   1
   3   4 -11 17854.9 534.687   1
   3   4 -10 43.7297 141.697   1
   3   4  -9 16135.6 443.749   1
   4   3   1 1639.87 195.357  -2
   3   4  -8 1639.87 195.357   1
   4   3   0 18645.1 476.107  -2
   3   4  -7 18645.1 476.107   1
   4   3  -1 441.232 147.083  -2
   3   4  -6 441.232 147.083   1
   4   3  -2 25864.2 1332.68  -2
   3   4  -5 25864.2 1332.68   1
   4   3  -3-144.259 389.930  -2
   3   4  -4-144.259 389.930   1
   4   3  -4 31707.7 1247.25  -2
   3   4  -3 31707.7 1247.25   1
   4   3  -5 1810.26 457.874  -2
   3   4  -2 1810.26 457.874   1
   3   4  -1 21460.6 520.737   1
  -3  -4   0 57.9941 147.050   1
   3   4   1 27097.7 1070.93   1
  -3  -4  -2 2675.01 252.672   1
  -3  -4  -3 15562.9 552.577   1
   3   4   4 154.502 303.577   1
   3   4   5 12329.6 829.300   1
   3   4   6 1222.63 394.203   1
   3   4   7 8603.21 753.316   1
   3   4   8 94.5302 376.380   1
   3   5 -13 13033.1 955.954   1
   3   5 -12 353.771 369.603   1
   3   5 -11 14214.1 927.185   1
   5   3   2 948.824 474.656  -2
   3   5 -10 948.824 474.656   1
   5   3   1 30039.6 1434.30  -2
   3   5  -9 30039.6 1434.30   1
   5   3   0 602.463 519.053  -2
   3   5  -8 602.463 519.053   1
   5   3  -1 34240.8 1725.84  -2
   3   5  -7 34240.8 1725.84   1
   5   3  -2 1232.76 528.192  -2
   3   5  -6 1232.76 528.192   1
   5   3  -3 31210.8 1370.04  -2
   3   5  -5 31210.8 1370.04   1
   5   3  -4 640.374 468.629  -2
   3   5  -4 640.374 468.629   1
   3   5  -3 19866.4 988.609   1
   3   5  -2-142.363 336.475   1
   3   5  -1 11698.0 775.114   1
   3   5   0 120.434 325.355   1
   3   5   1 15907.6 913.988   1
   3   5   2 59.2305 348.865   1
   3   5   3 6373.30 640.981   1
   3   5   4-613.697 368.278   1
   3   5   5 5063.98 624.027   1
   6   3   1 414.538 501.451  -2
   3   6 -10 414.538 501.451   1
   6   3   0 16376.3 1359.41  -2
   3   6  -9 16376.3 1359.41   1
   6   3  -1 388.836 555.022  -2
   3   6  -8 388.836 555.022   1
   6   3  -2 15045.6 1156.76  -2
   3   6  -7 15045.6 1156.76   1
   3   6  -5 13368.5 909.853   1
   3   6  -4 20.6912 384.091   1
   3   6  -3 7889.66 732.076   1
   3   6  -2 25.4986 329.361   1
   3   6  -1 7554.71 692.055   1
   3   6   0-262.840 301.560   1
   3   6   1 3081.94 518.285   1
  -4  10   0 3862.61 544.173   1
  -4  10  -1-304.279 391.200   1
  -4  10  -2 5204.81 624.076   1
  -4  10  -3-298.772 361.552   1
  -4  10  -4 6503.83 654.246   1
  -4   9   5 479.917 404.023   1
  -4   9   4 4592.68 600.067   1
  -4   9   3 470.606 361.216   1
  -4   9   2 5397.04 584.522   1
  -4   9   1-174.127 355.188   1
  -4   9   0 4859.52 582.010   1
  -4   9  -1-40.7765 333.556   1
  -4   9  -2 6511.53 587.575   1
  -4   9  -3-31.1682 295.687   1
  -4   9  -4 11855.2 829.361   1
  -4   9  -5-299.532 296.157   1
  -4   9  -6 7461.70 706.956   1
  -4   9  -7-266.009 390.276   1
  -4   9  -8 10648.4 836.895   1
  -4   9  -9 25.0125 368.703   1
  -4   9 -10 10443.2 871.087   1
  -4   8   8 3503.54 587.590   1
  -4   8   7-117.383 375.568   1
  -4   8   6 4936.37 557.367   1
   4  -8  -5-159.406 205.511   1
  -4   8   4 6112.49 408.890   1
  -4   8   3 256.913 217.529   1
  -4   8   2 12878.5 514.132   1
  -4   8   1 413.523 199.076   1
   4  -8   0 17750.0 566.429   1
   4  -8   1 297.246 172.940   1
  -4   8  -2 22239.3 517.384   1
  -4   8  -3-331.218 176.164   1
   4  -8   4 21030.8 601.452   1
   4  -8   5 403.391 199.388   1
  -4   8  -6 31600.2 1219.40   1
  -4   8  -7 106.161 318.814   1
  -4   8  -8 14357.6 875.018   1
  -4   8  -9 1641.35 420.927   1
  -4   8 -10 11256.0 819.670   1
  -4   8 -11-187.719 399.402   1
  -4   8 -12 8704.05 766.605   1
  -4   7  10 2379.54 495.003   1
  -4   7   9 282.011 327.701   1
  -4   7   8 6927.01 666.721   1
  -4   7   7-87.0281 336.016   1
  -4   7   6 9797.57 702.006   1
  -4   7   5-46.0135 279.502   1
  -4   7   4 19765.7 899.380   1
  -4   7   3-56.4018 204.609   1
   4  -7  -2 20168.6 603.242   1
   4  -7  -1-170.879 164.650   1
   4  -7   0 24953.1 630.782   1
   4  -7   1 68.9957 163.349   1
   4  -7   2 27328.9 548.545   1
  -4   7  -3 228.164 261.531   1
   4  -7   4 34756.9 735.132   1
  -4   7  -5 6.85971 247.490   1
  -4   7  -6 19845.2 591.400   1
  -4   7  -7 77.2022 179.074   1
  -4   7  -8 34737.1 1205.24   1
  -4   7  -9 340.561 314.780   1
  -4   7 -10 29275.3 1191.07   1
  -4   7 -11 197.529 331.991   1
  -4   7 -12 17911.0 1024.97   1
  -4   7 -13 132.536 413.634   1
   7  -4  11 13974.4 1049.62  -2
  -4   7 -14 13974.4 1049.62   1
  -4   6  12 3793.46 604.847   1
  -4   6  11 149.085 376.052   1
  -4   6  10 9005.55 757.441   1
  -4   6   9 584.586 362.651   1
  -4   6   8 12090.6 771.807   1
  -4   6   7-132.085 291.333   1
  -4   6   6 39457.9 1229.03   1
  -4   6   5 1512.67 317.610   1
  -4   6   4 35696.4 772.540   1
   4  -6  -3 23.8783 129.452   1
   4  -6  -2 39105.2 626.460   1
   4  -6  -1 669.564 166.918   1
   4  -6   0 37518.0 583.323   1
   4  -6   1 97.5157 123.192   1
   4  -6   2 40060.4 737.285   1
  -4   6  -3 133.820 121.297   1
   4  -6   4 41001.4 756.130   1
  -4   6  -5-66.7102 101.794   1
  -4   6  -6 27236.4 413.041   1
  -4   6  -7 5387.68 322.183   1
  -4   6  -8 32610.5 761.192   1
  -4   6  -9-14.5643 271.987   1
  -4   6 -10 40835.9 1334.18   1
   6  -4   9-118.042 491.335  -2
  -4   6 -11-118.042 491.335   1
   6  -4  10 28157.1 1237.11  -2
  -4   6 -12 28157.1 1237.11   1
   6  -4  12 15964.1 1309.93  -2
  -4   6 -14 15964.1 1309.93   1
  -4   5  13-100.415 362.592   1
  -4   5  12 5493.59 619.827   1
  -4   5  11-259.049 314.729   1
  -4   5  10 10528.1 747.655   1
  -4   5   9 230.330 294.221   1
  -4   5   8 18739.0 872.704   1
  -4   5   7 176.331 153.652   1
  -4   5   6 14269.3 492.948   1
  -4   5   5 3638.28 259.374   1
  -4   5   4 54922.3 837.931   1
   4  -5  -3-24.8265 138.847   1
  -4   5   2 65758.5 883.270   1
   4  -5  -1 1534.93 131.235   1
   4  -5   0 63620.2 750.932   1
   4  -5   1 448.857 109.681   1
   4  -5   2 86473.6 927.487   1
  -4   5  -3 1767.55 131.302   1
  -4   5  -4 85248.5 1006.06   1
  -4   5  -5 452.077 99.0281   1
  -4   5  -6 54607.4 619.618   1
  -4   5  -7 98.2255 124.372   1
  -4   5  -8 18918.7 555.433   1
  -4   5  -9 49.2009 234.899   1
   5  -4   8 219.742 357.612  -2
  -4   5  -9 219.742 357.612   1
   5  -4   9 44982.1 1345.12  -2
  -4   5 -10 44982.1 1345.12   1
   5  -4  10 151.558 472.957  -2
  -4   5 -11 151.558 472.957   1
   5  -4  11 24753.6 1510.80  -2
  -4   5 -12 24753.6 1510.80   1
   5  -4  12 211.209 533.856  -2
  -4   5 -13 211.209 533.856   1
   5  -4  13 14323.6 1337.96  -2
  -4   5 -14 14323.6 1337.96   1
   5  -4  14 306.072 599.325  -2
  -4   5 -15 306.072 599.325   1
  -4   4  14 3154.44 564.552   1
  -4   4  13-198.373 364.966   1
  -4   4  12 13450.4 876.037   1
  -4   4  11-44.4382 324.027   1
  -4   4  10 15018.2 827.222   1
  -4   4   9 13.8919 249.609   1
  -4   4   8 30483.3 698.432   1
  -4   4   7 134.955 149.713   1
  -4   4   6 61797.8 1241.29   1
  -4   4   5 14.5315 179.814   1
   4  -4  -4 78135.4 868.271   1
  -4   4   3 149.162 84.6725   1
   4  -4  -2 110709. 1055.20   1
   4  -4  -1 94.1815 73.9444   1
  -4   4   0 126992. 919.072   1
   4  -4   1 284.368 83.5876   1
   4  -4   2 102900. 591.584   1
  -4   4  -3 82.8025 64.9938   1
  -4   4  -4 87770.8 811.882   1
  -4   4  -5 71.8247 79.4009   1
  -4   4  -6 66762.1 915.161   1
  -4   4  -7 309.052 156.064   1
   4  -4   7 157.137 304.327  -2
  -4   4  -7 157.137 304.327   1
  -4   4  -8 73217.5 1432.69   1
   4  -4   8 114980. 1814.26  -2
  -4   4  -8 114980. 1814.26   1
   4  -4   9 63.9065 237.921  -2
  -4   4  -9 63.9065 237.921   1
   4  -4  10 50442.2 1764.82  -2
  -4   4 -10 50442.2 1764.82   1
   4  -4  11 82.0050 403.665  -2
  -4   4 -11 82.0050 403.665   1
   4  -4  12 40763.3 503.925  -2
  -4   4 -12 40763.3 503.925   1
   4  -4  13 1826.16 594.920  -2
  -4   4 -13 1826.16 594.920   1
   4  -4  14 25809.9 1580.89  -2
  -4   4 -14 25809.9 1580.89   1
  -4   3  15 1.46319 352.167   1
  -4   3  14 7012.32 707.418   1
  -4   3  13-106.094 342.035   1
  -4   3  12 12360.2 812.668   1
  -4   3  11 435.027 303.903   1
  -4   3  10 26579.1 1025.48   1
  -4   3   9 1538.65 214.747   1
   4  -3  -8 34444.9 698.914   1
  -4   3   7-60.8707 210.576   1
   4  -3  -6 105407. 1026.47   1
   4  -3  -5 158.124 96.2108   1
   4  -3  -4 71843.6 683.988   1
  -4   3   3 4484.65 144.093   1
  -4   3   2 82695.4 716.828   1
   4  -3  -1 3937.06 143.270   1
   4  -3   0 131871. 693.540   1
   4  -3   1 12932.6 418.098   1
   4  -3   2 62434.8 569.871   1
  -4   3  -3 12842.4 215.130   1
   4  -3   4 75037.0 695.606   1
  -4   3  -5 466.239 103.947   1
   3  -4   6 407.847 198.942  -2
  -4   3  -5 407.847 198.942   1
  -4   3  -6 74417.3 1197.24   1
  -3   4  -7 118839. 1374.60  -2
   4  -3   6 118839. 1374.60   1
   3  -4   8 5389.54 303.480  -2
  -4   3  -7 5389.54 303.480   1
   3  -4   9 70022.3 952.674  -2
  -4   3  -8 70022.3 952.674   1
  -3   4 -10 1239.98 233.639  -2
   4  -3   9 1239.98 233.639   1
  -3   4 -11 67309.9 1465.74  -2
   4  -3  10 67309.9 1465.74   1
   3  -4  12 1849.54 358.948  -2
  -4   3 -11 1849.54 358.948   1
   3  -4  13 29090.4 1085.33  -2
  -4   3 -12 29090.4 1085.33   1
  -3   4 -14 1174.22 377.182  -2
   4  -3  13 1174.22 377.182   1
  -3   4 -15 17178.7 794.781  -2
   4  -3  14 17178.7 794.781   1
  -3   4 -16 306.703 192.096  -2
   4  -3  15 306.703 192.096   1
  -4   2  16 7294.63 792.568   1
  -4   2  15 277.102 323.982   1
  -4   2  14 8503.31 724.604   1
  -4   2  13 74.2075 311.078   1
  -4   2  12 29067.5 1147.43   1
  -4   2  11 185.289 297.767   1
   4  -2 -10 25273.1 663.833   1
  -4   2   9 557.124 166.234   1
   4  -2  -8 27652.9 602.568   1
  -4   2   7 2405.44 280.517   1
  -4   2   6 52253.2 685.196   1
   4  -2  -5 5156.14 207.685   1
   4  -2  -4 130500. 991.930   1
   4  -2  -3 13151.9 210.123   1
   4  -2  -2 69678.3 477.631   1
   4  -2  -1 11.0744 171.911   1
   4  -2   0 172545. 2019.90   1
   4  -2   1 2.64506 181.753   1
  -4   2  -2 236047. 818.279   1
   4  -2   3 6888.29 161.400   1
   4  -2   4 125569. 936.202   1
  -2   4  -6 199887. 2323.05  -2
   4  -2   4 199887. 2323.05   1
  -4   2  -5-22.3820 130.812   1
  -2   4  -7 959.577 166.321  -2
   4  -2   5 959.577 166.321   1
  -2   4  -8 64278.0 827.493  -2
   4  -2   6 64278.0 827.493   1
  -2   4  -9 282.090 182.066  -2
   4  -2   7 282.090 182.066   1
  -2   4 -10 71389.8 1308.24  -2
   4  -2   8 71389.8 1308.24   1
  -2   4 -11 3826.54 401.449  -2
   4  -2   9 3826.54 401.449   1
  -2   4 -12 33637.8 1473.99  -2
   4  -2  10 33637.8 1473.99   1
  -2   4 -13 88.8872 377.909  -2
   4  -2  11 88.8872 377.909   1
  -2   4 -14 14493.2 960.885  -2
   4  -2  12 14493.2 960.885   1
  -2   4 -15 826.545 542.143  -2
   4  -2  13 826.545 542.143   1
  -2   4 -16 12528.9 939.178  -2
   4  -2  14 12528.9 939.178   1
  -2   4 -17 413.897 581.877  -2
   4  -2  15 413.897 581.877   1
   4  -1 -16 6084.43 771.052   1
   4  -1 -15 1.46473 389.807   1
   4  -1 -14 13091.9 913.674   1
   4  -1 -13 161.718 308.290   1
   4  -1 -12 25345.4 1094.26   1
   4  -1 -11 2361.75 442.544   1
   4  -1 -10 36449.0 798.071   1
   4  -1  -9 153.693 158.952   1
   4  -1  -8 24521.9 572.134   1
   4  -1  -7 810.571 214.888   1
   4  -1  -6 68387.3 803.477   1
   4  -1  -5 1118.13 145.340   1
   4  -1  -4 85766.8 834.889   1
   4  -1  -3 2662.58 123.409   1
   4  -1  -2 61561.8 463.116   1
   4  -1  -1 3160.82 145.693   1
   4  -1   0 85973.3 700.452   1
   4  -1   1 1232.22 101.849   1
   4  -1   2 96650.9 653.042   1
  -4   1  -3 1355.39 174.664   1
  -1   4  -6 2329.36 208.795  -2
   4  -1   3 2329.36 208.795   1
  -1   4  -7 132448. 1646.76  -2
   4  -1   4 132448. 1646.76   1
  -1   4  -8 1361.10 192.944  -2
   4  -1   5 1361.10 192.944   1
  -1   4  -9 70562.9 1237.19  -2
   4  -1   6 70562.9 1237.19   1
  -1   4 -10 194.179 220.222  -2
   4  -1   7 194.179 220.222   1
   1  -4  11 58902.4 1238.91  -2
  -4   1  -8 58902.4 1238.91   1
  -1   4 -12-59.4689 341.530  -2
   4  -1   9-59.4689 341.530   1
  -1   4 -13 26318.9 1123.27  -2
   4  -1  10 26318.9 1123.27   1
  -1   4 -14 1096.49 492.470  -2
   4  -1  11 1096.49 492.470   1
  -1   4 -15 17722.0 971.001  -2
   4  -1  12 17722.0 971.001   1
  -1   4 -16 790.311 495.840  -2
   4  -1  13 790.311 495.840   1
   4  -1  14 6174.68 709.235   1
   4   0 -16 9009.19 894.640   1
   4   0 -15 96.9637 405.022   1
   4   0 -14 12769.3 907.205   1
   4   0 -13 371.345 319.196   1
   4   0 -12 31454.2 1233.81   1
   4   0 -11 2293.23 426.873   1
   4   0 -10 60955.1 1045.72   1
   4   0  -9 123.875 164.684   1
   4   0  -8 72649.9 991.617   1
   4   0  -7 1090.79 166.653   1
   4   0  -6 103009. 1076.61   1
   4   0  -5 4025.72 183.172   1
   4   0  -4 88350.4 884.182   1
  -4   0   3 2134.82 133.422   1
   4   0  -2 120476. 777.523   1
  -4   0   1 4312.47 164.225   1
  -4   0   0 88122.8 685.001   1
   0   4  -5 3147.37 158.825  -2
   4   0   1 3147.37 158.825   1
   0  -4   6 128301. 1206.96  -2
  -4   0  -2 128301. 1206.96   1
   0   4  -7 1353.66 163.181  -2
   4   0   3 1353.66 163.181   1
   0  -4   8 118191. 1742.59  -2
  -4   0  -4 118191. 1742.59   1
   0  -4   9 3784.15 296.333  -2
  -4   0  -5 3784.15 296.333   1
   0   4 -10 106772. 1564.07  -2
   4   0   6 106772. 1564.07   1
   0  -4  11 750.646 283.280  -2
  -4   0  -7 750.646 283.280   1
   0   4 -12 40054.5 1255.85  -2
   4   0   8 40054.5 1255.85   1
   0   4 -13-122.457 449.805  -2
   4   0   9-122.457 449.805   1
   0   4 -14 31613.3 1212.72  -2
   4   0  10 31613.3 1212.72   1
   4   0  11 1737.04 416.361   1
   4   0  12 9073.38 771.606   1
   4   0  13 186.272 389.120   1
   4   1 -16 7630.74 816.978   1
   4   1 -15 461.190 380.444   1
   4   1 -14 13719.7 896.652   1
   4   1 -13 136.025 317.501   1
   4   1 -12 25087.7 1089.17   1
   4   1 -11 604.499 311.911   1
   4   1 -10 27785.9 1034.02   1
   4   1  -9 1613.28 227.713   1
   4   1  -8 36034.8 741.686   1
   4   1  -7 428.709 122.656   1
   4   1  -6 40723.0 693.454   1
  -4  -1   5 2062.10 184.516   1
   4   1  -4 51242.1 725.525   1
   4   1  -3-47.7526 93.6470   1
   4   1  -2 43838.6 663.353   1
  -1  -4   3 99612.7 1338.38  -2
  -4  -1   2 99612.7 1338.38   1
   1   4  -4 1656.48 170.570  -2
   4   1  -1 1656.48 170.570   1
   1   4  -5 144655. 972.137  -2
   4   1   0 144655. 972.137   1
   1   4  -6 765.075 163.704  -2
   4   1   1 765.075 163.704   1
  -1  -4   7 100661. 1233.80  -2
  -4  -1  -2 100661. 1233.80   1
  -1  -4   8 316.623 180.057  -2
  -4  -1  -3 316.623 180.057   1
  -1  -4   9 71658.4 1226.43  -2
  -4  -1  -4 71658.4 1226.43   1
  -1  -4  10 935.970 247.530  -2
  -4  -1  -5 935.970 247.530   1
  -4  -1  -6 22656.7 908.133   1
   1   4 -11 35303.8 1166.33  -2
   4   1   6 35303.8 1166.33   1
   1   4 -12 64.0911 401.463  -2
   4   1   7 64.0911 401.463   1
   4   1   8 17386.9 896.631   1
   4   1   9-43.6854 335.825   1
   4   1  10 6205.05 646.855   1
   4   1  11 44.1009 361.599   1
   4   1  12 4071.09 577.495   1
   4   2 -14 14933.8 957.596   1
   4   2 -13 683.693 355.842   1
   4   2 -12 18274.3 975.965   1
   4   2 -11 625.084 343.224   1
   4   2 -10 29249.7 1084.16   1
   4   2  -9 56.3664 177.346   1
   4   2  -8 28632.8 650.815   1
   4   2  -7 955.855 175.763   1
   4   2  -6 53517.0 908.826   1
  -4  -2   5 466.063 134.243   1
   4   2  -4 42016.1 768.663   1
   2   4  -3 1998.58 204.406  -2
   4   2  -3 1998.58 204.406   1
   2   4  -4 63538.1 968.946  -2
   4   2  -2 63538.1 968.946   1
   2   4  -5 6541.27 341.793  -2
   4   2  -1 6541.27 341.793   1
  -2  -4   6 70534.0 1231.18  -2
  -4  -2   0 70534.0 1231.18   1
  -2  -4   7 718.854 220.198  -2
  -4  -2  -1 718.854 220.198   1
  -2  -4   8 63711.7 1130.28  -2
  -4  -2  -2 63711.7 1130.28   1
  -2  -4   9 931.140 212.261  -2
  -4  -2  -3 931.140 212.261   1
   2   4 -10 34625.9 1133.64  -2
   4   2   4 34625.9 1133.64   1
   4   2   5 330.081 261.082   1
   4   2   6 14891.2 826.001   1
   4   2   7 783.919 339.194   1
   4   2   8 12243.4 825.594   1
   4   2   9 270.056 352.136   1
   4   2  10 6747.72 724.508   1
   4   2  11 572.411 376.767   1
   4   3 -15 116.975 451.970   1
   4   3 -14 4826.31 623.530   1
   4   3 -13 1079.76 407.732   1
   4   3 -12 18817.1 632.694   1
   4   3 -11 249.266 191.675   1
   4   3 -10 23023.1 626.060   1
   4   3  -9 433.707 174.650   1
   4   3  -8 27127.1 622.690   1
   4   3  -7 201.774 152.579   1
   4   3  -6 36024.4 659.437   1
   3   4  -2 3410.73 295.193  -2
   4   3  -5 3410.73 295.193   1
   3   4  -3 43019.4 834.257  -2
   4   3  -4 43019.4 834.257   1
   3   4  -4-76.1549 271.654  -2
   4   3  -3-76.1549 271.654   1
   3   4  -5 26250.5 1252.70  -2
   4   3  -2 26250.5 1252.70   1
   3   4  -6 2140.82 496.030  -2
   4   3  -1 2140.82 496.030   1
  -3  -4   7 25264.5 737.216  -2
  -4  -3   0 25264.5 737.216   1
  -3  -4   8 1176.95 273.243  -2
  -4  -3  -1 1176.95 273.243   1
  -4  -3  -2 19481.7 821.640   1
   3   4  -9 28843.0 1125.06  -2
   4   3   2 28843.0 1125.06   1
   4   3   3 27.4229 289.755   1
   4   3   4 10915.5 743.894   1
   4   3   5 120.967 338.441   1
   4   3   6 8007.74 673.271   1
   4   3   7 351.404 380.419   1
   4   3   8 5560.89 664.951   1
   4   3   9 959.353 450.356   1
   4   4 -13 36.6773 389.450   1
   4   4 -12 9397.19 775.037   1
   4   4 -11 1057.76 387.799   1
   4   4 -10 14684.4 888.529   1
   4   4  -9 582.890 343.731   1
   4   4  -8 16982.9 912.060   1
   4   4  -1 840.583 488.189  -2
   4   4  -7 840.583 488.189   1
   4   4  -2 34696.1 1378.93  -2
   4   4  -6 34696.1 1378.93   1
   4   4  -3 245.932 448.198  -2
   4   4  -5 245.932 448.198   1
   4   4  -4 35529.3 1594.55  -2
   4   4  -4 35529.3 1594.55   1
   4   4  -5 392.620 492.109  -2
   4   4  -3 392.620 492.109   1
   4   4  -6 34516.9 1404.83  -2
   4   4  -2 34516.9 1404.83   1
   4   4  -7 1317.54 556.061  -2
   4   4  -1 1317.54 556.061   1
   4   4  -8 30778.8 1247.06  -2
   4   4   0 30778.8 1247.06   1
   4   4   1 65.8602 338.736   1
   4   4   2 8887.84 719.083   1
   4   4   3 355.970 316.337   1
   4   4   4 9673.05 759.410   1
   4   4   5 198.334 424.206   1
   4   4   6 4935.76 649.606   1
   4   5 -11 224.718 392.334   1
   4   5 -10 7059.95 712.401   1
   5   4   0 280.321 555.408  -2
   4   5  -9 280.321 555.408   1
   5   4  -1 14746.5 1082.38  -2
   4   5  -8 14746.5 1082.38   1
   5   4  -2 902.512 532.008  -2
   4   5  -7 902.512 532.008   1
   5   4  -3 16933.5 1304.30  -2
   4   5  -6 16933.5 1304.30   1
   5   4  -4 108.010 491.515  -2
   4   5  -5 108.010 491.515   1
   5   4  -5 12957.7 979.029  -2
   4   5  -4 12957.7 979.029   1
   5   4  -7 16462.0 1027.92  -2
   4   5  -2 16462.0 1027.92   1
   4   5  -1-148.518 320.378   1
   4   5   0 4918.30 611.243   1
   4   5   1-14.4816 366.912   1
   4   5   2 3886.42 542.365   1
   4   5   3-90.6071 364.731   1
   4   6  -4 6165.42 694.978   1
  -5  10  -5 4803.64 611.480   1
  -5  10  -6-192.557 419.624   1
  -5  10  -7 5082.15 607.184   1
  -5   9   6 428.027 430.210   1
  -5   9   5 4915.38 559.210   1
  -5   9   4-312.559 361.002   1
  -5   9   3 6448.41 615.463   1
  -5   9   2-321.558 305.524   1
  -5   9   1 5989.68 576.801   1
  -5   9   0-12.3856 320.317   1
  -5   9  -1 10649.4 733.201   1
  -5   9  -2 11.8337 317.851   1
  -5   9  -3 11111.8 715.790   1
  -5   9  -4-379.765 322.817   1
  -5   9  -5 12564.8 838.381   1
  -5   9  -6-71.1055 340.947   1
  -5   9  -7 13659.8 874.266   1
  -5   9  -8 325.221 339.756   1
  -5   9  -9 11859.3 872.061   1
  -5   9 -10 125.157 397.326   1
  -5   8   9 3485.03 594.926   1
  -5   8   8-67.0565 401.645   1
  -5   8   7 2678.29 486.768   1
  -5   8   6-103.412 233.660   1
  -5   8   5 7397.54 464.745   1
  -5   8   4-62.5396 219.573   1
  -5   8   3 11676.4 525.172   1
   5  -8  -2 29.6173 205.280   1
  -5   8   1 17495.0 594.391   1
   5  -8   0 4.42910 191.325   1
  -5   8  -1 13239.7 507.656   1
  -5   8  -2-115.088 271.514   1
   5  -8   3 14479.6 539.424   1
  -5   8  -4 654.468 205.226   1
   5  -8   5 14639.6 548.108   1
   5  -8   6 159.381 193.045   1
  -5   8  -7 9399.45 682.231   1
  -5   8  -8-46.3193 265.846   1
  -5   8  -9 5002.01 540.591   1
  -5   8 -10 270.581 311.832   1
  -5   8 -11 7906.24 729.561   1
  -5   8 -12 280.713 395.747   1
  -5   7  11 2743.54 543.814   1
  -5   7  10 233.916 377.601   1
  -5   7   9 5361.19 610.061   1
  -5   7   8-85.9446 293.205   1
  -5   7   7 7720.70 611.373   1
  -5   7   6 205.081 272.912   1
   5  -7  -5 12332.5 538.335   1
  -5   7   4 41.4258 188.569   1
   5  -7  -3 30749.6 1167.77   1
   5  -7  -2 351.549 158.797   1
   5  -7  -1 30060.4 580.894   1
   5  -7   0 365.584 143.802   1
   5  -7   1 34269.5 592.492   1
  -5   7  -2 809.884 130.465   1
   5  -7   3 30488.4 581.876   1
   5  -7   4-13.1849 149.330   1
   5  -7   5 24662.8 537.347   1
   5  -7   6 134.729 141.808   1
  -5   7  -7 26072.3 714.192   1
  -5   7  -8 146.170 226.151   1
  -5   7  -9 13957.1 789.291   1
  -5   7 -10 1134.33 313.581   1
  -5   7 -11 11660.2 805.162   1
  -5   7 -12-369.479 331.991   1
  -5   7 -13 9279.87 800.054   1
  -5   6  13 2430.08 607.463   1
  -5   6  12 810.818 418.097   1
  -5   6  11 5439.97 619.185   1
  -5   6  10-232.995 333.971   1
  -5   6   9 9428.28 704.140   1
  -5   6   8 491.007 302.496   1
  -5   6   7 15656.4 794.412   1
  -5   6   6 360.305 215.415   1
  -5   6   5 21273.4 507.644   1
   5  -6  -4 622.757 149.200   1
   5  -6  -3 16594.7 411.966   1
  -5   6   2 2472.64 181.345   1
   5  -6  -1 41470.7 734.378   1
  -5   6   0-75.9583 149.178   1
  -5   6  -1 44768.4 724.289   1
   5  -6   2 4234.51 276.610   1
   5  -6   3 32882.1 518.365   1
  -5   6  -4 13.3214 117.340   1
   5  -6   5 48743.1 850.487   1
   5  -6   6-14.6802 128.973   1
  -5   6  -7 43185.8 863.172   1
  -5   6  -8 419.444 178.479   1
  -5   6  -9 21862.8 913.166   1
  -5   6 -10-5.78380 273.423   1
  -5   6 -11 12220.7 767.842   1
   6  -5  11-169.459 472.311  -2
  -5   6 -12-169.459 472.311   1
   6  -5  12 16400.3 1021.13  -2
  -5   6 -13 16400.3 1021.13   1
   6  -5  13-103.948 597.857  -2
  -5   6 -14-103.948 597.857   1
  -5   5  14 418.797 460.503   1
  -5   5  13 3965.45 614.179   1
  -5   5  12-29.2895 340.538   1
  -5   5  11 7769.84 669.924   1
  -5   5  10-137.104 296.611   1
  -5   5   9 16902.6 845.615   1
  -5   5   8-3.46809 171.736   1
  -5   5   7 15588.8 511.248   1
  -5   5   6 65.7552 200.780   1
  -5   5   5 33405.6 638.289   1
  -5   5   4-84.7580 154.615   1
  -5   5   3 65922.3 862.614   1
   5  -5  -2-31.6231 89.6634   1
   5  -5  -1 60193.6 810.957   1
   5  -5   0-47.9151 79.2569   1
   5  -5   1 79261.3 620.402   1
  -5   5  -2-57.6574 76.7584   1
  -5   5  -3 90540.3 988.494   1
   5  -5   4 308.965 100.716   1
   5  -5   5 46399.2 663.174   1
   5  -5   6 95.6572 114.746   1
  -5   5  -7 41446.0 805.285   1
  -5   5  -8-25.4516 154.846   1
  -5   5  -9 20737.3 592.970   1
   5  -5  10 953.470 409.428  -2
  -5   5 -10 953.470 409.428   1
   5  -5  11 38764.0 1303.49  -2
  -5   5 -11 38764.0 1303.49   1
   5  -5  12-63.5203 453.021  -2
  -5   5 -12-63.5203 453.021   1
   5  -5  13 21560.2 1451.15  -2
  -5   5 -13 21560.2 1451.15   1
   5  -5  14 553.123 629.625  -2
  -5   5 -14 553.123 629.625   1
   5  -5  15 9147.33 1181.20  -2
  -5   5 -15 9147.33 1181.20   1
  -5   4  15 2519.28 538.314   1
  -5   4  14-145.775 399.286   1
  -5   4  13 5097.66 587.816   1
  -5   4  12-212.182 334.915   1
  -5   4  11 11772.6 758.256   1
  -5   4  10-18.4231 269.825   1
  -5   4   9 16613.6 539.772   1
  -5   4   8-11.5103 157.960   1
   5  -4  -7 25327.4 565.165   1
  -5   4   6 1838.00 258.416   1
  -5   4   5 32380.6 411.053   1
   5  -4  -4 584.221 105.757   1
  -5   4   3 76954.1 754.987   1
   5  -4  -2 13.9552 36.3612   1
   5  -4  -1 54575.7 562.452   1
   5  -4   0-20.6885 46.7827   1
   5  -4   1 56189.6 959.561   1
  -5   4  -2 64.3371 61.7214   1
  -5   4  -3 90578.3 610.236   1
   5  -4   4 4856.62 229.133   1
  -5   4  -5 51828.6 760.652   1
   5  -4   6 1569.48 185.574   1
  -5   4  -7 29838.4 538.372   1
  -5   4  -8 119.161 185.297   1
   4  -5   9 83.9384 331.759  -2
  -5   4  -8 83.9384 331.759   1
  -5   4  -9 28676.2 955.729   1
   4  -5  10 43246.6 1206.48  -2
  -5   4  -9 43246.6 1206.48   1
   4  -5  11 1014.92 384.577  -2
  -5   4 -10 1014.92 384.577   1
   4  -5  12 19986.4 1210.93  -2
  -5   4 -11 19986.4 1210.93   1
   4  -5  14 17053.9 1266.29  -2
  -5   4 -13 17053.9 1266.29   1
   4  -5  15 209.880 173.958  -2
  -5   4 -14 209.880 173.958   1
   4  -5  16 9612.25 1112.78  -2
  -5   4 -15 9612.25 1112.78   1
  -5   3  15 5532.03 651.945   1
  -5   3  14 401.697 367.344   1
  -5   3  13 8835.85 729.915   1
  -5   3  12 11.5098 330.267   1
  -5   3  11 15578.7 818.954   1
  -5   3  10 266.630 172.773   1
   5  -3  -9 46972.3 840.932   1
  -5   3   8 93.9776 136.204   1
  -5   3   7 29314.3 812.234   1
  -5   3   6 30.6181 97.3272   1
   5  -3  -5 28690.5 527.841   1
   5  -3  -4 83.2493 73.4908   1
   5  -3  -3 44238.0 506.811   1
   5  -3  -2 88.1297 236.471   1
   5  -3  -1 64363.6 1402.98   1
   5  -3   0 709.501 171.130   1
   5  -3   1 47039.6 864.597   1
  -5   3  -2-1.92801 159.685   1
  -5   3  -3 76717.3 1134.66   1
   5  -3   4 3139.90 150.303   1
   5  -3   5 113292. 1118.92   1
  -5   3  -6 134.936 141.200   1
   3  -5   8 1422.61 276.341  -2
  -5   3  -6 1422.61 276.341   1
  -5   3  -7 60000.6 1202.78   1
  -3   5  -9 86471.4 994.700  -2
   5  -3   7 86471.4 994.700   1
  -3   5 -10 1904.69 220.250  -2
   5  -3   8 1904.69 220.250   1
   3  -5  11 44555.1 837.657  -2
  -5   3  -9 44555.1 837.657   1
  -3   5 -12 424.687 256.654  -2
   5  -3  10 424.687 256.654   1
  -3   5 -13 29073.0 1045.95  -2
   5  -3  11 29073.0 1045.95   1
  -3   5 -14 1194.79 341.506  -2
   5  -3  12 1194.79 341.506   1
  -3   5 -15 12177.5 795.718  -2
   5  -3  13 12177.5 795.718   1
  -3   5 -16-58.7778 405.830  -2
   5  -3  14-58.7778 405.830   1
   5  -2 -16-296.854 451.847   1
   5  -2 -15 9255.91 845.649   1
   5  -2 -14 225.756 318.476   1
   5  -2 -13 12659.1 874.265   1
   5  -2 -12 235.130 255.254   1
   5  -2 -11 23142.0 1004.51   1
   5  -2 -10 226.804 182.223   1
   5  -2  -9 49095.1 856.405   1
   5  -2  -8 7054.32 322.623   1
   5  -2  -7 51640.1 1082.82   1
   5  -2  -6 141.193 91.7762   1
   5  -2  -5 61893.4 650.003   1
   5  -2  -4 1602.64 108.189   1
   5  -2  -3 77887.8 445.189   1
   5  -2  -2 577.316 236.020   1
   5  -2  -1 72422.7 1482.34   1
  -5   2   0 9.54359 153.485   1
  -5   2  -1 88849.2 1173.27   1
  -5   2  -2 183.033 71.4371   1
   5  -2   3 54815.9 499.044   1
   5  -2   4 3349.75 214.824   1
  -5   2  -5 35188.9 830.155   1
  -2   5  -8 64284.7 870.184  -2
   5  -2   5 64284.7 870.184   1
   2  -5   9 137.420 199.975  -2
  -5   2  -6 137.420 199.975   1
  -2   5 -10 67538.9 1081.98  -2
   5  -2   7 67538.9 1081.98   1
  -2   5 -11 1011.08 301.434  -2
   5  -2   8 1011.08 301.434   1
  -2   5 -12 27971.3 1292.47  -2
   5  -2   9 27971.3 1292.47   1
  -2   5 -13 528.503 441.619  -2
   5  -2  10 528.503 441.619   1
  -2   5 -14 21342.1 1295.80  -2
   5  -2  11 21342.1 1295.80   1
  -2   5 -15-108.540 441.397  -2
   5  -2  12-108.540 441.397   1
  -2   5 -16 11165.9 915.906  -2
   5  -2  13 11165.9 915.906   1
  -2   5 -17 8.09397 206.367  -2
   5  -2  14 8.09397 206.367   1
   5  -1 -16-126.584 435.097   1
   5  -1 -15 4946.08 665.674   1
   5  -1 -14 571.061 321.328   1
   5  -1 -13 13054.4 863.951   1
   5  -1 -12-26.7948 263.090   1
   5  -1 -11 17876.6 902.491   1
   5  -1 -10 2068.03 260.340   1
   5  -1  -9 26596.4 648.804   1
   5  -1  -8 408.774 163.494   1
   5  -1  -7 65232.8 943.837   1
   5  -1  -6 71.8293 97.4719   1
   5  -1  -5 56082.7 592.385   1
   5  -1  -4 110.529 77.4147   1
   5  -1  -3 80312.2 747.693   1
   5  -1  -2 252.668 232.627   1
   5  -1  -1 79205.1 767.257   1
  -5   1   0 1960.57 103.009   1
  -5   1  -1 60875.3 646.949   1
   5  -1   2 1309.41 105.317   1
   5  -1   3 59125.5 776.731   1
  -1   5  -7 85466.1 1176.45  -2
   5  -1   3 85466.1 1176.45   1
  -1   5  -8 615.702 161.536  -2
   5  -1   4 615.702 161.536   1
  -1   5  -9 77211.8 1023.37  -2
   5  -1   5 77211.8 1023.37   1
  -1   5 -10 476.963 234.383  -2
   5  -1   6 476.963 234.383   1
  -1   5 -11 44203.6 1117.48  -2
   5  -1   7 44203.6 1117.48   1
  -1   5 -12 658.085 402.391  -2
   5  -1   8 658.085 402.391   1
  -1   5 -13 41341.8 1629.82  -2
   5  -1   9 41341.8 1629.82   1
  -1   5 -14-35.1309 421.330  -2
   5  -1  10-35.1309 421.330   1
  -1   5 -15 13739.7 955.653  -2
   5  -1  11 13739.7 955.653   1
  -1   5 -16 402.260 166.186  -2
   5  -1  12 402.260 166.186   1
  -1   5 -17 10310.0 910.818  -2
   5  -1  13 10310.0 910.818   1
   5   0 -16 246.524 435.421   1
   5   0 -15 6479.90 709.820   1
   5   0 -14 330.613 301.076   1
   5   0 -13 13820.1 872.466   1
   5   0 -12-96.8084 235.410   1
   5   0 -11 27823.0 1064.66   1
   5   0 -10 91.1733 291.115   1
   5   0  -9 48919.4 884.723   1
   5   0  -8 329.982 134.219   1
   5   0  -7 26078.3 580.171   1
   5   0  -6 407.843 152.748   1
   5   0  -5 52804.1 775.552   1
   5   0  -4 853.192 142.897   1
  -5   0   3 40775.3 503.273   1
   5   0  -2-54.4732 88.6404   1
   5   0  -1 25056.7 374.770   1
   5   0   0 160.439 88.0501   1
   5   0   1 25117.3 576.979   1
   0   5  -6 53058.1 736.457  -2
   5   0   1 53058.1 736.457   1
   0  -5   7 2694.36 182.210  -2
  -5   0  -2 2694.36 182.210   1
   0  -5   8 87702.9 967.452  -2
  -5   0  -3 87702.9 967.452   1
   0  -5   9 2051.56 283.695  -2
  -5   0  -4 2051.56 283.695   1
   0   5 -10 50877.9 1083.34  -2
   5   0   5 50877.9 1083.34   1
   0  -5  11 113.559 247.113  -2
  -5   0  -6 113.559 247.113   1
   0   5 -12 32086.4 1415.83  -2
   5   0   7 32086.4 1415.83   1
   0   5 -13 530.940 432.049  -2
   5   0   8 530.940 432.049   1
   0   5 -14 19808.5 1043.62  -2
   5   0   9 19808.5 1043.62   1
   0   5 -15 57.0553 460.384  -2
   5   0  10 57.0553 460.384   1
   0   5 -16 10774.6 842.705  -2
   5   0  11 10774.6 842.705   1
   0   5 -17-21.2979 575.557  -2
   5   0  12-21.2979 575.557   1
   5   1 -16-1.56370 422.052   1
   5   1 -15 4800.19 655.722   1
   5   1 -14-14.2691 368.464   1
   5   1 -13 8116.01 686.000   1
   5   1 -12-13.8660 296.307   1
   5   1 -11 19550.3 929.350   1
   5   1 -10 1912.49 259.102   1
   5   1  -9 26954.4 695.082   1
   5   1  -8 3571.44 287.587   1
   5   1  -7 38206.4 745.045   1
   5   1  -6 249.312 158.275   1
   5   1  -5 36092.8 567.458   1
  -5  -1   4 3022.20 198.571   1
   5   1  -3 68962.0 909.143   1
   5   1  -2 510.730 131.034   1
  -5  -1   1 37058.9 598.805   1
   1   5  -6 387.669 172.475  -2
   5   1   0 387.669 172.475   1
   1   5  -7 54057.0 698.076  -2
   5   1   1 54057.0 698.076   1
  -1  -5   8 1674.61 278.626  -2
  -5  -1  -2 1674.61 278.626   1
  -1  -5   9 32933.4 904.508  -2
  -5  -1  -3 32933.4 904.508   1
  -1  -5  10 331.831 242.319  -2
  -5  -1  -4 331.831 242.319   1
   1   5 -11 31191.4 1335.81  -2
   5   1   5 31191.4 1335.81   1
   1   5 -12 178.828 116.366  -2
   5   1   6 178.828 116.366   1
   1   5 -13 19836.4 1018.02  -2
   5   1   7 19836.4 1018.02   1
   1   5 -14 91.7560 494.755  -2
   5   1   8 91.7560 494.755   1
   1   5 -15 11318.5 856.654  -2
   5   1   9 11318.5 856.654   1
   5   1  10 334.447 344.807   1
   5   1  11 4309.40 647.619   1
   5   2 -15 5619.83 686.730   1
   5   2 -14-113.877 352.033   1
   5   2 -13 7839.79 472.075   1
   5   2 -12-26.4247 202.281   1
   5   2 -11 8472.20 446.959   1
   5   2 -10 434.144 174.640   1
   5   2  -9 21861.4 626.665   1
   5   2  -8 125.068 171.478   1
   5   2  -7 31713.0 703.643   1
   5   2  -6 386.219 155.731   1
   5   2  -5 33700.9 764.850   1
   5   2  -4 36.1450 142.356   1
  -5  -2   3 42030.5 829.404   1
   2   5  -5 969.678 302.220  -2
   5   2  -2 969.678 302.220   1
  -2  -5   6 58608.7 891.020  -2
  -5  -2   1 58608.7 891.020   1
  -2  -5   7 20.6313 195.941  -2
  -5  -2   0 20.6313 195.941   1
  -2  -5   8 31431.1 952.151  -2
  -5  -2  -1 31431.1 952.151   1
   2   5  -9 1952.59 486.455  -2
   5   2   2 1952.59 486.455   1
   2   5 -10 20279.4 1101.06  -2
   5   2   3 20279.4 1101.06   1
   2   5 -11 578.004 444.501  -2
   5   2   4 578.004 444.501   1
   2   5 -12 16396.6 935.855  -2
   5   2   5 16396.6 935.855   1
   2   5 -13 234.778 464.700  -2
   5   2   6 234.778 464.700   1
   5   2   7 3812.80 527.148   1
   5   2   8-141.512 340.760   1
   5   2   9 4065.33 613.459   1
   5   3 -14 186.765 397.976   1
   5   3 -13 6802.51 718.674   1
   5   3 -12 301.885 313.844   1
   5   3 -11 9880.71 752.846   1
   5   3 -10 53.0361 308.924   1
   5   3  -9 12392.0 785.726   1
   5   3  -8 562.849 185.717   1
   5   3  -7 11264.3 441.089   1
   5   3  -6 218.304 170.533   1
   5   3  -5 14928.9 490.150   1
   3   5  -4 477.266 268.018  -2
   5   3  -4 477.266 268.018   1
   3   5  -5 24758.0 734.124  -2
   5   3  -3 24758.0 734.124   1
   3   5  -6 372.720 420.560  -2
   5   3  -2 372.720 420.560   1
   3   5  -7 24586.7 1443.47  -2
   5   3  -1 24586.7 1443.47   1
   3   5  -8 272.442 503.475  -2
   5   3   0 272.442 503.475   1
   3   5  -9 22174.9 1238.32  -2
   5   3   1 22174.9 1238.32   1
   3   5 -10 1438.44 478.072  -2
   5   3   2 1438.44 478.072   1
   3   5 -11 16849.3 943.518  -2
   5   3   3 16849.3 943.518   1
   5   3   4 261.981 292.875   1
   5   3   5 6286.00 640.264   1
   5   3   6 602.231 384.561   1
   5   3   7 3629.89 561.497   1
   5   4 -12-40.7763 376.637   1
   5   4 -11 6648.28 706.224   1
   5   4 -10-146.925 324.550   1
   5   4  -9 7440.05 656.785   1
   5   4  -8-43.7262 313.850   1
   5   4  -7 10078.4 742.506   1
   4   5  -3-117.767 516.435  -2
   5   4  -6-117.767 516.435   1
   4   5  -4 14943.5 1017.65  -2
   5   4  -5 14943.5 1017.65   1
   4   5  -5-133.957 506.092  -2
   5   4  -4-133.957 506.092   1
   4   5  -6 17944.2 1312.49  -2
   5   4  -3 17944.2 1312.49   1
   4   5  -7-31.1110 515.894  -2
   5   4  -2-31.1110 515.894   1
   4   5  -8 13083.2 994.727  -2
   5   4  -1 13083.2 994.727   1
   4   5  -9 178.388 473.801  -2
   5   4   0 178.388 473.801   1
   4   5 -10 11050.7 858.971  -2
   5   4   1 11050.7 858.971   1
   5   4   2 178.091 339.614   1
   5   4   3 5374.72 637.942   1
   5   4   4 169.324 374.459   1
   5   5  -2 103.906 222.412  -2
   5   5  -8 103.906 222.412   1
   5   5  -3 7932.09 905.521  -2
   5   5  -7 7932.09 905.521   1
   5   5  -4 471.510 544.037  -2
   5   5  -6 471.510 544.037   1
   5   5  -5 10101.4 1056.58  -2
   5   5  -5 10101.4 1056.58   1
   5   5  -6 73.7087 178.765  -2
   5   5  -4 73.7087 178.765   1
   5   5  -2-32.6059 366.406   1
   6  -9  -5-140.414 429.055   1
   6  -9  -4 2800.48 512.482   1
   6  -9  -3-542.952 371.709   1
   6  -9  -2 6357.86 627.916   1
   6  -9  -1-55.5791 342.711   1
   6  -9   0 11012.2 774.223   1
   6  -9   1-95.6796 310.725   1
   6  -9   2 12751.6 777.073   1
   6  -9   3-72.4346 311.211   1
   6  -8  -7 563.854 432.949   1
   6  -8  -6 4635.16 640.265   1
   6  -8  -5 73.4397 331.029   1
   6  -8  -4 5624.81 592.091   1
   6  -8  -3 104.114 328.063   1
   6  -8  -2 12021.0 829.956   1
   6  -8  -1 124.590 327.385   1
   6  -8   0 16054.2 893.132   1
   6  -8   1-19.1623 313.782   1
   6  -8   2 16126.3 864.252   1
   6  -8   3 369.922 292.884   1
   6  -8   4 18152.1 620.675   1
  -6   8  -5-97.2776 198.762   1
  -6   8  -6 13608.3 551.717   1
  -6   8  -7 48.1531 212.779   1
   6  -7  -8 7494.37 807.553   1
  -6   7   7 194.238 207.631   1
  -6   7   6 12939.4 555.818   1
   6  -7  -5 1114.65 226.911   1
  -6   7   4 19769.8 617.405   1
  -6   7   3 153.675 177.582   1
  -6   7   2 17675.7 536.242   1
   6  -7  -1-69.5396 155.234   1
  -6   7   0 23781.1 576.842   1
  -6   7  -1 58.7529 150.960   1
  -6   7  -2 23086.9 551.070   1
   6  -7   3 20.9492 150.460   1
   6  -7   4 26492.5 671.373   1
  -6   7  -5 1601.26 234.302   1
   6  -7   6 20804.6 627.603   1
  -6   7  -7-186.527 188.250   1
  -6   7  -8 17242.9 805.653   1
  -6   7  -9 140.445 244.261   1
  -6   6  10 4369.79 540.370   1
  -6   6   9-37.7899 301.871   1
  -6   6   8 10844.3 672.584   1
   6  -6  -7-164.774 191.963   1
  -6   6   6 11164.5 476.916   1
   6  -6  -5 405.338 174.095   1
  -6   6   4 8214.42 287.781   1
   6  -6  -3 202.239 120.558   1
   6  -6  -2 28283.5 629.675   1
  -6   6   1-13.1188 82.4381   1
   6  -6   0 29482.8 594.967   1
   6  -6   1-167.135 54.7851   1
  -6   6  -2 28834.6 359.964   1
  -6   6  -3-28.3576 75.9198   1
  -6   6  -4 36731.9 543.675   1
   6  -6   5-73.1090 164.352   1
   6  -6   6 43086.5 819.545   1
  -6   6  -7 389.976 184.899   1
  -6   6  -8 18514.5 752.331   1
  -6   6  -9-323.213 236.947   1
  -6   5  12 5743.32 570.482   1
  -6   5  11-210.753 315.489   1
  -6   5  10 9505.96 639.389   1
  -6   5   9 56.4772 263.106   1
  -6   5   8 18036.3 752.132   1
  -6   5   7 576.237 210.816   1
  -6   5   6 25172.9 492.595   1
  -6   5   5 286.621 147.543   1
   6  -5  -4 23287.9 545.468   1
  -6   5   3 1146.24 158.768   1
   6  -5  -2 26098.6 466.234   1
   6  -5  -1 297.381 85.6821   1
   6  -5   0 50945.7 1460.91   1
   6  -5   1 294.176 270.346   1
   6  -5   2 29086.9 1094.07   1
   6  -5   3 466.072 289.800   1
  -6   5  -4 35266.1 555.071   1
   6  -5   5 94.6651 75.5165   1
   6  -5   6 29312.3 628.470   1
  -6   5  -7 277.901 186.325   1
  -6   5  -8 30623.6 928.280   1
  -6   5  -9-247.100 215.547   1
  -6   5 -10 13753.2 738.298   1
  -6   4  13-86.3157 337.879   1
  -6   4  12 8554.87 691.212   1
  -6   4  11 42.1517 306.820   1
  -6   4  10 12005.1 679.560   1
  -6   4   9 34.1597 232.513   1
  -6   4   8 24779.3 810.882   1
  -6   4   7 740.868 195.618   1
   6  -4  -6 55230.6 792.147   1
   6  -4  -5 548.275 141.813   1
   6  -4  -4 37590.9 559.814   1
   6  -4  -3 51.1141 29.1984   1
   6  -4  -2 35417.3 1198.16   1
   6  -4  -1 2101.78 361.966   1
   6  -4   0 46570.7 1339.65   1
   6  -4   1 544.640 281.883   1
   6  -4   2 35060.2 1152.99   1
   6  -4   3 265.722 277.972   1
   6  -4   4 16373.3 273.888   1
  -6   4  -5 1956.52 157.407   1
  -6   4  -6 35797.7 557.249   1
  -6   4  -7 863.818 204.010   1
  -6   4  -8 28927.9 914.740   1
   4  -6  11 9.41132 326.932  -2
  -6   4  -9 9.41132 326.932   1
   4  -6  12 26835.4 1040.84  -2
  -6   4 -10 26835.4 1040.84   1
   6  -3 -15-58.8299 461.609   1
   6  -3 -14 5628.46 651.554   1
   6  -3 -13 62.3915 319.743   1
   6  -3 -12 12730.2 819.151   1
   6  -3 -11 324.602 282.751   1
   6  -3 -10 17411.7 822.017   1
   6  -3  -9 253.265 235.110   1
   6  -3  -8 24711.1 664.712   1
   6  -3  -7 126.648 101.917   1
   6  -3  -6 43607.8 580.122   1
   6  -3  -5 2130.98 164.348   1
   6  -3  -4 29850.2 343.389   1
   6  -3  -3-23.0089 260.494   1
   6  -3  -2 56919.7 1461.42   1
   6  -3  -1-88.7706 268.627   1
   6  -3   0 61338.0 1480.39   1
   6  -3   1-91.2146 283.800   1
   6  -3   2 57154.5 1444.37   1
   6  -3   3 1167.29 340.811   1
  -6   3  -4 40584.9 334.908   1
   6  -3   5 186.877 119.858   1
   6  -3   6 36303.9 593.224   1
  -3   6 -10 1914.98 247.043  -2
   6  -3   7 1914.98 247.043   1
  -3   6 -11 28761.7 656.856  -2
   6  -3   8 28761.7 656.856   1
  -3   6 -12 51.7264 122.566  -2
   6  -3   9 51.7264 122.566   1
  -3   6 -13 26556.1 880.067  -2
   6  -3  10 26556.1 880.067   1
   6  -2 -15 44.2046 442.694   1
   6  -2 -14 5582.86 683.785   1
   6  -2 -13-359.255 321.303   1
   6  -2 -12 10373.1 740.131   1
   6  -2 -11 507.114 249.381   1
   6  -2 -10 14947.8 760.627   1
   6  -2  -9 87.4775 134.438   1
   6  -2  -8 23369.2 622.111   1
   6  -2  -7 4148.11 211.664   1
   6  -2  -6 26652.0 422.567   1
   6  -2  -5 96.7836 76.3068   1
   6  -2  -4 33411.1 332.283   1
   6  -2  -3 188.500 30.9559   1
   6  -2  -2 43258.0 1278.87   1
   6  -2  -1 65.4995 234.495   1
   6  -2   0 37914.6 1160.66   1
   6  -2   1 152.992 43.7086   1
   6  -2   2 20436.6 380.290   1
   6  -2   3 1394.76 71.6087   1
   6  -2   4 25410.7 421.292   1
   6  -2   5-54.7263 134.847   1
  -2   6  -9 68.6940 267.316  -2
   6  -2   5 68.6940 267.316   1
  -2   6 -10 30242.8 845.616  -2
   6  -2   6 30242.8 845.616   1
  -2   6 -11-54.6521 324.529  -2
   6  -2   7-54.6521 324.529   1
  -2   6 -12 28137.6 1162.25  -2
   6  -2   8 28137.6 1162.25   1
  -2   6 -13 265.953 384.255  -2
   6  -2   9 265.953 384.255   1
  -2   6 -14 15759.3 1084.76  -2
   6  -2  10 15759.3 1084.76   1
   6  -1 -15-187.680 415.171   1
   6  -1 -14 5901.02 666.258   1
   6  -1 -13-4.46198 289.826   1
   6  -1 -12 7932.08 632.900   1
   6  -1 -11-8.40104 239.686   1
   6  -1 -10 19318.8 639.320   1
   6  -1  -9 49.5554 145.809   1
   6  -1  -8 39531.0 719.000   1
   6  -1  -7 133.640 155.366   1
   6  -1  -6 60977.9 846.717   1
   6  -1  -5 818.435 120.794   1
   6  -1  -4 36089.9 448.226   1
   6  -1  -3-39.1654 139.734   1
   6  -1  -2 56197.4 725.062   1
   6  -1  -1 2150.10 189.822   1
   6  -1   0 43221.8 648.046   1
   6  -1   1 278.082 84.2380   1
  -6   1  -2 19921.1 384.775   1
   6  -1   3 260.163 99.1529   1
   1  -6   9 24844.5 463.671  -2
  -6   1  -4 24844.5 463.671   1
  -1   6 -10 1121.12 354.038  -2
   6  -1   5 1121.12 354.038   1
  -1   6 -11 40377.6 1309.86  -2
   6  -1   6 40377.6 1309.86   1
  -1   6 -12 2306.29 489.067  -2
   6  -1   7 2306.29 489.067   1
  -1   6 -13 21374.2 1197.28  -2
   6  -1   8 21374.2 1197.28   1
  -1   6 -14 450.588 407.448  -2
   6  -1   9 450.588 407.448   1
  -1   6 -15 13758.7 1050.45  -2
   6  -1  10 13758.7 1050.45   1
   6   0 -15 333.083 432.628   1
   6   0 -14 6756.79 666.676   1
   6   0 -13-45.9150 243.339   1
   6   0 -12 9907.77 522.239   1
   6   0 -11 284.895 200.524   1
   6   0 -10 11545.0 504.424   1
   6   0  -9 272.760 181.672   1
   6   0  -8 17797.7 551.307   1
   6   0  -7 2079.22 184.872   1
   6   0  -6 26112.3 491.025   1
   6   0  -5 2013.93 194.466   1
   6   0  -4 35060.1 653.297   1
   6   0  -3 1277.43 151.236   1
   6   0  -2 26526.2 597.976   1
   6   0  -1 2022.05 175.844   1
  -6   0   0 48555.6 628.549   1
   6   0   1 581.040 137.760   1
   0   6  -8 38400.1 663.625  -2
   6   0   2 38400.1 663.625   1
   0   6  -9 102.044 256.877  -2
   6   0   3 102.044 256.877   1
   0   6 -10 29097.6 1110.96  -2
   6   0   4 29097.6 1110.96   1
   0   6 -11-109.818 351.495  -2
   6   0   5-109.818 351.495   1
   0   6 -12 15760.8 1073.56  -2
   6   0   6 15760.8 1073.56   1
   0   6 -13 88.2440 401.378  -2
   6   0   7 88.2440 401.378   1
   0   6 -14 12232.7 1002.97  -2
   6   0   8 12232.7 1002.97   1
   0   6 -15 405.850 503.220  -2
   6   0   9 405.850 503.220   1
   6   1 -14 7017.05 486.726   1
   6   1 -13 103.635 245.089   1
   6   1 -12 9515.39 511.440   1
   6   1 -11 577.681 220.600   1
   6   1 -10 10983.2 486.834   1
   6   1  -9 23.3358 188.681   1
   6   1  -8 12134.3 474.324   1
   6   1  -7 449.618 171.008   1
   6   1  -6 21785.7 593.206   1
   6   1  -5-32.7024 134.461   1
   6   1  -4 23074.3 617.328   1
   6   1  -3-301.998 186.212   1
   6   1  -2 26066.8 645.540   1
   6   1  -1-10.2974 186.329   1
   6   1   0 24305.0 654.360   1
   1   6  -8 187.092 288.934  -2
   6   1   1 187.092 288.934   1
   1   6  -9 33121.8 1237.48  -2
   6   1   2 33121.8 1237.48   1
   1   6 -10 584.066 394.441  -2
   6   1   3 584.066 394.441   1
   1   6 -11 18956.9 1172.77  -2
   6   1   4 18956.9 1172.77   1
   1   6 -12 42.7977 121.101  -2
   6   1   5 42.7977 121.101   1
   1   6 -13 14194.5 1017.04  -2
   6   1   6 14194.5 1017.04   1
   1   6 -14 220.490 507.031  -2
   6   1   7 220.490 507.031   1
   1   6 -15 9864.20 858.927  -2
   6   1   8 9864.20 858.927   1
   6   2 -13 53.3107 377.536   1
   6   2 -12 5104.05 556.795   1
   6   2 -11 180.400 308.685   1
   6   2 -10 11369.4 508.075   1
   6   2  -9-20.4169 182.806   1
   6   2  -8 10177.1 445.746   1
   6   2  -7 166.586 167.641   1
   6   2  -6 11633.0 455.131   1
   6   2  -5 287.085 185.880   1
   6   2  -4 11675.8 466.027   1
   6   2  -3-170.507 176.479   1
   6   2  -2 13259.2 506.013   1
   2   6  -7 1196.08 314.179  -2
   6   2  -1 1196.08 314.179   1
   2   6  -8 12456.5 876.099  -2
   6   2   0 12456.5 876.099   1
   2   6  -9 896.122 479.204  -2
   6   2   1 896.122 479.204   1
   2   6 -10 13526.6 1016.81  -2
   6   2   2 13526.6 1016.81   1
   2   6 -11-173.814 444.072  -2
   6   2   3-173.814 444.072   1
   2   6 -12 10355.0 922.782  -2
   6   2   4 10355.0 922.782   1
   2   6 -13 6.77536 518.690  -2
   6   2   5 6.77536 518.690   1
   2   6 -14 6532.85 740.208  -2
   6   2   6 6532.85 740.208   1
   6   3 -11 668.167 368.637   1
   6   3 -10 7136.19 657.114   1
   6   3  -9 232.370 316.999   1
   6   3  -8 9275.59 700.507   1
   6   3  -7 192.472 292.802   1
   6   3  -6 6408.06 579.590   1
   6   3  -5 61.3188 298.457   1
   6   3  -4 9451.62 675.833   1
   3   6  -6-127.733 487.223  -2
   6   3  -3-127.733 487.223   1
   3   6  -7 12969.0 988.214  -2
   6   3  -2 12969.0 988.214   1
   3   6  -8 184.076 535.725  -2
   6   3  -1 184.076 535.725   1
   3   6  -9 17052.9 1326.95  -2
   6   3   0 17052.9 1326.95   1
   3   6 -10-11.2220 543.098  -2
   6   3   1-11.2220 543.098   1
   3   6 -11 10944.8 959.206  -2
   6   3   2 10944.8 959.206   1
   3   6 -12 352.901 596.527  -2
   6   3   3 352.901 596.527   1
   4   6  -6 5660.20 801.510  -2
   6   4  -4 5660.20 801.510   1
   4   6  -7-47.4020 619.651  -2
   6   4  -3-47.4020 619.651   1
   4   6  -8 7449.63 946.946  -2
   6   4  -2 7449.63 946.946   1
   4   6  -9-103.814 657.440  -2
   6   4  -1-103.814 657.440   1
   7  -9  -4-118.784 458.883   1
   7  -9  -3 4784.35 644.394   1
   7  -9  -2-117.882 435.814   1
   7  -9  -1 5679.75 659.164   1
   7  -9   0 27.5082 375.571   1
   7  -9   1 8607.98 754.798   1
   7  -9   2-501.218 366.962   1
   7  -9   3 6995.11 668.124   1
   7  -9   4 211.092 364.597   1
   7  -9   5 9331.99 778.675   1
   7  -9   6 330.544 404.931   1
   7  -8  -6-468.649 418.630   1
   7  -8  -5 6029.99 706.054   1
   7  -8  -4 24.9840 390.027   1
   7  -8  -3 8609.75 797.419   1
   7  -8  -2 1447.38 385.788   1
   7  -8  -1 13400.6 906.501   1
   7  -8   0-33.2517 369.129   1
   7  -8   1 11369.8 836.701   1
   7  -8   2 53.4259 383.376   1
   7  -8   3 16654.9 946.013   1
   7  -8   4 43.5719 349.985   1
   7  -8   5 12022.7 825.232   1
   7  -8   6-120.280 330.549   1
   7  -8   7 13355.3 937.320   1
   7  -7  -7 7788.24 798.805   1
   7  -7  -6-7.30624 425.033   1
   7  -7  -5 12054.1 891.787   1
   7  -7  -4-105.889 377.517   1
   7  -7  -3 10683.9 808.670   1
   7  -7  -2 287.823 334.076   1
   7  -7  -1 5382.37 601.849   1
   7  -7   0 46.0715 325.947   1
   7  -7   1 16032.8 916.774   1
   7  -7   2 199.477 323.062   1
   7  -7   3 11555.3 770.466   1
   7  -7   4 164.514 296.711   1
   7  -7   5 13316.1 851.337   1
   7  -7   6 337.453 345.141   1
   7  -7   7 16650.5 1008.40   1
   7  -7   8 22.3119 369.754   1
   7  -6  -9 8561.21 840.349   1
   7  -6  -8-287.056 362.612   1
   7  -6  -7 10803.5 878.783   1
   7  -6  -6 268.817 378.525   1
   7  -6  -5 18955.9 1059.86   1
   7  -6  -4 1131.02 397.839   1
   7  -6  -3 26887.5 1247.33   1
   7  -6  -2 315.262 358.939   1
   7  -6  -1 23637.3 1127.16   1
   7  -6   0 13.5783 342.393   1
   7  -6   1 23186.3 1068.70   1
   7  -6   2-46.6886 318.804   1
   7  -6   3 31709.3 1235.70   1
   7  -6   4-1.16053 335.046   1
   7  -6   5 14892.5 898.314   1
   7  -6   6 145.305 329.006   1
   7  -6   7 18225.8 1062.27   1
   7  -5 -10 90.8089 448.729   1
   7  -5  -9 8044.51 825.656   1
   7  -5  -8 192.764 367.704   1
   7  -5  -7 13968.5 945.742   1
   7  -5  -6 50.1462 363.401   1
   7  -5  -5 21165.3 1082.98   1
   7  -5  -4 606.889 381.435   1
   7  -5  -3 44165.3 1504.88   1
   7  -5  -2 80.1718 321.632   1
   7  -5  -1 31508.5 1267.42   1
   7  -5   0 115.104 310.648   1
   7  -5   1 28894.7 1169.08   1
   7  -5   2 324.937 313.141   1
   7  -5   3 27310.6 1152.44   1
   7  -5   4 433.736 345.383   1
   7  -5   5 20168.1 1021.21   1
   7  -5   6 80.7869 345.059   1
   7  -5   7 13726.1 935.669   1
   7  -4 -11 5648.85 657.786   1
   7  -4 -10-61.7142 434.380   1
   7  -4  -9 11953.5 909.553   1
   7  -4  -8 107.808 351.786   1
   7  -4  -7 15948.3 957.856   1
   7  -4  -6 213.721 344.550   1
   7  -4  -5 24639.6 1138.71   1
   7  -4  -4 477.433 360.620   1
   7  -4  -3 22416.2 1051.08   1
   7  -4  -2 784.609 339.813   1
   7  -4  -1 26482.1 1116.33   1
   7  -4   0-117.902 315.271   1
   7  -4   1 31526.3 1210.20   1
   7  -4   2 155.847 297.453   1
   7  -4   3 22049.4 1032.84   1
   7  -4   4 1900.34 410.384   1
   7  -4   5 24960.7 1152.33   1
   7  -4   6 2084.53 453.048   1
   7  -4   7 25409.2 1247.62   1
   7  -3 -11 7095.14 744.933   1
   7  -3 -10 74.0743 389.303   1
   7  -3  -9 12758.5 900.084   1
   7  -3  -8 569.731 308.932   1
   7  -3  -7 19673.3 1020.86   1
   7  -3  -6 276.544 299.586   1
   7  -3  -5 31224.5 1251.30   1
   7  -3  -4 2298.33 426.187   1
   7  -3  -3 33404.3 1237.90   1
   7  -3  -2 57.8032 309.990   1
   7  -3  -1 27186.3 1099.71   1
   7  -3   0 925.058 368.858   1
   7  -3   1 32447.6 1189.76   1
   7  -3   2 398.038 316.054   1
   7  -3   3 28637.2 1182.65   1
   7  -3   4 80.3477 331.669   1
   7  -3   5 7559.17 660.683   1
   7  -3   6 417.892 360.824   1
   7  -2 -12 780.716 428.305   1
   7  -2 -11 9324.67 805.234   1
   7  -2 -10 176.783 348.227   1
   7  -2  -9 7549.64 694.277   1
   7  -2  -8 509.352 306.819   1
   7  -2  -7 17638.3 951.067   1
   7  -2  -6 171.030 323.750   1
   7  -2  -5 32169.8 1221.28   1
   7  -2  -4 10.4077 339.877   1
   7  -2  -3 40321.9 1333.09   1
   7  -2  -2 508.522 343.700   1
   7  -2  -1 31330.2 1179.47   1
   7  -2   0-50.6498 327.085   1
   7  -2   1 46229.1 1418.84   1
   7  -2   2 1165.11 371.525   1
   7  -2   3 29675.6 1196.26   1
   7  -2   4 899.195 362.683   1
   7  -2   5 17276.0 987.099   1
   7  -1 -12 381.540 377.110   1
   7  -1 -11 9384.59 777.077   1
   7  -1 -10 6.25316 346.881   1
   7  -1  -9 17310.1 953.351   1
   7  -1  -8-67.5498 306.558   1
   7  -1  -7 12900.9 815.752   1
   7  -1  -6-185.115 303.605   1
   7  -1  -5 17275.0 902.231   1
   7  -1  -4 647.796 323.147   1
   7  -1  -3 17358.9 868.188   1
   7  -1  -2 276.502 310.336   1
   7  -1  -1 18504.9 894.907   1
   7  -1   0 249.665 297.946   1
   7  -1   1 14780.5 835.713   1
   7  -1   2 417.155 331.839   1
   7  -1   3 24531.8 1118.88   1
   7  -1   4 328.125 332.698   1
   7   0 -13 4830.45 632.513   1
   7   0 -12 23.7638 369.891   1
   7   0 -10 240.951 312.543   1
   7   0  -9 9919.87 727.678   1
   7   0  -8 710.167 323.337   1
   7   0  -7 13502.4 806.809   1
   7   0  -6 23.0412 313.409   1
   7   0  -5 10735.5 707.063   1
   7   0  -4 329.358 320.736   1
   7   0  -3 15316.9 807.008   1
   7   0  -2 139.590 263.578   1
   7   0  -1 15035.6 840.199   1
   7   0   0 77.4482 314.037   1
   7   0   1 14494.8 845.770   1
   7   0   2 209.463 300.774   1
   7   1 -10-61.1304 324.268   1
   7   1  -9 5901.53 577.723   1
   7   1  -8 66.5040 273.522   1
   7   1  -7 10627.7 695.347   1
   7   1  -6 80.2055 279.254   1
   7   1  -5 11584.0 696.287   1
   7   1  -4 81.9787 278.974   1
   7   1  -3 9875.27 671.261   1
   7   1  -2-265.123 309.304   1
   7   1  -1 9827.57 694.474   1
   7   1   0-90.2672 298.661   1
   8  -9   1-233.651 472.963   1
   8  -9   2 5907.09 680.069   1
   8  -9   3 98.2683 443.411   1
   8  -8  -3-35.3574 453.617   1
   8  -8  -2 14104.0 1045.09   1
   8  -8  -1 514.831 439.439   1
   8  -8   0 9043.26 817.084   1
   8  -8   1-239.956 401.213   1
   8  -8   2 6124.87 658.187   1
   8  -8   3 79.5291 385.949   1
   8  -8   4 8444.66 770.234   1
   8  -8   5 177.485 381.651   1
   8  -7  -5 268.759 459.928   1
   8  -7  -4 6025.34 717.294   1
   8  -7  -3 449.191 425.455   1
   8  -7  -2 13841.8 1001.16   1
   8  -7  -1 650.663 407.924   1
   8  -7   0 16096.5 1006.47   1
   8  -7   1 247.635 444.555   1
   8  -7   2 11933.9 879.408   1
   8  -7   3 484.746 380.786   1
   8  -7   4 14113.1 940.718   1
   8  -7   5-269.582 346.087   1
   8  -7   6 15583.2 1026.83   1
   8  -6  -6 7513.10 776.390   1
   8  -6  -5-77.5643 394.461   1
   8  -6  -4 11790.7 893.379   1
   8  -6  -3-55.6419 367.047   1
   8  -6  -2 16937.4 1045.67   1
   8  -6  -1 59.8145 387.467   1
   8  -6   0 20270.5 1095.37   1
   8  -6   1 81.2418 381.578   1
   8  -6   2 13324.3 877.363   1
   8  -6   3 68.3620 300.472   1
   8  -6   4 15968.7 1000.27   1
   8  -6   5-117.502 361.776   1
   8  -6   6 10500.6 901.068   1
   8  -5  -7 174.474 412.305   1
   8  -5  -6 13560.5 994.694   1
   8  -5  -5-113.143 396.336   1
   8  -5  -4 17424.4 1019.66   1
   8  -5  -3 306.509 384.284   1
   8  -5  -2 18787.7 1056.58   1
   8  -5  -1 1118.04 398.921   1
   8  -5   0 14857.0 933.353   1
   8  -5   1 666.261 377.402   1
   8  -5   2 14127.4 910.735   1
   8  -5   3 131.142 367.302   1
   8  -5   4 14629.1 950.291   1
   8  -5   5 1132.12 394.828   1
   8  -5   6 7260.66 749.022   1
   8  -4  -8 9508.46 830.855   1
   8  -4  -7 202.825 345.657   1
   8  -4  -6 12072.7 903.738   1
   8  -4  -5 92.9283 351.409   1
   8  -4  -4 15378.3 959.712   1
   8  -4  -3 25.7983 387.120   1
   8  -4  -2 24203.7 1164.17   1
   8  -4  -1 588.272 375.307   1
   8  -4   0 24112.2 1154.42   1
   8  -4   1-72.4883 377.196   1
   8  -4   2 23877.3 1155.29   1
   8  -4   3 288.503 402.654   1
   8  -4   4 26574.6 1249.92   1
   8  -4   5-37.7196 406.032   1
   8  -4   6 20377.8 1193.85   1
   8  -3  -9 785.217 396.733   1
   8  -3  -8 10645.4 866.414   1
   8  -3  -7 1066.64 419.587   1
   8  -3  -6 7336.65 691.276   1
   8  -3  -5 51.3008 357.221   1
   8  -3  -4 11265.9 825.903   1
   8  -3  -3 151.805 338.171   1
   8  -3  -2 16238.7 944.076   1
   8  -3  -1 567.623 375.122   1
   8  -3   0 18652.4 992.438   1
   8  -3   1-363.336 296.463   1
   8  -3   2 13147.3 877.117   1
   8  -3   3-162.861 354.792   1
   8  -3   4 19166.6 1071.66   1
   8  -3   5 439.894 373.494   1
   8  -2  -9 180.033 360.023   1
   8  -2  -8 10934.5 839.624   1
   8  -2  -7-92.0755 344.884   1
   8  -2  -6 20733.1 1085.54   1
   8  -2  -5 19.6398 340.408   1
   8  -2  -4 12548.3 831.981   1
   8  -2  -3-150.792 323.477   1
   8  -2  -2 14137.3 878.754   1
   8  -2  -1-6.92529 334.502   1
   8  -2   0 14130.2 885.058   1
   8  -2   1 95.6801 356.018   1
   8  -2   2 10520.6 788.212   1
   8  -2   3 295.383 353.454   1
   8  -2   4 8588.96 785.851   1
   8  -1 -10 6809.95 692.905   1
   8  -1  -9 627.059 361.710   1
   8  -1  -8 7342.66 681.330   1
   8  -1  -7 599.974 322.926   1
   8  -1  -6 6644.34 659.779   1
   8  -1  -5 885.709 374.044   1
   8  -1  -4 12702.3 838.168   1
   8  -1  -3-221.902 330.705   1
   8  -1  -2 7446.95 666.919   1
   8  -1  -1 203.694 365.328   1
   8  -1   0 9586.53 740.569   1
   8  -1   1 54.2983 302.666   1
   8  -1   2 11754.4 863.477   1
   8  -1   3 405.508 354.137   1
   8   0 -10 10107.0 803.415   1
   8   0  -9 553.903 408.575   1
   8   0  -8 7096.66 692.924   1
   8   0  -7 529.443 343.795   1
   8   0  -6 9253.10 736.114   1
   8   0  -5 259.857 357.915   1
   8   0  -4 10297.9 760.060   1
   8   0  -3 416.537 355.980   1
   8   0  -2 9163.39 721.914   1
   8   0  -1 181.981 347.469   1
   8   0   0 8188.79 702.835   1
   8   0   1 195.570 364.243   1
   8   1  -3-173.835 360.392   1
   8   1  -2 4910.08 562.216   1
   8   1  -1 532.239 422.716   1
   0   0  -3 857.309 123.986   2
   0   0  -4 176160. 1447.28   2
   0   0  -5 981.437 170.865   2
   0   0  -6 147057. 1644.93   2
   0   0  -7 208.474 188.405   2
   0   0  -8 35133.0 955.628   2
   0   0  -9 137.893 173.799   2
   0   0 -10 16051.3 543.844   2
   0   0 -11 54.9738 307.390   2
   0   0 -12 19055.2 917.260   2
   0   0 -13 1895.06 443.199   2
   0   0 -14 9565.31 767.346   2
   0   0 -15 219.861 399.596   2
   0   0 -16 5083.06 716.672   2
   0   1 -16 4373.71 616.004   2
   0   1 -15-4.73371 386.491   2
   0   1 -14 13485.0 859.850   2
   0   1 -13 65.5116 354.310   2
   0   1 -12 12301.2 743.348   2
   0   1 -11 207.197 323.483   2
   0   1 -10 27128.4 666.947   2
   0   1  -9 699.107 176.203   2
   0   1  -8 44640.7 738.679   2
   0  -1   7 3535.24 226.642   2
   0   1  -6 75699.2 810.802   2
   0   1  -5 1526.01 133.269   2
   0  -1   4 38980.8 651.295   2
   0  -1  -1 83281.8 689.978   2
   0  -1  -2 245626. 1435.62   2
   0  -1  -3 316.567 107.319   2
   0  -1  -4 53792.3 869.322   2
   0  -1  -5 763.372 184.828   2
   0  -1  -6 85949.6 1309.07   2
   0  -1  -7 9.23038 185.570   2
   0  -1  -8 39620.9 1048.03   2
   0  -1  -9 565.298 190.432   2
   0  -1 -10 25356.2 985.265   2
   0  -1 -11 1261.21 358.841   2
   0  -1 -12 14337.9 876.844   2
   0  -1 -13 109.092 384.106   2
   0  -1 -14 3688.88 594.671   2
   0  -1 -15 13.9590 415.115   2
   0   2 -17-308.201 462.174   2
   0   2 -16 6306.93 688.144   2
   0   2 -15-83.8451 346.143   2
   0   2 -14 8482.19 721.089   2
   0   2 -13-3.89707 360.188   2
   0   2 -12 32317.1 1139.59   2
   0   2 -11 362.656 302.035   2
   0   2 -10 40955.8 682.023   2
   0   2  -9 2827.03 200.457   2
   0   2  -8 56077.0 820.906   2
   0   2   0 89777.5 621.218   2
   0   2   1 824.569 85.7669   2
   0   2   2 98704.0 768.213   2
   0  -2  -3 8641.44 263.943   2
   0  -2  -4 116870. 1009.16   2
   0  -2  -5 235.052 188.548   2
   0  -2  -6 41095.9 715.334   2
   0   2   7 415.348 161.540   2
   0  -2  -8 42160.4 833.301   2
   0  -2  -9 5230.50 510.392   2
   0  -2 -10 14936.0 833.368   2
   0  -2 -11 454.877 351.417   2
   0  -2 -12 4302.16 589.475   2
   0  -2 -13 227.838 395.584   2
   0  -2 -14 5979.88 706.665   2
   0  -2 -15 911.031 512.661   2
   0   3 -17-188.355 406.865   2
   0   3 -16 9317.82 793.289   2
   0   3 -15 137.878 351.503   2
   0   3 -14 12903.7 838.827   2
   0   3 -13-45.6792 338.999   2
   0   3 -12 14298.0 780.242   2
   0  -3  11 2354.59 406.914   2
   0  -3   2 83962.3 673.448   2
   0   3  -1 29.8487 65.2525   2
   0   3   0 149633. 884.740   2
   0   3   1-16.7927 97.5023   2
   0   3   2 56828.7 661.887   2
   0   3   3 343.224 110.815   2
   0   3   4 40846.7 967.158   2
   0   3   5 639.818 167.214   2
   0  -3  -6 39017.3 744.342   2
   0  -3  -7 314.909 200.747   2
   0  -3  -8 11761.6 707.136   2
   0  -3  -9-70.8852 311.948   2
   0  -3 -10 6493.68 631.445   2
   0  -3 -11 45.7610 383.135   2
   0  -3 -12 7381.85 745.763   2
   0  -3 -13-80.9678 423.678   2
   0  -3 -14 2333.36 607.442   2
   0   4 -17-107.622 439.910   2
   0   4 -16 5301.59 622.684   2
   0   4 -15 387.425 363.366   2
   0  -4   4 34979.1 475.145   2
   0  -4   3 138.011 85.2938   2
   0  -4   2 55560.8 488.985   2
   0   4  -1 614.062 99.9091   2
   0   4   0 46024.3 629.192   2
   0   4   1-45.5690 99.2717   2
   0   4   2 58765.4 774.473   2
   0   4   3 363.307 195.845   2
   0   4   4 20026.5 511.590   2
   0   4   5-8.43629 167.203   2
   0   4   6 33916.8 751.735   2
   0   4   7 542.000 325.044   2
   0   4   8 16711.7 913.802   2
   0   4   9 165.716 369.861   2
   0   4  10 6290.02 705.263   2
   0   4  11 67.3132 415.359   2
   0   4  12 3853.32 654.961   2
   0   4  13-475.550 501.790   2
   0   5  -6 29018.3 617.288   2
   0   5  -5-17.8257 95.1629   2
   0  -5   4 20890.6 507.560   2
   0  -5   3 125.760 88.7044   2
   0  -5   2 11655.6 265.606   2
   0   5  -1-25.3901 120.518   2
   0   5   0 25661.0 516.854   2
   0   5   1 162.725 154.868   2
   0   5   2 11958.2 426.623   2
   0   5   3 2.93767 172.886   2
   0   5   4 16711.3 525.463   2
   0   5   5 1709.46 246.790   2
   0   5   6 8041.97 610.573   2
   0   5   7 243.414 325.303   2
   0   5   8 7439.91 672.685   2
   0   5   9 232.102 327.283   2
   0   5  10 2594.50 544.696   2
   0   5  11-73.1875 407.037   2
   0   5  12 820.247 524.846   2
   0  -6   7 495.480 144.717   2
   0  -6   6 18403.3 484.569   2
   0   6  -5-32.3145 139.608   2
   0  -6   4 22346.4 419.096   2
   0   6  -3 983.827 363.950   2
   0   6  -2 22186.4 509.422   2
   0   6  -1 228.157 165.547   2
   0   6   0 10979.6 403.302   2
   0   6   1 6.23085 134.986   2
   0   6   2 16406.6 484.061   2
   0   6   3 1528.00 206.923   2
   0   6   4 6280.86 397.640   2
   0   6   5 9.33456 322.487   2
   0   6   6 4041.94 575.651   2
   0   6   7-86.9126 366.279   2
   0   6   8 2440.93 520.124   2
   0   6   9 843.984 428.479   2
   0   6  10 1919.20 519.150   2
   0   7  -9 540.511 404.235   2
   0   7  -8 9321.80 438.400   2
   0   7  -7 97.3052 189.199   2
   0   7  -6 9435.96 415.375   2
   0   7  -5-25.9444 188.056   2
   0   7  -4 9462.19 417.315   2
   0   7  -3-70.7654 338.624   2
   0   7  -2 7167.66 331.802   2
   0   7  -1-5.01911 175.364   2
   0   7   0 6223.18 343.603   2
   0   7   1-82.7045 164.336   2
   0   7   2 4124.24 329.259   2
   0   7   3-11.3418 210.223   2
   0   7   4 3372.38 440.390   2
   0   7   5 627.288 463.142   2
   0   7   6 1339.12 430.296   2
   0   7   7-129.014 501.714   2
   0   8 -10 4713.96 709.332   2
   0   8  -9-163.338 412.220   2
   0   8  -8 8190.42 800.307   2
   0   8  -7-275.907 420.761   2
   0   8  -6 4190.14 584.454   2
   0   8  -5-393.432 408.134   2
   0   8  -4 3557.23 574.220   2
   0   8  -3 112.849 430.428   2
   0   8  -2 4158.88 614.189   2
   0   8  -1-102.079 403.894   2
   0   8   0 3551.75 558.463   2
   0   8   1-342.458 416.081   2
   0   8   2 1761.02 557.801   2
   0   8   3-9.01581 468.507   2
   0   8   4 1518.47 516.366   2
   0   9  -6 2770.87 588.340   2
   0   9  -5-173.567 518.840   2
   0   9  -4 1762.07 554.987   2
   0   9  -3-392.701 547.666   2
   0   9  -2 1682.60 597.564   2
  -1   9   0 13.9758 478.239   2
  -1   9  -1 2596.66 607.959   2
  -1   9  -2-213.858 507.226   2
  -1   9  -3 3923.49 656.047   2
  -1   9  -4-29.4378 469.868   2
  -1   9  -5 3395.37 624.260   2
  -1   9  -6-231.500 506.167   2
  -1   9  -7 3178.95 589.384   2
  -1   8   5 1899.66 550.474   2
  -1   8   4 209.679 435.570   2
  -1   8   3 2156.55 519.985   2
  -1   8   2 80.9049 407.063   2
  -1   8   1 3151.57 592.449   2
  -1   8   0 75.7765 424.811   2
  -1   8  -1 2953.41 491.907   2
  -1   8  -2-188.153 363.863   2
  -1   8  -3 5304.77 650.537   2
  -1   8  -4-156.953 374.630   2
  -1   8  -5 7158.23 688.250   2
  -1   8  -6 189.648 351.306   2
  -1   8  -7 6466.07 733.149   2
  -1   8  -8 23.0860 427.783   2
  -1   8  -9 6488.79 699.888   2
  -1   8 -10-13.5711 391.507   2
  -1   7   6 161.302 291.259   2
  -1   7   5 4090.19 388.004   2
  -1   7   4 141.852 205.247   2
  -1   7   3 4637.90 338.597   2
  -1   7   2 65.7213 177.277   2
  -1   7   1 7281.96 327.715   2
  -1   7   0 271.705 148.873   2
  -1   7  -1 10743.8 294.818   2
  -1   7  -2 16.9296 143.902   2
  -1   7  -3 7873.21 297.483   2
  -1   7  -4 211.785 116.601   2
  -1   7  -5 14166.7 382.377   2
  -1   7  -6 418.316 155.872   2
  -1   7  -7 11162.6 400.653   2
  -1   7  -8 15.1300 180.921   2
  -1   7  -9 13873.4 940.303   2
  -1   7 -10 285.635 346.330   2
  -1   6  11 1189.77 516.073   2
  -1   6  10-302.252 423.675   2
  -1   6   9 1925.19 485.897   2
  -1   6   8 121.316 322.817   2
  -1   6   7 3813.21 533.349   2
  -1   6   6 252.609 277.708   2
  -1   6   5 16051.5 534.924   2
  -1   6   4 66.0311 174.469   2
  -1   6   3 14061.7 518.283   2
  -1   6   2 438.722 180.347   2
  -1   6   1 20403.2 422.688   2
  -1   6   0-34.7815 95.2907   2
  -1   6  -1 20686.6 323.643   2
  -1   6  -2 87.7150 133.088   2
  -1   6  -3 25180.3 464.939   2
  -1   6  -4 301.928 116.853   2
  -1   6  -5 4893.69 243.064   2
  -1   6  -6 255.954 80.2590   2
   1  -6   7 15956.7 463.558   2
  -1   6  -8-23.7124 99.0592   2
   1  -6  10 724.972 248.110   2
  -1   5  12 463.354 487.194   2
  -1   5  11 3862.99 653.308   2
  -1   5  10 262.521 357.768   2
  -1   5   9 3989.67 575.720   2
  -1   5   8 592.710 367.267   2
  -1   5   7 14332.5 808.496   2
  -1   5   6 13.3516 205.629   2
  -1   5   5 18814.6 543.103   2
  -1   5   4-122.002 242.890   2
  -1   5   3 36788.9 882.706   2
  -1   5   2 10.1750 100.280   2
  -1   5   1 34174.3 488.905   2
  -1   5   0 222.154 86.2178   2
  -1   5  -1 48453.7 439.378   2
  -1   5  -2 994.538 287.960   2
  -1   5  -3 40230.9 527.583   2
  -1   5  -4 59.0208 52.9364   2
   1  -5   5 54583.3 683.500   2
  -1   5  -6 1058.41 110.163   2
  -1   5  -7 26819.4 525.404   2
   1  -4 -14 554.074 481.433   2
   1  -4 -13 2900.85 607.271   2
   1  -4 -12 334.350 394.042   2
   1  -4 -11 5325.85 616.013   2
   1  -4 -10 1326.61 428.428   2
   1  -4  -9 17632.7 904.530   2
   1  -4  -8 3072.11 436.289   2
   1  -4  -7 8538.71 402.619   2
  -1   4   6 170.422 167.934   2
   1  -4  -5 25343.5 808.506   2
  -1   4   3 41731.8 614.407   2
  -1   4   2 1.91761 95.0236   2
  -1   4   1 37020.0 404.925   2
  -1   4   0 2425.42 104.518   2
  -1   4  -1 35309.6 300.073   2
  -1   4  -2 271.963 77.1944   2
   1  -4   3 73180.8 590.111   2
  -1   4  -4 630.568 80.0599   2
  -1   4  -5 57923.4 679.165   2
  -1   4 -17 4346.51 617.615   2
   1  -3 -14 272.170 425.914   2
   1  -3 -13 4378.19 619.464   2
   1  -3 -12 462.391 388.363   2
   1  -3 -11 8026.10 689.733   2
   1  -3 -10 150.408 305.350   2
   1  -3  -9 10447.2 677.897   2
   1  -3  -8 131.110 192.372   2
   1  -3  -7 30736.9 667.273   2
   1  -3  -6 5105.89 285.433   2
   1  -3  -5 70908.6 1227.10   2
   1  -3  -4-1.36393 117.429   2
   1  -3  -3 75857.4 727.560   2
   1  -3  -2 2343.74 142.668   2
  -1   3   1 116951. 935.227   2
  -1   3   0 5961.93 119.042   2
  -1   3  -1 169303. 1715.64   2
  -1   3  -2 801.909 61.9720   2
  -1   3  -3 72819.2 412.593   2
  -1   3  -4 182.234 75.4379   2
  -1   3 -14 1904.47 469.341   2
  -1   3 -15 10019.7 761.762   2
  -1   3 -16 186.443 384.206   2
  -1   3 -17 5392.01 751.955   2
   1  -2 -15 4113.14 634.527   2
   1  -2 -14 361.861 392.415   2
   1  -2 -13 8417.23 732.304   2
   1  -2 -12 144.025 316.136   2
   1  -2 -11 15167.7 824.583   2
   1  -2 -10 296.874 315.773   2
   1  -2  -9 24781.3 653.290   2
   1  -2  -8 829.343 196.100   2
  -1   2   7 54497.1 826.514   2
   1  -2  -6 2273.21 285.372   2
  -1   2   5 70894.5 794.049   2
   1  -2  -4 376.696 107.161   2
   1  -2  -3 154828. 936.203   2
   1  -2  -2 6661.00 172.563   2
   1  -2  -1 87017.5 470.200   2
  -1   2   0 1767.71 172.421   2
  -1   2  -1 340070. 7963.06   2
  -1   2  -2 91636.3 400.907   2
   1  -2   3 244009. 1216.74   2
   1  -2   9 53371.6 1223.13   2
  -1   2 -10 614.588 161.517   2
  -1   2 -11 16809.9 775.788   2
  -1   2 -12 406.437 308.988   2
  -1   2 -13 11050.9 741.815   2
  -1   2 -14 246.494 335.984   2
  -1   2 -15 4637.49 622.118   2
  -1   2 -16-403.699 383.105   2
  -1   2 -17 3465.40 589.725   2
   1  -1 -16 215.263 413.416   2
   1  -1 -15 4181.40 600.672   2
   1  -1 -14-49.9989 407.594   2
   1  -1 -13 15938.1 902.101   2
   1  -1 -12 99.3371 355.062   2
   1  -1 -11 22217.8 955.393   2
   1  -1 -10 313.383 310.527   2
   1  -1  -9 37635.0 763.706   2
   1  -1  -8 588.547 250.415   2
   1  -1  -7 16003.7 635.555   2
   1  -1  -6 281.111 175.787   2
   1  -1  -5 71150.8 1100.19   2
   1  -1  -4-1.63049 126.021   2
   1  -1  -3 65430.6 814.999   2
   1  -1  -2 114.183 79.8734   2
   1  -1  -1 91265.9 665.367   2
   1  -1   0 19.9415 40.3521   2
   1  -1   1 89732.8 624.191   2
  -1   1  -6-18.3196 112.108   2
  -1   1  -7 81391.0 937.988   2
   1  -1   8 1569.36 194.629   2
  -1   1  -9 56132.0 901.998   2
  -1   1 -10 232.826 183.256   2
  -1   1 -11 23673.8 951.854   2
  -1   1 -12 534.211 332.252   2
  -1   1 -13 7741.54 672.835   2
  -1   1 -14 197.846 401.843   2
  -1   1 -15 7217.98 742.425   2
  -1   1 -16 300.267 387.478   2
   1   0 -16 513.382 410.030   2
   1   0 -15 7914.14 747.977   2
   1   0 -14-111.031 400.842   2
   1   0 -13 11269.6 767.072   2
   1   0 -12-47.4757 352.965   2
   1   0 -11 28468.9 1048.45   2
   1   0 -10 496.613 195.640   2
   1   0  -9 40526.0 762.935   2
   1   0  -8 951.875 273.126   2
   1   0  -7 83514.0 1394.63   2
   1   0  -6 6180.67 377.854   2
   1   0  -5 57008.2 952.343   2
   1   0  -4 191.057 109.143   2
   1   0  -3 284339. 1703.45   2
   1   0  -2 63463.4 740.020   2
  -1   0  -3 65645.2 903.348   2
  -1   0  -4 43.5818 125.911   2
  -1   0  -5 72861.0 1151.05   2
  -1   0  -6 295.031 192.997   2
  -1   0  -7 36815.3 966.501   2
  -1   0  -8 1427.01 292.930   2
  -1   0  -9 33947.7 763.680   2
  -1   0 -10 1805.03 366.440   2
  -1   0 -11 16291.9 864.742   2
  -1   0 -12 723.142 358.058   2
  -1   0 -13 8926.94 752.451   2
  -1   0 -14 484.269 392.515   2
  -1   0 -15 5677.38 690.830   2
  -1   0 -16-102.399 413.354   2
   1   1 -17 3404.18 617.910   2
   1   1 -16-468.125 428.561   2
   1   1 -15 3580.27 566.262   2
   1   1 -14 153.974 375.075   2
   1   1 -13 16715.6 911.869   2
   1   1 -12 827.287 393.928   2
   1   1 -11 17812.8 854.818   2
   1   1 -10 486.252 203.820   2
   1   1  -9 66897.3 1007.08   2
   1   1  -8 1589.38 200.678   2
   1   1  -7 65031.0 1205.92   2
   1   1  -6-0.43096 172.133   2
   1   1  -5 104432. 1278.58   2
  -1  -1   4 17513.3 480.973   2
   1   1   2 7644.97 332.851   2
   1   1   3 124227. 1420.93   2
   1   1   4 302.722 191.206   2
   1   1   5 59671.5 831.164   2
  -1  -1  -6 1134.52 246.128   2
  -1  -1  -7 65858.4 1388.53   2
  -1  -1  -8 83.6530 181.900   2
  -1  -1  -9 36485.8 1166.56   2
  -1  -1 -10 79.6828 301.806   2
  -1  -1 -11 14353.3 860.870   2
  -1  -1 -12 1147.25 421.030   2
  -1  -1 -13 6915.85 727.235   2
  -1  -1 -14-220.023 424.131   2
  -1  -1 -15 2991.80 462.348   2
   1   2 -17 3472.99 622.319   2
   1   2 -16-116.391 441.928   2
   1   2 -15 7821.81 704.130   2
   1   2 -14 50.8797 371.062   2
   1   2 -13 27126.2 1125.47   2
   1   2 -12 50.6578 355.452   2
   1   2 -11 42591.7 1274.75   2
   1   2 -10 7.73282 157.970   2
   1   2  -9 28517.9 546.594   2
  -1  -2   8 1116.95 153.910   2
   1   2  -7 105388. 1090.16   2
   1   2   0 2940.68 158.924   2
   1   2   1 139342. 1022.76   2
   1   2   2 3753.90 213.739   2
   1   2   3 90509.2 936.332   2
   1   2   4 14.0833 199.897   2
   1   2   5 50578.8 798.783   2
   1   2   6 1707.81 220.353   2
   1   2   7 45400.0 871.306   2
   1   2   8 92.1426 318.091   2
   1   2   9 19075.8 958.455   2
  -1  -2 -10 951.866 282.714   2
  -1  -2 -11 7679.85 512.952   2
   1   2  12-25.5186 378.903   2
   1   2  13 3392.83 622.846   2
   1   2  14 178.299 442.307   2
   1   3 -17 1671.38 480.400   2
   1   3 -16 795.910 438.546   2
   1   3 -15 5983.17 648.160   2
   1   3 -14 31.2050 370.847   2
   1   3 -13 9877.29 743.005   2
   1   3 -12 835.142 370.278   2
   1   3 -11 16147.4 812.813   2
  -1  -3  10 62.0936 150.299   2
  -1  -3   9 34127.5 714.397   2
  -1  -3   1 40278.2 568.602   2
   1   3   0 262.558 89.0013   2
   1   3   1 28750.9 529.687   2
   1   3   2 469.285 215.634   2
   1   3   3 33020.4 941.968   2
   1   3   4 1414.53 205.276   2
   1   3   5 29446.0 658.719   2
   1   3   6 93.5525 181.352   2
   1   3   8 370.474 339.166   2
   1   3   9 14868.0 892.476   2
   1   3  10 1295.96 452.261   2
   1   3  11 8569.26 783.731   2
   1   3  12 182.393 453.846   2
   1   3  13 2159.95 608.760   2
   1   4 -17 3319.93 621.499   2
   1   4 -16 180.705 425.513   2
   1   4 -15 2457.38 534.304   2
   1   4 -14 75.2868 376.590   2
   1   4 -13 10379.9 751.139   2
   1   4  -3 53810.5 737.759   2
   1   4  -2 43.4807 106.048   2
  -1  -4   1 33384.3 479.169   2
   1   4   0-26.9017 110.603   2
   1   4   1 21155.4 502.515   2
   1   4   2 292.753 130.382   2
   1   4   3 32905.4 696.360   2
   1   4   4 554.579 200.140   2
   1   4   5 10456.5 683.415   2
   1   4   6-138.450 327.033   2
   1   4   7 11988.9 776.071   2
   1   4   8 968.633 388.538   2
   1   4   9 6123.23 659.439   2
   1   4  10-83.5855 391.730   2
   1   4  11 2664.59 561.482   2
   1   4  12 402.648 489.019   2
   1   5 -17 2960.17 598.989   2
   1   5 -16-68.6772 456.919   2
  -1  -5   5 14507.2 336.533   2
   1   5  -4 2060.21 222.728   2
  -1  -5   3 18896.1 510.131   2
  -1  -5   2-11.7834 134.105   2
  -1  -5   1 24455.6 465.560   2
   1   5   0-44.6633 169.135   2
   1   5   1 19554.4 534.252   2
   1   5   2 647.056 166.149   2
   1   5   3 11824.8 468.553   2
   1   5   4 5.07963 306.060   2
   1   5   5 12530.1 780.011   2
   1   5   6 1247.47 440.017   2
   1   5   7 6704.63 736.940   2
   1   5   8-312.125 394.385   2
   1   5   9 3431.74 565.811   2
   1   5  10-170.762 463.684   2
   1   6  -7 15597.6 440.066   2
   1   6  -6 195.652 172.207   2
   1   6  -5 23352.4 592.111   2
   1   6  -4-87.7376 206.671   2
  -1  -6   3 12474.7 447.898   2
   1   6  -2-35.3990 161.331   2
   1   6  -1 12399.7 462.040   2
   1   6   0 195.260 162.929   2
   1   6   1 10632.2 456.988   2
   1   6   2 116.180 204.819   2
   1   6   3 4631.71 363.242   2
   1   6   4-111.885 235.742   2
   1   6   5 3547.76 372.515   2
   1   6   6 247.112 270.216   2
   1   6   7 1792.37 491.115   2
   1   6   8-53.5422 456.703   2
   1   6   9 2547.07 594.609   2
   1   7  -8 210.172 384.780   2
   1   7  -7 5232.55 391.119   2
   1   7  -6-130.735 224.787   2
   1   7  -5 5561.97 383.303   2
   1   7  -4 81.3933 206.534   2
   1   7  -3 5451.68 598.171   2
   1   7  -2-120.902 361.968   2
   1   7  -1 3015.59 506.056   2
   1   7   0-6.80012 402.560   2
   1   7   1 4056.95 593.132   2
   1   7   2-110.538 369.751   2
   1   7   4 87.1662 391.279   2
   1   7   5 1077.34 515.445   2
   1   7   6-268.743 537.612   2
   1   8  -9 2371.40 510.268   2
   1   8  -8-375.267 468.101   2
   1   8  -7 790.365 447.274   2
   1   8  -6-70.6138 451.777   2
   1   8  -5 2609.87 544.979   2
   1   8  -4 185.337 458.122   2
   1   8  -3 3156.60 596.643   2
   1   8  -2 314.923 459.660   2
   1   8  -1 2387.39 519.118   2
   1   8   0 19.1406 471.796   2
   1   8   1 1648.57 487.684   2
  -2   9   1-343.847 468.419   2
  -2   9   0 1793.40 583.553   2
  -2   9  -1-199.807 504.031   2
  -2   9  -2 4386.75 698.075   2
  -2   9  -3-83.8440 508.906   2
  -2   9  -4 3214.43 634.229   2
  -2   9  -5-48.9487 473.022   2
  -2   9  -6 1956.82 545.808   2
  -2   9  -7-407.589 430.324   2
  -2   8   5 397.614 458.945   2
  -2   8   4 2852.20 586.686   2
  -2   8   3-11.5717 365.782   2
  -2   8   2 4927.12 641.982   2
  -2   8   1-57.9578 404.170   2
  -2   8   0 5336.93 661.373   2
  -2   8  -1-109.635 411.547   2
  -2   8  -2 6665.54 700.925   2
  -2   8  -3 98.9679 406.355   2
  -2   8  -4 8381.11 765.019   2
  -2   8  -5-64.4884 399.110   2
  -2   8  -6 6337.14 700.488   2
  -2   8  -7-97.3156 407.383   2
  -2   8  -8 7671.17 793.887   2
  -2   8  -9 474.455 426.968   2
  -2   8 -10 4304.78 673.779   2
  -2   7   8 2064.72 475.498   2
  -2   7   7 175.956 311.702   2
  -2   7   6 3710.38 367.930   2
  -2   7   5-67.0183 196.733   2
  -2   7   4 5757.61 378.868   2
  -2   7   3 16.7930 188.132   2
  -2   7   2 18413.4 480.041   2
  -2   7   1 123.774 82.3173   2
  -2   7   0 11915.2 247.397   2
  -2   7  -1-209.087 379.004   2
  -2   7  -2 17913.1 936.549   2
  -2   7  -3 80.7868 380.364   2
  -2   7  -4 24894.4 1137.75   2
  -2   7  -5 484.042 359.733   2
  -2   7  -6 23308.3 1089.69   2
  -2   7  -7 42.4836 74.6380   2
  -2   7  -8 6194.59 680.061   2
  -2   7  -9-33.3838 374.316   2
  -2   7 -10 9607.54 850.078   2
  -2   6  12 1022.69 534.456   2
  -2   6  11-125.062 461.650   2
  -2   6  10 1498.39 504.691   2
  -2   6   9 500.511 361.948   2
  -2   6   8 5926.83 651.765   2
  -2   6   7 235.084 286.122   2
  -2   6   6 4554.64 335.206   2
  -2   6   5 1037.74 218.085   2
  -2   6   4 13596.4 496.960   2
  -2   6   3 69.3676 119.030   2
  -2   6   2 15617.1 323.650   2
  -2   6   1 25.8891 77.1112   2
  -2   6   0 19456.6 209.351   2
  -2   6  -1 26.7238 276.586   2
  -2   6  -2 18088.4 852.401   2
  -2   6  -3 323.718 264.639   2
  -2   6  -4 26393.8 1056.99   2
  -2   6  -5 67.7857 299.295   2
  -2   6  -6 14174.6 322.728   2
  -2   6  -7-35.7578 46.3030   2
  -2   6  -8 24846.6 383.937   2
  -2   6  -9 242.850 150.658   2
   2  -5 -13 278.152 499.201   2
   2  -5 -12 2134.71 506.930   2
   2  -5 -11 422.739 401.586   2
   2  -5 -10 5957.46 635.148   2
   2  -5  -9 392.395 349.646   2
   2  -5  -8 9782.64 669.188   2
   2  -5  -7 1547.68 247.821   2
   2  -5  -6 29357.3 648.352   2
   2  -5  -5 1286.92 268.985   2
   2  -5  -4 15444.3 401.386   2
  -2   5   3 374.462 160.060   2
  -2   5   2 42474.1 661.783   2
  -2   5   1 117.074 69.8105   2
  -2   5   0 28256.4 299.143   2
  -2   5  -1-15.9017 244.699   2
  -2   5  -2 46623.1 1211.15   2
  -2   5  -3-28.3440 243.069   2
  -2   5  -4 45572.0 863.162   2
   2  -5   5 95.0345 79.9179   2
  -2   5  -6 34897.9 412.987   2
  -2   5  -7 3654.83 182.993   2
   2  -5   8 26215.0 729.053   2
   2  -4 -14 2237.01 602.599   2
   2  -4 -13 64.1734 429.081   2
   2  -4 -12 6087.23 669.816   2
   2  -4 -11 87.5278 392.574   2
   2  -4 -10 10768.3 763.904   2
   2  -4  -9-37.9291 304.831   2
   2  -4  -8 10333.1 438.313   2
   2  -4  -7 772.782 191.653   2
   2  -4  -6 13410.7 424.003   2
   2  -4  -5 92.1109 173.489   2
   2  -4  -4 43973.4 618.761   2
   2  -4  -3-13.6966 96.6641   2
   2  -4  -2 42703.4 463.550   2
   2  -4  -1 2123.51 94.5059   2
  -2   4   0 82887.8 521.206   2
  -2   4  -1 1266.20 263.480   2
  -2   4  -2 89399.7 1447.23   2
  -2   4  -3-79.0183 234.208   2
  -2   4  -4 119828. 621.914   2
  -2   4  -5 9487.91 178.749   2
  -2   4  -6 67908.3 670.098   2
   2  -4   7 930.763 179.043   2
   2  -3 -15 191.445 434.600   2
   2  -3 -14 4584.50 646.283   2
   2  -3 -13 364.839 407.297   2
   2  -3 -12 9507.74 721.636   2
   2  -3 -11-431.128 326.404   2
   2  -3 -10 12626.6 747.058   2
   2  -3  -9 155.631 191.399   2
   2  -3  -8 40959.5 787.782   2
   2  -3  -7 1292.58 209.499   2
   2  -3  -6 33078.9 877.799   2
   2  -3  -5 1983.71 179.064   2
   2  -3  -4 51205.2 627.691   2
   2  -3  -3 3209.21 168.868   2
  -2   3   2 112296. 728.762   2
   2  -3  -1 1188.94 79.2540   2
   2  -3   0 76137.0 533.684   2
  -2   3  -1 560.661 64.3239   2
  -2   3  -2 61279.3 450.458   2
   2  -3   3 491.575 69.2266   2
  -2   3  -4 128520. 792.888   2
   2  -3   5 4113.08 263.752   2
  -2   3 -15 355.739 369.972   2
  -2   3 -16 3230.12 631.789   2
  -2   3 -17-50.8036 481.916   2
   2  -2 -15 326.917 447.684   2
   2  -2 -14 4198.23 579.429   2
   2  -2 -13-33.9462 391.093   2
   2  -2 -12 7847.14 677.073   2
   2  -2 -11-74.2177 326.997   2
   2  -2 -10 32484.8 1116.16   2
   2  -2  -9 214.208 212.532   2
   2  -2  -8 41384.2 770.770   2
   2  -2  -7-39.8234 160.647   2
   2  -2  -6 80186.2 1331.32   2
   2  -2  -5 569.152 132.013   2
   2  -2  -4 20291.4 404.921   2
   2  -2  -3 41.5450 78.3038   2
   2  -2  -2 118590. 750.870   2
  -2   2   1 257.011 58.2333   2
  -2   2   0 38463.2 403.209   2
  -2   2  -1 1457.88 65.8302   2
   2  -2   2 5726.27 131.463   2
   2  -2   3 6401.79 264.478   2
  -2   2 -12 10313.2 722.077   2
  -2   2 -13 108.111 341.965   2
  -2   2 -14 7717.86 712.883   2
  -2   2 -15 250.279 379.441   2
  -2   2 -16 3348.08 609.285   2
   2  -1 -16 4102.20 644.185   2
   2  -1 -15-39.7035 385.973   2
   2  -1 -14 6478.50 681.308   2
   2  -1 -13 662.418 403.458   2
   2  -1 -12 18080.6 931.770   2
   2  -1 -11-140.699 356.302   2
   2  -1 -10 26718.4 1008.55   2
   2  -1  -9 629.715 194.311   2
   2  -1  -8 43139.3 1106.28   2
   2  -1  -7 442.238 234.692   2
   2  -1  -6 65428.8 1181.58   2
   2  -1  -5 160.544 178.011   2
   2  -1  -4 208723. 1782.01   2
   2  -1  -3 9455.33 367.763   2
   2  -1  -2 34502.7 623.418   2
   2  -1  -1 1458.01 150.569   2
  -2   1   0 422528. 4564.93   2
   2  -1   8 42957.6 823.738   2
  -2   1  -9 94.1030 190.376   2
  -2   1 -10 19984.0 898.166   2
  -2   1 -11 1408.79 391.276   2
  -2   1 -12 15606.2 899.603   2
  -2   1 -13 908.366 285.279   2
  -2   1 -14 6647.40 519.825   2
  -2   1 -15 765.855 285.390   2
   2   0 -16 4255.16 663.616   2
   2   0 -15-63.5294 427.459   2
   2   0 -14 9039.65 759.959   2
   2   0 -13-31.7517 386.173   2
   2   0 -12 15081.7 859.057   2
   2   0 -11 446.807 348.205   2
   2   0 -10 35908.5 810.880   2
   2   0  -9 1876.21 254.897   2
   2   0  -8 41840.3 1091.15   2
   2   0  -7 29.0077 212.513   2
   2   0  -6 97584.7 1410.08   2
   2   0  -5 215.236 198.478   2
   2   0  -4 78143.2 1132.65   2
   2   0  -3 26749.5 440.418   2
   2   0  -2 144458. 1343.46   2
   2   0   6 56385.5 1259.07   2
   2   0   7 54.8639 148.855   2
   2   0   8 34063.2 776.522   2
  -2   0  -9 57.4772 207.913   2
  -2   0 -10 24566.9 749.204   2
  -2   0 -11 93.4288 235.672   2
  -2   0 -12 18065.9 720.943   2
  -2   0 -13 100.867 293.771   2
  -2   0 -14 5522.15 491.322   2
   2   0  15-7.96054 451.717   2
   2   1 -16 6064.25 730.015   2
   2   1 -15 315.047 405.897   2
   2   1 -14 3814.31 574.253   2
   2   1 -13 393.519 396.157   2
   2   1 -12 18781.9 957.032   2
   2   1 -11 199.952 330.923   2
   2   1 -10 48575.0 1323.38   2
   2   1  -9 605.790 202.730   2
   2   1  -8 61704.3 934.907   2
   2   1  -7 383.973 153.607   2
   2   1  -6 80029.2 934.427   2
   2   1  -5 5449.28 199.486   2
  -2  -1   4 147767. 1129.85   2
  -2  -1   3 374.190 106.898   2
   2   1   4 88112.2 1463.91   2
   2   1   5 4387.30 413.475   2
   2   1   6 41657.0 785.423   2
   2   1   7 444.380 190.008   2
   2   1   8 19975.9 941.242   2
   2   1   9 2826.93 478.742   2
   2   1  10 21262.4 1062.38   2
   2   1  11 723.147 440.464   2
   2   1  12 5911.42 699.420   2
   2   1  13-68.1071 421.008   2
   2   1  14 2399.12 593.520   2
   2   2 -16 6509.19 713.990   2
   2   2 -15 202.877 418.692   2
   2   2 -14 7959.66 756.573   2
   2   2 -13 3198.83 506.432   2
   2   2 -12 8649.85 671.276   2
   2   2 -11 287.842 308.597   2
   2   2 -10 22591.5 635.149   2
  -2  -2   9 301.977 142.790   2
  -2  -2   8 22898.8 464.853   2
   2   2  -7 225.561 142.469   2
  -2  -2   6 23641.9 500.768   2
   2   2   2 48282.5 775.415   2
   2   2   3 828.744 175.037   2
   2   2   4 25858.1 639.863   2
   2   2   5-183.680 184.874   2
   2   2   6 19393.1 588.496   2
   2   2   7 402.034 318.291   2
   2   2   8 10853.6 751.098   2
   2   2   9 362.141 339.687   2
   2   2  10 3883.55 571.595   2
   2   2  11 137.783 409.976   2
   2   2  12 4427.54 679.274   2
   2   2  13 201.779 405.564   2
   2   3 -16 6605.16 767.753   2
   2   3 -15 13.3714 440.819   2
   2   3 -14 9124.53 779.093   2
   2   3 -13 68.4285 339.359   2
   2   3 -12 9473.81 712.106   2
   2   3 -11-85.3726 336.022   2
  -2  -3  10 25159.5 695.076   2
  -2  -3   9 34.6992 151.246   2
  -2  -3   8 26348.5 620.004   2
  -2  -3   0 45989.2 561.019   2
   2   3   1-21.4854 120.939   2
   2   3   2 44572.7 802.734   2
   2   3   3 469.211 187.890   2
   2   3   4 21127.6 613.878   2
   2   3   5 160.464 316.386   2
   2   3   6 19527.3 960.434   2
   2   3   7 828.901 393.421   2
   2   3   8 12127.5 824.915   2
   2   3   9 134.757 402.909   2
   2   3  10 5955.92 679.340   2
   2   3  11 471.703 414.701   2
   2   3  12 1942.43 592.999   2
   2   4 -16 4519.77 657.162   2
   2   4 -15 242.222 433.903   2
   2   4 -14 5095.19 617.204   2
   2   4 -13 3.39719 411.784   2
   2   4 -12 14067.5 864.803   2
   2   4 -11 263.005 314.542   2
  -2  -4   2 17507.2 480.647   2
  -2  -4   1 2691.53 193.641   2
  -2  -4   0 24727.8 597.313   2
   2   4   1 21.3334 143.303   2
   2   4   2 18030.8 568.291   2
   2   4   3 451.051 286.447   2
   2   4   4 13795.3 782.874   2
   2   4   5 471.139 337.037   2
   2   4   6 9382.67 746.984   2
   2   4   7 334.996 402.557   2
   2   4   8 5154.29 684.511   2
   2   4  10 1932.56 565.892   2
   2   5 -16 2490.18 648.359   2
   2   5 -15 752.190 549.507   2
   2   5 -14 4469.18 612.766   2
  -2  -5   4 16173.8 510.503   2
   2   5  -3 7.01878 171.824   2
  -2  -5   2 26700.1 532.272   2
   2   5  -1 854.422 242.924   2
  -2  -5   0 13738.5 503.978   2
   2   5   1-1.47249 193.903   2
   2   5   2 9293.26 437.618   2
   2   5   3 878.516 242.327   2
   2   5   4 10312.0 508.467   2
   2   5   5 48.4035 357.358   2
   2   5   6 3824.96 574.893   2
   2   5   7-42.8398 364.326   2
   2   5   8 1553.82 457.772   2
   2   5   9-286.958 488.407   2
   2   6  -6 4309.85 375.137   2
   2   6  -5 66.6106 222.885   2
   2   6  -4 6601.46 379.241   2
   2   6  -3 48.3535 196.693   2
   2   6  -2 6049.20 374.736   2
   2   6  -1-87.6546 209.782   2
   2   6   0 3902.47 322.609   2
   2   6   1-71.3575 207.173   2
   2   6   2 4082.06 352.278   2
   2   6   3 31.3186 224.160   2
   2   6   4 1989.08 322.305   2
   2   6   5-154.401 289.191   2
   2   6   6 1792.75 364.796   2
   2   6   7-247.232 503.721   2
   2   7  -7 163.583 366.629   2
   2   7  -6 4097.14 536.728   2
   2   7  -5-168.183 360.141   2
   2   7  -4 3230.06 494.703   2
   2   7  -3 169.454 358.944   2
   2   7  -2 2076.64 468.477   2
  -3   9   1 4095.69 687.386   2
  -3   9   0 101.706 419.089   2
  -3   9  -1 4695.94 686.586   2
  -3   9  -2-511.944 465.357   2
  -3   9  -3 3800.19 669.022   2
  -3   9  -4 128.337 458.001   2
  -3   9  -5 5991.90 751.641   2
  -3   9  -6-156.949 464.967   2
  -3   9  -7 5486.53 725.792   2
  -3   8   6 194.901 462.337   2
  -3   8   5 2634.75 590.274   2
  -3   8   4 469.969 439.274   2
  -3   8   3 2705.41 550.402   2
  -3   8   2 282.348 362.916   2
  -3   8   1 5127.66 634.185   2
  -3   8   0 73.6512 358.967   2
  -3   8  -1 11272.9 858.687   2
  -3   8  -2 83.8945 390.166   2
  -3   8  -3 9447.11 812.649   2
  -3   8  -4 80.9263 428.257   2
  -3   8  -5 13175.0 932.588   2
  -3   8  -6 209.072 430.961   2
  -3   8  -7 15327.0 1018.80   2
  -3   8  -8 368.789 455.475   2
  -3   8  -9 10028.1 882.285   2
  -3   8 -10 66.4306 447.625   2
  -3   7   9 2278.77 461.061   2
  -3   7   8-66.3770 353.917   2
  -3   7   7 2737.54 482.083   2
  -3   7   6 143.084 217.483   2
  -3   7   5 6810.75 409.901   2
  -3   7   4 331.870 208.397   2
  -3   7   3 8143.65 357.170   2
  -3   7   2 274.489 106.415   2
  -3   7   1 13600.5 870.006   2
  -3   7   0-31.0381 387.118   2
  -3   7  -1 11042.5 778.663   2
  -3   7  -2 12.9403 331.514   2
  -3   7  -3 23001.4 1078.69   2
  -3   7  -4 173.879 332.596   2
  -3   7  -5 8051.76 684.620   2
  -3   7  -6 2178.33 463.617   2
  -3   7  -7 10733.5 805.200   2
  -3   7  -8-48.5979 392.761   2
  -3   7  -9 8370.27 764.750   2
  -3   7 -10-16.7290 399.221   2
   3  -6 -13 506.964 553.495   2
   3  -6 -12-35.3374 474.622   2
   3  -6 -11 3602.40 602.130   2
   3  -6 -10-102.662 354.197   2
   3  -6  -9 4838.55 533.761   2
   3  -6  -8 67.9552 257.244   2
   3  -6  -7 9574.65 434.252   2
   3  -6  -6 78.3690 200.255   2
   3  -6  -5 14126.5 632.835   2
  -3   6   4 482.645 190.990   2
  -3   6   3 23125.6 510.543   2
  -3   6   2 202.266 113.926   2
  -3   6   1 13152.8 299.255   2
  -3   6   0-48.0425 302.170   2
  -3   6  -1 44350.7 1332.89   2
  -3   6  -2-49.1027 312.992   2
  -3   6  -3 27529.2 1072.12   2
  -3   6  -4 849.426 351.476   2
  -3   6  -5 42925.5 1325.95   2
  -3   6  -6-62.3968 345.855   2
   3  -6   7 32275.0 471.897   2
  -3   6  -8 460.327 126.825   2
   3  -6   9 22905.8 439.699   2
   3  -6  10 1118.54 272.117   2
   3  -5 -14 267.193 495.982   2
   3  -5 -13 3866.50 650.259   2
   3  -5 -12 245.457 409.261   2
   3  -5 -11 4276.38 602.280   2
   3  -5 -10-179.043 345.173   2
   3  -5  -9 14204.4 779.855   2
   3  -5  -8 1066.13 237.635   2
   3  -5  -7 17399.9 520.097   2
   3  -5  -6 40.0180 150.911   2
   3  -5  -5 14973.7 589.173   2
   3  -5  -4 193.545 125.280   2
   3  -5  -3 15207.6 336.944   2
  -3   5   2 301.352 79.8411   2
   3  -5  -1 31118.4 397.060   2
  -3   5   0 260.729 51.7224   2
  -3   5  -1 26569.9 945.163   2
   3  -5   2 1465.28 214.572   2
  -3   5  -3 41553.1 831.136   2
   3  -5   4 1581.07 232.131   2
  -3   5  -5 50817.2 417.933   2
  -3   5  -6 281.710 90.6906   2
  -3   5  -7 61658.3 820.645   2
   3  -5   8 1414.94 205.049   2
   3  -5   9 27697.7 835.587   2
   3  -4 -14-451.432 454.715   2
   3  -4 -13 2788.79 519.397   2
   3  -4 -12 69.6200 380.210   2
   3  -4 -11 7333.35 650.363   2
   3  -4 -10 65.0057 317.496   2
   3  -4  -9 11426.5 688.872   2
   3  -4  -8 543.790 204.374   2
   3  -4  -7 21850.4 573.814   2
   3  -4  -6 171.432 170.458   2
   3  -4  -5 49985.2 1042.89   2
   3  -4  -4 249.402 117.171   2
   3  -4  -3 48817.5 598.212   2
   3  -4  -2 2369.27 171.210   2
   3  -4  -1 46880.3 536.508   2
   3  -4   0 4889.63 126.840   2
  -3   4  -1 84572.6 484.726   2
   3  -4   2 691.014 52.5338   2
   3  -4   3 42147.6 371.961   2
   3  -4   4 6662.30 168.735   2
  -3   4  -5 19079.4 381.430   2
  -3   4  -6-22.7610 117.212   2
   3  -4   7 44580.0 979.390   2
   3  -3 -15 1716.54 529.769   2
   3  -3 -14 153.219 423.779   2
   3  -3 -13 5983.12 640.870   2
   3  -3 -12 191.488 370.874   2
   3  -3 -11 8412.46 663.148   2
   3  -3 -10 6.40227 311.836   2
   3  -3  -9 18527.9 848.103   2
   3  -3  -8-63.1866 202.554   2
   3  -3  -7 51697.9 852.111   2
   3  -3  -6 25.7078 238.905   2
   3  -3  -5 59145.1 1096.40   2
   3  -3  -4 46.1164 114.535   2
   3  -3  -3 88993.0 817.953   2
  -3   3   2 256.199 95.8887   2
   3  -3  -1 55750.5 610.285   2
  -3   3   0 31.8469 69.8592   2
  -3   3  -1 83931.5 642.276   2
   3  -3   2 29.7424 67.4259   2
   3  -3   3 74650.9 536.532   2
  -3   3  -4 1752.29 112.434   2
   3  -3   5 26839.2 669.528   2
   3  -3  16-337.920 458.467   2
   3  -2 -15 3445.20 608.859   2
   3  -2 -14 151.641 409.986   2
   3  -2 -13 9353.18 781.359   2
   3  -2 -12-115.402 371.279   2
   3  -2 -11 13728.0 828.117   2
   3  -2 -10 220.279 334.090   2
   3  -2  -9 38808.1 815.548   2
   3  -2  -8 32.9966 169.898   2
   3  -2  -7 36118.7 707.390   2
   3  -2  -6 5239.40 393.523   2
   3  -2  -5 51739.4 1009.57   2
  -3   2   4 1187.56 153.769   2
   3  -2  -3 63774.2 723.487   2
   3  -2  -2 4073.36 198.815   2
  -3   2   1 117568. 870.885   2
  -3   2   0 1988.32 113.655   2
  -3   2  -1 53457.1 585.684   2
  -3   2  -2 887.644 89.2680   2
  -3   2  -3 125402. 1033.18   2
   3  -2  13 9939.00 823.902   2
   3  -2  14 177.000 397.969   2
   3  -2  15 5563.55 722.414   2
   3  -1 -16 295.528 407.375   2
   3  -1 -15 7361.20 766.345   2
   3  -1 -14-21.7043 402.485   2
   3  -1 -13 9454.64 777.710   2
   3  -1 -12 413.673 363.431   2
   3  -1 -11 12695.1 789.530   2
   3  -1 -10 235.507 291.816   2
   3  -1  -9 31049.4 746.872   2
   3  -1  -8 2961.78 275.331   2
   3  -1  -7 66788.4 1324.60   2
   3  -1  -6 1535.17 267.296   2
   3  -1  -5 63090.9 1196.58   2
   3  -1  -4 4913.68 374.703   2
   3  -1  -3 142251. 1589.59   2
   3  -1  -2 233.716 155.613   2
  -3   1   1 140581. 799.578   2
  -3   1   0 1188.29 103.578   2
   3  -1   1 119248. 808.878   2
   3  -1  10 1380.19 384.573   2
   3  -1  11 10934.6 812.344   2
   3  -1  12 199.805 384.999   2
   3  -1  13 9136.45 823.011   2
   3  -1  14 183.422 415.082   2
   3  -1  15 5218.41 780.109   2
   3   0 -16-182.753 476.603   2
   3   0 -15 4071.21 620.616   2
   3   0 -14 267.608 424.680   2
   3   0 -13 11318.4 838.145   2
   3   0 -12 172.355 408.696   2
   3   0 -11 3763.14 523.002   2
   3   0 -10 308.445 343.582   2
   3   0  -9 27710.3 692.030   2
   3   0  -8 289.597 172.909   2
   3   0  -7 54052.4 1240.52   2
   3   0  -6 275.565 225.321   2
   3   0  -5 37955.6 986.126   2
   3   0  -4 9998.38 348.351   2
   3   0  -3 87442.4 1255.45   2
   3   0  -2 4575.46 330.017   2
   3   0  -1 114375. 1459.89   2
   3   0   7 28497.2 1022.18   2
   3   0   8 1248.68 338.235   2
   3   0   9 22011.1 1020.03   2
   3   0  10 641.536 359.844   2
   3   0  11 8610.43 789.811   2
   3   0  12 1677.18 485.280   2
   3   0  13 5032.18 685.718   2
   3   0  14 17.0354 410.638   2
   3   1 -16 75.8553 442.030   2
   3   1 -15 9086.11 821.884   2
   3   1 -14 407.034 373.253   2
   3   1 -13 15071.5 929.413   2
   3   1 -12 352.680 357.591   2
   3   1 -11 26065.8 1084.58   2
   3   1 -10 1910.79 403.012   2
   3   1  -9 22388.3 900.629   2
   3   1  -8 1250.36 214.445   2
   3   1  -7 34211.8 713.783   2
  -3  -1   6 175.349 107.378   2
  -3  -1   5 54305.4 702.828   2
  -3  -1   4 194.702 79.6082   2
  -3  -1   3 23962.9 515.820   2
  -3  -1   2 1921.13 265.319   2
   3   1   5 35459.4 1184.52   2
   3   1   6 0.97572 360.503   2
   3   1   7 23571.2 1051.39   2
   3   1   8 1332.17 432.095   2
   3   1   9 11601.7 815.771   2
   3   1  10 98.7873 409.873   2
   3   1  11 3644.56 593.578   2
   3   1  12-342.888 414.697   2
   3   1  13 2346.01 599.151   2
   3   2 -16 265.547 493.799   2
   3   2 -15 6481.12 708.747   2
   3   2 -14 467.548 409.330   2
   3   2 -13 12895.1 896.722   2
   3   2 -12 557.197 366.050   2
   3   2 -11 11846.9 778.885   2
  -3  -2  10 985.558 241.101   2
  -3  -2   9 23563.0 647.346   2
  -3  -2   8 554.627 206.909   2
  -3  -2   7 36918.7 705.033   2
  -3  -2   6-11.0217 122.537   2
  -3  -2   5 33156.9 483.163   2
   3   2   3 24318.5 920.873   2
   3   2   4 135.807 281.780   2
   3   2   5 29700.7 1115.46   2
   3   2   6 484.223 393.046   2
   3   2   7 13934.8 920.857   2
   3   2   8-162.810 413.292   2
   3   2   9 5205.68 665.172   2
   3   2  10 1027.97 476.772   2
   3   2  11 5184.23 712.641   2
   3   3 -16-458.305 493.747   2
   3   3 -15 3520.51 623.659   2
   3   3 -14 432.298 436.717   2
   3   3 -13 8741.76 753.718   2
   3   3 -12-13.2440 383.537   2
   3   3 -11 7581.22 647.812   2
  -3  -3  10 65.0591 210.506   2
  -3  -3   9 21957.7 662.213   2
   3   3  -8 205.305 167.816   2
   3   3  -7 23557.7 650.436   2
  -3  -3  -1 13525.2 406.266   2
   3   3   2 443.481 184.266   2
   3   3   3 21274.7 928.014   2
   3   3   4 54.5867 332.049   2
   3   3   5 13375.1 835.082   2
   3   3   6 50.6988 335.826   2
   3   3   7 7980.46 735.791   2
   3   3   8 425.017 389.400   2
   3   3   9 5567.81 751.942   2
   3   3  10-211.370 457.768   2
   3   4 -15 4397.80 638.587   2
   3   4 -14 477.989 487.448   2
   3   4 -13 6472.70 685.496   2
   3   4 -12 55.3820 375.748   2
   3   4 -11 8007.58 680.304   2
   3   4 -10-190.727 381.661   2
  -3  -4   9 11758.3 698.165   2
   3   4  -1 11674.0 436.196   2
   3   4   0-45.7800 200.157   2
   3   4   1 14209.2 483.764   2
   3   4   2 1104.00 228.945   2
   3   4   3 7866.26 413.801   2
   3   4   4 104.834 228.733   2
   3   4   5 6980.71 691.168   2
   3   4   6 574.863 409.736   2
   3   4   7 4953.00 653.693   2
   3   4   8-315.838 439.744   2
   3   4   9 2423.85 584.503   2
   3   5 -14 62.1059 497.801   2
   3   5 -13 4826.45 667.521   2
   3   5 -12-31.4482 419.785   2
   3   5  -3 9486.38 429.624   2
   3   5  -2-237.201 176.028   2
   3   5  -1 6381.70 369.455   2
   3   5   0 17.3285 198.584   2
   3   5   1 8015.67 418.171   2
   3   5   2 48.9960 227.730   2
   3   5   3 3035.85 310.087   2
   3   5   4 135.345 396.148   2
   3   5   5 3052.15 525.913   2
   3   5   6 288.683 432.524   2
   3   5   7 2146.68 520.596   2
   3   6  -5 5675.29 563.394   2
   3   6  -4-200.102 327.363   2
   3   6  -3 3682.44 474.743   2
   3   6  -2 72.6191 324.775   2
   3   6  -1 3346.38 460.509   2
   3   6   0 254.597 335.009   2
   3   6   1 2083.07 448.197   2
   3   6   2-33.7044 386.402   2
   3   6   3 2213.22 488.263   2
   3   6   4 278.116 455.050   2
  -4   9   2 2634.15 581.560   2
  -4   9   1-315.101 419.797   2
  -4   9   0 2980.18 588.957   2
  -4   9  -1-137.476 444.241   2
  -4   9  -2 3552.26 639.591   2
  -4   9  -3 123.675 468.472   2
  -4   9  -4 5813.54 730.280   2
  -4   9  -5 168.162 458.475   2
  -4   9  -6 3178.25 630.077   2
  -4   9  -7-710.217 483.289   2
  -4   8   6 2545.31 594.930   2
  -4   8   5-58.3986 429.397   2
  -4   8   4 3898.23 628.184   2
  -4   8   3-10.0028 368.959   2
  -4   8   2 6335.52 688.685   2
  -4   8   1 254.593 428.255   2
  -4   8   0 9090.91 802.517   2
  -4   8  -1-157.108 414.919   2
  -4   8  -2 12684.9 907.940   2
  -4   8  -3 50.4149 436.284   2
  -4   8  -4 12262.9 911.155   2
  -4   8  -5-232.705 415.542   2
  -4   8  -6 17330.1 1045.89   2
  -4   8  -7 155.136 410.771   2
  -4   8  -8 7953.31 799.323   2
  -4   8  -9 886.210 443.122   2
  -4   8 -10 6615.78 781.549   2
   4  -7  -7-17.7995 310.311   2
   4  -7  -6 5420.62 397.135   2
  -4   7   5-10.9911 391.774   2
  -4   7   4 10766.7 838.487   2
  -4   7   3 296.583 402.305   2
  -4   7   2 6844.17 279.731   2
  -4   7   1-664.998 393.543   2
  -4   7   0 13009.3 862.806   2
  -4   7  -1-32.4059 365.814   2
  -4   7  -2 15752.7 906.604   2
  -4   7  -3 344.061 373.255   2
  -4   7  -4 17756.7 972.998   2
  -4   7  -5-108.373 346.105   2
  -4   7  -6 10932.5 796.835   2
  -4   7  -7 183.935 399.212   2
  -4   7  -8 21855.3 1128.06   2
  -4   7  -9 546.707 388.556   2
  -4   7 -10 15885.6 1025.37   2
   4  -6 -13-273.741 542.687   2
   4  -6 -12 1968.94 511.738   2
   4  -6 -11-5.77113 411.609   2
   4  -6 -10 6078.03 586.735   2
   4  -6  -9 42.4673 327.249   2
   4  -6  -8 5403.63 515.577   2
   4  -6  -7 87.5277 220.391   2
   4  -6  -6 22324.8 561.941   2
   4  -6  -5 288.049 250.640   2
   4  -6  -4 18072.7 505.304   2
  -4   6   3-31.6218 107.157   2
   4  -6  -2 19001.7 328.983   2
  -4   6   1 375.283 108.687   2
  -4   6   0 12088.3 261.222   2
  -4   6  -1 51.8614 305.156   2
  -4   6  -2 21206.0 946.607   2
  -4   6  -3-33.2237 309.159   2
  -4   6  -4 21405.6 951.161   2
   4  -6   5-41.6989 40.1383   2
  -4   6  -6 14484.5 250.305   2
  -4   6  -7 2609.98 200.530   2
   4  -6   8 16243.4 358.288   2
   4  -6   9 55.6256 139.633   2
   4  -6  10 23921.7 885.399   2
   4  -5 -14 1415.04 505.945   2
   4  -5 -13-78.6742 456.840   2
   4  -5 -12 2322.28 480.853   2
   4  -5 -11 113.409 365.289   2
   4  -5 -10 4961.02 542.982   2
   4  -5  -9 45.8101 339.439   2
   4  -5  -8 10784.0 465.136   2
   4  -5  -7-46.2450 201.748   2
   4  -5  -6 8299.52 366.985   2
  -4   5   5 1783.78 214.556   2
   4  -5  -4 31534.8 799.522   2
  -4   5   3 38.6398 108.262   2
   4  -5  -2 36996.0 601.156   2
  -4   5   1 942.010 105.216   2
  -4   5   0 32552.2 384.423   2
  -4   5  -1 139.412 68.0714   2
   4  -5   2 45703.4 323.626   2
   4  -5   3 986.431 88.7071   2
  -4   5  -4 49005.8 633.878   2
  -4   5  -5 213.797 93.3688   2
   4  -5   6 31110.9 522.690   2
  -4   5  -7-1.02754 117.117   2
   4  -5   8 10355.3 342.950   2
   4  -5   9 105.086 252.754   2
   4  -5  10 16201.4 757.938   2
   4  -4 -14 1513.90 492.279   2
   4  -4 -13 177.552 386.720   2
   4  -4 -12 6759.93 664.678   2
   4  -4 -11 396.865 399.453   2
   4  -4 -10 9708.22 702.162   2
   4  -4  -9 54.6790 332.339   2
   4  -4  -8 15826.4 551.331   2
   4  -4  -7 79.6859 189.581   2
   4  -4  -6 31912.5 657.891   2
  -4   4   5 77.7070 149.550   2
   4  -4  -4 42511.0 940.755   2
  -4   4   3 61.6836 118.477   2
   4  -4  -2 58597.1 788.156   2
  -4   4   1-24.3035 90.6565   2
  -4   4   0 72282.2 786.725   2
  -4   4  -1 76.0924 92.1309   2
  -4   4  -2 56554.7 725.575   2
   4  -4   3 41.9482 72.0832   2
   4  -4   4 47799.3 607.084   2
  -4   4  -5 54.6960 94.5507   2
   4  -4   6 34617.7 539.090   2
   4  -4   7 172.572 156.517   2
   4  -4   8 40182.8 1084.38   2
   4  -3 -15 175.404 434.808   2
   4  -3 -14 4628.09 641.677   2
   4  -3 -13-220.693 382.994   2
   4  -3 -12 5898.83 656.751   2
   4  -3 -11 171.819 341.370   2
   4  -3 -10 15210.4 845.435   2
   4  -3  -9 563.609 312.695   2
   4  -3  -8 18562.0 574.026   2
  -4   3   7 94.2992 170.439   2
   4  -3  -6 55975.3 862.713   2
  -4   3   5 139.803 136.601   2
   4  -3  -4 37501.2 906.205   2
   4  -3  -3 2031.32 266.919   2
   4  -3  -2 45102.6 658.030   2
  -4   3   1 2130.41 163.727   2
  -4   3   0 92141.7 912.077   2
  -4   3  -1 6987.33 219.870   2
  -4   3  -2 36096.0 490.051   2
   4  -3   3 6822.55 199.356   2
  -4   3  -4 39505.0 549.386   2
   4  -3   5 227.304 118.525   2
   4  -3   6 38717.4 983.718   2
   4  -2 -15 122.807 418.365   2
   4  -2 -14 3415.06 570.322   2
   4  -2 -13 103.300 410.123   2
   4  -2 -12 15731.7 948.365   2
   4  -2 -11 225.809 377.250   2
   4  -2 -10 12629.0 776.935   2
   4  -2  -9 234.924 294.094   2
   4  -2  -8 14464.8 504.131   2
  -4   2   7 1113.04 188.885   2
  -4   2   6 25346.9 802.075   2
   4  -2  -5 3103.20 250.318   2
   4  -2  -4 71044.4 911.790   2
   4  -2  -3 7091.67 426.548   2
  -4   2   2 47377.6 625.418   2
  -4   2   1-9.43404 109.882   2
  -4   2   0 92807.0 854.278   2
  -4   2  -1 31.9843 93.4512   2
   4  -2   2 145470. 1118.42   2
   4  -2   3 4075.27 228.697   2
   4  -2  14 3346.02 616.365   2
   4  -1 -15-263.364 475.108   2
   4  -1 -14 7069.03 761.356   2
   4  -1 -13-60.1995 391.482   2
   4  -1 -12 12955.5 849.751   2
   4  -1 -11 1471.59 434.228   2
   4  -1 -10 19143.5 903.785   2
   4  -1  -9-45.2376 291.268   2
   4  -1  -8 13039.5 697.903   2
  -4   1   7 699.129 209.488   2
   4  -1  -6 37003.4 733.905   2
   4  -1  -5 443.428 263.717   2
   4  -1  -4 45422.9 762.856   2
   4  -1  -3 1463.98 262.939   2
  -4   1   2 31219.4 409.559   2
  -4   1   1 1117.81 89.2886   2
   4  -1   0 47234.0 1032.54   2
   4  -1   1 865.889 103.183   2
   4  -1   2 52074.6 619.848   2
   4  -1  11 676.364 414.242   2
   4  -1  12 6060.09 691.749   2
   4  -1  13 614.810 424.913   2
   4   0 -15-25.4307 441.053   2
   4   0 -14 5789.69 670.238   2
   4   0 -13-61.4743 434.937   2
   4   0 -12 14454.0 917.960   2
   4   0 -11 628.602 414.286   2
   4   0 -10 29303.4 1114.38   2
   4   0  -9 177.754 337.003   2
   4   0  -8 39240.8 1222.01   2
  -4   0   7 607.148 189.993   2
   4   0  -6 57644.9 954.504   2
   4   0  -5 2347.35 249.833   2
   4   0  -4 40923.8 510.793   2
   4   0  -3 968.713 264.635   2
   4   0  -2 64656.0 1286.10   2
   4   0  -1 2452.85 338.638   2
   4   0   0 50659.9 1161.95   2
   4   0   9-113.380 446.551   2
   4   0  10 13495.0 961.989   2
   4   0  11 1527.53 492.995   2
   4   0  12 5200.33 729.514   2
   4   1 -15 216.774 388.344   2
   4   1 -14 6115.30 723.701   2
   4   1 -13 198.118 407.487   2
   4   1 -12 11939.1 836.861   2
  -4  -1  11 361.817 246.558   2
   4   1 -10 12086.5 514.610   2
  -4  -1   9 965.987 204.612   2
   4   1  -8 16100.1 832.022   2
  -4  -1   7 367.915 181.861   2
  -4  -1   6 22127.8 421.818   2
   4   1  -5 1175.70 134.067   2
  -4  -1   4 27067.4 622.502   2
   4   1  -3-191.118 170.600   2
  -4  -1   2 26351.6 641.443   2
   4   1   7 80.5857 391.026   2
   4   1   8 11057.3 857.813   2
   4   1   9-148.676 479.130   2
   4   1  10 4228.54 652.137   2
   4   1  11-73.6416 576.233   2
   4   2 -15-47.3120 462.687   2
   4   2 -14 6904.52 733.528   2
   4   2 -13 616.288 431.623   2
   4   2 -12 8543.51 743.653   2
   4   2 -11 346.045 432.907   2
  -4  -2  10 14016.7 550.214   2
  -4  -2   9 129.865 203.536   2
   4   2  -8 15729.4 855.222   2
   4   2  -7 597.553 187.106   2
   4   2  -6 27416.6 556.411   2
  -4  -2   5 186.208 119.768   2
   4   2   5-17.6507 380.351   2
   4   2   6 9855.05 795.842   2
   4   2   7 575.989 434.182   2
   4   2   8 7129.42 730.214   2
   4   2   9 622.385 420.607   2
   4   2  10 4337.05 725.485   2
   4   3 -14 2480.57 547.546   2
   4   3 -13 337.466 414.467   2
   4   3 -12 8711.71 726.701   2
   4   3 -11 531.479 410.613   2
   4   3 -10 12414.6 865.205   2
   4   3  -9 137.991 416.731   2
   4   3  -8 14990.7 906.199   2
  -4  -3   7 122.438 171.405   2
   4   3  -6 23080.2 535.854   2
   4   3   2 8518.15 350.812   2
   4   3   3 28.5311 187.978   2
   4   3   4 7121.93 642.517   2
   4   3   5-162.268 399.522   2
   4   3   6 5479.66 677.576   2
   4   3   7-216.208 450.979   2
   4   3   8 3261.99 617.251   2
   4   4 -13-356.375 476.158   2
   4   4 -12 4213.81 638.330   2
   4   4 -11 180.584 399.232   2
   4   4 -10 8018.68 750.887   2
   4   4  -9 203.285 404.851   2
   4   4   0 14422.4 864.052   2
   4   4   1-75.0834 392.478   2
   4   4   2 5350.87 586.269   2
   4   4   3 565.516 369.471   2
   4   4   4 6304.21 670.304   2
   4   4   5 394.119 439.109   2
   4   4   6 3388.15 618.754   2
   4   5 -12 1873.69 461.731   2
   4   5 -11-277.070 458.953   2
   4   5  -2 5493.34 595.606   2
   4   5  -1 67.9420 373.696   2
   4   5   0 2064.92 457.958   2
   4   5   1 61.8419 370.007   2
   4   5   2 3364.46 548.263   2
   4   5   3 340.795 420.630   2
   4   5   4 1206.41 445.023   2
   4   6  -5-117.375 413.482   2
   4   6  -4 3934.02 562.141   2
   4   6  -3-612.793 391.472   2
   4   6  -2 1517.30 457.304   2
   4   6  -1-146.088 465.715   2
   4   6   0 1588.79 507.072   2
  -5   9   2 6.96867 423.493   2
  -5   9   1 3013.41 573.193   2
  -5   9   0-120.230 484.143   2
  -5   9  -1 5583.82 745.120   2
  -5   9  -2-111.333 497.951   2
  -5   9  -3 6410.42 792.241   2
  -5   9  -4-235.969 440.782   2
  -5   9  -5 7657.31 802.128   2
  -5   9  -6 39.7485 447.895   2
  -5   8   6 78.1722 456.434   2
  -5   8   5 4492.57 695.633   2
  -5   8   4 295.609 392.853   2
  -5   8   3 6147.35 715.024   2
  -5   8   2-69.7411 418.753   2
  -5   8   1 9099.52 819.256   2
  -5   8   0 153.556 438.051   2
  -5   8  -1 7152.30 733.949   2
  -5   8  -2 142.389 420.774   2
  -5   8  -3 7879.61 798.771   2
  -5   8  -4-78.1399 420.866   2
  -5   8  -5 8408.77 754.930   2
  -5   8  -6-181.233 372.637   2
  -5   8  -7 4799.83 648.348   2
  -5   8  -8-144.758 389.572   2
  -5   8  -9 1928.23 494.490   2
  -5   8 -10 333.813 434.493   2
  -5   7   7 3709.13 629.369   2
  -5   7   6-62.1822 414.119   2
   5  -7  -5 6736.00 377.386   2
  -5   7   4-50.5405 191.911   2
   5  -7  -3 12778.3 373.900   2
  -5   7   2 334.411 373.380   2
  -5   7   1 16406.9 982.788   2
  -5   7   0 250.120 368.311   2
  -5   7  -1 17491.1 943.434   2
  -5   7  -2 796.092 389.320   2
  -5   7  -3 16186.3 965.117   2
  -5   7  -4-48.3336 350.531   2
  -5   7  -5 13244.1 880.764   2
  -5   7  -6 159.262 394.977   2
  -5   7  -7 14187.5 934.961   2
  -5   7  -8-413.523 377.077   2
  -5   7  -9 7932.69 763.594   2
   5  -6 -12 610.768 446.508   2
   5  -6 -11 2715.49 509.661   2
   5  -6 -10 405.601 354.379   2
   5  -6  -9 5184.68 556.130   2
   5  -6  -8-88.4541 280.783   2
   5  -6  -7 8695.63 593.054   2
  -5   6   6 308.718 178.541   2
   5  -6  -5 11732.4 415.731   2
  -5   6   4 182.040 131.373   2
   5  -6  -3 8397.59 353.233   2
  -5   6   2 972.818 133.384   2
  -5   6   1 18799.9 352.701   2
  -5   6   0-82.2485 79.5540   2
   5  -6   1 14147.2 213.549   2
   5  -6   2 1445.33 82.3486   2
   5  -6   3 16195.9 243.814   2
   5  -6   4 6.51269 87.7655   2
  -5   6  -5 28789.3 543.826   2
  -5   6  -6 6.98102 122.872   2
  -5   6  -7 21525.8 554.214   2
   5  -6   8 114.765 188.701   2
   5  -6   9 13655.7 640.249   2
   5  -6  10-16.7842 263.140   2
   5  -6  11 7003.40 561.595   2
   5  -6  12-279.537 314.517   2
   5  -5 -13 2182.39 530.053   2
   5  -5 -12 130.122 379.528   2
   5  -5 -11 4094.83 572.827   2
   5  -5 -10 8.40718 364.083   2
   5  -5  -9 9020.86 664.620   2
   5  -5  -8 340.623 296.337   2
   5  -5  -7 9214.48 611.916   2
   5  -5  -6 167.997 278.502   2
   5  -5  -5 18407.4 511.842   2
  -5   5   4 67.8109 124.206   2
   5  -5  -3 35351.4 685.622   2
  -5   5   2-62.2923 151.458   2
  -5   5   1 33600.9 614.822   2
  -5   5   0-59.7093 112.207   2
  -5   5  -1 42348.1 707.659   2
   5  -5   2-85.8766 116.745   2
   5  -5   3 51686.7 606.702   2
   5  -5   4 70.7800 107.171   2
  -5   5  -5 24440.1 445.380   2
  -5   5  -6 27.4770 120.855   2
   5  -5   7 21314.0 477.418   2
   5  -5   8-249.629 179.604   2
   5  -5   9 11851.5 474.584   2
   5  -4 -14 11.5269 466.919   2
   5  -4 -13 3615.08 624.181   2
   5  -4 -12 241.945 420.453   2
   5  -4 -11 6659.79 681.056   2
   5  -4 -10-77.0955 355.505   2
   5  -4  -9 9303.05 688.942   2
   5  -4  -8 200.721 328.786   2
   5  -4  -7 15468.5 769.966   2
   5  -4  -6 1146.81 196.829   2
   5  -4  -5 17139.4 504.885   2
  -5   4   4 300.793 146.594   2
   5  -4  -3 43164.6 756.137   2
  -5   4   2-67.4694 147.293   2
   5  -4  -1 33583.0 629.432   2
   5  -4   0-29.2094 139.669   2
  -5   4  -1 30349.5 612.039   2
   5  -4   2 106.274 124.716   2
  -5   4  -3 51135.5 795.910   2
  -5   4  -4 2817.32 148.478   2
   5  -4   5 27170.9 623.009   2
   5  -4   6 629.834 140.629   2
   5  -4   7 15971.0 511.277   2
   5  -4   8-69.4332 276.977   2
   5  -3 -14 209.548 446.154   2
   5  -3 -13 4498.01 630.291   2
   5  -3 -12 42.0064 397.356   2
   5  -3 -11 8179.27 703.781   2
   5  -3 -10 417.277 336.098   2
   5  -3  -9 24871.0 1050.82   2
   5  -3  -8 18.7745 323.966   2
   5  -3  -7 15201.6 738.603   2
  -5   3   6 123.373 175.929   2
   5  -3  -5 15457.8 491.713   2
  -5   3   4-56.1122 151.250   2
   5  -3  -3 26699.0 478.635   2
  -5   3   2 175.758 112.937   2
  -5   3   1 32808.5 627.324   2
  -5   3   0 382.903 119.238   2
  -5   3  -1 28040.2 607.183   2
  -5   3  -2-51.2072 102.321   2
  -5   3  -3 42691.4 509.161   2
   5  -3   4 1837.62 158.364   2
   5  -3   5 65124.7 1025.16   2
   5  -3   6 17.6263 188.065   2
   5  -2 -14-272.738 441.585   2
   5  -2 -13 7033.76 714.213   2
   5  -2 -12 12.1417 413.354   2
   5  -2 -11 12142.6 835.047   2
   5  -2 -10-71.8749 344.102   2
   5  -2  -9 23655.4 1006.90   2
   5  -2  -8 3169.17 461.895   2
   5  -2  -7 26459.9 1003.10   2
   5  -2  -6-46.1007 289.068   2
   5  -2  -5 33403.5 733.438   2
  -5   2   4 924.432 204.687   2
  -5   2   3 49294.6 697.504   2
   5  -2  -2 349.276 113.408   2
  -5   2   1 41072.3 755.019   2
  -5   2   0-21.7710 107.578   2
  -5   2  -1 47444.8 657.447   2
   5  -2   2 150.024 108.169   2
   5  -2   3 33274.6 524.526   2
   5  -2   4 1837.51 178.388   2
   5  -1 -14 610.607 363.371   2
   5  -1 -13 5965.11 682.570   2
   5  -1 -12-186.347 387.013   2
   5  -1 -11 9495.55 747.474   2
   5  -1 -10 992.597 408.097   2
   5  -1  -9 12517.6 796.317   2
   5  -1  -8 217.780 336.918   2
   5  -1  -7 33366.4 1148.38   2
   5  -1  -6-30.8874 314.457   2
   5  -1  -5 30301.3 1053.20   2
   5  -1  -4 38.6972 167.742   2
  -5   1   3 41576.6 776.273   2
  -5   1   2 10.2491 179.038   2
  -5   1   1 45713.0 842.880   2
   5  -1   0 1165.70 217.314   2
  -5   1  -1 40046.6 836.836   2
   5  -1   2 686.507 105.758   2
   5  -1   3 33151.4 668.256   2
   5  -1  12 225.304 487.653   2
   5   0 -14 67.2926 444.241   2
   5   0 -13 6599.62 708.121   2
   5   0 -12 22.3202 397.286   2
   5   0 -11 12143.3 833.718   2
   5   0 -10 56.1105 387.172   2
   5   0  -9 25605.7 1129.57   2
   5   0  -8 186.555 339.620   2
   5   0  -7 13228.3 440.007   2
  -5   0   6 349.151 153.933   2
  -5   0   5 16754.4 329.698   2
   5   0  -4 648.447 281.666   2
   5   0  -3 21756.4 886.340   2
   5   0  -2-87.1618 255.012   2
   5   0  -1 14455.0 732.409   2
   5   0   0 271.189 248.606   2
   5   0   1 13895.8 728.369   2
   5   0  10 413.785 455.298   2
   5   1 -14 165.525 432.842   2
   5   1 -13 3053.38 578.458   2
   5   1 -12-216.096 391.784   2
   5   1 -11 9558.40 802.383   2
   5   1 -10 1121.57 484.849   2
   5   1  -9 14114.0 907.503   2
  -5  -1   8 2193.22 228.578   2
  -5  -1   7 20984.2 505.965   2
  -5  -1   6 128.105 94.2496   2
   5   1  -5 18827.7 883.510   2
   5   1  -4 1165.16 339.916   2
   5   1  -3 37214.2 1211.57   2
   5   1  -2 280.099 307.313   2
   5   1  -1 20106.7 921.324   2
   5   1   8-27.2362 374.236   2
   5   1   9 2692.49 583.350   2
   5   2 -13 3312.03 579.847   2
   5   2 -12 148.176 352.167   2
   5   2 -11 4449.35 637.224   2
   5   2 -10 872.624 454.412   2
   5   2  -9 12352.5 853.088   2
   5   2  -8-171.936 428.512   2
   5   2  -7 18288.3 1021.10   2
   5   2  -6 373.710 333.583   2
   5   2  -5 18089.7 913.464   2
   5   2  -4 191.964 355.341   2
   5   2  -3 23056.4 1032.11   2
   5   2   6-19.8653 428.584   2
   5   2   7 3949.87 636.748   2
   5   3 -12 105.396 419.491   2
   5   3 -11 4605.13 701.061   2
   5   3 -10-122.549 388.354   2
   5   3  -9 5955.95 678.833   2
   5   3  -8 395.895 443.788   2
   5   3  -7 6691.08 694.029   2
   5   3  -6 233.659 361.007   2
   5   3  -5 8240.39 694.752   2
   5   3   3 6716.49 662.147   2
   5   3   4-128.303 429.247   2
   5   3   5 3746.45 613.656   2
   5   4 -10-123.294 510.735   2
   5   4  -9 2780.22 535.596   2
   5   4  -8-189.280 533.131   2
   5   4   1 4991.49 644.781   2
   5   4   2 64.0535 427.052   2
   5   4   3 3274.45 609.164   2
   5   5  -1 3200.75 557.957   2
  -6   9   1-448.350 444.898   2
  -6   9   0 4916.02 717.104   2
  -6   9  -1-1.61800 493.394   2
  -6   9  -2 7652.47 847.718   2
  -6   9  -3-241.524 447.984   2
  -6   9  -4 4889.06 711.141   2
  -6   9  -5-122.871 470.139   2
  -6   8   6 2837.57 620.510   2
  -6   8   5 7.96528 411.430   2
  -6   8   4 3227.05 585.032   2
  -6   8   3-247.789 449.634   2
  -6   8   2 6261.87 741.935   2
  -6   8   1 129.072 445.661   2
  -6   8   0 8044.62 768.425   2
  -6   8  -1-218.214 426.966   2
  -6   8  -2 10114.9 873.246   2
  -6   8  -3 193.230 418.903   2
  -6   8  -4 8493.50 789.016   2
  -6   8  -5-24.7173 404.685   2
  -6   8  -6 7401.51 768.671   2
  -6   8  -7-54.2613 434.683   2
  -6   8  -8 7172.70 769.918   2
  -6   8  -9-261.708 425.247   2
  -6   7   8 3866.02 641.526   2
  -6   7   7-323.381 410.722   2
  -6   7   6 5776.86 733.198   2
  -6   7   5 954.078 447.775   2
  -6   7   4 10686.8 830.308   2
  -6   7   3-18.3106 377.128   2
  -6   7   2 9207.81 776.321   2
  -6   7   1 13.1644 318.321   2
  -6   7   0 11468.1 829.112   2
  -6   7  -1-112.208 393.003   2
  -6   7  -2 13947.6 919.669   2
  -6   7  -3-11.5929 362.351   2
  -6   7  -4 13136.7 872.365   2
  -6   7  -5 1210.36 417.312   2
  -6   7  -6 12685.7 884.460   2
  -6   7  -7-104.914 376.955   2
  -6   7  -8 9497.88 817.725   2
   6  -6 -12 2271.96 545.234   2
   6  -6 -11-77.8298 444.096   2
   6  -6 -10 2257.96 471.490   2
   6  -6  -9-41.9912 381.690   2
   6  -6  -8 5415.91 548.984   2
   6  -6  -7-144.643 310.007   2
   6  -6  -6 5514.19 402.569   2
   6  -6  -5 447.159 229.609   2
   6  -6  -4 4181.63 275.609   2
  -6   6   3 112.443 134.039   2
  -6   6   2 14229.8 466.970   2
  -6   6   1-21.0062 163.711   2
   6  -6   0 15160.9 453.602   2
   6  -6   1-115.181 175.823   2
   6  -6   2 17010.8 402.424   2
   6  -6   3-114.159 134.545   2
  -6   6  -4 20371.3 418.612   2
  -6   6  -5 32.5463 189.479   2
  -6   6  -6 23789.1 636.272   2
   6  -6   7 160.438 186.379   2
   6  -6   8 9085.39 557.076   2
   6  -6   9-267.743 234.997   2
   6  -6  10 5797.71 553.733   2
   6  -5 -13-72.9751 488.388   2
   6  -5 -12 4080.08 603.169   2
   6  -5 -11 415.901 445.050   2
   6  -5 -10 5400.33 650.477   2
   6  -5  -9-96.4935 358.332   2
   6  -5  -8 9051.35 659.130   2
   6  -5  -7 158.603 293.185   2
   6  -5  -6 13341.9 715.282   2
  -6   5   5 206.341 210.361   2
  -6   5   4 12433.4 488.649   2
  -6   5   3 518.329 160.266   2
  -6   5   2 14469.8 490.028   2
  -6   5   1 61.1803 145.979   2
  -6   5   0 27948.7 507.306   2
  -6   5  -1 155.385 143.625   2
  -6   5  -2 16511.4 509.512   2
  -6   5  -3 149.994 117.634   2
  -6   5  -4 21243.1 406.250   2
  -6   5  -5 104.531 138.461   2
   6  -5   6 16403.4 437.026   2
   6  -5   7 41.9435 268.865   2
   6  -5   8 17548.1 836.272   2
   6  -5   9-85.7199 296.750   2
   6  -5  10 8803.57 671.224   2
   6  -4 -13-335.499 445.928   2
   6  -4 -12 4897.62 644.439   2
   6  -4 -11 369.298 352.949   2
   6  -4 -10 5953.99 636.286   2
   6  -4  -9-21.4474 385.611   2
   6  -4  -8 12876.0 768.453   2
   6  -4  -7 445.522 356.724   2
   6  -4  -6 30123.3 1051.25   2
  -6   4   5 266.548 194.274   2
   6  -4  -4 19858.2 575.944   2
  -6   4   3 43.1506 158.257   2
  -6   4   2 18250.0 530.423   2
  -6   4   1 1502.43 214.672   2
  -6   4   0 27525.1 640.000   2
   6  -4   1 270.392 150.113   2
  -6   4  -2 19052.2 441.660   2
  -6   4  -3 180.445 121.241   2
   6  -4   4 11779.9 324.672   2
   6  -4   5 1109.70 178.048   2
   6  -4   6 20108.3 622.931   2
   6  -4   7 576.462 330.648   2
   6  -4   8 16596.0 874.217   2
   6  -3 -13 195.711 391.641   2
   6  -3 -12 6969.08 718.452   2
   6  -3 -11 8.84388 424.089   2
   6  -3 -10 9245.91 731.497   2
   6  -3  -9-76.2781 355.442   2
   6  -3  -8 12542.5 775.327   2
   6  -3  -7-6.62394 323.835   2
   6  -3  -6 22485.8 962.017   2
   6  -3  -5 1557.87 223.915   2
   6  -3  -4 24573.1 605.518   2
   6  -3  -3-24.1331 140.402   2
  -6   3   2 30391.0 615.363   2
   6  -3  -1-95.7251 145.736   2
  -6   3   0 36275.6 774.201   2
  -6   3  -1 70.0307 176.566   2
   6  -3   2 32656.8 1061.04   2
   6  -3   3 612.536 190.994   2
   6  -3   4 33591.6 700.438   2
   6  -3   5 108.695 171.195   2
   6  -3   6 21499.6 641.306   2
   6  -3   7 585.399 217.593   2
   6  -2 -13-110.899 462.176   2
   6  -2 -12 3859.28 566.463   2
   6  -2 -11 256.384 387.677   2
   6  -2 -10 6791.69 667.059   2
   6  -2  -9 426.114 390.991   2
   6  -2  -8 12289.8 821.204   2
   6  -2  -7 1996.41 459.794   2
   6  -2  -6 13925.4 818.302   2
  -6   2   5 24.4688 166.416   2
  -6   2   4 19038.2 454.156   2
  -6   2   3 165.605 132.964   2
  -6   2   2 17463.8 373.676   2
   6  -2  -1 108.047 98.0807   2
   6  -2   0 20725.4 874.978   2
   6  -2   1 136.559 311.159   2
   6  -2   2 12511.1 717.334   2
   6  -2   3 845.067 169.182   2
   6  -2   4 15928.7 470.808   2
   6  -2   5-45.6639 174.259   2
   6  -2   6 9966.15 579.308   2
   6  -1 -13-75.1165 395.494   2
   6  -1 -12 3519.94 596.543   2
   6  -1 -11-21.7476 362.909   2
   6  -1 -10 8614.25 748.098   2
   6  -1  -9 163.073 373.396   2
   6  -1  -8 19448.5 1023.67   2
   6  -1  -7 66.2434 396.508   2
   6  -1  -6 36095.8 1342.84   2
  -6   1   5 387.285 99.7352   2
   6  -1  -4 19813.5 915.265   2
   6  -1  -3-53.5625 301.471   2
   6  -1  -2 31471.1 1133.55   2
   6  -1  -1 1300.54 326.774   2
   6  -1   0 24643.8 1009.62   2
   6  -1   1-21.2530 298.950   2
   6  -1   2 12145.5 753.195   2
   6  -1   3 157.554 81.5095   2
   6  -1   4 7821.64 370.680   2
   6   0 -13 445.044 428.567   2
   6   0 -12 4861.72 608.812   2
   6   0 -11 73.6559 408.419   2
   6   0 -10 6107.25 680.340   2
   6   0  -9 5.04815 400.555   2
   6   0  -8 8334.57 727.175   2
   6   0  -7 1271.47 445.585   2
   6   0  -6 13273.6 858.963   2
   6   0  -5 1242.96 411.155   2
   6   0  -4 16450.5 865.186   2
   6   0  -3 539.012 377.792   2
   6   0  -2 15975.9 875.061   2
   6   0  -1 842.194 393.648   2
   6   0   0 29405.0 1169.49   2
   6   0   1 65.5798 335.410   2
   6   1 -12 5118.78 640.270   2
   6   1 -11 284.285 482.514   2
   6   1 -10 5740.99 693.913   2
   6   1  -9 16.7489 365.524   2
   6   1  -8 7286.20 736.348   2
   6   1  -7 163.679 444.893   2
   6   1  -6 11637.9 819.426   2
   6   1  -5-134.152 403.372   2
   6   1  -4 11766.7 789.473   2
   6   1  -3 91.0936 418.492   2
   6   1  -2 14004.4 865.420   2
   6   1  -1-124.593 391.960   2
   6   1   0 15370.7 937.005   2
   6   2 -10 5453.13 707.580   2
   6   2  -9-55.9426 395.328   2
   6   2  -8 6198.43 736.387   2
   6   2  -7 108.073 426.293   2
   6   2  -6 6836.47 688.647   2
   6   2  -5 270.765 373.482   2
   6   2  -4 6623.03 642.134   2
   6   2  -3 79.5475 386.999   2
   6   2  -2 7935.78 718.959   2
   6   3  -8 4643.93 733.651   2
   6   3  -7 81.0840 422.919   2
   6   3  -6 2855.60 565.137   2
   6   3  -5 99.6756 450.539   2
   6   3  -4 5182.74 642.934   2
  -7   9  -1 4997.32 782.896   2
  -7   9  -2-208.573 518.191   2
  -7   8   5 2894.55 620.387   2
  -7   8   4-94.0179 440.842   2
  -7   8   3 4577.14 723.392   2
  -7   8   2 414.471 436.599   2
  -7   8   1 7242.07 757.123   2
  -7   8   0-122.601 440.655   2
  -7   8  -1 6955.55 774.039   2
  -7   8  -2-425.705 448.393   2
  -7   8  -3 8574.42 812.205   2
  -7   8  -4 115.529 469.578   2
  -7   8  -5 5743.75 728.281   2
  -7   8  -6-22.3637 425.565   2
  -7   8  -7 5642.65 740.082   2
  -7   8  -8 208.051 473.746   2
  -7   7   8 39.7581 456.847   2
  -7   7   7 3743.00 655.980   2
  -7   7   6-80.9636 430.455   2
  -7   7   5 5798.82 660.345   2
  -7   7   4 142.185 413.259   2
  -7   7   3 4818.48 642.510   2
  -7   7   2 7.46120 385.518   2
  -7   7   1 2268.99 504.522   2
  -7   7   0 19.0298 409.404   2
  -7   7  -1 8683.47 780.415   2
  -7   7  -2 1.17502 400.040   2
  -7   7  -3 6016.15 625.985   2
  -7   7  -4 128.712 349.285   2
  -7   7  -5 7342.14 727.814   2
  -7   7  -6-528.332 408.192   2
  -7   7  -7 7763.66 738.793   2
   7  -6 -11 2647.19 519.204   2
   7  -6 -10-331.760 443.505   2
   7  -6  -9 4431.65 560.878   2
   7  -6  -8-63.5066 254.327   2
   7  -6  -7 5335.92 420.509   2
  -7   6   6-18.6234 230.922   2
   7  -6  -5 10609.9 504.263   2
  -7   6   4 621.874 247.320   2
   7  -6  -3 12775.7 500.530   2
  -7   6   2 37.2499 207.814   2
   7  -6  -1 12560.9 491.053   2
   7  -6   0-268.882 201.046   2
  -7   6  -1 11742.9 464.602   2
  -7   6  -2-52.5842 194.101   2
  -7   6  -3 17355.0 573.232   2
  -7   6  -4 81.0662 202.851   2
  -7   6  -5 7217.04 411.673   2
   7  -6   6-33.3269 219.057   2
   7  -6   7 8794.44 593.997   2
   7  -6   8 21.1395 293.944   2
   7  -6   9 5043.21 527.010   2
   7  -5 -12 303.737 511.352   2
   7  -5 -11 3278.73 611.799   2
   7  -5 -10 67.1943 382.692   2
   7  -5  -9 4554.20 562.179   2
   7  -5  -8 195.392 347.597   2
   7  -5  -7 6821.75 442.196   2
  -7   5   6 264.389 219.574   2
   7  -5  -5 11256.2 504.764   2
  -7   5   4 211.746 226.087   2
   7  -5  -3 22334.5 647.190   2
  -7   5   2-124.076 209.159   2
  -7   5   1 15175.6 532.878   2
   7  -5   0 37.2252 195.495   2
  -7   5  -1 14289.2 506.286   2
  -7   5  -2 142.764 211.960   2
  -7   5  -3 15086.0 543.739   2
  -7   5  -4 74.0607 195.417   2
   7  -5   5 9529.04 635.886   2
   7  -5   6 71.3362 306.112   2
   7  -5   7 5359.84 530.023   2
   7  -5   8 265.047 311.437   2
   7  -5   9 7918.25 661.957   2
   7  -5  10 29.7186 358.692   2
   7  -5  11 4733.20 591.098   2
   7  -4 -12-138.023 501.912   2
   7  -4 -11 3221.97 558.791   2
   7  -4 -10-6.29753 441.602   2
   7  -4  -9 6737.42 645.779   2
   7  -4  -8 170.319 382.339   2
   7  -4  -7 9284.64 475.507   2
   7  -4  -6 148.552 232.595   2
   7  -4  -5 11942.6 496.903   2
   7  -4  -4 284.232 199.543   2
   7  -4  -3 12203.8 475.557   2
  -7   4   2 109.665 191.321   2
  -7   4   1 12726.3 467.008   2
   7  -4   0 203.333 307.263   2
  -7   4  -1 17163.2 542.549   2
   7  -4   2-363.893 285.108   2
   7  -4   3 12166.6 730.984   2
   7  -4   4 1033.62 366.990   2
   7  -4   5 13724.3 813.684   2
   7  -4   6 771.844 356.724   2
   7  -4   7 12447.6 802.909   2
   7  -4   8 180.734 351.669   2
   7  -4   9 7137.55 702.813   2
   7  -4  10-341.302 423.766   2
   7  -3 -12 89.9881 463.208   2
   7  -3 -11 3308.00 563.603   2
   7  -3 -10-68.4859 431.220   2
   7  -3  -9 5399.39 592.664   2
   7  -3  -8 21.1701 363.864   2
   7  -3  -7 8989.43 445.520   2
  -7   3   6 161.334 207.912   2
   7  -3  -5 14431.5 495.579   2
  -7   3   4 1216.24 217.711   2
  -7   3   3 16276.9 485.598   2
   7  -3  -2-53.6572 168.703   2
  -7   3   1 14003.8 424.606   2
   7  -3   0 436.893 330.531   2
   7  -3   1 17512.6 883.611   2
   7  -3   2 337.236 355.286   2
   7  -3   3 16659.4 887.555   2
   7  -3   4-236.233 363.870   2
   7  -3   5 3953.09 526.250   2
   7  -3   6-130.540 336.224   2
   7  -3   7 6551.30 670.109   2
   7  -3   8 7.36860 372.227   2
   7  -2 -12 94.2023 457.349   2
   7  -2 -11 4310.76 618.100   2
   7  -2 -10 139.607 390.537   2
   7  -2  -9 4142.72 583.096   2
   7  -2  -8 150.594 407.084   2
   7  -2  -7 8743.82 742.305   2
   7  -2  -6-19.5270 421.696   2
   7  -2  -5 17838.5 996.056   2
   7  -2  -4 207.729 338.391   2
   7  -2  -3 19194.2 958.939   2
   7  -2  -2 767.637 395.722   2
   7  -2  -1 18552.0 956.560   2
   7  -2   0 22.7116 361.151   2
   7  -2   1 24122.9 1082.65   2
   7  -2   2 757.379 395.284   2
   7  -2   3 16695.8 927.124   2
   7  -2   4 996.823 400.929   2
   7  -2   5 8563.94 739.626   2
   7  -2   6 253.183 349.413   2
   7  -1 -11 5311.58 700.312   2
   7  -1 -10-11.3976 413.413   2
   7  -1  -9 11251.4 873.411   2
   7  -1  -8 225.314 380.098   2
   7  -1  -7 6441.59 688.078   2
   7  -1  -6 270.567 387.613   2
   7  -1  -5 8308.69 721.370   2
   7  -1  -4 323.237 360.562   2
   7  -1  -3 9181.29 702.644   2
   7  -1  -2 91.5248 367.598   2
   7  -1  -1 10989.8 788.748   2
   7  -1   0 49.6844 372.027   2
   7  -1   1 7982.62 719.462   2
   7  -1   2-108.832 374.437   2
   7  -1   3 13018.0 889.216   2
   7  -1   4 47.2344 396.644   2
   7   0 -10 37.5146 455.750   2
   7   0  -9 4754.26 671.981   2
   7   0  -8 869.384 506.689   2
   7   0  -7 7137.44 766.029   2
   7   0  -6 168.824 439.441   2
   7   0  -5 5224.64 649.732   2
   7   0  -4-128.200 356.524   2
   7   0  -3 7716.78 696.132   2
   7   0  -2-108.073 372.780   2
   7   0  -1 7313.71 696.441   2
   7   0   0-58.4024 386.280   2
   7   0   1 8528.71 770.556   2
   7   0   2-3.97581 438.028   2
   7   1  -8 516.948 556.317   2
   7   1  -7 6562.88 799.908   2
   7   1  -6-120.685 405.375   2
   7   1  -5 5520.06 676.181   2
   7   1  -4 210.102 413.949   2
   7   1  -3 5452.19 683.849   2
   7   1  -2-115.904 439.012   2
   7   1  -1 6032.68 693.637   2
   7   1   0 12.6278 428.844   2
   7   1   1 6591.17 729.305   2
  -8   8   4 5372.16 731.979   2
  -8   8   3-175.127 480.218   2
  -8   8   2 6053.33 741.681   2
  -8   8   1 62.7290 454.286   2
  -8   8   0 4745.09 674.936   2
  -8   8  -1 127.860 434.943   2
  -8   8  -2 3366.25 577.049   2
  -8   8  -3-269.283 446.752   2
  -8   8  -4 4017.96 688.779   2
  -8   8  -5 26.7671 489.501   2
  -8   8  -6 2559.16 614.893   2
  -8   8  -7 176.403 516.244   2
  -8   7   8 1532.99 535.775   2
  -8   7   7-607.741 459.270   2
  -8   7   6 3119.63 524.215   2
  -8   7   5 567.438 416.886   2
  -8   7   4 3942.46 581.999   2
  -8   7   3 460.915 392.733   2
  -8   7   2 7918.22 714.278   2
  -8   7   1 124.439 405.133   2
  -8   7   0 7437.35 714.416   2
  -8   7  -1-284.552 374.314   2
  -8   7  -2 7571.16 685.686   2
  -8   7  -3-98.8957 412.003   2
  -8   7  -4 7085.74 720.127   2
  -8   7  -5-6.30659 427.395   2
  -8   7  -6 7220.17 745.463   2
  -8   6   9 262.061 482.533   2
   8  -6  -8 3233.09 419.679   2
   8  -6  -7-222.573 279.720   2
  -8   6   6 3688.32 357.315   2
   8  -6  -5-195.807 236.359   2
   8  -6  -4 5540.58 392.315   2
  -8   6   3 46.8221 218.548   2
  -8   6   2 8159.08 459.761   2
   8  -6  -1-36.9372 258.224   2
  -8   6   0 10494.6 503.900   2
  -8   6  -1-81.1809 230.875   2
  -8   6  -2 6900.67 432.052   2
  -8   6  -3 14.9483 229.917   2
   8  -6   4 8241.07 459.263   2
   8  -6   5-32.3430 313.426   2
   8  -6   6 5923.65 567.723   2
   8  -5 -10 2376.69 543.652   2
   8  -5  -9-300.195 430.032   2
   8  -5  -8 2296.76 462.204   2
   8  -5  -7-0.06059 240.809   2
   8  -5  -6 5943.68 417.966   2
   8  -5  -5-32.4388 248.383   2
   8  -5  -4 8001.77 460.790   2
  -8   5   3 124.414 242.407   2
  -8   5   2 10057.5 479.122   2
   8  -5  -1 482.295 248.963   2
  -8   5   0 6570.67 401.570   2
  -8   5  -1 116.602 208.710   2
   8  -5   2 7222.39 423.208   2
   8  -5   3 382.246 324.320   2
   8  -5   4 7137.33 614.418   2
   8  -5   5 717.829 359.815   2
   8  -5   6 3094.85 502.323   2
   8  -5   7 266.822 375.397   2
   8  -5   8 3373.34 584.005   2
   8  -5   9 302.157 453.387   2
   8  -4 -10 4944.37 718.107   2
   8  -4  -9-110.898 389.294   2
   8  -4  -8 4106.72 596.537   2
   8  -4  -7 49.8213 353.631   2
   8  -4  -6 5220.31 619.981   2
   8  -4  -5 38.0697 363.296   2
   8  -4  -4 8905.43 766.330   2
   8  -4  -3 159.972 378.228   2
   8  -4  -2 13142.7 862.756   2
   8  -4  -1 355.163 417.297   2
   8  -4   0 12079.0 814.711   2
   8  -4   1-15.6208 397.795   2
   8  -4   2 12284.1 809.376   2
   8  -4   3 86.7300 349.698   2
   8  -4   4 12955.8 867.478   2
   8  -4   5-187.186 377.038   2
   8  -4   6 10797.1 836.230   2
   8  -4   7-463.845 397.152   2
   8  -4   8 2426.23 517.367   2
   8  -3 -10 4300.87 651.088   2
   8  -3  -9 456.167 462.554   2
   8  -3  -8 5990.18 737.069   2
   8  -3  -7 733.816 456.607   2
   8  -3  -6 3805.41 599.843   2
   8  -3  -5 178.065 423.292   2
   8  -3  -4 6154.82 660.380   2
   8  -3  -3 165.122 357.136   2
   8  -3  -2 7507.08 683.336   2
   8  -3  -1 171.953 378.381   2
   8  -3   0 9080.00 777.450   2
   8  -3   1-226.308 392.549   2
   8  -3   2 7237.96 699.611   2
   8  -3   3-86.6133 415.310   2
   8  -3   4 10641.9 813.857   2
   8  -3   5-114.633 431.745   2
   8  -3   6 5519.54 697.403   2
   8  -2  -9 386.335 434.816   2
   8  -2  -8 5414.14 705.557   2
   8  -2  -7-233.620 427.899   2
   8  -2  -6 12923.7 1028.21   2
   8  -2  -5-261.932 482.489   2
   8  -2  -4 7573.24 715.873   2
   8  -2  -3-3.76176 372.688   2
   8  -2  -2 6827.84 664.721   2
   8  -2  -1-35.2618 403.090   2
   8  -2   0 6592.03 682.730   2
   8  -2   1 408.850 358.503   2
   8  -2   2 5895.88 662.066   2
   8  -2   3 32.1009 419.940   2
   8  -2   4 4024.37 594.753   2
   8  -1  -7 182.703 465.012   2
   8  -1  -6 5197.07 732.585   2
   8  -1  -5 508.378 414.297   2
   8  -1  -4 6386.90 712.409   2
   8  -1  -3-161.189 373.562   2
   8  -1  -2 4136.10 586.129   2
   8  -1  -1 39.7583 377.232   2
   8  -1   0 5099.34 632.331   2
   8  -1   1-90.5998 412.224   2
   8  -1   2 6241.84 723.598   2
   9  -6   1 6392.88 624.010   2
   9  -6   2 170.519 381.560   2
   9  -6   3 4298.95 556.987   2
   9  -5  -8-258.935 524.678   2
   9  -5  -7 4791.57 641.550   2
   9  -5  -6 149.675 485.574   2
   9  -5  -5 5012.11 583.010   2
   9  -5  -4-328.162 414.995   2
   9  -5  -3 4099.56 572.323   2
   9  -5  -2 21.8725 435.434   2
   9  -5  -1 3236.45 381.398   2
   9  -5   0-422.059 424.769   2
   9  -5   1 6013.00 653.991   2
   9  -5   2-64.5112 405.524   2
   9  -5   3 5490.68 675.464   2
   9  -5   4 338.695 423.076   2
   9  -5   5 4477.98 607.748   2
   9  -4  -7 3775.31 630.029   2
   9  -4  -6-262.638 471.316   2
   9  -4  -5 4218.82 640.321   2
   9  -4  -4 376.788 518.229   2
   9  -4  -3 4146.75 698.626   2
   9  -4  -2 314.403 380.206   2
   9  -4  -1 5093.53 642.644   2
   9  -4   0-272.751 369.235   2
   9  -4   1 4020.62 578.616   2
   9  -4   2 115.430 463.957   2
   9  -4   3 5111.38 652.831   2
   9  -3  -5 4344.04 662.766   2
   9  -3  -4-586.181 461.005   2
   9  -3  -3 7263.49 755.083   2
   9  -3  -2 75.3314 460.417   2
   9  -3  -1 4240.62 636.559   2
   9  -3   0 234.424 467.122   2
;
_shelx_hkl_checksum              16555
loop_
_space_group_symop_operation_xyz
'x, y, z'
'-x, -y, -z'
loop_
_atom_site_label
_atom_site_type_symbol
_atom_site_fract_x
_atom_site_fract_y
_atom_site_fract_z
_atom_site_U_iso_or_equiv
_atom_site_adp_type
_atom_site_occupancy
_atom_site_site_symmetry_order
_atom_site_calc_flag
_atom_site_refinement_flags_posn
_atom_site_refinement_flags_adp
_atom_site_refinement_flags_occupancy
_atom_site_disorder_assembly
_atom_site_disorder_group
C2A C 0.5069(8) 0.7337(9) 0.0060(5) 0.0568(15) Uani 1 1 d . . . . .
H2A H 0.5130 0.6552 -0.0554 0.068 Uiso 1 1 calc R U . . .
C3A C 0.3147(10) 0.6666(12) 0.0420(7) 0.072(2) Uani 1 1 d . . . . .
H3A H 0.1890 0.5434 0.0052 0.087 Uiso 1 1 calc R U . . .
C4A C 0.3050(11) 0.7768(13) 0.1305(6) 0.077(2) Uani 1 1 d . . . . .
H4A H 0.1742 0.7295 0.1568 0.093 Uiso 1 1 calc R U . . .
C5A C 0.4869(12) 0.9571(13) 0.1810(5) 0.0710(19) Uani 1 1 d . . . . .
H5A H 0.4824 1.0377 0.2420 0.085 Uiso 1 1 calc R U . . .
C6A C 0.6810(9) 1.0221(10) 0.1418(4) 0.0602(15) Uani 1 1 d . . . . .
H6A H 0.8079 1.1467 0.1763 0.072 Uiso 1 1 calc R U . . .
N1A N 0.6851(6) 0.9080(7) 0.0563(3) 0.0448(10) Uani 1 1 d . . . . .
I1A I 1.0000 1.0000 0.0000 0.03727(14) Uani 1 2 d S . P . .
C2B C 0.7539(8) 0.4812(8) 0.5124(4) 0.0451(11) Uani 1 1 d . . . . .
H2B H 0.7763 0.4340 0.4471 0.054 Uiso 1 1 calc R U . . .
C3B C 0.8457(9) 0.6903(9) 0.5538(5) 0.0538(14) Uani 1 1 d . . . . .
H3B H 0.9325 0.7883 0.5176 0.065 Uiso 1 1 calc R U . . .
C4B C 0.8107(10) 0.7568(9) 0.6485(5) 0.0599(17) Uani 1 1 d . . . . .
H4B H 0.8754 0.9013 0.6783 0.072 Uiso 1 1 calc R U . . .
C5B C 0.6833(10) 0.6153(9) 0.6992(4) 0.0629(15) Uani 1 1 d . . . . .
H5B H 0.6560 0.6581 0.7640 0.075 Uiso 1 1 calc R U . . .
C6B C 0.5962(9) 0.4095(9) 0.6533(4) 0.0522(13) Uani 1 1 d . . . . .
H6B H 0.5050 0.3087 0.6870 0.063 Uiso 1 1 calc R U . . .
N1B N 0.6343(6) 0.3450(5) 0.5633(3) 0.0377(8) Uani 1 1 d . . . . .
I1B I 0.5000 0.0000 0.5000 0.03573(14) Uani 1 2 d S . P . .
N1C N 0.8507(7) 0.6137(6) 0.2591(3) 0.0523(11) Uani 1 1 d D U . . .
O1C O 0.7944(11) 0.6762(13) 0.1931(5) 0.070(2) Uani 0.713(9) 1 d D U P A 1
O2C O 0.9850(11) 0.7261(10) 0.3359(5) 0.093(3) Uani 0.713(9) 1 d D U P A 1
O3C O 0.7763(16) 0.4227(10) 0.2548(6) 0.094(3) Uani 0.713(9) 1 d D U P A 1
O4C O 0.921(3) 0.521(3) 0.2963(11) 0.076(4) Uani 0.287(9) 1 d D U P A 2
O5C O 0.742(3) 0.550(3) 0.1714(9) 0.087(5) Uani 0.287(9) 1 d D U P A 2
O6C O 0.871(3) 0.7815(19) 0.3068(14) 0.098(5) Uani 0.287(9) 1 d D U P A 2
loop_
_atom_site_aniso_label
_atom_site_aniso_U_11
_atom_site_aniso_U_22
_atom_site_aniso_U_33
_atom_site_aniso_U_23
_atom_site_aniso_U_13
_atom_site_aniso_U_12
C2A 0.036(3) 0.065(3) 0.079(4) 0.044(3) 0.019(3) 0.023(3)
C3A 0.039(3) 0.090(5) 0.108(6) 0.065(5) 0.027(4) 0.033(3)
C4A 0.056(4) 0.126(7) 0.094(6) 0.081(5) 0.042(4) 0.057(5)
C5A 0.084(5) 0.128(6) 0.051(4) 0.053(4) 0.040(3) 0.077(5)
C6A 0.063(3) 0.100(5) 0.050(3) 0.037(3) 0.021(3) 0.058(4)
N1A 0.044(2) 0.065(3) 0.047(3) 0.033(2) 0.019(2) 0.035(2)
I1A 0.0316(2) 0.0454(3) 0.0453(3) 0.0219(2) 0.01367(18) 0.02255(19)
C2B 0.043(3) 0.057(3) 0.044(3) 0.015(2) 0.008(2) 0.030(3)
C3B 0.036(3) 0.052(3) 0.079(4) 0.025(3) 0.009(3) 0.023(3)
C4B 0.053(3) 0.038(3) 0.080(5) 0.001(3) -0.012(3) 0.023(3)
C5B 0.085(4) 0.063(4) 0.041(3) 0.002(3) -0.002(3) 0.042(3)
C6B 0.066(3) 0.059(3) 0.036(3) 0.011(2) 0.002(3) 0.035(3)
N1B 0.039(2) 0.042(2) 0.035(2) 0.0120(18) 0.0023(17) 0.0212(18)
I1B 0.0370(2) 0.0385(2) 0.0340(2) 0.01018(18) 0.00244(17) 0.02034(19)
N1C 0.055(3) 0.045(2) 0.047(3) 0.008(2) 0.017(2) 0.016(2)
O1C 0.074(4) 0.082(5) 0.056(4) 0.038(4) 0.003(3) 0.033(4)
O2C 0.082(5) 0.076(4) 0.073(4) 0.022(3) -0.028(3) 0.006(3)
O3C 0.141(7) 0.057(4) 0.079(5) 0.012(3) 0.015(5) 0.047(4)
O4C 0.092(9) 0.090(8) 0.057(8) 0.010(7) 0.002(7) 0.057(7)
O5C 0.118(10) 0.056(8) 0.071(7) 0.018(6) -0.007(7) 0.032(8)
O6C 0.096(10) 0.056(7) 0.110(10) -0.002(6) 0.012(8) 0.020(6)
loop_
_atom_type_symbol
_atom_type_description
_atom_type_scat_dispersion_real
_atom_type_scat_dispersion_imag
_atom_type_scat_source
C C 0.0033 0.0016 'International Tables Vol C Tables 4.2.6.8 and 6.1.1.4'
H H 0.0000 0.0000 'International Tables Vol C Tables 4.2.6.8 and 6.1.1.4'
N N 0.0061 0.0033 'International Tables Vol C Tables 4.2.6.8 and 6.1.1.4'
O O 0.0106 0.0060 'International Tables Vol C Tables 4.2.6.8 and 6.1.1.4'
I I -0.4742 1.8119 'International Tables Vol C Tables 4.2.6.8 and 6.1.1.4'
loop_
_geom_angle_atom_site_label_1
_geom_angle_atom_site_label_2
_geom_angle_atom_site_label_3
_geom_angle
_geom_angle_site_symmetry_1
_geom_angle_site_symmetry_3
N1A C2A C3A 120.8(6) . .
N1A C2A H2A 119.6 . .
C3A C2A H2A 119.6 . .
C4A C3A C2A 120.0(7) . .
C4A C3A H3A 120.0 . .
C2A C3A H3A 120.0 . .
C3A C4A C5A 119.0(6) . .
C3A C4A H4A 120.5 . .
C5A C4A H4A 120.5 . .
C4A C5A C6A 119.6(6) . .
C4A C5A H5A 120.2 . .
C6A C5A H5A 120.2 . .
N1A C6A C5A 119.6(6) . .
N1A C6A H6A 120.2 . .
C5A C6A H6A 120.2 . .
C6A N1A C2A 121.0(5) . .
C6A N1A I1A 119.5(4) . .
C2A N1A I1A 119.5(3) . .
N1A I1A N1A 180.0 2_775 .
N1B C2B C3B 120.2(5) . .
N1B C2B H2B 119.9 . .
C3B C2B H2B 119.9 . .
C2B C3B C4B 119.3(6) . .
C2B C3B H3B 120.3 . .
C4B C3B H3B 120.3 . .
C5B C4B C3B 120.0(5) . .
C5B C4B H4B 120.0 . .
C3B C4B H4B 120.0 . .
C4B C5B C6B 117.5(6) . .
C4B C5B H5B 121.2 . .
C6B C5B H5B 121.2 . .
N1B C6B C5B 122.5(6) . .
N1B C6B H6B 118.7 . .
C5B C6B H6B 118.7 . .
C2B N1B C6B 120.3(4) . .
C2B N1B I1B 120.3(3) . .
C6B N1B I1B 119.3(3) . .
N1B I1B N1B 180.0 . 2_656
O1C N1C O2C 124.2(6) . .
O4C N1C O5C 123.5(10) . .
O4C N1C O6C 122.0(11) . .
O5C N1C O6C 114.3(10) . .
O1C N1C O3C 122.1(6) . .
O2C N1C O3C 113.8(6) . .
loop_
_geom_bond_atom_site_label_1
_geom_bond_atom_site_label_2
_geom_bond_distance
_geom_bond_site_symmetry_2
C2A N1A 1.339(7) .
C2A C3A 1.379(7) .
C2A H2A 0.9500 .
C3A C4A 1.362(11) .
C3A H3A 0.9500 .
C4A C5A 1.372(11) .
C4A H4A 0.9500 .
C5A C6A 1.412(7) .
C5A H5A 0.9500 .
C6A N1A 1.330(6) .
C6A H6A 0.9500 .
N1A I1A 2.250(4) .
I1A N1A 2.250(4) 2_775
C2B N1B 1.324(6) .
C2B C3B 1.371(8) .
C2B H2B 0.9500 .
C3B C4B 1.381(10) .
C3B H3B 0.9500 .
C4B C5B 1.363(9) .
C4B H4B 0.9500 .
C5B C6B 1.366(7) .
C5B H5B 0.9500 .
C6B N1B 1.331(6) .
C6B H6B 0.9500 .
N1B I1B 2.265(3) .
I1B N1B 2.265(4) 2_656
N1C O4C 1.170(8) .
N1C O1C 1.194(6) .
N1C O2C 1.225(6) .
N1C O5C 1.246(9) .
N1C O6C 1.248(8) .
N1C O3C 1.258(6) .
loop_
_geom_torsion_atom_site_label_1
_geom_torsion_atom_site_label_2
_geom_torsion_atom_site_label_3
_geom_torsion_atom_site_label_4
_geom_torsion
N1A C2A C3A C4A -0.7(9)
C2A C3A C4A C5A 1.7(9)
C3A C4A C5A C6A -1.4(9)
C4A C5A C6A N1A 0.1(8)
C5A C6A N1A C2A 0.9(7)
C5A C6A N1A I1A -175.7(4)
C3A C2A N1A C6A -0.6(7)
C3A C2A N1A I1A 176.0(4)
N1B C2B C3B C4B -0.4(7)
C2B C3B C4B C5B -1.0(8)
C3B C4B C5B C6B 0.7(8)
C4B C5B C6B N1B 1.1(8)
C3B C2B N1B C6B 2.2(7)
C3B C2B N1B I1B -176.1(3)
C5B C6B N1B C2B -2.6(7)
C5B C6B N1B I1B 175.7(4)
