#------------------------------------------------------------------------------
#$Date: 2015-06-07 00:36:25 +0300 (Sun, 07 Jun 2015) $
#$Revision: 138478 $
#$URL: svn://www.crystallography.net/cod/cif/1/51/94/1519431.cif $
#------------------------------------------------------------------------------
#
# This file is available in the Crystallography Open Database (COD),
# http://www.crystallography.net/
#
# All data on this site have been placed in the public domain by the
# contributors.
#
data_1519431
loop_
_publ_author_name
'He, Xiaoyan'
'Benniston, Andrew C.'
'Saarenp\"a\"a, Hanna'
'Lemmetyinen, Helge'
'Tkachenko, Nikolia V.'
'Baisch, Ulrich'
_publ_section_title
;
 Polymorph crystal packing effects on charge transfer emission in the
 solid state
;
_journal_issue                   6
_journal_name_full               'Chem. Sci.'
_journal_page_first              3525
_journal_paper_doi               10.1039/C5SC01151E
_journal_volume                  6
_journal_year                    2015
_chemical_formula_moiety         'C20 H16 N2 O2'
_chemical_formula_sum            'C20 H16 N2 O2'
_chemical_formula_weight         316.35
_chemical_name_systematic        N,N-dimethylaniline-N-naphthalimide
_space_group_crystal_system      triclinic
_space_group_IT_number           2
_space_group_name_Hall           '-P 1'
_space_group_name_H-M_alt        'P -1'
_symmetry_space_group_name_Hall  '-P 1'
_symmetry_space_group_name_H-M   'P -1'
_atom_sites_solution_hydrogens   geom
_atom_sites_solution_primary     direct
_audit_creation_date             2015-01-12
_audit_creation_method
;
Olex2 1.2
(compiled 2015.01.09 svn.r3130 for OlexSys, GUI svn.r4987)
;
_audit_update_record
;
2015-01-16 deposited with the CCDC.
2015-04-20 downloaded from the CCDC.
;
_cell_angle_alpha                115.803(9)
_cell_angle_beta                 97.324(7)
_cell_angle_gamma                104.839(7)
_cell_formula_units_Z            2
_cell_length_a                   9.4336(8)
_cell_length_b                   9.5749(8)
_cell_length_c                   9.9183(9)
_cell_measurement_reflns_used    2145
_cell_measurement_temperature    150.15
_cell_measurement_theta_max      28.5798
_cell_measurement_theta_min      3.2314
_cell_volume                     749.69(14)
_computing_cell_refinement
;
CrysAlisPro, Agilent Technologies,
Version 1.171.34.49 (release 20-01-2011 CrysAlis171 .NET)
(compiled Jan 20 2011,15:58:25)
;
_computing_data_collection
;
CrysAlisPro, Agilent Technologies,
Version 1.171.34.49 (release 20-01-2011 CrysAlis171 .NET)
(compiled Jan 20 2011,15:58:25)
;
_computing_data_reduction
;
CrysAlisPro, Agilent Technologies,
Version 1.171.34.49 (release 20-01-2011 CrysAlis171 .NET)
(compiled Jan 20 2011,15:58:25)
;
_computing_molecular_graphics    'Olex2 (Dolomanov et al., 2009)'
_computing_publication_material  'Olex2 (Dolomanov et al., 2009)'
_computing_structure_refinement  'ShelXL (Sheldrick, 2008)'
_computing_structure_solution    'XS (Sheldrick, 2008)'
_diffrn_ambient_temperature      150.15
_diffrn_detector_area_resol_mean 10.3968
_diffrn_measured_fraction_theta_full 0.996
_diffrn_measured_fraction_theta_max 0.802
_diffrn_measurement_details
;
  1 omega  -37.00   59.00   1.0000    7.0000
omega____ theta____ kappa____ phi______ frames
    -       -8.2632   77.0000 -150.0000 96

  2 omega  -17.00   81.00   1.0000    7.0000
omega____ theta____ kappa____ phi______ frames
    -        9.9038   77.0000    0.0000 98

  3 omega   -6.00   83.00   1.0000    7.0000
omega____ theta____ kappa____ phi______ frames
    -        9.9038   77.0000  120.0000 89
;
_diffrn_measurement_device_type  'Xcalibur, Atlas, Gemini ultra'
_diffrn_measurement_method       '\w scans'
_diffrn_orient_matrix_UB_11      0.0014881000
_diffrn_orient_matrix_UB_12      0.0030572000
_diffrn_orient_matrix_UB_13      -0.0700046000
_diffrn_orient_matrix_UB_21      0.0420281000
_diffrn_orient_matrix_UB_22      -0.0543741000
_diffrn_orient_matrix_UB_23      -0.0189211000
_diffrn_orient_matrix_UB_31      -0.0691008000
_diffrn_orient_matrix_UB_32      -0.0688718000
_diffrn_orient_matrix_UB_33      -0.0395688000
_diffrn_radiation_monochromator  graphite
_diffrn_radiation_type           MoK\a
_diffrn_radiation_wavelength     0.71073
_diffrn_reflns_av_R_equivalents  0.0207
_diffrn_reflns_av_unetI/netI     0.0350
_diffrn_reflns_laue_measured_fraction_full 0.996
_diffrn_reflns_laue_measured_fraction_max 0.802
_diffrn_reflns_limit_h_max       11
_diffrn_reflns_limit_h_min       -12
_diffrn_reflns_limit_k_max       11
_diffrn_reflns_limit_k_min       -9
_diffrn_reflns_limit_l_max       12
_diffrn_reflns_limit_l_min       -11
_diffrn_reflns_number            5582
_diffrn_reflns_point_group_measured_fraction_full 0.996
_diffrn_reflns_point_group_measured_fraction_max 0.802
_diffrn_reflns_theta_full        25.242
_diffrn_reflns_theta_max         28.643
_diffrn_reflns_theta_min         3.238
_diffrn_source                   'Enhance (Mo) X-ray Source'
_diffrn_standards_number         0
_exptl_absorpt_coefficient_mu    0.092
_exptl_absorpt_correction_T_max  1.00000
_exptl_absorpt_correction_T_min  0.98674
_exptl_absorpt_correction_type   multi-scan
_exptl_absorpt_process_details
;
CrysAlisPro, Agilent Technologies,
Version 1.171.34.49 (release 20-01-2011 CrysAlis171 .NET)
(compiled Jan 20 2011,15:58:25)
Empirical absorption correction using spherical harmonics,
 implemented in SCALE3 ABSPACK scaling algorithm.
;
_exptl_crystal_colour            'clear light green'
_exptl_crystal_colour_lustre     clear
_exptl_crystal_colour_modifier   light
_exptl_crystal_colour_primary    green
_exptl_crystal_density_diffrn    1.401
_exptl_crystal_description       block
_exptl_crystal_F_000             332
_exptl_crystal_size_max          0.3
_exptl_crystal_size_mid          0.2
_exptl_crystal_size_min          0.2
_refine_diff_density_max         0.310
_refine_diff_density_min         -0.260
_refine_diff_density_rms         0.046
_refine_ls_extinction_coef       0.014(3)
_refine_ls_extinction_expression Fc^*^=kFc[1+0.001xFc^2^\l^3^/sin(2\q)]^-1/4^
_refine_ls_extinction_method     'SHELXL-2014/7 (Sheldrick 2014'
_refine_ls_goodness_of_fit_ref   1.029
_refine_ls_hydrogen_treatment    constr
_refine_ls_matrix_type           full
_refine_ls_number_parameters     218
_refine_ls_number_reflns         3090
_refine_ls_number_restraints     0
_refine_ls_restrained_S_all      1.029
_refine_ls_R_factor_all          0.0600
_refine_ls_R_factor_gt           0.0449
_refine_ls_shift/su_max          0.000
_refine_ls_shift/su_mean         0.000
_refine_ls_structure_factor_coef Fsqd
_refine_ls_weighting_details
'w=1/[\s^2^(Fo^2^)+(0.0542P)^2^+0.2698P] where P=(Fo^2^+2Fc^2^)/3'
_refine_ls_weighting_scheme      calc
_refine_ls_wR_factor_gt          0.1109
_refine_ls_wR_factor_ref         0.1255
_reflns_Friedel_coverage         0.000
_reflns_number_gt                2392
_reflns_number_total             3090
_reflns_threshold_expression     'I > 2\s(I)'
_cod_data_source_file            c5sc01151e2.cif
_cod_data_source_block           GDMIM
_cod_depositor_comments
'Adding full bibliography for 1519430--1519431.cif.'
_cod_original_cell_volume        749.69(13)
_cod_database_code               1519431
_chemical_oxdiff_formula         'C20 H16 N2 O2'
_shelx_space_group_comment
;
The symmetry employed for this shelxl refinement is uniquely defined
by the following loop, which should always be used as a source of
symmetry information in preference to the above space-group names.
They are only intended as comments.
;
_shelx_estimated_absorpt_t_max   0.982
_shelx_estimated_absorpt_t_min   0.973
_reflns_odcompleteness_completeness 99.77
_reflns_odcompleteness_iscentric 1
_reflns_odcompleteness_theta     24.97
_olex2_refinement_description
;
1. Fixed Uiso
 At 1.2 times of:
  All C(H) groups
 At 1.5 times of:
  All C(H,H,H,H,H,H) groups
2. Others
 Fixed Sof: H19A(0.5) H19B(0.5) H19C(0.5) H19D(0.5) H19E(0.5) H19F(0.5)
 H20A(0.5) H20B(0.5) H20C(0.5) H20D(0.5) H20E(0.5) H20F(0.5)
3.a Aromatic/amide H refined with riding coordinates:
 C3(H3), C4(H4), C5(H5), C7(H7), C8(H8), C9(H9), C13(H13), C14(H14), C16(H16),
 C17(H17)
3.b Disordered Me refined with riding coordinates:
 C19(H19A,H19B,H19C,H19D,H19E,H19F), C20(H20A,H20B,H20C,H20D,H20E,H20F)
;
_shelx_res_file
;
    acb166.res created by SHELXL-2014/7

TITL acb166 in P-1
REM yellow block
CELL 0.71073 9.4336 9.5749 9.9183 115.803 97.324 104.839
ZERR 2 0.0008 0.0008 0.0009 0.009 0.007 0.007
LATT 1
SFAC C H N O
UNIT 40 32 4 4

L.S. 8
PLAN  10
SIZE 0.3 0.2 0.2
TEMP -123
BOND $H
CONF
MORE -1
fmap 2
acta
OMIT 2 0 2
REM <olex2.extras>
REM <HklSrc "%.\\acb166.hkl">
REM </olex2.extras>

WGHT    0.054200    0.269800
EXTI    0.013836
FVAR       0.22987
O1    4    0.254499    0.664874    0.286792    11.00000    0.02420    0.02002 =
         0.03985    0.01661    0.01076    0.00885
O2    4   -0.157808    0.247280    0.222088    11.00000    0.01881    0.03174 =
         0.05096    0.02550    0.01391    0.01137
N1    3    0.047618    0.453614    0.249461    11.00000    0.01734    0.02009 =
         0.02434    0.01290    0.00813    0.00994
N2    3   -0.321476    0.834053    0.255201    11.00000    0.03136    0.03022 =
         0.02616    0.01529    0.01230    0.02143
C1    1    0.204084    0.527290    0.272563    11.00000    0.01835    0.01965 =
         0.01973    0.00978    0.00579    0.00660
C2    1    0.300774    0.428572    0.275967    11.00000    0.01939    0.02099 =
         0.01799    0.01043    0.00727    0.00835
C3    1    0.455697    0.495790    0.303211    11.00000    0.01964    0.02202 =
         0.02611    0.01377    0.00716    0.00621
AFIX  43
H3    2    0.500065    0.606302    0.323362    11.00000   -1.20000
AFIX   0
C4    1    0.548874    0.401784    0.301406    11.00000    0.01734    0.03129 =
         0.03022    0.01737    0.00763    0.01013
AFIX  43
H4    2    0.655926    0.449207    0.320842    11.00000   -1.20000
AFIX   0
C5    1    0.485904    0.242406    0.271778    11.00000    0.02169    0.02984 =
         0.02944    0.01779    0.01006    0.01513
AFIX  43
H5    2    0.550035    0.179987    0.270073    11.00000   -1.20000
AFIX   0
C6    1    0.327122    0.168656    0.243615    11.00000    0.02217    0.02439 =
         0.02086    0.01291    0.00837    0.01242
C7    1    0.256657    0.004411    0.212652    11.00000    0.02796    0.02357 =
         0.02855    0.01548    0.01176    0.01518
AFIX  43
H7    2    0.317443   -0.061623    0.209462    11.00000   -1.20000
AFIX   0
C8    1    0.102677   -0.061013    0.187239    11.00000    0.02914    0.01882 =
         0.02866    0.01280    0.01123    0.00971
AFIX  43
H8    2    0.057579   -0.171779    0.166125    11.00000   -1.20000
AFIX   0
C9    1    0.010620    0.035031    0.192214    11.00000    0.02066    0.02148 =
         0.02400    0.01163    0.00692    0.00592
AFIX  43
H9    2   -0.096210   -0.010873    0.175206    11.00000   -1.20000
AFIX   0
C10   1    0.074824    0.194885    0.221586    11.00000    0.01904    0.02060 =
         0.01912    0.01132    0.00764    0.00878
C11   1    0.233501    0.265141    0.247257    11.00000    0.01788    0.02087 =
         0.01601    0.00942    0.00584    0.00801
C12   1   -0.023283    0.295173    0.229994    11.00000    0.01876    0.02148 =
         0.02247    0.01198    0.00674    0.00744
C13   1   -0.237308    0.604902    0.114333    11.00000    0.01838    0.02153 =
         0.02192    0.01193    0.00513    0.00698
AFIX  43
H13   2   -0.304474    0.576929    0.019311    11.00000   -1.20000
AFIX   0
C14   1   -0.145469    0.512684    0.113124    11.00000    0.02110    0.01870 =
         0.02125    0.00866    0.00807    0.00784
AFIX  43
H14   2   -0.149332    0.423113    0.017583    11.00000   -1.20000
AFIX   0
C15   1   -0.048105    0.550455    0.250485    11.00000    0.01680    0.01919 =
         0.02589    0.01360    0.00891    0.00925
C16   1   -0.043693    0.680080    0.388826    11.00000    0.01944    0.02460 =
         0.02202    0.01173    0.00623    0.00875
AFIX  43
H16   2    0.022400    0.705347    0.483352    11.00000   -1.20000
AFIX   0
C17   1   -0.134235    0.773712    0.391679    11.00000    0.02158    0.02036 =
         0.02192    0.00828    0.00808    0.00864
AFIX  43
H17   2   -0.129597    0.862465    0.488192    11.00000   -1.20000
AFIX   0
C18   1   -0.232994    0.739454    0.253873    11.00000    0.01727    0.01851 =
         0.02519    0.01313    0.00957    0.00719
C19   1   -0.332455    0.957340    0.399259    11.00000    0.03445    0.02859 =
         0.03331    0.01190    0.01218    0.02023
AFIX 123
H19A  2   -0.400162    1.011442    0.376688    10.50000   -1.50000
H19B  2   -0.373749    0.904275    0.457815    10.50000   -1.50000
H19C  2   -0.230918    1.040124    0.461216    10.50000   -1.50000
H19D  2   -0.269724    0.959119    0.487125    10.50000   -1.50000
H19E  2   -0.296137    1.066286    0.405998    10.50000   -1.50000
H19F  2   -0.438968    0.930437    0.402596    10.50000   -1.50000
AFIX   0
C20   1   -0.417840    0.801679    0.111845    11.00000    0.02900    0.03156 =
         0.03471    0.01524    0.00452    0.01748
AFIX 123
H20A  2   -0.472047    0.880489    0.134963    10.50000   -1.50000
H20B  2   -0.354942    0.813946    0.043571    10.50000   -1.50000
H20C  2   -0.491909    0.688639    0.059743    10.50000   -1.50000
H20D  2   -0.407219    0.708227    0.023888    10.50000   -1.50000
H20E  2   -0.524323    0.774770    0.115280    10.50000   -1.50000
H20F  2   -0.387357    0.900077    0.099108    10.50000   -1.50000
AFIX   0
HKLF 4

REM  acb166 in P-1
REM R1 =  0.0449 for    2392 Fo > 4sig(Fo)  and  0.0600 for all    3090 data
REM    218 parameters refined using      0 restraints

END

WGHT      0.0543      0.2694

REM Highest difference peak  0.310,  deepest hole -0.260,  1-sigma level  0.046
Q1    1   0.2816  0.2152  0.2478  11.00000  0.05    0.31
Q2    1   0.0386  0.2508  0.2451  11.00000  0.05    0.29
Q3    1   0.2624  0.4746  0.2833  11.00000  0.05    0.27
Q4    1  -0.0048  0.5007  0.2429  11.00000  0.05    0.24
Q5    1   0.1486  0.2183  0.2063  11.00000  0.05    0.23
Q6    1   0.3808  0.4745  0.3309  11.00000  0.05    0.23
Q7    1   0.2734  0.3683  0.2947  11.00000  0.05    0.22
Q8    1   0.0547  0.1440  0.2463  11.00000  0.05    0.20
Q9    1   0.2618  0.3381  0.2309  11.00000  0.05    0.20
Q10   1   0.0362  0.0973  0.1562  11.00000  0.05    0.19
;
_shelx_res_checksum              81352
_shelx_hkl_file
;
   0   0  -2 1000.00   14.14
   0   0  -3    1.06    0.10
   0   0  -4  137.64    2.32
   0   0   4  139.03    2.23
   0   0   5    0.00    0.05
   0   0   5    0.01    0.04
   0   0  -5   -0.02    0.04
   0   0   6   78.83    1.50
   0   0  -6   78.28    1.63
   0   0   6   77.31    1.64
   0   0   7    0.48    0.12
   0   0   7    0.88    0.12
   0   0   8   21.64    0.70
   0   0   8   22.00    0.85
   0   0   9    0.15    0.06
   0   0   9    0.32    0.11
   0   0  10    0.89    0.20
   0  -1  10    3.43    0.27
   0  -1  10    3.55    0.36
   0  -1   9    0.86    0.13
   0  -1   9    0.73    0.16
   0  -1   8   19.35    0.77
   0  -1   8   19.83    0.64
   0  -1   7   10.24    0.40
   0   1  -7   10.25    0.48
   0  -1   7    9.55    0.48
   0   1  -6   22.64    0.70
   0  -1   6   23.37    0.72
   0  -1   6   22.17    0.59
   0  -1   5  203.96    3.14
   0   1  -5  201.75    3.29
   0  -1   4   29.26    0.62
   0   1  -4   31.11    0.72
   0  -1   3  481.96    6.92
   0   1  -3  484.84    6.93
   0   1  -3  487.00    7.02
   0  -1   2   66.34    1.04
   0  -1   2   66.69    1.10
   0   1  -2   67.29    1.04
   0   1  -2   65.37    1.09
   0  -1  -1    4.85    0.16
   0   1   1    5.15    0.17
   0   1   2    6.79    0.25
   0  -1  -2    6.74    0.24
   0   1   3    6.30    0.27
   0  -1  -3    5.68    0.26
   0  -1  -4    0.35    0.08
   0   1   4    0.33    0.07
   0   1   5   16.57    0.58
   0  -1  -5   16.90    0.58
   0   1   6    0.08    0.05
   0  -1  -6    0.02    0.04
   0   1   6    0.01    0.05
   0   1   7   18.89    0.75
   0   1   7   18.27    0.65
   0   1   8    0.06    0.07
   0   1   8   -0.01    0.08
   0   1   9    0.03    0.09
   0   1   9   -0.02    0.06
   0  -2  11    2.37    0.31
   0  -2  10    4.45    0.40
   0  -2  10    4.42    0.29
   0  -2   9    0.03    0.03
   0  -2   9    0.09    0.08
   0  -2   8   15.43    0.65
   0  -2   8   15.42    0.52
   0  -2   7    0.89    0.14
   0  -2   7    1.29    0.16
   0  -2   7    1.11    0.12
   0   2  -7    1.32    0.16
   0  -2   6   19.29    0.63
   0  -2   6   20.08    0.53
   0   2  -6   20.44    0.64
   0  -2   6   19.66    0.65
   0  -2   5    5.66    0.30
   0   2  -5    5.26    0.23
   0  -2   5    5.43    0.23
   0   2  -5    5.02    0.27
   0  -2   4   11.65    0.38
   0  -2   4   11.49    0.32
   0   2  -4   11.69    0.33
   0  -2   4   11.46    0.39
   0   2  -4   11.32    0.37
   0   2  -3    0.01    0.02
   0  -2   3    0.03    0.03
   0  -2   3   -0.01    0.03
   0   2  -3    0.03    0.03
   0  -2   3    0.03    0.03
   0  -2   2    8.42    0.21
   0  -2   2    8.35    0.26
   0  -2   2    8.83    0.25
   0   2  -2    7.93    0.24
   0  -2   1    1.14    0.09
   0  -2   0    0.83    0.05
   0   2   0    0.86    0.05
   0   2   1    2.68    0.13
   0  -2  -1    2.44    0.12
   0  -2  -2    1.08    0.10
   0   2   2    1.12    0.10
   0   2   3    1.21    0.13
   0  -2  -3    1.21    0.12
   0   2   4    5.66    0.31
   0  -2  -4    6.12    0.32
   0  -2  -5    1.56    0.17
   0   2   5    1.25    0.16
   0   2   6    5.84    0.38
   0   2   7    2.73    0.28
   0   2   8    2.24    0.28
   0   2   8    2.48    0.25
   0   2   9    0.26    0.11
   0   2   9    0.22    0.08
   0  -3  11    0.07    0.09
   0  -3  10    0.32    0.08
   0  -3  10    0.27    0.10
   0  -3   9    3.14    0.22
   0  -3   9    2.78    0.29
   0  -3   8    1.06    0.13
   0  -3   8    1.18    0.18
   0  -3   8    0.85    0.15
   0   3  -7    0.02    0.04
   0  -3   7    0.02    0.03
   0  -3   7    0.03    0.05
   0  -3   7    0.03    0.04
   0   3  -6    3.94    0.25
   0  -3   6    4.17    0.27
   0   3  -6    3.91    0.21
   0  -3   6    3.84    0.25
   0  -3   6    3.90    0.21
   0   3  -5    9.28    0.32
   0  -3   5   10.21    0.41
   0   3  -5    9.31    0.36
   0  -3   5    9.30    0.33
   0  -3   4   -0.01    0.03
   0   3  -4    0.01    0.03
   0   3  -4    0.01    0.04
   0  -3   4    0.01    0.04
   0  -3   4   -0.02    0.03
   0   3  -4    0.01    0.03
   0  -3   3    6.97    0.29
   0  -3   3    7.38    0.23
   0   3  -3    7.70    0.27
   0   3  -3    7.50    0.23
   0  -3   3    7.41    0.27
   0   3  -2    1.66    0.12
   0   3  -2    1.52    0.07
   0  -3   2    1.45    0.12
   0  -3   1   50.35    0.96
   0   3   0    8.36    0.22
   0  -3   0    8.22    0.22
   0   3   1    2.00    0.12
   0  -3  -1    2.06    0.13
   0  -3  -2   34.06    0.75
   0   3   2   33.29    0.76
   0   3   3    6.21    0.31
   0  -3  -3    6.40    0.31
   0   3   4   16.54    0.58
   0  -3  -4   17.25    0.59
   0   3   5   15.81    0.62
   0  -3  -5   16.03    0.62
   0   3   6    6.82    0.43
   0   3   7    2.72    0.29
   0   3   8    9.02    0.53
   0   3   8    8.05    0.54
   0  -4  11    0.48    0.14
   0  -4  10    1.53    0.17
   0  -4  10    1.20    0.20
   0   4  -9    2.42    0.20
   0  -4   9    2.45    0.26
   0  -4   9    2.70    0.21
   0   4  -8    0.09    0.05
   0  -4   8    0.15    0.08
   0  -4   8    0.10    0.07
   0  -4   8    0.17    0.06
   0  -4   7    9.28    0.37
   0   4  -7    9.45    0.42
   0  -4   7    8.32    0.41
   0  -4   7    9.28    0.45
   0  -4   6   21.19    0.68
   0   4  -6   20.37    0.60
   0  -4   6   21.86    0.59
   0   4  -5    7.24    0.35
   0  -4   5    7.24    0.35
   0   4  -5    7.34    0.29
   0   4  -5    7.35    0.30
   0  -4   5    7.53    0.31
   0   4  -4   14.23    0.38
   0   4  -4   14.98    0.50
   0  -4   4   15.35    0.50
   0   4  -4   15.75    0.47
   0  -4   4   14.83    0.39
   0  -4   4   14.47    0.46
   0   4  -3    0.92    0.11
   0   4  -3    0.98    0.07
   0  -4   3    1.15    0.12
   0  -4   2    8.81    0.35
   0   4  -1   14.51    0.28
   0  -4   1   14.53    0.47
   0   4   0   94.66    1.50
   0  -4  -1    9.34    0.31
   0   4   1   10.52    0.33
   0   4   2   71.22    1.35
   0  -4  -2   70.51    1.35
   0  -4  -3    8.81    0.39
   0   4   3    8.76    0.38
   0   4   4    4.91    0.31
   0  -4  -4    4.80    0.31
   0   4   5    4.19    0.32
   0   4   6    2.19    0.25
   0   4   7    0.10    0.08
   0   4   8    4.16    0.40
   0  -5  12    0.15    0.08
   0  -5  11   -0.06    0.06
   0  -5  10    0.24    0.07
   0  -5  10    0.16    0.09
   0   5 -10    0.19    0.06
   0  -5   9    1.77    0.21
   0  -5   9    1.87    0.18
   0   5  -9    1.85    0.18
   0  -5   8   -0.05    0.07
   0   5  -8    0.02    0.04
   0  -5   8    0.00    0.05
   0   5  -8    0.02    0.04
   0   5  -7    0.78    0.14
   0  -5   7    0.69    0.12
   0   5  -7    0.89    0.12
   0  -5   7    0.85    0.12
   0  -5   7    0.80    0.12
   0   5  -6    2.77    0.24
   0  -5   6    3.35    0.22
   0  -5   6    3.33    0.26
   0   5  -6    3.01    0.20
   0   5  -5   17.92    0.48
   0  -5   5   18.82    0.57
   0  -5   5   18.48    0.62
   0  -5   5   17.88    0.48
   0   5  -5   17.35    0.60
   0   5  -4    2.19    0.12
   0   5  -4    2.07    0.19
   0  -5   4    2.09    0.19
   0   5  -3   53.56    1.20
   0   5  -3   55.57    0.88
   0  -5   2    1.28    0.14
   0   5  -2    1.03    0.14
   0   5  -1   34.45    0.90
   0   5  -1   34.74    0.60
   0   5   0    4.67    0.19
   0   5   0    3.85    0.27
   0  -5  -1    3.65    0.19
   0   5   1    3.59    0.19
   0   5   1    3.48    0.27
   0  -5  -2    0.31    0.07
   0   5   2    0.21    0.06
   0   5   3    3.90    0.26
   0  -5  -3    3.82    0.26
   0  -5  -4    1.06    0.15
   0   5   4    1.03    0.15
   0   5   5    0.09    0.07
   0   5   6    0.33    0.11
   0   5   7    0.45    0.12
   0  -6  12    0.24    0.11
   0  -6  11    0.62    0.15
   0  -6  10    0.19    0.07
   0  -6  10    0.12    0.07
   0   6 -10    0.14    0.07
   0  -6   9   -0.06    0.05
   0  -6   9    0.01    0.05
   0   6  -9    0.03    0.04
   0   6  -8    0.27    0.08
   0  -6   8    0.24    0.08
   0  -6   8    0.23    0.07
   0   6  -8    0.13    0.05
   0   6  -8    0.31    0.10
   0   6  -7    2.30    0.20
   0  -6   7    2.65    0.25
   0  -6   7    2.64    0.23
   0   6  -7    2.34    0.24
   0   6  -7    2.39    0.19
   0  -6   7    2.47    0.20
   0   6  -6    0.05    0.05
   0  -6   6    0.12    0.05
   0   6  -6    0.02    0.02
   0   6  -6    0.02    0.03
   0  -6   5   -0.01    0.03
   0   6  -5    0.04    0.03
   0   6  -5    0.09    0.07
   0   6  -5   -0.03    0.05
   0  -6   4    0.80    0.13
   0   6  -4    0.73    0.12
   0   6  -4    0.78    0.13
   0   6  -4    0.77    0.06
   0   6  -3    3.70    0.27
   0  -6   3    3.90    0.27
   0   6  -3    3.61    0.27
   0  -6   2   -0.02    0.05
   0   6  -2   -0.01    0.05
   0   6  -2   -0.04    0.06
   0   6  -1    0.58    0.12
   0   6  -1    0.55    0.05
   0   6   0    0.21    0.04
   0   6   0    0.29    0.09
   0   6   1    0.09    0.06
   0   6   1    0.10    0.04
   0   6   2    0.03    0.03
   0  -6  -2    0.05    0.03
   0   6   3    2.02    0.25
   0   6   3    1.95    0.19
   0  -6  -3    1.99    0.19
   0   6   4    0.39    0.10
   0   6   4    0.34    0.12
   0   6   5    0.16    0.08
   0   6   6    0.08    0.07
   0  -7  12    1.24    0.21
   0  -7  11    0.81    0.16
   0   7 -10    1.30    0.17
   0  -7  10    1.35    0.19
   0  -7  10    1.44    0.18
   0  -7   9    0.74    0.14
   0  -7   9    0.74    0.13
   0   7  -9    0.57    0.12
   0   7  -9    0.72    0.12
   0   7  -8    0.71    0.11
   0   7  -8    0.83    0.14
   0   7  -8    0.87    0.17
   0  -7   8    0.70    0.12
   0   7  -7    0.12    0.06
   0   7  -7   -0.01    0.05
   0   7  -7    0.03    0.03
   0   7  -6   -0.02    0.04
   0   7  -6    0.06    0.03
   0   7  -6    0.13    0.08
   0   7  -5    0.02    0.02
   0   7  -5   -0.03    0.06
   0   7  -5   -0.02    0.06
   0  -7   5   -0.03    0.04
   0   7  -4    8.27    0.43
   0  -7   4    7.71    0.42
   0   7  -4    7.45    0.43
   0  -7   3    0.44    0.10
   0   7  -3    0.42    0.11
   0   7  -3    0.34    0.09
   0   7  -2    0.07    0.06
   0   7  -2    0.00    0.04
   0   7  -1    5.70    0.18
   0   7  -1    5.43    0.38
   0   7   0    0.03    0.02
   0   7   0    0.09    0.09
   0   7   1    3.42    0.32
   0   7   1    3.35    0.21
   0   7   2    7.41    0.49
   0   7   2    8.12    0.38
   0   7   3    0.08    0.07
   0   7   3    0.11    0.06
   0   7   4   11.37    0.54
   0   7   4   10.69    0.66
   0  -8  12    0.37    0.12
   0  -8  11    0.38    0.11
   0  -8  10   -0.04    0.09
   0   8  -9    0.09    0.07
   0   8  -8    0.02    0.03
   0   8  -8   -0.14    0.08
   0   8  -7    0.05    0.05
   0   8  -7   -0.02    0.02
   0   8  -6    0.02    0.05
   0   8  -6    0.03    0.02
   0   8  -5    1.11    0.18
   0   8  -4    0.03    0.06
   0   8  -3    1.26    0.19
   0   8  -2    0.00    0.06
   0   8  -1    7.41    0.18
   0   8  -1    7.09    0.48
   0   8   0    0.74    0.16
   0   8   0    0.63    0.07
   0   8   1    2.87    0.32
   0   8   2    0.51    0.14
   0   9 -10    0.09    0.09
   0   9  -9    4.75    0.42
   0   9  -8    0.62    0.16
   0   9  -7    0.55    0.14
   0   9  -6    0.44    0.12
   0   9  -5    0.10    0.07
   0   9  -4    0.27    0.11
   0   9  -3    3.89    0.36
   0   9  -2    1.45    0.23
   0   9  -1    1.96    0.27
   0   9   0    0.52    0.15
   0   9   1    0.24    0.10
   0  10 -10    3.04    0.36
   0  10  -9    4.83    0.44
   0  10  -8    1.54    0.24
   0  10  -7    0.09    0.07
   0  10  -6    0.30    0.13
   0  10  -5    1.84    0.27
   0  10  -4    7.56    0.54
   0  10  -3    1.86    0.27
   0  10  -2   14.45    0.78
   0  10  -1    1.37    0.24
   0  11  -7   -0.05    0.07
   0  11  -6    0.05    0.09
   0  11  -5    0.37    0.14
  -1  11  -4   -0.21    0.11
  -1  11  -5    0.37    0.14
  -1  11  -6    0.08    0.08
  -1  11  -7    1.14    0.22
  -1  11  -8    0.63    0.17
  -1  10  -1    0.82    0.19
  -1  10  -2   17.40    0.85
  -1  10  -3    1.00    0.20
  -1  10  -4    0.44    0.13
  -1  10  -5    0.18    0.11
  -1  10  -6    4.06    0.39
  -1  10  -7    0.77    0.18
  -1  10  -8    0.06    0.07
  -1  10  -9    3.63    0.38
  -1   9   1    0.00    0.07
  -1   9   0    1.44    0.24
  -1   9  -1    9.91    0.60
  -1   9  -2    3.16    0.33
  -1   9  -3    6.16    0.45
  -1   9  -4    2.66    0.30
  -1   9  -5    0.88    0.18
  -1   9  -6    2.10    0.26
  -1   9  -7    6.53    0.47
  -1   9  -8    2.79    0.31
  -1   9  -9    2.57    0.31
  -1   9 -10    3.17    0.36
   1  -9  10    3.28    0.27
   1  -9  11    4.90    0.36
   1  -9  12    0.17    0.09
  -1   8   3    0.13    0.08
  -1   8   2    0.38    0.12
  -1   8   1    2.64    0.17
  -1   8   1    2.77    0.31
  -1   8   0    0.40    0.12
  -1   8  -1    8.91    0.52
  -1   8  -2    0.11    0.09
  -1   8  -3    0.37    0.11
  -1   8  -4   -0.02    0.07
  -1   8  -5    2.88    0.29
  -1   8  -5    2.79    0.26
  -1   8  -6    2.25    0.23
  -1   8  -6    1.94    0.11
  -1   8  -6    1.85    0.23
  -1   8  -7    0.10    0.06
  -1   8  -7    0.04    0.07
  -1   8  -7    0.03    0.03
  -1   8  -8    4.57    0.32
  -1   8  -8    4.68    0.39
  -1   8  -8    4.86    0.28
   1  -8   8    4.50    0.27
  -1   8  -9   -0.02    0.05
  -1   8  -9    0.11    0.06
   1  -8   9   -0.04    0.06
  -1   8  -9   -0.07    0.06
   1  -8  10    2.67    0.26
   1  -8  11    2.12    0.26
   1  -8  12    1.87    0.25
  -1   7   4   -0.02    0.04
  -1   7   4   -0.05    0.06
  -1   7   3    2.65    0.30
   1  -7  -3    2.50    0.21
  -1   7   3    2.04    0.20
   1  -7  -2    0.03    0.03
  -1   7   2   -0.01    0.03
  -1   7   2   -0.04    0.07
  -1   7   1    1.40    0.20
  -1   7   1    1.20    0.11
   1  -7  -1    1.27    0.12
  -1   7   0    0.16    0.03
  -1   7   0    0.40    0.11
  -1   7  -1    1.08    0.17
  -1   7  -2    0.40    0.11
   1  -7   2    0.81    0.14
  -1   7  -3   11.95    0.52
  -1   7  -3   10.68    0.52
   1  -7   3   10.54    0.50
  -1   7  -4    6.10    0.36
  -1   7  -4    5.38    0.36
  -1   7  -5    6.98    0.22
  -1   7  -5    7.46    0.39
   1  -7   5    7.36    0.42
  -1   7  -5    6.86    0.41
  -1   7  -6    7.07    0.27
   1  -7   6    6.24    0.26
  -1   7  -6    6.12    0.40
  -1   7  -6    6.87    0.37
  -1   7  -7    0.01    0.03
  -1   7  -7    0.01    0.04
  -1   7  -7   -0.02    0.07
  -1   7  -8    2.56    0.28
  -1   7  -8    2.89    0.23
  -1   7  -8    2.80    0.22
   1  -7   8    2.60    0.22
  -1   7  -9    0.70    0.12
  -1   7  -9    0.87    0.14
   1  -7   9    0.75    0.13
   1  -7  10    1.56    0.21
   1  -7  11    4.01    0.36
   1  -7  12    1.27    0.21
  -1   6   7    0.02    0.06
  -1   6   6    0.02    0.05
  -1   6   5    0.82    0.16
  -1   6   4    2.66    0.24
   1  -6  -4    2.71    0.24
  -1   6   4    2.68    0.30
  -1   6   3    2.50    0.27
   1  -6  -3    2.62    0.21
  -1   6   3    2.60    0.22
  -1   6   2    0.26    0.06
  -1   6   2    0.18    0.08
   1  -6  -2    0.26    0.06
  -1   6   1    1.91    0.22
   1  -6  -1    1.95    0.14
  -1   6   1    2.03    0.14
  -1   6   0    0.05    0.05
  -1   6   0    0.14    0.03
  -1   6  -1   11.31    0.50
   1  -6   2   13.86    0.53
  -1   6  -2   13.99    0.55
  -1   6  -3   22.40    0.70
   1  -6   3   22.90    0.72
  -1   6  -3   22.52    0.72
   1  -6   4   20.06    0.67
  -1   6  -4   19.29    0.67
  -1   6  -4   20.72    0.63
  -1   6  -4   18.47    0.38
   1  -6   5    6.92    0.39
  -1   6  -5    6.80    0.34
   1  -6   5    6.83    0.25
  -1   6  -5    7.12    0.25
  -1   6  -5    7.37    0.40
   1  -6   6    0.44    0.10
  -1   6  -6    0.34    0.06
  -1   6  -6    0.25    0.09
  -1   6  -7    0.52    0.13
  -1   6  -7    0.38    0.08
   1  -6   7    0.41    0.08
  -1   6  -8    0.18    0.06
   1  -6   8    0.21    0.07
   1  -6   9    0.21    0.06
  -1   6  -9    0.24    0.07
   1  -6   9    0.06    0.05
   1  -6  10    1.11    0.14
   1  -6  10    1.07    0.18
  -1   6 -10    0.94    0.13
   1  -6  11   -0.08    0.07
   1  -6  12    0.03    0.08
  -1   5   8    0.30    0.11
  -1   5   7    0.31    0.11
  -1   5   6    0.00    0.06
  -1   5   5    0.48    0.11
   1  -5  -4    0.02    0.04
  -1   5   4    0.15    0.07
  -1   5   3    0.18    0.07
   1  -5  -3    0.17    0.07
  -1   5   2    0.86    0.14
  -1   5   2    0.72    0.10
   1  -5  -2    0.76    0.10
  -1   5   1    3.95    0.19
  -1   5   1    3.83    0.27
   1  -5  -1    4.05    0.19
  -1   5   0    0.98    0.13
   1  -5   0    1.10    0.08
  -1   5   0    1.11    0.08
   1  -5   1    0.60    0.10
   1  -5   2   -0.03    0.04
  -1   5  -3   18.05    0.33
   1  -5   3   20.87    0.62
   1  -5   4    0.26    0.04
  -1   5  -4    0.26    0.05
  -1   5  -5    0.27    0.05
   1  -5   5    0.32    0.08
   1  -5   5    0.26    0.06
  -1   5  -5    0.32    0.09
  -1   5  -6    0.44    0.07
  -1   5  -6    0.57    0.08
  -1   5  -6    0.64    0.12
   1  -5   6    0.68    0.12
   1  -5   7    1.32    0.13
   1  -5   7    1.28    0.17
  -1   5  -7    1.33    0.15
   1  -5   7    0.93    0.13
   1  -5   8    0.61    0.09
   1  -5   8    0.42    0.10
  -1   5  -8    0.40    0.10
   1  -5   9    2.16    0.24
   1  -5   9    2.60    0.19
   1  -5  10    0.39    0.13
   1  -5  10    0.51    0.09
   1  -5  11   -0.02    0.07
   1  -5  12    0.27    0.10
  -1   4   8    0.52    0.15
  -1   4   8    0.66    0.15
  -1   4   7    0.43    0.13
  -1   4   6    0.07    0.06
  -1   4   5    3.43    0.29
   1  -4  -5    4.06    0.30
  -1   4   4    0.87    0.13
   1  -4  -4    0.89    0.13
  -1   4   3    0.45    0.09
   1  -4  -3    0.55    0.09
   1  -4  -2    9.29    0.34
  -1   4   2    9.69    0.35
   1  -4  -1    4.66    0.19
  -1   4   1    4.84    0.20
  -1   4   0    5.33    0.17
   1  -4   0    5.39    0.16
   1  -4   1    1.01    0.11
   1  -4   2    1.53    0.14
   1  -4   3    6.41    0.19
   1  -4   3    6.74    0.31
  -1   4  -3    6.60    0.27
  -1   4  -3    6.25    0.19
   1  -4   4    0.44    0.08
  -1   4  -4    0.52    0.07
   1  -4   4    0.52    0.07
  -1   4  -4    0.61    0.08
  -1   4  -5   24.36    0.57
  -1   4  -5   23.70    0.62
  -1   4  -5   24.38    0.72
   1  -4   5   26.09    0.74
   1  -4   5   25.33    0.59
  -1   4  -6    0.06    0.04
   1  -4   6    0.01    0.05
  -1   4  -6    0.03    0.03
   1  -4   6    0.09    0.05
   1  -4   6    0.11    0.04
  -1   4  -7    6.16    0.34
   1  -4   7    7.04    0.37
   1  -4   7    7.02    0.40
  -1   4  -7    6.62    0.28
   1  -4   7    6.94    0.28
   1  -4   8    0.53    0.12
   1  -4   8    0.58    0.08
  -1   4  -8    0.52    0.08
  -1   4  -8    0.58    0.11
   1  -4   9    0.07    0.06
   1  -4   9   -0.01    0.02
   1  -4  10    0.21    0.06
   1  -4  10    0.11    0.08
   1  -4  11    0.87    0.19
  -1   3   9    0.06    0.07
  -1   3   9    0.06    0.06
  -1   3   8    4.32    0.39
  -1   3   8    4.25    0.36
  -1   3   7    0.49    0.12
  -1   3   6    0.04    0.05
   1  -3  -5    0.04    0.04
  -1   3   5    0.11    0.07
   1  -3  -4    0.41    0.09
  -1   3   4    0.42    0.09
  -1   3   3   15.17    0.49
   1  -3  -3   15.37    0.48
  -1   3   2   19.14    0.50
   1  -3  -2   18.88    0.49
   1  -3  -1   32.31    0.64
  -1   3   1   34.18    0.66
  -1   3   1   33.78    0.77
   1  -3   0    8.11    0.30
  -1   3   0    8.29    0.20
   1  -3   0    8.31    0.20
   1  -3   1   19.74    0.50
   1  -3   2   43.30    0.70
   1  -3   2   42.12    0.87
  -1   3  -2   43.40    0.70
  -1   3  -3    6.69    0.22
  -1   3  -3    6.80    0.22
   1  -3   3    6.87    0.29
   1  -3   3    6.63    0.23
   1  -3   4    8.18    0.35
   1  -3   4    8.91    0.26
   1  -3   4    8.32    0.31
  -1   3  -4    8.63    0.30
  -1   3  -4    8.59    0.26
   1  -3   5    1.33    0.15
  -1   3  -5    1.21    0.10
  -1   3  -5    1.43    0.14
   1  -3   5    1.46    0.10
   1  -3   6    4.83    0.29
   1  -3   6    4.84    0.21
  -1   3  -6    4.98    0.29
  -1   3  -6    4.63    0.20
   1  -3   6    4.92    0.31
   1  -3   7    1.05    0.15
   1  -3   7    1.03    0.10
   1  -3   7    1.08    0.16
  -1   3  -7    1.00    0.14
   1  -3   8    1.91    0.14
   1  -3   8    1.97    0.22
   1  -3   9    1.76    0.15
   1  -3   9    1.52    0.22
   1  -3  10    0.10    0.09
   1  -3  11    0.48    0.15
  -1   2   9   -0.01    0.06
  -1   2   9   -0.02    0.06
  -1   2   8    0.31    0.10
  -1   2   8    0.42    0.11
  -1   2   7    2.14    0.25
  -1   2   7    2.06    0.23
   1  -2  -6    0.35    0.09
  -1   2   6    0.27    0.09
  -1   2   5    0.05    0.05
   1  -2  -5    0.06    0.04
   1  -2  -4    3.02    0.21
  -1   2   4    3.15    0.22
  -1   2   3   36.04    0.81
   1  -2  -3   35.71    0.81
   1  -2  -2   12.38    0.37
  -1   2   2   12.67    0.37
  -1   2   1   28.25    0.55
   1  -2  -1   28.53    0.55
   1  -2   0   25.52    0.44
   1  -2   0   26.12    0.53
   1  -2   1    1.88    0.07
   1  -2   1    2.09    0.12
  -1   2  -2   57.69    0.96
  -1   2  -2   57.63    0.93
   1  -2   2   60.19    0.96
   1  -2   2   57.73    1.04
   1  -2   3   42.50    0.80
  -1   2  -3   39.69    0.78
   1  -2   3   40.47    0.68
  -1   2  -3   41.06    0.68
   1  -2   3   40.62    0.85
   1  -2   4   68.17    1.09
  -1   2  -4   68.05    1.27
   1  -2   4   67.22    1.32
  -1   2  -4   68.15    1.10
  -1   2  -5   32.40    0.80
   1  -2   5   31.82    0.83
   1  -2   5   31.41    0.62
   1  -2   6   23.42    0.53
  -1   2  -6   23.12    0.70
   1  -2   7    1.07    0.16
   1  -2   7    1.05    0.10
  -1   2  -7    1.02    0.15
   1  -2   8    1.14    0.18
   1  -2   8    1.37    0.13
   1  -2   9    1.15    0.13
   1  -2   9    0.90    0.17
   1  -2  10    0.50    0.15
  -1   1  10    0.24    0.10
  -1   1  10    0.17    0.07
  -1   1   9    0.92    0.16
  -1   1   9    0.79    0.17
  -1   1   8    0.55    0.14
  -1   1   8    0.29    0.09
  -1   1   7    0.50    0.11
  -1   1   7    0.49    0.12
  -1   1   6    1.15    0.15
   1  -1  -6    1.30    0.16
  -1   1   6    1.26    0.17
  -1   1   5    9.43    0.42
  -1   1   5    9.10    0.40
   1  -1  -4    0.44    0.08
  -1   1   4    0.35    0.08
   1  -1  -3   17.26    0.49
  -1   1   3   18.05    0.50
   1  -1  -2    4.28    0.18
  -1   1   2    4.35    0.19
   1  -1  -1    3.96    0.14
  -1   1  -1    4.28    0.13
  -1   1  -2   25.99    0.54
  -1   1  -3   25.21    0.59
   1  -1   3   25.48    0.45
  -1   1  -4    1.43    0.14
   1  -1   4    1.31    0.09
  -1   1  -5   17.83    0.58
   1  -1   5   17.44    0.58
   1  -1   5   17.74    0.44
   1  -1   6    0.00    0.03
   1  -1   6   -0.07    0.07
  -1   1  -6   -0.02    0.06
   1  -1   7    0.58    0.09
   1  -1   7    0.49    0.11
   1  -1   8    0.16    0.06
   1  -1   8    0.11    0.09
   1  -1   9    0.08    0.05
   1  -1   9   -0.06    0.08
   1  -1  10    0.20    0.10
  -1   0  10    1.62    0.25
  -1   0  10    1.98    0.23
  -1   0   9    0.23    0.10
  -1   0   9    0.05    0.05
  -1   0   8    5.40    0.35
  -1   0   8    5.19    0.39
  -1   0   7    1.75    0.19
  -1   0   7    1.77    0.21
  -1   0   6    4.77    0.28
   1   0  -6    4.79    0.31
  -1   0   6    4.61    0.31
  -1   0   5  113.53    2.06
   1   0  -5  112.12    2.06
  -1   0   5  114.23    1.98
   1   0  -4   12.20    0.42
  -1   0   4   10.98    0.38
   1   0  -3  412.39    5.98
  -1   0   3  401.76    5.94
  -1   0   2   35.11    0.66
   1   0  -2   33.45    0.66
  -1   0  -1    0.46    0.05
  -1   0  -2    9.86    0.31
  -1   0  -3   10.96    0.37
  -1   0  -4    0.25    0.06
   1   0   5   18.52    0.63
  -1   0  -5   19.85    0.64
  -1   0  -6    0.86    0.14
   1   0   6    0.85    0.10
   1   0   6    0.88    0.15
   1   0   7   31.03    0.79
   1   0   7   29.20    0.96
   1   0   8    0.40    0.09
   1   0   8    0.41    0.12
   1   0   9    0.87    0.13
   1   0   9    1.00    0.19
  -1  -1  10   47.64    1.23
  -1  -1  10   46.57    1.43
  -1  -1   9    0.38    0.09
  -1  -1   9    0.22    0.11
  -1  -1   8  201.31    3.60
  -1  -1   8  198.98    3.37
  -1  -1   7    0.54    0.10
   1   1  -7    0.40    0.10
  -1  -1   7    0.51    0.11
  -1  -1   6  179.80    2.97
   1   1  -6  186.38    3.09
  -1  -1   6  177.98    3.09
  -1  -1   5    2.14    0.16
   1   1  -5    2.13    0.18
   1   1  -4   53.28    1.02
  -1  -1   4   52.87    1.02
   1   1  -4   52.77    1.06
   1   1  -3    0.55    0.07
   1   1  -3    0.61    0.07
  -1  -1   3    0.55    0.07
  -1  -1   3    0.52    0.07
  -1  -1   2  303.47    4.40
   1   1  -2  304.13    4.43
  -1  -1   2  305.76    4.45
   1   1  -2  306.34    4.40
   1   1  -1    0.19    0.03
  -1  -1   1    0.15    0.03
  -1  -1   0  120.39    1.84
   1   1   1    0.02    0.03
  -1  -1  -1    0.04    0.03
  -1  -1  -2  126.94    2.09
   1   1   2  130.33    2.08
   1   1   3    0.02    0.04
  -1  -1  -3    0.04    0.03
   1   1   4    6.19    0.32
  -1  -1  -4    6.45    0.33
  -1  -1  -5    0.15    0.07
   1   1   5    0.18    0.08
   1   1   6   18.65    0.71
   1   1   7    0.12    0.07
   1   1   7    0.09    0.05
   1   1   8    2.10    0.26
   1   1   8    2.09    0.21
   1   1   9    0.31    0.10
  -1  -2  11   13.85    0.75
  -1  -2  10    5.31    0.43
  -1  -2  10    4.73    0.33
  -1  -2   9    0.11    0.05
  -1  -2   9    0.12    0.07
  -1  -2   8    2.20    0.23
  -1  -2   8    1.91    0.19
  -1  -2   8    1.80    0.22
  -1  -2   7   -0.01    0.04
  -1  -2   7    0.00    0.03
  -1  -2   7    0.05    0.07
  -1  -2   6    1.81    0.18
  -1  -2   6    1.82    0.15
   1   2  -6    1.77    0.17
  -1  -2   6    1.92    0.18
  -1  -2   5    0.28    0.07
   1   2  -5    0.26    0.06
   1   2  -5    0.24    0.06
  -1  -2   5    0.32    0.07
  -1  -2   4    5.60    0.25
   1   2  -4    5.47    0.25
  -1  -2   4    5.23    0.23
   1   2  -4    5.58    0.24
  -1  -2   4    5.40    0.24
  -1  -2   3  127.02    2.05
  -1  -2   3  128.79    2.02
   1   2  -3  130.18    2.04
   1   2  -3  122.49    2.04
  -1  -2   3  129.56    2.03
   1   2  -3  126.90    2.02
  -1  -2   2   -0.04    0.04
  -1  -2   2    0.00    0.03
   1   2  -2    0.00    0.02
   1   2  -2    0.03    0.03
  -1  -2   1  323.12    4.68
   1   2  -1  318.41    4.68
  -1  -2   1  317.51    4.71
   1   2   0    6.69    0.21
   1   2   1   -0.01    0.03
  -1  -2  -1   -0.02    0.03
   1   2   2    3.44    0.20
  -1  -2  -2    3.89    0.21
  -1  -2  -3    1.79    0.16
   1   2   3    1.60    0.15
  -1  -2  -4    0.49    0.10
   1   2   4    0.40    0.09
   1   2   5    5.58    0.36
  -1  -2  -5    6.61    0.38
   1   2   6    0.00    0.06
   1   2   7    0.61    0.14
   1   2   8    0.06    0.06
   1   2   8   -0.05    0.07
  -1  -3  11    0.44    0.10
  -1  -3  11    0.86    0.18
  -1  -3  10    1.42    0.17
  -1  -3  10    1.46    0.22
  -1  -3   9    2.16    0.20
  -1  -3   9    2.09    0.25
  -1  -3   8    0.23    0.09
  -1  -3   8    0.09    0.06
   1   3  -8    0.22    0.08
  -1  -3   8    0.21    0.07
   1   3  -8    0.18    0.06
  -1  -3   7    0.06    0.06
  -1  -3   7    0.03    0.04
   1   3  -7    0.08    0.05
  -1  -3   7    0.03    0.04
  -1  -3   6    0.24    0.08
  -1  -3   6    0.33    0.08
  -1  -3   6    0.22    0.06
   1   3  -6    0.31    0.07
  -1  -3   5    0.18    0.05
   1   3  -5    0.21    0.07
   1   3  -5    0.16    0.05
   1   3  -5    0.19    0.06
  -1  -3   5    0.15    0.05
  -1  -3   4    1.52    0.13
  -1  -3   4    1.44    0.12
   1   3  -4    1.36    0.13
  -1  -3   4    1.49    0.13
   1   3  -4    1.40    0.13
   1   3  -4    1.71    0.13
  -1  -3   3   12.73    0.40
   1   3  -3   12.35    0.39
  -1  -3   3   12.76    0.39
   1   3  -3   12.39    0.33
   1   3  -3   11.67    0.39
   1   3  -2   17.83    0.48
  -1  -3   2   17.47    0.47
  -1  -3   2   17.94    0.50
   1   3  -1    2.85    0.18
   1   3   0    7.30    0.24
  -1  -3  -1    0.11    0.04
   1   3   1    0.19    0.05
  -1  -3  -2    1.58    0.14
   1   3   2    1.33    0.13
   1   3   3    0.35    0.08
  -1  -3  -3    0.68    0.11
  -1  -3  -4    0.33    0.09
   1   3   4    0.18    0.07
   1   3   5    1.77    0.21
   1   3   6    0.19    0.09
   1   3   7    0.00    0.06
   1   3   8    0.61    0.16
  -1  -4  12    0.10    0.08
  -1  -4  11    0.11    0.10
  -1  -4  11    0.07    0.06
  -1  -4  10    0.16    0.07
  -1  -4  10    0.11    0.07
   1   4  -9    0.98    0.14
  -1  -4   9    1.10    0.15
  -1  -4   9    0.97    0.17
  -1  -4   8    6.29    0.38
   1   4  -8    7.13    0.37
  -1  -4   8    6.66    0.40
   1   4  -8    6.65    0.38
  -1  -4   8    6.31    0.35
  -1  -4   7    0.15    0.07
   1   4  -7    0.18    0.06
  -1  -4   7    0.05    0.05
   1   4  -7    0.12    0.05
  -1  -4   7    0.22    0.08
   1   4  -6   31.35    0.84
   1   4  -6   30.64    0.78
  -1  -4   6   29.61    0.82
  -1  -4   6   29.98    0.78
  -1  -4   5    1.55    0.15
   1   4  -5    1.50    0.13
   1   4  -5    1.42    0.15
  -1  -4   5    1.48    0.15
  -1  -4   4   45.88    1.01
   1   4  -4   44.88    0.88
   1   4  -4   45.96    1.01
  -1  -4   4   47.55    1.01
   1   4  -3   40.98    0.76
   1   4  -3   40.72    0.92
  -1  -4   3   41.73    0.92
  -1  -4   3   40.85    0.93
   1   4  -2   72.83    1.41
  -1  -4   2   74.51    1.40
   1   4  -1    8.82    0.37
   1   4  -1    9.26    0.27
   1   4   0   89.24    1.48
   1   4   0   86.73    1.68
   1   4   1    1.97    0.15
   1   4   2   26.43    0.71
  -1  -4  -2   28.00    0.72
  -1  -4  -3   -0.03    0.05
   1   4   3   -0.03    0.05
  -1  -4  -4    2.03    0.21
   1   4   4    1.95    0.21
   1   4   5    0.52    0.12
   1   4   6    0.61    0.15
   1   4   7    0.71    0.17
  -1  -5  12    2.56    0.31
  -1  -5  11    0.19    0.10
  -1  -5  11    0.29    0.09
  -1  -5  10    3.03    0.26
  -1  -5  10    2.46    0.27
   1   5 -10    3.01    0.26
   1   5  -9    2.27    0.22
  -1  -5   9    2.05    0.21
  -1  -5   9    2.04    0.23
  -1  -5   8   36.25    0.97
   1   5  -8   35.61    0.95
   1   5  -8   36.38    0.97
  -1  -5   8   34.72    1.02
  -1  -5   8   34.45    0.97
   1   5  -7    6.76    0.34
   1   5  -7    6.25    0.37
  -1  -5   7    7.06    0.36
  -1  -5   7    5.79    0.32
   1   5  -7    6.86    0.36
  -1  -5   7    6.49    0.38
  -1  -5   6   72.08    1.50
   1   5  -6   69.39    1.35
   1   5  -6   72.33    1.46
  -1  -5   6   65.55    1.42
   1   5  -6   67.84    1.48
   1   5  -5   15.67    0.55
   1   5  -5   15.42    0.56
  -1  -5   5   15.04    0.55
   1   5  -5   14.72    0.44
  -1  -5   5   16.71    0.56
   1   5  -4   18.83    0.46
   1   5  -4   19.61    0.63
  -1  -5   4   19.99    0.62
  -1  -5   4   19.54    0.63
   1   5  -4   18.98    0.61
   1   5  -3   13.26    0.50
   1   5  -3   13.15    0.33
  -1  -5   3   13.66    0.49
   1   5  -3   13.01    0.50
  -1  -5   2    8.28    0.38
   1   5  -2    7.44    0.37
   1   5  -2    7.19    0.22
   1   5  -2    7.10    0.36
   1   5  -1   -0.09    0.05
   1   5  -1    0.03    0.05
   1   5  -1   -0.02    0.03
   1   5   0   17.52    0.46
   1   5   0   16.38    0.60
   1   5   1    3.05    0.20
   1   5   1    3.57    0.28
  -1  -5  -2    0.31    0.07
   1   5   2    0.03    0.04
  -1  -5  -3    1.12    0.14
   1   5   3    1.21    0.15
   1   5   4    4.08    0.31
   1   5   5    0.83    0.15
   1   5   6    0.06    0.06
   1   5   7    1.39    0.22
  -1  -6  12    0.35    0.13
  -1  -6  11    7.98    0.51
  -1  -6  11    6.55    0.41
   1   6 -10    0.39    0.10
  -1  -6  10    0.17    0.08
  -1  -6  10    0.26    0.09
   1   6  -9    4.66    0.33
  -1  -6   9    4.93    0.33
  -1  -6   9    4.53    0.33
  -1  -6   8    1.36    0.16
   1   6  -8    1.62    0.19
  -1  -6   8    1.39    0.17
   1   6  -8    1.53    0.20
   1   6  -8    1.56    0.17
   1   6  -7    0.21    0.08
  -1  -6   7    0.14    0.07
  -1  -6   7    0.37    0.10
   1   6  -7    0.34    0.08
   1   6  -7    0.22    0.08
   1   6  -6    1.55    0.18
  -1  -6   6    1.67    0.19
   1   6  -6    1.92    0.15
  -1  -6   6    1.54    0.18
   1   6  -6    1.48    0.17
   1   6  -5    0.35    0.09
   1   6  -5    0.25    0.05
   1   6  -5    0.16    0.07
  -1  -6   5    0.30    0.09
   1   6  -4    0.34    0.05
   1   6  -4    0.33    0.09
  -1  -6   4    0.35    0.08
   1   6  -4    0.32    0.08
  -1  -6   3    0.61    0.11
   1   6  -3    0.50    0.11
   1   6  -3    0.60    0.06
   1   6  -3    0.57    0.11
   1   6  -2    0.15    0.07
   1   6  -2    0.03    0.04
   1   6  -2    0.11    0.03
   1   6  -1    9.24    0.47
   1   6  -1   10.30    0.31
   1   6  -1   10.06    0.49
   1   6   0    0.23    0.09
   1   6   0    0.32    0.06
   1   6   0    0.30    0.10
   1   6   1    7.10    0.33
   1   6   1    6.53    0.42
   1   6   2    0.11    0.07
   1   6   2    0.05    0.04
   1   6   3    0.37    0.09
   1   6   3    0.34    0.12
   1   6   4    0.63    0.13
   1   6   5    0.34    0.10
   1   6   6   -0.06    0.06
  -1  -7  12    0.06    0.06
  -1  -7  11    3.19    0.29
  -1  -7  11    2.75    0.29
  -1  -7  10   -0.09    0.07
  -1  -7  10    0.06    0.06
   1   7  -9    1.50    0.18
   1   7  -9    1.21    0.20
  -1  -7   9    1.57    0.20
   1   7  -8   -0.01    0.07
   1   7  -8    0.00    0.03
  -1  -7   8    0.02    0.06
   1   7  -7    0.64    0.14
   1   7  -7    0.96    0.15
   1   7  -7    0.65    0.09
  -1  -7   6    0.00    0.03
   1   7  -6    0.02    0.04
   1   7  -6    0.03    0.04
   1   7  -6    0.02    0.03
   1   7  -5    7.90    0.45
  -1  -7   5    8.48    0.45
   1   7  -5    8.85    0.46
   1   7  -5    8.16    0.27
   1   7  -4    0.45    0.11
  -1  -7   4    0.35    0.09
   1   7  -4    0.33    0.10
   1   7  -4    0.37    0.05
   1   7  -3    2.64    0.11
   1   7  -3    2.48    0.25
   1   7  -3    2.56    0.11
  -1  -7   3    2.34    0.23
   1   7  -2    0.00    0.01
   1   7  -2    0.03    0.06
   1   7  -1    1.20    0.18
   1   7  -1    1.61    0.12
   1   7   0    0.28    0.11
   1   7   0    0.21    0.06
   1   7   1    2.05    0.17
   1   7   1    1.84    0.24
   1   7   2    1.03    0.14
   1   7   2    0.95    0.19
   1   7   3    0.61    0.12
   1   7   3    0.61    0.16
  -1  -8  11    0.48    0.13
  -1  -8  10    0.07    0.06
   1   8  -9    1.31    0.21
   1   8  -8    0.07    0.03
   1   8  -8    0.16    0.09
   1   8  -7    1.44    0.21
   1   8  -7    1.56    0.14
   1   8  -6   15.79    0.71
   1   8  -6   16.00    0.42
   1   8  -5    0.01    0.02
   1   8  -5    0.06    0.09
   1   8  -4   25.00    0.91
   1   8  -3    0.07    0.06
   1   8  -2   10.27    0.58
   1   8  -2   11.16    0.27
   1   8  -1    0.03    0.07
   1   8  -1    0.00    0.02
   1   8   0   14.33    0.72
   1   8   1    0.47    0.14
   1   8   2   17.13    0.85
   1   9 -10    0.45    0.14
   1   9  -9    3.10    0.34
   1   9  -8    3.27    0.34
   1   9  -7    0.80    0.17
   1   9  -6    4.54    0.39
   1   9  -5    0.20    0.11
   1   9  -4    1.66    0.25
   1   9  -3    1.55    0.23
   1   9  -2    1.71    0.25
   1   9  -1   -0.09    0.10
   1   9   0    1.16    0.22
   1  10 -10    0.51    0.15
   1  10  -9    0.87    0.19
   1  10  -8    0.41    0.13
   1  10  -7    0.84    0.18
   1  10  -6    0.19    0.10
   1  10  -5    0.00    0.09
   1  10  -4    0.95    0.20
   1  10  -3    1.98    0.28
   1  10  -2    0.34    0.12
  -2  11  -3    4.33    0.43
  -2  11  -4    1.16    0.22
  -2  11  -5    0.27    0.12
  -2  11  -6    0.08    0.08
  -2  11  -7    0.02    0.07
  -2  10   0    3.21    0.36
  -2  10  -1    3.43    0.37
  -2  10  -2    2.38    0.30
  -2  10  -3    6.16    0.48
  -2  10  -4    0.17    0.10
  -2  10  -5    0.72    0.16
  -2  10  -6    0.24    0.10
  -2  10  -7    2.81    0.33
  -2  10  -8    0.66    0.17
  -2  10  -9    5.54    0.48
  -2   9   2    3.71    0.39
  -2   9   1    0.69    0.17
  -2   9   0    0.16    0.09
  -2   9  -1   10.92    0.62
  -2   9  -2    1.15    0.20
  -2   9  -3    1.58    0.23
  -2   9  -4    1.42    0.22
  -2   9  -5    0.27    0.10
  -2   9  -6    8.40    0.53
  -2   9  -7    0.15    0.11
  -2   9  -8   69.92    1.56
  -2   9  -8   67.52    1.81
   2  -9   9    0.07    0.06
  -2   9  -9    0.06    0.09
   2  -9  10   44.99    1.18
   2  -9  11    2.14    0.25
   2  -9  12   16.77    0.77
  -2   8   4    0.78    0.18
  -2   8   3    0.11    0.08
  -2   8   2   -0.03    0.06
  -2   8   1    4.57    0.39
   2  -8  -1    4.08    0.20
  -2   8   0   18.05    0.77
  -2   8  -1    2.82    0.28
  -2   8  -2   22.40    0.83
  -2   8  -3   17.38    0.72
  -2   8  -4   13.10    0.62
  -2   8  -4   13.75    0.59
  -2   8  -5   37.09    1.01
  -2   8  -5   35.97    1.11
  -2   8  -6   35.65    0.98
  -2   8  -6   33.45    1.09
   2  -8   6   35.99    0.72
  -2   8  -7    9.94    0.57
  -2   8  -7    9.89    0.36
  -2   8  -7    9.88    0.46
   2  -8   8   43.29    1.02
  -2   8  -8   41.02    0.99
  -2   8  -8   41.66    1.05
  -2   8  -8   41.70    1.30
   2  -8   9   10.91    0.50
  -2   8  -9   11.29    0.48
   2  -8  10    9.06    0.49
   2  -8  11   11.03    0.59
   2  -8  12    1.61    0.24
  -2   7   5    0.43    0.11
  -2   7   5    0.54    0.15
  -2   7   4    0.96    0.18
  -2   7   4    0.70    0.13
  -2   7   3    5.34    0.31
  -2   7   3    5.02    0.40
   2  -7  -2   -0.03    0.03
  -2   7   2    0.04    0.04
  -2   7   1    2.19    0.24
   2  -7  -1    2.51    0.16
  -2   7   0    2.83    0.27
   2  -7   0    3.13    0.13
  -2   7  -1    4.52    0.33
  -2   7  -2    4.09    0.31
   2  -7   2    3.99    0.30
  -2   7  -3   23.63    0.80
   2  -7   3   24.80    0.80
   2  -7   4    4.54    0.33
  -2   7  -4    4.42    0.33
  -2   7  -4    4.74    0.30
   2  -7   5   10.70    0.52
   2  -7   5   10.76    0.31
  -2   7  -5   10.71    0.53
  -2   7  -5   10.96    0.46
  -2   7  -6    5.14    0.30
  -2   7  -6    4.85    0.36
  -2   7  -6    4.79    0.23
   2  -7   7    0.05    0.04
  -2   7  -7    0.09    0.05
  -2   7  -7   -0.03    0.08
  -2   7  -7   -0.02    0.03
   2  -7   8    0.43    0.09
  -2   7  -8    0.40    0.08
  -2   7  -8    0.29    0.10
  -2   7  -8    0.34    0.08
   2  -7   9    0.49    0.12
   2  -7  10    0.40    0.12
   2  -7  11    1.88    0.25
   2  -7  12    0.03    0.06
  -2   6   7    0.41    0.12
  -2   6   6    0.03    0.05
  -2   6   6    0.04    0.08
  -2   6   5    2.92    0.27
  -2   6   5    3.86    0.37
  -2   6   4    0.11    0.08
   2  -6  -4    0.15    0.05
  -2   6   4    0.00    0.06
   2  -6  -3    1.69    0.16
  -2   6   3    1.57    0.21
  -2   6   3    1.64    0.17
  -2   6   2    1.00    0.16
   2  -6  -2    1.20    0.12
  -2   6   2    1.30    0.13
  -2   6   1    0.07    0.06
   2  -6  -1    0.14    0.04
   2  -6   0    2.60    0.12
  -2   6   0    2.48    0.23
  -2   6  -1    0.43    0.10
   2  -6   1    0.63    0.11
  -2   6  -2    2.31    0.22
   2  -6   2    2.72    0.22
  -2   6  -3   12.52    0.51
   2  -6   3   13.51    0.53
   2  -6   4    1.45    0.09
  -2   6  -4    1.59    0.18
   2  -6   4    1.86    0.19
   2  -6   5    1.60    0.12
  -2   6  -5    1.60    0.12
   2  -6   5    1.70    0.19
  -2   6  -5    1.38    0.17
  -2   6  -6   -0.02    0.07
  -2   6  -6    0.00    0.03
   2  -6   6    0.10    0.06
  -2   6  -7    0.49    0.09
   2  -6   7    0.42    0.09
  -2   6  -7    0.30    0.10
  -2   6  -8    0.11    0.06
   2  -6   8    0.18    0.07
  -2   6  -8    0.03    0.03
  -2   6  -9    0.40    0.07
   2  -6   9    1.38    0.19
   2  -6  10    0.00    0.07
   2  -6  11    0.25    0.10
   2  -6  12    0.53    0.16
  -2   5   8    0.02    0.07
  -2   5   8    0.05    0.08
  -2   5   7    0.27    0.10
  -2   5   6    2.79    0.28
  -2   5   5    2.64    0.25
  -2   5   4    4.59    0.30
   2  -5  -4    4.66    0.30
   2  -5  -3    0.22    0.06
  -2   5   3    0.29    0.08
  -2   5   3    0.23    0.07
  -2   5   2    0.08    0.05
   2  -5  -2    0.07    0.03
  -2   5   2    0.06    0.04
  -2   5   1    2.86    0.23
  -2   5   1    2.89    0.16
   2  -5  -1    2.88    0.16
   2  -5   0    2.76    0.12
  -2   5   0    2.66    0.21
   2  -5   1    1.86    0.07
   2  -5   1    2.03    0.17
   2  -5   2   11.60    0.45
  -2   5  -3    5.15    0.30
   2  -5   3    5.03    0.17
   2  -5   3    5.09    0.29
  -2   5  -4    1.35    0.15
  -2   5  -4    1.19    0.10
  -2   5  -4    1.36    0.12
   2  -5   4    1.46    0.16
   2  -5   4    1.32    0.11
  -2   5  -5   10.79    0.38
  -2   5  -5   11.13    0.48
  -2   5  -5   11.32    0.37
   2  -5   5   11.65    0.49
   2  -5   6    0.96    0.15
   2  -5   6    1.09    0.13
  -2   5  -6    0.91    0.12
  -2   5  -6    0.96    0.09
  -2   5  -6    0.73    0.13
   2  -5   7    2.13    0.21
  -2   5  -7    2.14    0.14
  -2   5  -7    2.23    0.21
   2  -5   7    2.50    0.25
  -2   5  -8    7.01    0.40
  -2   5  -8    7.29    0.27
   2  -5   8    6.90    0.40
   2  -5   9    0.07    0.05
   2  -5  10   13.50    0.67
   2  -5  11   -0.03    0.06
  -2   4   9    0.11    0.09
  -2   4   8    0.14    0.10
  -2   4   8    0.16    0.08
  -2   4   7    1.73    0.23
  -2   4   6    0.19    0.07
  -2   4   5   10.57    0.50
   2  -4  -5    9.60    0.46
  -2   4   4    0.06    0.04
   2  -4  -4    0.17    0.07
   2  -4  -3    8.48    0.36
  -2   4   3    8.32    0.36
  -2   4   2    0.57    0.08
   2  -4  -2    0.61    0.08
  -2   4   2    0.64    0.11
   2  -4  -1    3.19    0.16
  -2   4   1    3.46    0.17
   2  -4   0    0.03    0.04
   2  -4   0    0.07    0.02
   2  -4   1   49.18    1.02
   2  -4   2    1.55    0.08
   2  -4   2    1.48    0.14
   2  -4   3    0.49    0.06
   2  -4   3    0.45    0.08
  -2   4  -4    0.30    0.06
   2  -4   4    0.23    0.05
  -2   4  -4    0.19    0.04
   2  -4   4    0.27    0.07
  -2   4  -5   22.27    0.61
  -2   4  -5   20.92    0.47
   2  -4   5   22.34    0.69
  -2   4  -6    0.41    0.05
  -2   4  -6    0.58    0.10
   2  -4   6    0.37    0.09
   2  -4   6    0.53    0.11
  -2   4  -7    9.84    0.46
   2  -4   7    8.58    0.43
   2  -4   7    9.19    0.27
   2  -4   7    8.79    0.47
   2  -4   8    0.10    0.03
   2  -4   8    0.18    0.09
   2  -4   9    2.15    0.25
   2  -4   9    2.90    0.15
   2  -4  10    0.07    0.08
   2  -4  11    3.07    0.35
  -2   3   9    0.27    0.11
  -2   3   9    0.20    0.09
  -2   3   8    1.52    0.23
  -2   3   8    1.18    0.20
  -2   3   7    0.03    0.07
  -2   3   7    0.12    0.06
  -2   3   6   -0.17    0.08
   2  -3  -5    0.06    0.05
  -2   3   5   -0.04    0.06
   2  -3  -4    0.79    0.11
  -2   3   4    0.62    0.10
  -2   3   3    3.86    0.23
   2  -3  -3    3.88    0.23
   2  -3  -2    4.59    0.22
  -2   3   2    4.47    0.22
  -2   3   1    0.62    0.08
   2  -3  -1    0.18    0.04
   2  -3   0    6.89    0.26
   2  -3   0    6.84    0.20
  -2   3   0    6.55    0.26
  -2   3  -1   14.33    0.41
   2  -3   1   14.46    0.41
   2  -3   2   11.29    0.29
   2  -3   2   10.75    0.36
  -2   3  -2   10.82    0.36
  -2   3  -3    1.84    0.10
   2  -3   3    2.02    0.16
   2  -3   3    1.80    0.13
  -2   3  -3    1.91    0.13
  -2   3  -4    0.40    0.04
   2  -3   4    0.36    0.08
  -2   3  -4    0.40    0.07
  -2   3  -5    0.02    0.01
  -2   3  -5    0.06    0.04
   2  -3   5    0.09    0.04
  -2   3  -6    0.01    0.04
   2  -3   6   -0.09    0.05
   2  -3   6    0.01    0.05
   2  -3   6    0.00    0.01
   2  -3   7    4.75    0.33
   2  -3   7    3.81    0.31
  -2   3  -7    4.30    0.31
   2  -3   7    4.33    0.16
   2  -3   8    0.06    0.03
   2  -3   8   -0.01    0.06
   2  -3   9    1.01    0.18
   2  -3   9    1.05    0.09
   2  -3  10    0.22    0.12
  -2   2  10    1.53    0.23
  -2   2   9    0.50    0.14
  -2   2   9    0.32    0.11
  -2   2   8   -0.02    0.05
  -2   2   8    0.01    0.06
  -2   2   7   -0.03    0.08
  -2   2   7    0.16    0.08
  -2   2   6    2.65    0.25
  -2   2   6    2.56    0.25
   2  -2  -6    3.21    0.26
  -2   2   5    0.02    0.04
   2  -2  -5    0.11    0.05
  -2   2   4    6.23    0.32
   2  -2  -4    6.77    0.33
   2  -2  -3    0.00    0.04
  -2   2   3    0.01    0.04
   2  -2  -2   21.05    0.52
  -2   2   2   21.39    0.52
   2  -2  -1   29.55    0.59
  -2   2   1   29.71    0.59
   2  -2   0   28.08    0.56
  -2   2   0   29.64    0.57
   2  -2   1   49.38    0.89
  -2   2  -1   50.08    0.89
   2  -2   2    0.05    0.03
   2  -2   2    0.10    0.04
  -2   2  -2    0.06    0.03
  -2   2  -3   11.33    0.36
   2  -2   3   11.75    0.37
   2  -2   3   11.47    0.39
  -2   2  -4   28.36    0.72
   2  -2   4   28.02    0.74
   2  -2   5    0.26    0.07
   2  -2   5    0.21    0.03
  -2   2  -5    0.22    0.06
   2  -2   6    0.45    0.05
   2  -2   6    0.49    0.11
  -2   2  -6    0.39    0.10
   2  -2   7    0.11    0.03
   2  -2   7    0.09    0.07
   2  -2   8    3.47    0.31
   2  -2   8    3.45    0.18
   2  -2   9    0.13    0.09
   2  -2  10    1.24    0.22
  -2   1  10    1.82    0.27
  -2   1  10    2.00    0.26
  -2   1   9    2.32    0.28
  -2   1   9    2.72    0.28
  -2   1   8    0.82    0.15
  -2   1   8    1.14    0.18
  -2   1   7    0.41    0.11
  -2   1   7    0.36    0.10
  -2   1   6   12.23    0.51
   2  -1  -6   12.49    0.53
  -2   1   6   12.91    0.54
  -2   1   5   16.06    0.57
   2  -1  -5   16.78    0.58
  -2   1   5   16.54    0.56
  -2   1   4   74.28    1.42
  -2   1   4   72.24    1.42
   2  -1  -4   71.33    1.40
   2  -1  -3   70.23    1.30
  -2   1   3   72.39    1.32
  -2   1   3   69.48    1.33
  -2   1   2   63.35    1.16
   2  -1  -2   62.88    1.13
  -2   1   1    0.69    0.08
  -2   1   1    0.69    0.04
  -2   1   0   30.88    0.58
   2  -1   0   29.95    0.53
  -2   1   0   32.23    0.53
   2  -1   1    2.63    0.09
   2  -1   1    2.68    0.13
  -2   1  -1    2.69    0.09
  -2   1  -2    8.13    0.28
  -2   1  -3   57.24    1.12
  -2   1  -4    4.46    0.26
   2  -1   4    4.37    0.14
   2  -1   5    3.81    0.16
   2  -1   5    4.29    0.28
  -2   1  -5    3.83    0.26
   2  -1   6   -0.02    0.05
  -2   1  -6    0.04    0.04
   2  -1   6    0.01    0.03
   2  -1   7    2.73    0.17
   2  -1   7    2.04    0.23
   2  -1   8    0.04    0.05
   2  -1   8    0.02    0.03
   2  -1   9    0.34    0.12
   2  -1  10    1.14    0.21
  -2   0  11    1.63    0.23
  -2   0  10    0.29    0.11
  -2   0  10    0.10    0.08
  -2   0   9   -0.09    0.06
  -2   0   9    0.05    0.07
  -2   0   8    2.82    0.28
  -2   0   8    2.89    0.26
  -2   0   7   -0.03    0.07
  -2   0   7   -0.02    0.05
   2   0  -7   -0.01    0.04
  -2   0   6    6.28    0.36
   2   0  -6    6.04    0.35
  -2   0   6    6.02    0.33
   2   0  -5    3.38    0.23
  -2   0   5    3.13    0.22
   2   0  -4    9.31    0.37
  -2   0   4    9.48    0.36
   2   0  -3    1.05    0.11
  -2   0   3    1.00    0.11
   2   0  -2    7.09    0.25
  -2   0   2    7.00    0.26
  -2   0   1    2.68    0.14
   2   0   0    2.60    0.12
  -2   0   0    2.34    0.11
   2   0   1    0.14    0.03
  -2   0  -1    0.08    0.03
  -2   0  -2    0.48    0.07
   2   0   2    0.45    0.05
  -2   0  -3    0.02    0.04
  -2   0  -4    3.28    0.23
   2   0   4    3.26    0.23
  -2   0  -5    2.84    0.24
   2   0   5    2.86    0.24
   2   0   6    5.97    0.27
   2   0   6    5.38    0.36
   2   0   7    5.91    0.29
   2   0   7    5.61    0.40
   2   0   8    2.81    0.21
   2   0   8    2.49    0.29
   2   0   9    0.20    0.10
  -2  -1  11   11.01    0.68
  -2  -1  11   11.32    0.59
  -2  -1  10    0.02    0.07
  -2  -1  10   -0.21    0.11
  -2  -1   9    0.10    0.06
  -2  -1   9    0.33    0.10
  -2  -1   8    0.24    0.09
  -2  -1   8    0.16    0.07
  -2  -1   7    0.03    0.05
  -2  -1   7    0.05    0.06
   2   1  -7    0.05    0.06
  -2  -1   6    2.82    0.21
  -2  -1   6    2.63    0.22
   2   1  -6    2.88    0.23
   2   1  -5    0.94    0.12
  -2  -1   5    0.90    0.12
  -2  -1   5    1.03    0.11
   2   1  -4    4.09    0.23
   2   1  -4    3.79    0.22
  -2  -1   4    3.99    0.19
  -2  -1   4    3.57    0.21
   2   1  -3   67.84    1.25
  -2  -1   3   71.63    1.15
  -2  -1   3   69.16    1.27
  -2  -1   2    0.02    0.04
   2   1  -2    0.03    0.02
  -2  -1   2    0.07    0.02
  -2  -1   1  360.32    5.33
   2   1  -1  367.08    5.21
   2   1   0    1.90    0.12
  -2  -1   0    2.15    0.12
   2   1   1    5.74    0.24
   2   1   1    4.61    0.19
  -2  -1  -2    3.03    0.19
   2   1   2    3.14    0.19
   2   1   3    1.37    0.14
  -2  -1  -3    1.17    0.13
  -2  -1  -4    0.09    0.04
   2   1   4    0.06    0.04
  -2  -1  -5    8.08    0.42
   2   1   5    6.74    0.39
   2   1   6    3.13    0.29
   2   1   7    3.36    0.32
   2   1   8    0.38    0.12
   2   1   8    0.14    0.07
   2   1   9    0.54    0.15
  -2  -2  11    0.21    0.10
  -2  -2  11    0.14    0.09
  -2  -2  10   13.73    0.70
  -2  -2  10   13.97    0.61
  -2  -2   9    0.04    0.06
  -2  -2   9    0.00    0.05
  -2  -2   8    5.14    0.37
  -2  -2   8    5.00    0.33
  -2  -2   8    4.80    0.32
   2   2  -7    0.05    0.05
   2   2  -7    0.05    0.06
  -2  -2   7   -0.01    0.04
  -2  -2   7    0.03    0.03
  -2  -2   7    0.01    0.05
   2   2  -6   26.97    0.76
  -2  -2   6   27.04    0.73
  -2  -2   6   28.68    0.79
  -2  -2   6   27.95    0.75
   2   2  -5    0.12    0.05
  -2  -2   5    0.10    0.05
  -2  -2   5    0.08    0.04
   2   2  -4    5.63    0.26
   2   2  -4    5.82    0.24
   2   2  -4    5.54    0.27
  -2  -2   4    6.17    0.28
  -2  -2   4    5.64    0.24
  -2  -2   3    0.02    0.05
  -2  -2   3    0.00    0.02
   2   2  -3    0.02    0.03
   2   2  -3    0.01    0.02
  -2  -2   2  259.80    3.94
  -2  -2   2  258.46    3.81
   2   2  -2  256.76    3.82
   2   2  -1    0.35    0.06
  -2  -2   1    0.40    0.07
   2   2   0   45.49    0.92
   2   2   1    0.03    0.02
   2   2   1    0.06    0.04
   2   2   2    1.38    0.14
  -2  -2  -2    1.47    0.14
  -2  -2  -3    0.09    0.04
   2   2   3    0.11    0.05
  -2  -2  -4   33.18    0.91
   2   2   4   31.79    0.90
   2   2   5    0.87    0.15
   2   2   6   20.92    0.81
   2   2   7    0.23    0.11
   2   2   8    0.73    0.17
  -2  -3  11    7.12    0.52
  -2  -3  11    6.63    0.42
  -2  -3  10    1.60    0.19
  -2  -3  10    1.29    0.21
   2   3  -9   22.47    0.76
  -2  -3   9   22.21    0.84
  -2  -3   9   21.31    0.74
  -2  -3   8    0.08    0.06
   2   3  -8    0.02    0.04
  -2  -3   8    0.12    0.06
   2   3  -8    0.05    0.04
  -2  -3   8    0.07    0.05
   2   3  -7    0.12    0.06
  -2  -3   7    0.19    0.07
  -2  -3   7    0.12    0.07
   2   3  -7    0.26    0.08
  -2  -3   7    0.26    0.07
   2   3  -6    0.12    0.06
  -2  -3   6    0.08    0.04
  -2  -3   6    0.02    0.04
  -2  -3   6    0.03    0.04
   2   3  -6    0.13    0.05
   2   3  -5    3.00    0.20
  -2  -3   5    3.03    0.21
  -2  -3   5    2.90    0.19
   2   3  -5    3.12    0.20
   2   3  -4   15.14    0.45
  -2  -3   4   15.10    0.50
   2   3  -4   15.43    0.45
  -2  -3   4   14.72    0.44
  -2  -3   3   33.19    0.80
   2   3  -3   33.52    0.73
  -2  -3   3   32.84    0.72
   2   3  -2   28.60    0.66
  -2  -3   2   28.37    0.66
  -2  -3   2   28.38    0.71
   2   3  -1    4.18    0.22
   2   3   0    4.04    0.21
   2   3   0    4.42    0.25
   2   3   1    3.99    0.25
   2   3   1    4.56    0.24
   2   3   2    3.93    0.24
   2   3   3    6.23    0.34
  -2  -3  -3    6.31    0.34
  -2  -3  -4    1.97    0.20
   2   3   4    1.77    0.20
   2   3   5   17.87    0.72
   2   3   6    0.45    0.12
   2   3   7    0.08    0.07
  -2  -4  12    0.04    0.07
  -2  -4  11    1.81    0.22
  -2  -4  11    1.63    0.24
  -2  -4  10    0.27    0.11
  -2  -4  10    0.43    0.11
  -2  -4   9   -0.02    0.06
   2   4  -9    0.03    0.05
  -2  -4   9   -0.02    0.05
   2   4  -8    0.67    0.12
  -2  -4   8    0.56    0.12
  -2  -4   8    0.62    0.12
   2   4  -8    0.76    0.13
  -2  -4   8    0.65    0.13
  -2  -4   7    1.61    0.17
   2   4  -7    1.82    0.18
  -2  -4   7    1.73    0.18
  -2  -4   7    1.72    0.18
   2   4  -7    1.85    0.19
  -2  -4   6    0.72    0.12
   2   4  -6    0.61    0.10
   2   4  -6    0.41    0.09
   2   4  -6    0.58    0.11
  -2  -4   6    0.60    0.10
   2   4  -5    0.02    0.03
   2   4  -5    0.02    0.03
  -2  -4   5    0.01    0.05
   2   4  -5    0.00    0.04
  -2  -4   5   -0.01    0.03
   2   4  -4    1.21    0.11
  -2  -4   4    1.32    0.14
   2   4  -4    1.10    0.12
  -2  -4   4    1.16    0.14
   2   4  -4    1.26    0.15
  -2  -4   3    3.84    0.25
  -2  -4   3    3.79    0.22
   2   4  -3    3.91    0.23
   2   4  -2    0.15    0.06
   2   4  -1    4.30    0.27
   2   4  -1    3.96    0.20
   2   4  -1    4.53    0.26
   2   4   0    2.60    0.22
   2   4   0    2.35    0.20
   2   4   0    2.46    0.17
   2   4   1    1.84    0.19
   2   4   1    1.79    0.16
   2   4   2    0.09    0.05
   2   4   2    0.28    0.08
   2   4   3    0.00    0.04
   2   4   4    0.22    0.09
   2   4   5   -0.06    0.06
   2   4   6    0.40    0.12
   2   4   7    0.12    0.08
  -2  -5  12    1.16    0.19
  -2  -5  12    1.15    0.22
  -2  -5  11    5.35    0.38
  -2  -5  11    5.55    0.44
  -2  -5  10    4.77    0.37
  -2  -5  10    4.71    0.35
  -2  -5   9    2.83    0.27
  -2  -5   9    2.79    0.26
   2   5  -9    3.22    0.27
   2   5  -8   13.54    0.57
  -2  -5   8   13.90    0.58
   2   5  -8   13.61    0.56
  -2  -5   8   13.38    0.57
  -2  -5   7    0.21    0.07
   2   5  -7    0.10    0.05
   2   5  -7    0.02    0.05
  -2  -5   7    0.03    0.06
   2   5  -7    0.02    0.05
   2   5  -6    7.37    0.34
   2   5  -6    6.96    0.38
   2   5  -6    7.01    0.37
  -2  -5   6    7.57    0.38
  -2  -5   6    7.32    0.39
  -2  -5   5    1.18    0.14
   2   5  -5    1.17    0.14
   2   5  -5    1.08    0.15
   2   5  -5    1.09    0.11
  -2  -5   5    1.21    0.16
  -2  -5   4   -0.01    0.04
   2   5  -4   -0.01    0.04
   2   5  -4   -0.03    0.03
  -2  -5   4   -0.03    0.05
   2   5  -4   -0.04    0.05
   2   5  -3    2.94    0.23
   2   5  -3    2.67    0.23
  -2  -5   3    2.74    0.21
   2   5  -2    0.23    0.08
   2   5  -2    0.41    0.10
   2   5  -1    2.44    0.16
   2   5  -1    2.67    0.23
   2   5  -1    2.89    0.24
   2   5   0    0.53    0.11
   2   5   0    0.64    0.09
   2   5   0    0.51    0.11
   2   5   1    2.38    0.23
   2   5   1    2.10    0.18
   2   5   1    2.28    0.24
   2   5   2    0.14    0.05
   2   5   3    0.63    0.12
   2   5   4    0.07    0.07
   2   5   5   -0.02    0.07
   2   5   6    1.00    0.18
  -2  -6  12    1.23    0.22
  -2  -6  12    1.52    0.21
  -2  -6  11    0.06    0.07
  -2  -6  10    0.95    0.16
  -2  -6   9    0.88    0.15
   2   6  -8    4.69    0.31
   2   6  -8    5.03    0.36
  -2  -6   8    5.28    0.36
   2   6  -7    5.11    0.29
   2   6  -7    5.00    0.34
   2   6  -7    4.70    0.34
  -2  -6   7    4.87    0.33
  -2  -6   7    4.30    0.32
   2   6  -6    0.35    0.10
  -2  -6   6    0.35    0.09
   2   6  -6    0.41    0.08
   2   6  -6    0.24    0.09
  -2  -6   6    0.42    0.11
  -2  -6   5    5.37    0.36
   2   6  -5    5.44    0.26
   2   6  -5    5.95    0.37
   2   6  -5    5.67    0.35
  -2  -6   5    6.08    0.35
   2   6  -4   12.99    0.39
   2   6  -4   13.82    0.58
   2   6  -4   12.57    0.54
  -2  -6   4   12.84    0.52
   2   6  -3    5.18    0.33
   2   6  -3    4.79    0.34
   2   6  -2    0.81    0.09
   2   6  -2    1.02    0.16
   2   6  -2    0.92    0.15
   2   6  -1    4.16    0.22
   2   6  -1    4.04    0.32
   2   6   0    0.70    0.10
   2   6   0    0.82    0.15
   2   6   1    0.02    0.06
   2   6   1    0.05    0.04
   2   6   2    1.45    0.22
   2   6   2    1.43    0.17
   2   6   3    0.34    0.10
   2   6   3    0.54    0.14
   2   6   4    0.45    0.11
   2   6   5    0.00    0.07
  -2  -7  12    0.00    0.06
  -2  -7  11   -0.01    0.06
  -2  -7  10    0.00    0.05
   2   7  -9    4.21    0.30
  -2  -7   9    4.10    0.34
   2   7  -9    4.12    0.35
   2   7  -8    0.17    0.09
   2   7  -8    0.19    0.07
  -2  -7   8    0.13    0.07
  -2  -7   7    3.68    0.32
   2   7  -7    3.70    0.31
   2   7  -7    3.65    0.24
   2   7  -6    0.05    0.03
   2   7  -6    0.01    0.05
  -2  -7   5    0.10    0.06
   2   7  -5    0.08    0.04
   2   7  -5    0.05    0.06
   2   7  -4    0.74    0.14
   2   7  -4    0.72    0.08
   2   7  -3    0.01    0.03
   2   7  -3    0.03    0.06
   2   7  -2   -0.03    0.03
   2   7  -2    0.00    0.07
   2   7  -1    0.10    0.06
   2   7  -1    0.02    0.03
   2   7   0    0.06    0.04
   2   7   0    0.09    0.09
   2   7   1    0.98    0.13
   2   7   1    0.79    0.16
   2   7   2    1.40    0.23
   2   7   2    1.47    0.18
   2   7   3    0.90    0.15
   2   7   3    1.03    0.21
  -2  -8  12    0.14    0.07
  -2  -8  11    0.06    0.07
  -2  -8  10    0.10    0.08
   2   8 -10    0.00    0.07
  -2  -8   9    4.58    0.38
   2   8  -9    4.03    0.36
   2   8  -8    0.13    0.08
   2   8  -7    6.31    0.44
   2   8  -7    6.34    0.30
   2   8  -6    0.60    0.08
   2   8  -6    0.69    0.15
   2   8  -5    3.77    0.19
   2   8  -5    3.92    0.34
   2   8  -4    0.46    0.12
   2   8  -4    0.46    0.06
   2   8  -4    0.31    0.05
   2   8  -3   12.03    0.34
   2   8  -3   11.09    0.60
   2   8  -2    0.12    0.04
   2   8  -2    0.10    0.08
   2   8  -1    9.17    0.57
   2   8  -1    9.75    0.36
   2   8   0    0.38    0.14
   2   8   1    0.15    0.12
   2   9 -10    8.11    0.55
   2   9  -9    0.71    0.17
   2   9  -8   13.58    0.70
   2   9  -7    1.64    0.24
   2   9  -6   21.56    0.89
   2   9  -5    2.05    0.27
   2   9  -4    3.53    0.35
   2   9  -3   -0.01    0.07
   2   9  -2   -0.01    0.06
   2   9  -1   -0.05    0.09
   2  10 -10    0.51    0.15
   2  10  -9    0.09    0.08
   2  10  -8    0.65    0.17
   2  10  -7    2.12    0.29
   2  10  -6   -0.02    0.08
   2  10  -5    0.90    0.18
   2  10  -4    0.30    0.13
   2  10  -3    0.03    0.07
  -3  11  -2   -0.08    0.10
  -3  11  -3    3.59    0.38
  -3  11  -4    0.72    0.17
  -3  11  -5    0.15    0.10
  -3  11  -6    1.24    0.24
  -3  11  -7    0.08    0.08
  -3  10   1    0.09    0.07
  -3  10   0    0.05    0.05
  -3  10  -1    0.25    0.11
  -3  10  -2   -0.05    0.09
  -3  10  -3    0.17    0.10
  -3  10  -4    0.03    0.07
  -3  10  -5    1.76    0.25
  -3  10  -6    0.36    0.13
  -3  10  -7    0.09    0.08
  -3  10  -8    0.22    0.11
  -3  10  -9    0.97    0.20
  -3   9   3    0.09    0.09
  -3   9   2    0.53    0.15
  -3   9   1    1.41    0.23
  -3   9   0    0.04    0.07
  -3   9  -1    4.73    0.40
  -3   9  -2    0.16    0.10
  -3   9  -3    4.27    0.37
  -3   9  -4    0.01    0.07
  -3   9  -5   23.39    0.91
  -3   9  -6    0.69    0.13
  -3   9  -6    0.81    0.17
   3  -9   6    0.51    0.05
  -3   9  -7    7.83    0.53
  -3   9  -7    8.04    0.42
  -3   9  -8    0.12    0.10
  -3   9  -8    0.07    0.04
   3  -9   8    0.05    0.04
   3  -9   9    5.92    0.35
  -3   9  -9    5.57    0.47
   3  -9  10    0.15    0.07
   3  -9  11    9.35    0.53
   3  -9  12    0.39    0.12
  -3   8   4    0.12    0.10
  -3   8   3    0.55    0.16
  -3   8   2   13.29    0.68
  -3   8   1    0.20    0.10
   3  -8  -1    0.18    0.05
  -3   8   0  114.35    2.41
   3  -8   0  116.81    1.77
  -3   8  -1    0.21    0.10
  -3   8  -2  105.19    2.22
  -3   8  -3   12.86    0.61
  -3   8  -4   66.52    1.64
  -3   8  -4   70.36    1.56
  -3   8  -5    5.49    0.33
   3  -8   5    4.79    0.18
  -3   8  -5    4.95    0.38
   3  -8   6  107.09    1.80
  -3   8  -6  104.52    2.29
  -3   8  -6  106.47    2.04
  -3   8  -7    0.38    0.13
  -3   8  -7    0.37    0.10
   3  -8   7    0.43    0.08
   3  -8   8   58.55    1.30
  -3   8  -8   56.38    1.60
  -3   8  -8   58.33    1.27
  -3   8  -8   56.68    1.23
   3  -8   9    0.06    0.05
   3  -8  10    1.22    0.19
   3  -8  11    0.03    0.07
   3  -8  12    0.01    0.06
  -3   7   5    7.57    0.53
  -3   7   5    8.35    0.47
  -3   7   4    7.99    0.52
  -3   7   3   23.35    0.89
   3  -7  -3   23.56    0.70
   3  -7  -2   49.16    1.05
  -3   7   2   50.18    1.35
   3  -7  -1   10.74    0.34
  -3   7   1   10.30    0.53
   3  -7   0   79.14    1.29
  -3   7   0   80.01    1.76
   3  -7   1   22.90    0.77
  -3   7  -1   20.79    0.74
  -3   7  -2   18.67    0.70
   3  -7   2   19.94    0.70
  -3   7  -3   37.82    1.06
   3  -7   3   38.17    1.05
  -3   7  -4    3.02    0.24
   3  -7   4    3.03    0.14
   3  -7   4    3.43    0.28
  -3   7  -4    2.99    0.27
  -3   7  -5   -0.03    0.03
   3  -7   5    0.00    0.03
  -3   7  -5    0.01    0.06
  -3   7  -6   10.09    0.53
  -3   7  -7   11.81    0.61
  -3   7  -7   12.18    0.46
   3  -7   7   11.37    0.46
   3  -7   8    2.31    0.22
  -3   7  -8    2.32    0.21
   3  -7   9    0.34    0.11
   3  -7  10    0.59    0.14
   3  -7  11   -0.03    0.07
  -3   6   7    2.23    0.30
  -3   6   7    1.80    0.25
  -3   6   6    3.60    0.32
  -3   6   6    4.49    0.40
  -3   6   5   10.96    0.53
  -3   6   5   11.37    0.61
  -3   6   4    6.62    0.37
   3  -6  -4    6.68    0.36
   3  -6  -3    2.68    0.21
  -3   6   3    2.38    0.24
   3  -6  -2   13.71    0.45
  -3   6   2   13.77    0.58
   3  -6  -1    0.81    0.09
  -3   6   1    0.81    0.14
   3  -6   0    7.90    0.26
  -3   6   0    9.50    0.44
   3  -6   1    0.00    0.03
   3  -6   1    0.02    0.02
   3  -6   2    0.90    0.06
   3  -6   2    0.99    0.14
  -3   6  -2    0.89    0.13
   3  -6   3    0.88    0.07
   3  -6   3    1.12    0.15
  -3   6  -3    0.93    0.14
  -3   6  -4    0.50    0.10
   3  -6   4    0.44    0.06
   3  -6   4    0.48    0.10
  -3   6  -5    2.43    0.23
   3  -6   5    2.63    0.24
  -3   6  -6    1.87    0.14
   3  -6   6    1.99    0.18
  -3   6  -6    2.08    0.17
  -3   6  -6    1.84    0.22
   3  -6   6    2.15    0.23
   3  -6   7    4.31    0.29
  -3   6  -7    3.80    0.19
  -3   6  -7    3.81    0.27
  -3   6  -8    1.08    0.09
   3  -6   8    0.92    0.15
  -3   6  -8    1.19    0.16
   3  -6   9   -0.03    0.06
   3  -6  10    1.05    0.18
   3  -6  11    0.16    0.09
  -3   5   8    0.15    0.10
  -3   5   8    0.13    0.09
  -3   5   7    0.50    0.13
  -3   5   7    0.56    0.15
  -3   5   6   -0.03    0.05
  -3   5   5   -0.10    0.06
  -3   5   4    0.19    0.08
  -3   5   4    0.01    0.04
   3  -5  -4    0.12    0.05
  -3   5   3    0.09    0.06
  -3   5   3    0.06    0.04
   3  -5  -3    0.11    0.05
  -3   5   2    0.03    0.04
   3  -5  -2    0.02    0.03
  -3   5   1    0.22    0.07
   3  -5  -1    0.19    0.05
   3  -5   0    0.09    0.05
   3  -5   0    0.01    0.02
  -3   5   0    0.01    0.04
   3  -5   1    7.26    0.34
   3  -5   2    0.90    0.07
   3  -5   2    1.11    0.13
   3  -5   3    0.82    0.08
   3  -5   3    0.81    0.12
  -3   5  -3    0.65    0.11
  -3   5  -4    3.51    0.25
   3  -5   4    3.48    0.19
   3  -5   4    3.59    0.26
  -3   5  -4    3.82    0.20
  -3   5  -5   10.98    0.40
  -3   5  -5   11.57    0.51
  -3   5  -5   11.23    0.33
   3  -5   5   11.39    0.50
   3  -5   6    4.45    0.28
  -3   5  -6    5.39    0.19
   3  -5   6    5.24    0.35
  -3   5  -6    4.77    0.29
  -3   5  -7    7.61    0.21
  -3   5  -7    8.02    0.41
   3  -5   7    7.03    0.39
   3  -5   8    4.64    0.34
   3  -5   9    1.56    0.22
   3  -5  10    5.23    0.42
   3  -5  11    1.63    0.25
  -3   4   9    0.62    0.16
  -3   4   8   -0.02    0.08
  -3   4   8    0.04    0.07
  -3   4   7    0.06    0.07
  -3   4   7   -0.04    0.07
  -3   4   6    1.98    0.23
   3  -4  -5   -0.02    0.05
  -3   4   5    0.01    0.05
   3  -4  -4    0.47    0.09
  -3   4   4    0.47    0.10
  -3   4   3    5.60    0.29
   3  -4  -3    5.57    0.29
  -3   4   3    5.83    0.32
   3  -4  -2    0.05    0.03
   3  -4  -1    2.44    0.15
   3  -4   0   65.05    1.13
   3  -4   0   65.70    1.25
   3  -4   1    7.19    0.31
   3  -4   2  223.36    3.30
   3  -4   2  212.46    3.46
   3  -4   3    7.02    0.33
   3  -4   3    6.93    0.27
   3  -4   4   62.02    1.33
  -3   4  -4   62.81    1.04
  -3   4  -4   62.02    1.34
   3  -4   5    1.51    0.15
  -3   4  -5    1.41    0.07
  -3   4  -5    1.46    0.15
   3  -4   5    1.30    0.16
   3  -4   6   47.04    1.12
  -3   4  -6   48.77    1.14
   3  -4   6   47.85    1.22
   3  -4   7    2.28    0.23
  -3   4  -7    2.27    0.22
   3  -4   8   30.22    0.99
   3  -4   9    0.56    0.14
   3  -4  10    6.19    0.47
  -3   3  10    0.06    0.07
  -3   3   9    0.07    0.08
  -3   3   9   -0.30    0.12
  -3   3   8    0.52    0.14
  -3   3   8    0.26    0.09
  -3   3   7    0.46    0.12
  -3   3   7    0.44    0.11
  -3   3   6    1.68    0.22
  -3   3   6    1.41    0.19
   3  -3  -5    2.35    0.22
  -3   3   5    2.02    0.21
   3  -3  -4    0.23    0.07
  -3   3   4    0.25    0.08
   3  -3  -3   56.19    1.16
  -3   3   2    0.00    0.03
   3  -3  -2    0.00    0.03
  -3   3   1  117.26    1.91
   3  -3  -1  114.85    1.89
  -3   3   0    3.88    0.19
   3  -3   0    3.72    0.18
   3  -3   1   45.47    0.90
  -3   3  -1   46.10    0.90
  -3   3  -2    1.42    0.13
   3  -3   2    1.64    0.12
   3  -3   2    1.64    0.14
   3  -3   3  104.55    1.86
  -3   3  -4    0.39    0.07
   3  -3   4    0.38    0.08
   3  -3   5   19.70    0.62
  -3   3  -5   20.40    0.64
   3  -3   5   19.94    0.67
   3  -3   6    0.22    0.08
  -3   3  -6    0.34    0.09
   3  -3   6    0.18    0.07
   3  -3   7    0.04    0.07
   3  -3   8    0.37    0.11
   3  -3   9    0.39    0.13
   3  -3  10    0.29    0.11
  -3   2  10    0.22    0.11
  -3   2   9    0.06    0.08
  -3   2   9   -0.15    0.09
  -3   2   8    1.08    0.18
  -3   2   8    0.89    0.17
  -3   2   7    2.85    0.28
  -3   2   7    3.11    0.29
  -3   2   6    4.12    0.31
  -3   2   6    4.65    0.34
   3  -2  -6    4.93    0.33
  -3   2   5    3.04    0.25
  -3   2   5    3.26    0.27
   3  -2  -5    3.54    0.26
  -3   2   4    0.53    0.11
  -3   2   4    0.53    0.10
   3  -2  -4    0.62    0.10
   3  -2  -3    0.24    0.06
  -3   2   3    0.14    0.05
   3  -2  -2    0.98    0.10
  -3   2   2    0.71    0.10
  -3   2   2    0.91    0.08
  -3   2   1    5.74    0.19
  -3   2   0   19.36    0.48
  -3   2   0   18.96    0.42
   3  -2   0   20.03    0.42
  -3   2  -1    3.74    0.16
  -3   2  -1    3.93    0.18
   3  -2   1    3.70    0.17
   3  -2   2    0.14    0.05
  -3   2  -2    0.16    0.03
   3  -2   2    0.21    0.05
   3  -2   3   11.59    0.42
   3  -2   4    2.73    0.20
  -3   2  -4    2.54    0.20
   3  -2   5    3.68    0.26
  -3   2  -5    3.80    0.27
  -3   2  -6    0.05    0.06
   3  -2   6    0.03    0.06
   3  -2   7    0.15    0.09
   3  -2   8    0.02    0.05
   3  -2   9    0.06    0.07
   3  -2  10    0.22    0.11
  -3   1  11    0.12    0.08
  -3   1  10    0.95    0.20
  -3   1  10    0.57    0.14
  -3   1   9    0.06    0.06
  -3   1   9    0.03    0.07
  -3   1   8    1.63    0.22
  -3   1   8    1.66    0.22
  -3   1   7    1.12    0.17
  -3   1   7    0.94    0.16
  -3   1   6    0.78    0.13
  -3   1   6    0.77    0.14
   3  -1  -6    0.72    0.13
  -3   1   5    2.46    0.21
  -3   1   5    2.46    0.21
   3  -1  -5    2.76    0.22
   3  -1  -4    9.59    0.40
  -3   1   4    9.58    0.40
  -3   1   4    9.61    0.40
   3  -1  -3   12.09    0.41
  -3   1   3   12.59    0.44
  -3   1   2    3.76    0.22
   3  -1  -1   15.06    0.42
  -3   1   1   14.05    0.41
   3  -1   0   49.51    0.88
  -3   1   0   49.09    0.88
   3  -1   0   47.08    0.80
   3  -1   1   30.94    0.58
  -3   1  -1   31.62    0.58
   3  -1   2   14.04    0.29
  -3   1  -2   13.79    0.28
   3  -1   3   26.79    0.46
  -3   1  -3   27.72    0.71
   3  -1   4   22.99    0.69
  -3   1  -4   23.56    0.69
   3  -1   4   23.33    0.42
   3  -1   5    4.00    0.14
   3  -1   5    3.73    0.27
  -3   1  -5    3.94    0.28
   3  -1   5    3.82    0.14
   3  -1   6    1.07    0.08
   3  -1   6    0.89    0.14
   3  -1   6    0.96    0.07
   3  -1   7    0.01    0.02
   3  -1   7    0.04    0.03
   3  -1   7   -0.05    0.08
   3  -1   8    6.44    0.47
   3  -1   9   -0.14    0.10
  -3   0  11    1.33    0.21
  -3   0  10    0.39    0.13
  -3   0  10    1.01    0.18
  -3   0   9   -0.03    0.07
  -3   0   9    0.10    0.07
  -3   0   8   -0.02    0.06
  -3   0   8   -0.14    0.07
  -3   0   7    0.22    0.08
  -3   0   7    0.29    0.10
   3   0  -6    1.42    0.17
  -3   0   6    1.22    0.15
  -3   0   6    1.22    0.16
  -3   0   5    8.50    0.39
   3   0  -5    8.81    0.40
  -3   0   5    8.79    0.40
   3   0  -4    0.79    0.11
  -3   0   4    0.74    0.11
   3   0  -3    0.47    0.08
  -3   0   3    0.39    0.04
  -3   0   3    0.38    0.08
  -3   0   2    2.95    0.18
   3   0  -1   52.36    0.99
  -3   0   1   53.70    0.99
   3   0   0    2.77    0.15
  -3   0   0    2.68    0.14
   3   0   1    9.38    0.28
  -3   0  -1   10.89    0.29
   3   0   2   27.09    0.55
   3   0   3    1.42    0.10
  -3   0  -3    1.48    0.15
   3   0   4   16.31    0.59
   3   0   4   17.92    0.43
  -3   0  -4   17.84    0.61
   3   0   5   15.14    0.60
  -3   0  -5   15.89    0.61
   3   0   6    5.06    0.36
   3   0   7    7.27    0.30
   3   0   7    6.60    0.46
   3   0   8    3.50    0.35
   3   0   9   -0.01    0.08
  -3  -1  11    0.10    0.07
  -3  -1  11    0.02    0.06
  -3  -1  10    1.07    0.18
  -3  -1  10    0.95    0.18
  -3  -1   9    0.64    0.15
  -3  -1   9    0.82    0.16
  -3  -1   8    0.35    0.10
  -3  -1   8    0.33    0.10
  -3  -1   8    0.30    0.09
  -3  -1   7    0.28    0.09
  -3  -1   7    0.44    0.08
   3   1  -7    0.58    0.12
  -3  -1   7    0.53    0.11
   3   1  -6    0.07    0.06
  -3  -1   6    0.10    0.05
   3   1  -6    0.05    0.05
  -3  -1   6    0.07    0.04
  -3  -1   6    0.06    0.05
   3   1  -5    1.44    0.15
   3   1  -5    1.36    0.15
  -3  -1   5    1.21    0.14
  -3  -1   5    1.36    0.12
   3   1  -4    1.24    0.13
  -3  -1   4    1.41    0.15
  -3  -1   4    1.29    0.10
  -3  -1   3    7.30    0.31
   3   1  -3    7.09    0.20
  -3  -1   3    6.78    0.20
  -3  -1   2   13.90    0.44
   3   1  -2   16.42    0.33
   3   1  -1    9.28    0.33
  -3  -1   1    9.85    0.34
   3   1   0   12.27    0.37
  -3  -1   0   13.15    0.38
   3   1   1    1.03    0.10
   3   1   1    1.29    0.12
   3   1   2    2.14    0.15
   3   1   2    2.39    0.19
   3   1   3    0.00    0.03
   3   1   3    0.06    0.05
  -3  -1  -4    0.63    0.11
   3   1   4    0.66    0.09
   3   1   4    0.57    0.11
   3   1   5    0.96    0.11
   3   1   5    0.82    0.14
   3   1   6    0.03    0.03
   3   1   6    0.01    0.05
   3   1   7    0.13    0.08
   3   1   8    0.73    0.17
  -3  -2  12    0.01    0.05
  -3  -2  11    3.78    0.38
  -3  -2  11    3.59    0.33
  -3  -2  10    0.40    0.13
  -3  -2  10    0.63    0.14
  -3  -2   9   17.93    0.68
  -3  -2   9   17.79    0.76
  -3  -2   9   18.49    0.72
   3   2  -8    0.00    0.05
  -3  -2   8    0.01    0.07
  -3  -2   8    0.05    0.05
  -3  -2   8    0.07    0.05
  -3  -2   7    1.06    0.15
   3   2  -7    0.85    0.14
  -3  -2   7    0.59    0.12
  -3  -2   7    0.95    0.13
   3   2  -7    0.85    0.13
  -3  -2   6    0.32    0.08
   3   2  -6    0.37    0.08
   3   2  -6    0.27    0.07
  -3  -2   6    0.30    0.06
   3   2  -5    4.32    0.26
   3   2  -5    4.62    0.28
  -3  -2   5    4.22    0.21
  -3  -2   5    3.72    0.25
   3   2  -4   10.29    0.39
  -3  -2   4   11.25    0.42
   3   2  -4   10.60    0.32
  -3  -2   4   10.35    0.32
  -3  -2   3   23.30    0.51
   3   2  -3   23.48    0.51
   3   2  -2   41.59    0.80
  -3  -2   2   43.78    0.94
   3   2  -1   11.22    0.34
   3   2  -1   10.46    0.38
  -3  -2   0    5.85    0.28
   3   2   0    7.05    0.30
   3   2   1    6.27    0.29
   3   2   1    5.77    0.29
   3   2   2    5.11    0.29
   3   2   2    4.95    0.26
   3   2   3    3.00    0.24
   3   2   3    3.09    0.21
   3   2   4    5.12    0.34
  -3  -2  -4    5.66    0.35
   3   2   4    5.68    0.30
   3   2   5   19.85    0.64
   3   2   5   19.46    0.75
   3   2   6    2.24    0.21
   3   2   6    2.42    0.27
   3   2   7    0.32    0.12
   3   2   8    0.01    0.08
  -3  -3  12   -0.24    0.10
  -3  -3  11    0.06    0.05
  -3  -3  11    0.18    0.09
  -3  -3  10   19.36    0.83
  -3  -3  10   19.07    0.75
  -3  -3   9    0.27    0.09
  -3  -3   9    0.22    0.08
  -3  -3   9    0.10    0.06
  -3  -3   8   11.51    0.55
   3   3  -8   12.65    0.55
  -3  -3   8   11.44    0.49
  -3  -3   8   11.13    0.52
  -3  -3   7    0.01    0.04
   3   3  -7    0.02    0.04
  -3  -3   7    0.03    0.03
   3   3  -7    0.05    0.05
   3   3  -6    2.30    0.20
  -3  -3   6    1.98    0.19
   3   3  -6    2.19    0.21
  -3  -3   6    2.25    0.18
  -3  -3   5    0.04    0.05
   3   3  -5   -0.01    0.04
   3   3  -5    0.00    0.04
  -3  -3   5    0.03    0.03
   3   3  -5    0.04    0.03
   3   3  -4   89.30    1.63
   3   3  -4   90.04    1.57
  -3  -3   4   87.61    1.71
  -3  -3   4   89.02    1.56
  -3  -3   3    0.24    0.05
  -3  -3   3    0.28    0.08
   3   3  -3    0.09    0.03
   3   3  -2   91.91    1.66
  -3  -3   2  101.03    1.80
   3   3  -1    0.26    0.07
   3   3  -1    0.18    0.06
  -3  -3   1    0.19    0.07
   3   3   0    4.65    0.25
   3   3   0    5.08    0.29
   3   3   1    0.04    0.04
   3   3   1    0.02    0.03
   3   3   2    0.85    0.12
   3   3   2    0.53    0.10
   3   3   3    0.26    0.07
   3   3   3    0.24    0.07
   3   3   4   21.75    0.78
   3   3   4   23.24    0.74
   3   3   5    0.10    0.06
   3   3   5    0.15    0.08
   3   3   6    9.42    0.57
   3   3   7    0.22    0.10
  -3  -4  12    1.15    0.19
  -3  -4  12    1.46    0.24
  -3  -4  11    3.16    0.30
  -3  -4  11    2.77    0.31
  -3  -4  10    1.82    0.22
  -3  -4   9    0.84    0.15
  -3  -4   9    0.65    0.12
   3   4  -8    0.04    0.06
   3   4  -8    0.03    0.04
  -3  -4   8   -0.02    0.06
  -3  -4   8    0.03    0.04
   3   4  -7    1.49    0.17
   3   4  -7    1.50    0.18
  -3  -4   7    1.50    0.16
  -3  -4   7    1.46    0.19
   3   4  -6    0.03    0.05
   3   4  -6    0.00    0.04
   3   4  -6    0.02    0.04
  -3  -4   6    0.01    0.03
  -3  -4   6   -0.04    0.06
  -3  -4   5   15.75    0.59
   3   4  -5   16.68    0.54
   3   4  -5   17.11    0.61
   3   4  -5   16.91    0.54
  -3  -4   5   16.43    0.52
   3   4  -4    3.37    0.25
   3   4  -4    3.33    0.22
  -3  -4   4    3.07    0.20
  -3  -4   4    2.73    0.23
   3   4  -3   58.72    1.22
  -3  -4   3   57.48    1.20
  -3  -4   3   59.25    1.31
   3   4  -2    0.77    0.11
  -3  -4   2    0.74    0.12
   3   4  -2    0.79    0.13
   3   4  -1    0.37    0.08
   3   4  -1    0.62    0.09
   3   4  -1    0.70    0.12
   3   4   0    3.06    0.24
   3   4   0    2.97    0.21
   3   4   0    3.40    0.26
   3   4   1    2.94    0.22
   3   4   1    3.47    0.26
   3   4   2    0.26    0.07
   3   4   2    0.31    0.08
   3   4   3    0.03    0.06
   3   4   3   -0.21    0.07
   3   4   4    0.06    0.06
   3   4   5    2.95    0.30
   3   4   6    0.50    0.15
  -3  -5  12    1.13    0.19
  -3  -5  11    1.76    0.23
  -3  -5  10    0.45    0.12
  -3  -5   9    0.20    0.08
  -3  -5   9    0.27    0.09
  -3  -5   8    0.08    0.06
   3   5  -8    0.07    0.06
  -3  -5   8    0.00    0.03
  -3  -5   7    0.33    0.10
   3   5  -7    0.54    0.11
   3   5  -7    0.43    0.10
   3   5  -7    0.49    0.11
  -3  -5   7    0.56    0.11
   3   5  -6    0.24    0.08
  -3  -5   6    0.21    0.08
   3   5  -6    0.13    0.06
   3   5  -6    0.10    0.05
  -3  -5   6    0.24    0.07
   3   5  -5    2.21    0.18
   3   5  -5    2.29    0.23
   3   5  -5    2.25    0.20
  -3  -5   5    2.50    0.20
  -3  -5   5    2.43    0.23
  -3  -5   4    2.33    0.20
   3   5  -4    2.91    0.23
   3   5  -4    2.88    0.25
  -3  -5   4    2.53    0.24
  -3  -5   3    0.01    0.05
   3   5  -3   -0.01    0.06
   3   5  -3    0.01    0.04
   3   5  -2    2.93    0.25
   3   5  -2    3.11    0.25
   3   5  -1    2.85    0.20
   3   5  -1    3.10    0.26
   3   5  -1    2.96    0.25
   3   5   0    4.19    0.26
   3   5   0    3.83    0.30
   3   5   1    0.03    0.06
   3   5   1    0.04    0.04
   3   5   2    5.19    0.33
   3   5   3    0.25    0.09
   3   5   4    1.32    0.19
   3   5   5    0.51    0.14
   3   5   6   -0.09    0.08
  -3  -6  12    0.01    0.06
  -3  -6  11   -0.01    0.06
  -3  -6  10    0.36    0.11
  -3  -6   9    2.10    0.25
   3   6  -8    0.66    0.13
   3   6  -8    0.54    0.11
  -3  -6   8    0.72    0.15
  -3  -6   8    0.75    0.14
   3   6  -7    3.37    0.28
   3   6  -7    3.15    0.24
  -3  -6   7    3.46    0.28
  -3  -6   7    3.54    0.31
  -3  -6   6    0.01    0.04
   3   6  -6    0.08    0.05
   3   6  -6   -0.06    0.06
  -3  -6   6    0.04    0.06
  -3  -6   5    0.09    0.06
   3   6  -5    0.11    0.05
  -3  -6   5    0.07    0.05
   3   6  -5    0.13    0.07
  -3  -6   4    1.19    0.16
   3   6  -4    1.53    0.18
   3   6  -3    0.08    0.05
   3   6  -2   13.04    0.45
   3   6  -2   13.32    0.58
   3   6  -1    6.18    0.31
   3   6  -1    5.49    0.38
   3   6   0    7.49    0.36
   3   6   0    7.16    0.45
   3   6   1    1.44    0.17
   3   6   1    1.53    0.22
   3   6   2    1.02    0.20
   3   6   2    1.17    0.16
   3   6   3    0.08    0.07
   3   6   3    0.02    0.04
   3   6   4    1.34    0.20
   3   6   5    1.45    0.22
  -3  -7  12    1.35    0.22
  -3  -7  11    0.13    0.08
  -3  -7  10    0.04    0.07
  -3  -7   9    0.04    0.05
   3   7  -9    0.07    0.06
   3   7  -8    1.79    0.19
  -3  -7   8    1.61    0.23
   3   7  -8    1.55    0.21
   3   7  -7    1.47    0.16
   3   7  -7    1.66    0.21
  -3  -7   7    1.86    0.24
   3   7  -6    0.25    0.07
   3   7  -6    0.18    0.08
  -3  -7   6    0.17    0.09
   3   7  -5    5.01    0.27
   3   7  -5    4.63    0.35
   3   7  -4    0.03    0.05
   3   7  -3    1.92    0.23
   3   7  -3    1.93    0.16
   3   7  -2    4.32    0.25
   3   7  -2    3.95    0.34
   3   7  -1    0.36    0.12
   3   7  -1    0.19    0.06
   3   7   0    0.81    0.18
   3   7   0    1.05    0.14
   3   7   1    0.33    0.13
   3   7   1    0.32    0.08
   3   7   2    0.43    0.13
   3   7   2    0.26    0.08
  -3  -8  12    0.17    0.09
  -3  -8  11    0.12    0.08
  -3  -8  10   -0.01    0.06
   3   8 -10    0.12    0.09
  -3  -8   9    0.15    0.09
   3   8  -9    0.06    0.08
   3   8  -8   -0.17    0.09
  -3  -8   8   -0.04    0.08
   3   8  -7    0.35    0.10
   3   8  -6    1.10    0.19
   3   8  -5    0.97    0.17
   3   8  -4    1.13    0.12
   3   8  -4    0.91    0.17
   3   8  -3    0.04    0.03
   3   8  -3    0.10    0.07
   3   8  -2   -0.01    0.09
   3   8  -1    0.44    0.12
   3   8   0    0.18    0.10
  -3  -9  11    1.91    0.27
   3   9 -11    2.20    0.30
   3   9 -10   -0.02    0.06
   3   9  -9    2.82    0.32
   3   9  -8   -0.08    0.07
   3   9  -7    0.06    0.08
   3   9  -6   -0.15    0.09
   3   9  -5    2.20    0.28
   3   9  -4   -0.05    0.07
   3   9  -3    1.09    0.21
   3   9  -2   -0.07    0.07
   3   9  -1    2.94    0.35
   3  10 -10    0.28    0.12
   3  10  -9    0.52    0.15
   3  10  -8   -0.01    0.06
   3  10  -7    0.28    0.11
   3  10  -6   -0.02    0.08
   3  10  -5    0.00    0.06
   3  10  -4    1.06    0.21
  -4  11  -2    0.22    0.12
  -4  11  -3    1.47    0.24
  -4  11  -4    0.14    0.09
  -4  11  -5    4.36    0.42
  -4  11  -6    0.13    0.08
  -4  11  -7    0.08    0.08
  -4  10   1    0.12    0.09
  -4  10   0    0.15    0.09
  -4  10  -1    0.14    0.08
  -4  10  -2    0.16    0.09
  -4  10  -3    2.51    0.30
  -4  10  -4    9.96    0.61
  -4  10  -5    5.24    0.44
  -4  10  -6    9.09    0.59
  -4  10  -7    0.45    0.13
  -4  10  -8    2.21    0.30
  -4   9   3    3.95    0.39
  -4   9   2    2.67    0.32
  -4   9   1    0.56    0.14
  -4   9   0    1.11    0.19
  -4   9  -1    0.08    0.07
  -4   9  -2    0.09    0.07
  -4   9  -3    0.21    0.09
  -4   9  -4    0.07    0.08
   4  -9   5    0.81    0.06
  -4   9  -5    0.81    0.14
  -4   9  -5    0.81    0.17
   4  -9   6    0.02    0.02
  -4   9  -6    0.06    0.09
  -4   9  -6   -0.03    0.03
  -4   9  -7    0.07    0.05
  -4   9  -7    0.08    0.08
  -4   9  -8    0.09    0.08
   4  -9   8    0.03    0.03
   4  -9   9    0.24    0.08
   4  -9  10   -0.01    0.04
   4  -9  11    2.51    0.28
  -4   8   5    1.66    0.26
  -4   8   4    0.10    0.08
  -4   8   3   10.50    0.61
  -4   8   2    1.04    0.18
   4  -8  -1    3.06    0.18
  -4   8   1    3.01    0.30
   4  -8   0    3.24    0.15
  -4   8   0    2.89    0.29
   4  -8   1    5.59    0.15
  -4   8  -1    5.65    0.40
  -4   8  -2    0.74    0.15
  -4   8  -3   15.76    0.68
   4  -8   4    0.18    0.03
  -4   8  -4    0.29    0.10
  -4   8  -5    0.13    0.05
  -4   8  -5    0.23    0.09
   4  -8   5    0.26    0.05
  -4   8  -6    0.16    0.06
  -4   8  -6    0.18    0.08
   4  -8   7    9.86    0.43
  -4   8  -7    9.91    0.58
   4  -8   8    0.05    0.05
   4  -8   9    1.67    0.20
   4  -8  10    0.01    0.04
   4  -8  11    0.06    0.07
  -4   7   6   19.70    0.89
  -4   7   5    9.09    0.56
  -4   7   4   15.39    0.72
   4  -7  -3    5.90    0.32
  -4   7   3    5.83    0.42
   4  -7  -2   54.66    1.15
  -4   7   2   54.40    1.40
   4  -7  -1    1.19    0.12
  -4   7   1    1.24    0.18
   4  -7   0   47.24    0.90
  -4   7   0   46.68    1.22
   4  -7   1    0.08    0.05
   4  -7   1    0.11    0.03
  -4   7  -1    0.04    0.06
   4  -7   2    1.06    0.08
   4  -7   2    1.03    0.08
  -4   7  -2    1.07    0.16
   4  -7   2    1.18    0.16
  -4   7  -3    0.01    0.05
   4  -7   3    0.00    0.02
   4  -7   3    0.03    0.05
   4  -7   4    2.01    0.14
  -4   7  -4    1.93    0.22
   4  -7   4    2.09    0.22
  -4   7  -5    5.28    0.37
   4  -7   6    7.81    0.36
  -4   7  -6    7.65    0.47
   4  -7   7    5.56    0.34
  -4   7  -7    5.80    0.25
   4  -7   8    0.35    0.10
  -4   7  -8    0.35    0.05
   4  -7   9    0.00    0.05
   4  -7  10    0.74    0.15
   4  -7  11    0.02    0.06
  -4   6   7    2.54    0.30
  -4   6   6    2.79    0.30
  -4   6   5   10.05    0.55
  -4   6   4    0.43    0.11
   4  -6  -4    0.34    0.09
  -4   6   3    0.29    0.09
   4  -6  -3    0.21    0.06
   4  -6  -2   10.55    0.40
  -4   6   2    9.88    0.48
   4  -6  -1   23.63    0.61
  -4   6   1   24.70    0.77
   4  -6   0    0.42    0.06
   4  -6   0    0.43    0.09
  -4   6   0    0.49    0.11
   4  -6   1    4.19    0.19
  -4   6  -1    4.21    0.28
   4  -6   1    3.86    0.26
   4  -6   2    5.02    0.21
  -4   6  -2    4.94    0.31
   4  -6   2    5.30    0.32
   4  -6   3    1.01    0.10
   4  -6   3    0.98    0.14
  -4   6  -3    0.83    0.14
  -4   6  -4    0.77    0.13
   4  -6   4    0.78    0.13
  -4   6  -5   16.71    0.66
   4  -6   5   17.64    0.67
  -4   6  -5   16.78    0.47
   4  -6   6   12.55    0.50
  -4   6  -6   13.19    0.36
   4  -6   7    1.52    0.18
  -4   6  -7    1.77    0.09
   4  -6   8    0.94    0.16
   4  -6   9    2.12    0.25
   4  -6  10    0.00    0.05
   4  -6  11    0.50    0.15
  -4   5   7    0.08    0.07
  -4   5   6    0.13    0.09
  -4   5   6    0.03    0.06
  -4   5   5   -0.03    0.05
  -4   5   4    0.30    0.08
   4  -5  -4    0.40    0.09
   4  -5  -3    8.01    0.37
  -4   5   3    7.54    0.39
  -4   5   2    0.01    0.05
   4  -5  -2    0.01    0.03
   4  -5  -1    4.45    0.23
  -4   5   1    4.87    0.28
   4  -5   0   -0.01    0.04
   4  -5   0    0.01    0.02
   4  -5   1    1.39    0.14
   4  -5   2    0.24    0.07
  -4   5  -3    0.15    0.06
   4  -5   3    0.27    0.07
  -4   5  -4    4.09    0.28
   4  -5   4    4.71    0.30
   4  -5   5    4.09    0.30
  -4   5  -5    3.69    0.15
   4  -5   6    2.00    0.20
   4  -5   6    2.36    0.24
   4  -5   7    0.52    0.11
  -4   5  -7    0.69    0.13
   4  -5   8    0.06    0.05
   4  -5   9    0.08    0.07
   4  -5  10    0.07    0.08
  -4   4   8    0.81    0.17
  -4   4   8    0.91    0.20
  -4   4   7    1.74    0.24
  -4   4   7    1.63    0.25
  -4   4   6    1.21    0.18
  -4   4   6    1.11    0.19
  -4   4   5    0.60    0.14
   4  -4  -5    0.53    0.11
  -4   4   4    2.76    0.22
   4  -4  -4    2.76    0.23
   4  -4  -3    1.69    0.16
  -4   4   3    1.71    0.16
   4  -4  -2   15.58    0.50
   4  -4  -1    8.37    0.32
  -4   4   0   33.64    0.77
   4  -4   0   31.86    0.74
   4  -4   1    0.28    0.06
   4  -4   2   36.83    0.86
   4  -4   3    9.26    0.40
  -4   4  -4   18.54    0.38
   4  -4   4   18.33    0.58
   4  -4   4   19.37    0.64
  -4   4  -4   19.56    0.38
   4  -4   5    2.43    0.23
   4  -4   5    1.95    0.19
   4  -4   6    3.81    0.28
  -4   4  -6    4.12    0.29
   4  -4   6    4.77    0.34
   4  -4   7    0.48    0.12
   4  -4   8    1.28    0.19
   4  -4   9    1.77    0.25
   4  -4  10    0.36    0.12
  -4   3   9    0.19    0.11
  -4   3   9    0.09    0.08
  -4   3   8   10.05    0.59
  -4   3   8   10.38    0.61
  -4   3   7    1.35    0.21
  -4   3   7    1.13    0.18
  -4   3   6   33.32    1.01
  -4   3   6   32.32    1.05
  -4   3   5    1.43    0.19
   4  -3  -5    1.31    0.16
  -4   3   4   48.65    1.24
   4  -3  -4   49.64    1.15
  -4   3   3   -0.03    0.05
   4  -3  -3   -0.04    0.05
   4  -3  -2   63.42    1.25
  -4   3   2   64.49    1.17
  -4   3   1    3.56    0.18
   4  -3  -1    3.74    0.18
  -4   3   0  179.90    2.78
   4  -3   0  180.00    2.78
  -4   3  -1    1.31    0.11
  -4   3  -1    1.25    0.11
   4  -3   1    1.38    0.12
  -4   3  -2   18.19    0.43
   4  -3   2   18.82    0.53
   4  -3   3    6.00    0.30
  -4   3  -3    6.02    0.17
   4  -3   4    1.21    0.15
   4  -3   4    0.86    0.12
   4  -3   5    4.95    0.31
   4  -3   5    5.92    0.36
  -4   3  -6    0.07    0.06
   4  -3   6    0.04    0.06
   4  -3   7    0.44    0.12
   4  -3   8    0.46    0.14
   4  -3   9    0.44    0.13
  -4   2  10    0.08    0.09
  -4   2   9    5.65    0.46
  -4   2   9    5.63    0.45
  -4   2   8    1.22    0.20
  -4   2   8    1.52    0.22
  -4   2   7    4.56    0.36
  -4   2   7    4.73    0.38
  -4   2   6    0.52    0.12
  -4   2   5   11.73    0.53
   4  -2  -5   11.87    0.50
  -4   2   4    0.37    0.09
   4  -2  -4    0.26    0.07
   4  -2  -3   13.35    0.47
  -4   2   3   12.56    0.49
  -4   2   3   13.01    0.36
  -4   2   2    0.12    0.06
  -4   2   2    0.08    0.03
  -4   2   1   27.14    0.67
  -4   2   1   25.86    0.49
  -4   2   0    1.69    0.13
  -4   2   0    1.58    0.10
   4  -2   0    1.84    0.11
  -4   2  -1   33.89    0.68
   4  -2   1   32.96    0.70
  -4   2  -2    0.61    0.06
   4  -2   2    0.68    0.09
   4  -2   3    2.80    0.21
   4  -2   3    2.51    0.20
   4  -2   4    0.77    0.12
   4  -2   5    6.63    0.38
  -4   2  -5    7.32    0.39
   4  -2   6    0.18    0.09
   4  -2   7    6.83    0.44
   4  -2   8    0.08    0.09
   4  -2   9    0.53    0.17
  -4   1  11    0.24    0.11
  -4   1  10    0.20    0.10
  -4   1  10   -0.01    0.08
  -4   1   9    0.27    0.10
  -4   1   9    0.34    0.10
  -4   1   8    1.66    0.22
  -4   1   8    1.56    0.22
  -4   1   7    0.28    0.11
  -4   1   7    0.47    0.12
  -4   1   6    0.04    0.04
   4  -1  -6    0.16    0.07
   4  -1  -5   12.57    0.51
  -4   1   5   11.89    0.51
   4  -1  -4    4.82    0.28
  -4   1   4    4.29    0.28
   4  -1  -3   14.17    0.48
  -4   1   3   14.23    0.50
   4  -1  -2    0.03    0.04
  -4   1   2    0.06    0.04
   4  -1  -1    2.12    0.16
  -4   1   1    2.35    0.17
   4  -1  -1    2.31    0.08
   4  -1   0    0.11    0.04
   4  -1   0    0.09    0.02
  -4   1   0    0.11    0.04
  -4   1  -1    0.39    0.06
   4  -1   1    0.37    0.05
   4  -1   2    7.46    0.23
  -4   1  -2    7.32    0.22
   4  -1   3    0.82    0.06
   4  -1   3    0.87    0.12
   4  -1   4    3.53    0.26
   4  -1   4    3.67    0.13
   4  -1   5    9.57    0.48
  -4   1  -5   10.08    0.48
   4  -1   5    9.25    0.22
   4  -1   6    0.22    0.03
   4  -1   6    0.25    0.03
   4  -1   6    0.22    0.09
   4  -1   7    7.26    0.47
   4  -1   8    0.17    0.09
   4  -1   9    0.40    0.13
  -4   0  11    1.65    0.25
  -4   0  10    0.24    0.11
  -4   0  10    0.34    0.13
  -4   0   9    0.75    0.16
  -4   0   9    0.76    0.16
  -4   0   8    2.56    0.27
  -4   0   8    2.81    0.28
  -4   0   7    3.58    0.30
   4   0  -6    5.03    0.33
  -4   0   6    4.07    0.31
   4   0  -5   11.37    0.49
   4   0  -5   10.57    0.46
  -4   0   5   10.91    0.47
  -4   0   5   10.70    0.34
   4   0  -4   27.31    0.74
  -4   0   4   27.84    0.76
  -4   0   3   -0.02    0.05
   4   0  -2    8.73    0.35
  -4   0   2    8.67    0.35
   4   0  -1   12.95    0.42
  -4   0   1   14.12    0.43
   4   0   0   48.85    0.96
  -4   0   0   47.70    0.95
   4   0   1   16.69    0.45
  -4   0  -1   16.98    0.44
   4   0   2  136.02    2.42
   4   0   2  140.36    2.20
   4   0   3    9.32    0.43
   4   0   3    8.91    0.29
   4   0   4   29.44    0.88
   4   0   4   30.50    0.65
   4   0   5    4.33    0.33
   4   0   5    4.42    0.20
   4   0   6    1.36    0.11
   4   0   6    1.30    0.20
   4   0   7    0.48    0.13
   4   0   8    4.00    0.40
  -4  -1  12    0.61    0.14
  -4  -1  11    0.06    0.07
  -4  -1  11   -0.05    0.10
  -4  -1  10   -0.11    0.11
  -4  -1  10   -0.03    0.06
  -4  -1   9    2.15    0.26
  -4  -1   9    1.92    0.21
  -4  -1   8    3.48    0.30
  -4  -1   8    4.22    0.28
  -4  -1   7    0.27    0.07
   4   1  -7    0.25    0.09
  -4  -1   7    0.18    0.08
   4   1  -6   36.12    0.98
   4   1  -6   36.61    0.98
  -4  -1   6   35.03    0.97
   4   1  -5    0.13    0.07
   4   1  -5    0.04    0.04
  -4  -1   5    0.14    0.04
  -4  -1   5    0.03    0.05
   4   1  -4   55.90    1.21
  -4  -1   4   59.03    1.25
  -4  -1   4   56.82    0.96
  -4  -1   3   20.84    0.62
   4   1  -3   20.56    0.39
  -4  -1   3   20.42    0.39
   4   1  -2   64.11    1.28
  -4  -1   2   63.93    1.27
   4   1  -2   63.49    1.03
   4   1  -1   18.83    0.54
  -4  -1   1   19.33    0.55
  -4  -1   0   66.86    1.31
   4   1   0   75.43    1.35
  -4  -1  -1    3.38    0.20
   4   1   1    3.38    0.23
   4   1   1    3.32    0.20
   4   1   2   26.62    0.78
   4   1   2   28.37    0.68
   4   1   3    2.80    0.24
   4   1   3    3.01    0.19
   4   1   4    2.29    0.23
   4   1   4    2.80    0.19
   4   1   5    0.00    0.03
   4   1   5    0.12    0.08
   4   1   6    0.38    0.12
   4   1   7    0.59    0.15
  -4  -2  12    0.22    0.11
  -4  -2  11    1.58    0.23
  -4  -2  10    0.13    0.06
  -4  -2   9    1.40    0.20
  -4  -2   9    1.46    0.18
  -4  -2   8    0.43    0.11
  -4  -2   8    0.50    0.10
  -4  -2   7    0.01    0.06
   4   2  -7    0.13    0.06
   4   2  -7    0.04    0.06
  -4  -2   7    0.08    0.04
  -4  -2   6    0.86    0.13
   4   2  -6    0.78    0.13
   4   2  -6    0.88    0.13
  -4  -2   6    0.71    0.09
  -4  -2   5    0.11    0.05
   4   2  -5    0.05    0.04
   4   2  -5    0.17    0.07
  -4  -2   5    0.14    0.04
  -4  -2   4    1.19    0.14
   4   2  -4    1.25    0.10
  -4  -2   4    1.19    0.09
  -4  -2   3    6.91    0.35
   4   2  -3    6.67    0.24
   4   2  -2    0.22    0.05
  -4  -2   2    0.25    0.07
   4   2  -2    0.30    0.08
   4   2  -1    1.08    0.11
   4   2  -1    1.09    0.13
  -4  -2   1    1.30    0.14
  -4  -2   0    1.66    0.16
   4   2   0    1.56    0.15
   4   2   1    2.08    0.19
   4   2   1    2.31    0.18
   4   2   2    0.52    0.09
   4   2   2    0.63    0.12
   4   2   3    0.70    0.11
   4   2   3    0.75    0.13
   4   2   4    0.47    0.09
   4   2   4    0.45    0.12
   4   2   5    1.36    0.20
   4   2   5    1.58    0.17
   4   2   6    1.31    0.21
   4   2   7    0.09    0.09
  -4  -3  12    0.01    0.07
  -4  -3  11    2.00    0.26
  -4  -3  10    0.27    0.10
  -4  -3   9    0.97    0.14
  -4  -3   9    1.01    0.17
  -4  -3   8    0.07    0.06
  -4  -3   8    0.04    0.04
   4   3  -7    1.89    0.21
   4   3  -7    1.68    0.20
  -4  -3   7    1.57    0.19
  -4  -3   7    1.59    0.15
  -4  -3   6    0.03    0.05
   4   3  -6    0.13    0.06
   4   3  -6    0.07    0.05
  -4  -3   6    0.02    0.03
   4   3  -5    7.44    0.37
   4   3  -5    7.47    0.40
   4   3  -5    7.55    0.30
  -4  -3   5    7.82    0.41
  -4  -3   5    7.62    0.30
   4   3  -4    4.25    0.29
   4   3  -4    4.26    0.22
  -4  -3   4    4.51    0.30
  -4  -3   4    4.60    0.22
   4   3  -3   64.30    1.38
   4   3  -3   65.41    1.22
  -4  -3   2    0.02    0.04
   4   3  -2    0.09    0.05
   4   3  -2    0.01    0.03
   4   3  -1    3.77    0.26
   4   3  -1    3.30    0.22
   4   3   0    2.51    0.20
   4   3   0    2.87    0.23
   4   3   1    2.84    0.23
   4   3   1    3.07    0.24
   4   3   2    0.24    0.07
   4   3   2    0.21    0.08
   4   3   3   -0.06    0.07
   4   3   3   -0.02    0.04
   4   3   4    3.32    0.30
   4   3   4    3.61    0.27
   4   3   5    2.25    0.27
   4   3   6    1.14    0.21
  -4  -4  12    6.80    0.49
  -4  -4  11    0.10    0.09
  -4  -4  10    6.79    0.46
  -4  -4   9    0.00    0.07
  -4  -4   9   -0.07    0.05
  -4  -4   8    5.38    0.39
  -4  -4   8    4.41    0.29
   4   4  -7    0.15    0.06
  -4  -4   7    0.18    0.06
  -4  -4   7    0.05    0.06
   4   4  -6    1.08    0.14
   4   4  -6    1.10    0.13
  -4  -4   6    1.28    0.14
  -4  -4   6    1.44    0.19
   4   4  -6    1.19    0.17
  -4  -4   5    0.09    0.04
  -4  -4   5    0.15    0.07
   4   4  -5    0.09    0.04
   4   4  -5    0.22    0.09
   4   4  -5    0.08    0.04
  -4  -4   4   49.53    1.05
   4   4  -4   49.93    1.21
   4   4  -4   47.60    1.05
  -4  -4   4   48.87    1.21
  -4  -4   3    0.27    0.09
   4   4  -3    0.25    0.08
   4   4  -3    0.14    0.05
  -4  -4   2   27.48    0.84
   4   4  -2   29.84    0.87
   4   4  -2   28.85    0.78
   4   4  -1    0.01    0.04
   4   4  -1    0.04    0.05
   4   4   0   17.10    0.60
   4   4   0   17.29    0.64
   4   4   0   18.70    0.66
   4   4   1    0.19    0.08
   4   4   1    0.07    0.05
   4   4   2   88.61    1.84
   4   4   2   84.32    1.82
   4   4   3    0.10    0.07
   4   4   4   83.74    1.94
   4   4   5    0.02    0.07
   4   4   6   11.83    0.68
  -4  -5  12    0.98    0.19
  -4  -5  11    9.11    0.56
  -4  -5  10    0.00    0.07
  -4  -5   9   -0.01    0.07
  -4  -5   9    0.06    0.03
  -4  -5   8    0.04    0.06
  -4  -5   8    0.14    0.06
   4   5  -7    3.12    0.26
   4   5  -7    2.96    0.24
  -4  -5   7    3.23    0.25
  -4  -5   7    2.95    0.29
  -4  -5   6    2.19    0.24
   4   5  -6    2.36    0.21
   4   5  -6    2.22    0.20
  -4  -5   6    2.24    0.20
  -4  -5   5    0.01    0.04
  -4  -5   5    0.06    0.04
   4   5  -5   -0.01    0.04
   4   5  -4    5.12    0.35
   4   5  -4    4.37    0.29
  -4  -5   4    4.90    0.35
  -4  -5   3   14.50    0.62
   4   5  -3   14.44    0.55
   4   5  -2    0.52    0.11
   4   5  -2    0.46    0.11
   4   5  -1   56.23    1.24
   4   5  -1   55.04    1.34
   4   5   0    2.11    0.20
   4   5   0    2.57    0.26
   4   5   1   13.99    0.58
   4   5   1   14.17    0.66
   4   5   2    4.07    0.31
   4   5   3   -0.07    0.07
   4   5   4    1.81    0.24
   4   5   5    0.48    0.14
  -4  -6  12    0.02    0.07
  -4  -6  11    0.42    0.13
  -4  -6  10    0.32    0.12
  -4  -6   9    4.86    0.40
  -4  -6   8    1.42    0.21
  -4  -6   8    1.64    0.19
   4   6  -8    1.29    0.17
  -4  -6   7    0.85    0.13
  -4  -6   7    0.69    0.15
   4   6  -7    0.76    0.13
   4   6  -7    0.64    0.12
   4   6  -6    5.21    0.32
   4   6  -6    5.44    0.35
  -4  -6   6    5.00    0.32
  -4  -6   6    5.53    0.40
  -4  -6   5    0.04    0.04
   4   6  -5    0.04    0.04
  -4  -6   5   -0.02    0.08
   4   6  -5    0.03    0.06
  -4  -6   4    1.74    0.23
   4   6  -4    1.83    0.21
   4   6  -3    3.84    0.30
   4   6  -2    0.10    0.06
   4   6  -2    0.17    0.07
   4   6  -1    3.64    0.26
   4   6  -1    3.37    0.31
   4   6   0    0.86    0.17
   4   6   0    0.76    0.13
   4   6   1    0.12    0.09
   4   6   1    0.14    0.06
   4   6   2    0.83    0.18
   4   6   2    0.75    0.14
   4   6   3    0.38    0.13
   4   6   3    0.19    0.07
   4   6   4    0.91    0.18
  -4  -7  12    0.42    0.15
  -4  -7  11    0.21    0.11
  -4  -7  10    5.76    0.45
   4   7  -9    2.12    0.24
  -4  -7   9    2.33    0.28
   4   7  -8    5.01    0.37
  -4  -7   8    4.74    0.40
  -4  -7   7    0.70    0.16
   4   7  -7    0.74    0.13
   4   7  -7    0.74    0.14
  -4  -7   6    2.14    0.26
   4   7  -6    1.72    0.18
   4   7  -5    0.07    0.03
   4   7  -5    0.04    0.06
   4   7  -4    3.04    0.29
   4   7  -3    2.84    0.22
   4   7  -3    2.76    0.28
   4   7  -2    2.56    0.22
   4   7  -2    2.24    0.26
   4   7  -1    2.01    0.20
   4   7  -1    2.05    0.26
   4   7   0   -0.02    0.06
   4   7   0    0.16    0.06
   4   7   1    0.29    0.11
   4   7   1    0.32    0.09
  -4  -8  11   -0.02    0.06
   4   8 -10    1.82    0.25
  -4  -8  10    1.59    0.25
   4   8  -9   -0.06    0.07
  -4  -8   9    0.11    0.08
   4   8  -8    0.20    0.09
  -4  -8   8    0.46    0.13
   4   8  -7    0.10    0.07
   4   8  -6    1.08    0.19
   4   8  -5    0.92    0.18
   4   8  -4    0.27    0.07
   4   8  -4    0.17    0.08
   4   8  -3    2.49    0.29
   4   8  -2    3.95    0.38
   4   8  -1    0.29    0.10
   4   8   0    0.25    0.11
   4   9 -11    0.71    0.17
   4   9 -10    0.02    0.08
   4   9  -9    1.73    0.25
   4   9  -8   -0.28    0.11
   4   9  -7    0.22    0.10
   4   9  -6    0.01    0.07
   4   9  -5    0.23    0.11
   4   9  -4    0.38    0.12
   4   9  -3    0.51    0.14
   4   9  -2    1.28    0.24
   4  10 -10    0.13    0.11
   4  10  -9    1.47    0.24
   4  10  -8   -0.07    0.07
   4  10  -7    3.10    0.35
   4  10  -6    0.20    0.10
   4  10  -5    0.05    0.07
  -5  11  -1    0.16    0.09
  -5  11  -2    0.85    0.19
  -5  11  -3    1.08    0.21
  -5  11  -4    0.03    0.07
  -5  11  -5    1.48    0.25
  -5  11  -6    0.66    0.18
  -5  10   2    0.55    0.16
  -5  10   1    0.18    0.10
  -5  10   0    0.49    0.15
  -5  10  -1    2.49    0.30
  -5  10  -2    0.03    0.07
  -5  10  -3    0.13    0.09
  -5  10  -4    0.45    0.13
  -5  10  -5   -0.02    0.06
  -5  10  -6    0.24    0.11
  -5  10  -7    1.26    0.23
  -5  10  -8    1.57    0.26
  -5   9   3    3.15    0.34
  -5   9   2    5.14    0.43
  -5   9   1    0.50    0.13
  -5   9   0    0.62    0.14
  -5   9  -1    0.54    0.13
  -5   9  -2    5.50    0.41
   5  -9   3    4.37    0.12
   5  -9   3    4.21    0.12
  -5   9  -3    4.82    0.39
   5  -9   4    5.16    0.19
  -5   9  -4    5.35    0.41
   5  -9   5    0.76    0.09
  -5   9  -5    0.67    0.13
  -5   9  -5    0.91    0.18
  -5   9  -6   -0.04    0.06
  -5   9  -6   -0.05    0.06
   5  -9   7    0.47    0.09
  -5   9  -7    0.78    0.18
   5  -9   8    0.35    0.09
   5  -9   9    0.05    0.07
   5  -9  10    1.33    0.20
   5  -9  11   -0.04    0.05
  -5   8   5    0.43    0.14
  -5   8   4    0.00    0.04
  -5   8   3    0.00    0.06
  -5   8   2    0.14    0.08
   5  -8  -1    0.93    0.11
  -5   8   1    0.87    0.16
   5  -8   0    0.46    0.07
  -5   8   0    0.33    0.11
   5  -8   1    0.10    0.03
  -5   8  -1    0.05    0.06
   5  -8   2    0.13    0.04
   5  -8   2    0.15    0.04
  -5   8  -2    0.16    0.09
   5  -8   3    1.18    0.10
  -5   8  -3    1.30    0.19
  -5   8  -4   -0.01    0.05
   5  -8   4    0.00    0.02
  -5   8  -5    0.45    0.09
  -5   8  -5    0.30    0.10
   5  -8   6    0.09    0.04
  -5   8  -6    0.05    0.05
  -5   8  -6    0.00    0.03
   5  -8   7    0.79    0.13
   5  -8   8    0.43    0.11
   5  -8   9    0.02    0.04
   5  -8  10    0.27    0.10
   5  -8  11   -0.08    0.07
  -5   7   6    2.58    0.30
  -5   7   5    4.52    0.38
  -5   7   4    1.36    0.20
   5  -7  -3   -0.13    0.06
  -5   7   3    0.05    0.05
   5  -7  -2    2.23    0.19
  -5   7   2    1.70    0.21
   5  -7  -1   12.27    0.43
  -5   7   1   12.29    0.56
   5  -7   0    1.69    0.14
  -5   7   0    1.83    0.21
   5  -7   1    2.76    0.17
  -5   7  -1    2.75    0.25
   5  -7   1    2.89    0.24
   5  -7   2    0.04    0.04
   5  -7   2    0.02    0.02
  -5   7  -2   -0.02    0.05
  -5   7  -3    0.19    0.08
   5  -7   3    0.25    0.07
  -5   7  -4    0.57    0.12
   5  -7   4    0.59    0.12
   5  -7   5    8.33    0.37
  -5   7  -5    8.33    0.48
  -5   7  -6    0.69    0.15
  -5   7  -6    0.75    0.09
   5  -7   6    0.71    0.11
   5  -7   7    3.36    0.27
  -5   7  -7    3.38    0.15
   5  -7   8    0.02    0.06
   5  -7   9    1.49    0.21
   5  -7  10    0.15    0.08
  -5   6   7   -0.20    0.09
  -5   6   6    0.04    0.05
  -5   6   6    0.17    0.11
  -5   6   5    0.39    0.10
  -5   6   4    0.47    0.11
   5  -6  -4    0.36    0.09
   5  -6  -3    5.45    0.32
  -5   6   3    5.70    0.36
   5  -6  -2   11.94    0.45
  -5   6   2   11.36    0.50
   5  -6  -1   10.03    0.39
  -5   6   1   10.53    0.46
   5  -6   0    2.95    0.19
   5  -6   0    2.95    0.23
  -5   6   0    3.10    0.24
   5  -6   1    0.54    0.10
  -5   6  -1    0.36    0.09
  -5   6  -2    0.07    0.05
   5  -6   2    0.08    0.06
  -5   6  -3    0.69    0.13
   5  -6   3    0.56    0.11
   5  -6   4   32.45    0.82
  -5   6  -4   31.46    0.94
   5  -6   4   33.31    0.95
   5  -6   5    1.54    0.16
   5  -6   5    1.76    0.21
  -5   6  -5    1.87    0.13
  -5   6  -6   38.80    0.66
   5  -6   6   36.46    0.99
  -5   6  -6   38.37    0.66
   5  -6   7    0.04    0.05
   5  -6   8    0.17    0.10
   5  -6   9    0.69    0.16
   5  -6  10    0.01    0.06
  -5   5   8    1.20    0.20
  -5   5   7    0.62    0.14
  -5   5   7    0.75    0.18
  -5   5   6    1.19    0.18
  -5   5   6    1.36    0.23
  -5   5   5    0.21    0.07
  -5   5   5    0.27    0.12
   5  -5  -4    6.27    0.36
  -5   5   4    5.93    0.35
   5  -5  -3   11.30    0.47
  -5   5   3   11.23    0.47
   5  -5  -2   36.99    0.90
  -5   5   2   36.00    0.91
   5  -5  -1    3.25    0.21
   5  -5   0   10.63    0.40
   5  -5   1    9.43    0.39
  -5   5  -2    6.51    0.33
   5  -5   2    7.41    0.35
  -5   5  -3    1.31    0.16
   5  -5   3    1.44    0.16
  -5   5  -4   22.65    0.53
   5  -5   4   24.16    0.70
   5  -5   4   25.12    0.77
  -5   5  -5   21.05    0.39
   5  -5   5   21.44    0.70
  -5   5  -5   21.50    0.38
   5  -5   6    6.76    0.39
   5  -5   7    1.78    0.21
   5  -5   8    0.40    0.12
   5  -5   9    0.19    0.11
   5  -5  10   -0.01    0.09
  -5   4   8    0.08    0.09
  -5   4   7    1.07    0.21
  -5   4   6    0.12    0.08
  -5   4   6    0.10    0.08
  -5   4   5   -0.05    0.06
  -5   4   5    0.00    0.06
  -5   4   4    1.23    0.18
   5  -4  -4    1.41    0.17
  -5   4   4    1.45    0.15
  -5   4   3    3.89    0.31
   5  -4  -3    3.84    0.26
  -5   4   2    4.50    0.31
   5  -4  -2    4.65    0.27
  -5   4   1    0.10    0.05
   5  -4   0    0.15    0.05
  -5   4   0    0.12    0.05
  -5   4  -1    1.21    0.13
   5  -4   1    1.14    0.12
  -5   4  -2    0.08    0.03
   5  -4   2    0.03    0.04
  -5   4  -3    3.11    0.16
   5  -4   3    3.16    0.23
   5  -4   3    3.08    0.23
  -5   4  -4    0.22    0.03
   5  -4   4    0.20    0.07
   5  -4   5    3.84    0.28
   5  -4   5    3.55    0.29
   5  -4   6    0.00    0.06
   5  -4   7    0.06    0.06
   5  -4   8    0.00    0.07
   5  -4   9    0.19    0.07
  -5   3   9    0.77    0.18
  -5   3   8    1.56    0.25
  -5   3   7    1.65    0.24
  -5   3   6    0.84    0.16
  -5   3   5    6.06    0.41
   5  -3  -5    6.39    0.38
   5  -3  -4    1.45    0.17
  -5   3   4    1.31    0.18
   5  -3  -3    5.85    0.32
  -5   3   3    6.52    0.37
  -5   3   3    5.60    0.24
  -5   3   2    1.62    0.17
  -5   3   2    1.52    0.11
  -5   3   1    2.09    0.13
  -5   3   1    2.31    0.19
   5  -3  -1    2.05    0.13
  -5   3   0    0.54    0.09
  -5   3   0    0.38    0.06
   5  -3   0    0.47    0.06
  -5   3  -1    6.47    0.28
   5  -3   1    6.56    0.27
  -5   3  -2    0.38    0.06
   5  -3   2    0.36    0.07
   5  -3   3    0.37    0.09
  -5   3  -3    0.25    0.04
   5  -3   3    0.23    0.06
   5  -3   4    0.04    0.04
   5  -3   4    0.03    0.05
   5  -3   5    0.01    0.05
   5  -3   5   -0.01    0.05
   5  -3   6   -0.10    0.07
   5  -3   7    0.59    0.14
   5  -3   8    0.43    0.12
   5  -3   9   -0.07    0.06
  -5   2  10    4.96    0.45
  -5   2   9    0.43    0.14
  -5   2   8   14.21    0.72
  -5   2   7    0.09    0.06
  -5   2   6    3.70    0.32
   5  -2  -5    7.26    0.40
  -5   2   5    6.93    0.42
   5  -2  -4    2.97    0.24
  -5   2   4    2.57    0.23
  -5   2   4    2.47    0.14
   5  -2  -3   14.63    0.52
  -5   2   3   13.73    0.54
  -5   2   3   13.68    0.33
  -5   2   2   -0.03    0.06
  -5   2   2    0.05    0.02
  -5   2   1    2.37    0.19
   5  -2  -1    2.32    0.11
  -5   2   0    7.20    0.30
   5  -2   0    6.95    0.24
  -5   2  -1    0.86    0.09
   5  -2   1    0.69    0.08
   5  -2   2    4.43    0.27
  -5   2  -2    4.22    0.18
   5  -2   3    0.61    0.11
   5  -2   3    0.73    0.11
  -5   2  -3    0.62    0.05
   5  -2   4    0.58    0.11
   5  -2   5    0.77    0.14
   5  -2   6    2.45    0.26
   5  -2   7    1.04    0.18
   5  -2   8    0.51    0.14
  -5   1  10   -0.08    0.06
  -5   1   9    0.94    0.19
  -5   1   8    0.18    0.08
  -5   1   7    4.19    0.35
  -5   1   6    0.19    0.08
  -5   1   5    0.37    0.10
   5  -1  -5    0.38    0.09
   5  -1  -4    2.35    0.21
  -5   1   4    1.95    0.20
  -5   1   4    1.99    0.10
   5  -1  -3    0.67    0.11
  -5   1   3    0.81    0.13
   5  -1  -2    0.03    0.04
  -5   1   2   -0.01    0.04
   5  -1  -1   12.28    0.44
  -5   1   1   13.06    0.45
   5  -1  -1   12.85    0.27
  -5   1   0    0.00    0.03
   5  -1   0    0.00    0.02
   5  -1   1    1.19    0.11
  -5   1  -1    1.48    0.12
   5  -1   2    0.03    0.05
   5  -1   2    0.02    0.02
  -5   1  -2    0.08    0.03
   5  -1   3    3.69    0.16
   5  -1   3    3.28    0.26
   5  -1   4    0.23    0.08
   5  -1   4    0.21    0.03
   5  -1   5   -0.03    0.01
   5  -1   5   -0.02    0.05
   5  -1   6    0.20    0.09
   5  -1   7    0.05    0.06
   5  -1   8    0.10    0.07
  -5   0  11    0.35    0.14
  -5   0  10    0.07    0.06
  -5   0   9    0.26    0.11
  -5   0   9    0.21    0.07
  -5   0   8    0.17    0.07
  -5   0   8    0.24    0.07
  -5   0   7    0.95    0.11
  -5   0   7    0.76    0.15
   5   0  -6    1.73    0.20
   5   0  -6    1.79    0.20
  -5   0   6    1.50    0.19
  -5   0   6    1.58    0.12
   5   0  -5    2.88    0.24
   5   0  -5    2.95    0.25
  -5   0   5    2.72    0.24
  -5   0   5    2.57    0.13
   5   0  -4    5.50    0.32
   5   0  -4    5.16    0.32
  -5   0   4    4.80    0.31
   5   0  -3   28.32    0.80
  -5   0   3   29.77    0.81
   5   0  -2    1.18    0.14
  -5   0   2    1.40    0.15
   5   0  -1   55.52    1.15
  -5   0   1   55.06    1.14
   5   0   0    3.58    0.22
  -5   0   0    3.55    0.21
   5   0   1   13.88    0.44
  -5   0  -1   14.09    0.44
   5   0   2    3.26    0.19
   5   0   2    3.03    0.24
   5   0   3    2.03    0.21
   5   0   3    1.78    0.13
   5   0   4    0.04    0.03
   5   0   4   -0.06    0.08
   5   0   5    2.50    0.27
   5   0   5    2.85    0.16
   5   0   6    0.28    0.11
   5   0   7    0.17    0.08
  -5  -1  11    0.26    0.11
  -5  -1  10    1.79    0.25
  -5  -1   9    3.76    0.35
  -5  -1   9    4.02    0.28
  -5  -1   8    9.64    0.54
  -5  -1   8    9.27    0.40
  -5  -1   7    5.51    0.39
  -5  -1   7    5.44    0.26
   5   1  -6   62.25    1.42
   5   1  -6   64.33    1.46
  -5  -1   6   56.89    1.40
  -5  -1   6   56.94    1.08
   5   1  -5   11.97    0.50
   5   1  -5   11.63    0.52
  -5  -1   5   11.32    0.51
  -5  -1   5   10.42    0.28
   5   1  -4   36.72    0.98
  -5  -1   4   37.43    0.98
   5   1  -3   16.46    0.58
  -5  -1   3   15.69    0.56
   5   1  -3   15.56    0.31
   5   1  -2    5.68    0.32
  -5  -1   2    5.63    0.31
   5   1  -2    6.42    0.20
   5   1  -1    2.22    0.19
  -5  -1   1    2.25    0.19
   5   1   0   13.14    0.46
  -5  -1   0   13.04    0.46
  -5  -1  -1    1.56    0.15
   5   1   1    1.58    0.17
   5   1   1    1.48    0.14
   5   1   2    9.20    0.45
   5   1   2    8.53    0.35
   5   1   3    2.22    0.23
   5   1   3    2.09    0.17
   5   1   4    2.21    0.24
   5   1   4    2.28    0.18
   5   1   5    1.14    0.19
   5   1   6    0.41    0.12
   5   1   7    0.26    0.12
  -5  -2  12    4.07    0.40
  -5  -2  11    2.16    0.28
  -5  -2  10    4.99    0.41
  -5  -2   9    4.62    0.38
  -5  -2   9    5.06    0.31
  -5  -2   8   15.48    0.69
  -5  -2   8   16.02    0.54
  -5  -2   7    0.04    0.05
  -5  -2   7    0.01    0.03
   5   2  -6   12.79    0.55
   5   2  -6   14.57    0.61
  -5  -2   6   13.40    0.58
  -5  -2   6   13.46    0.39
  -5  -2   5    0.00    0.02
  -5  -2   5    0.07    0.07
   5   2  -5    0.03    0.04
   5   2  -5   -0.03    0.05
  -5  -2   4    0.21    0.07
   5   2  -4    0.27    0.08
   5   2  -4    0.17    0.04
   5   2  -3    2.35    0.22
  -5  -2   3    2.60    0.23
   5   2  -3    2.74    0.15
   5   2  -2    0.01    0.02
  -5  -2   2    0.03    0.05
   5   2  -2    0.02    0.04
   5   2  -1    0.81    0.10
   5   2  -1    0.72    0.11
  -5  -2   1    0.83    0.12
   5   2   0    0.78    0.12
  -5  -2   0    0.95    0.13
   5   2   1    5.32    0.33
   5   2   1    4.98    0.29
   5   2   2    0.03    0.04
   5   2   2   -0.04    0.05
   5   2   3    0.42    0.09
   5   2   3    0.39    0.11
   5   2   4    0.01    0.06
   5   2   4    0.05    0.05
   5   2   5    1.93    0.25
   5   2   6    0.33    0.13
  -5  -3  12    1.40    0.23
  -5  -3  11    2.32    0.29
  -5  -3  10    0.95    0.19
  -5  -3   9    0.18    0.08
  -5  -3   9    0.05    0.04
  -5  -3   8    0.02    0.06
  -5  -3   8    0.08    0.04
  -5  -3   7    1.48    0.20
  -5  -3   7    1.68    0.15
   5   3  -6    0.27    0.08
  -5  -3   6    0.07    0.06
  -5  -3   6    0.19    0.05
  -5  -3   5    0.60    0.08
   5   3  -5    0.79    0.09
   5   3  -5    0.68    0.13
  -5  -3   5    0.66    0.13
   5   3  -4    2.89    0.26
   5   3  -4    2.78    0.17
  -5  -3   4    3.09    0.26
   5   3  -3    1.52    0.18
   5   3  -3    1.60    0.14
  -5  -3   3    1.52    0.18
   5   3  -2    5.35    0.33
   5   3  -2    4.76    0.26
  -5  -3   2    4.84    0.32
   5   3  -1    2.31    0.22
   5   3  -1    2.19    0.19
  -5  -3   1    2.18    0.21
   5   3   0    6.69    0.37
   5   3   0    6.68    0.37
   5   3   1   -0.01    0.05
   5   3   1    0.08    0.06
   5   3   2   10.28    0.52
   5   3   2   10.60    0.49
   5   3   3    0.40    0.10
   5   3   3    0.38    0.11
   5   3   4    6.76    0.45
   5   3   5    0.28    0.11
  -5  -4  12    0.49    0.14
  -5  -4  11    6.01    0.47
  -5  -4  10    0.09    0.07
  -5  -4   9    0.15    0.08
  -5  -4   9    0.21    0.06
  -5  -4   8   -0.01    0.07
  -5  -4   8    0.03    0.03
   5   4  -7    3.83    0.25
  -5  -4   7    3.22    0.31
  -5  -4   7    3.69    0.24
  -5  -4   6    1.25    0.19
   5   4  -6    1.38    0.14
  -5  -4   6    1.22    0.13
  -5  -4   5    0.04    0.03
   5   4  -5    0.10    0.04
   5   4  -4    7.22    0.43
   5   4  -4    6.91    0.33
  -5  -4   4    6.53    0.41
   5   4  -3    9.57    0.48
   5   4  -3    9.94    0.41
  -5  -4   3    9.54    0.49
  -5  -4   2    1.52    0.19
   5   4  -2    1.81    0.20
   5   4  -2    1.76    0.18
   5   4  -1   60.33    1.44
   5   4  -1   61.50    1.37
   5   4   0    4.92    0.33
   5   4   0    5.57    0.37
   5   4   0    5.27    0.35
   5   4   1   29.20    0.92
   5   4   2   13.44    0.61
   5   4   3    0.47    0.13
   5   4   4    7.18    0.49
   5   4   5    0.83    0.17
  -5  -5  12   15.27    0.80
  -5  -5  11   -0.15    0.09
  -5  -5  10   21.54    0.91
  -5  -5   9    0.35    0.13
  -5  -5   9    0.26    0.08
   5   5  -8   27.08    0.82
  -5  -5   8   27.99    0.81
  -5  -5   8   29.90    1.04
  -5  -5   7    0.44    0.09
  -5  -5   7    0.62    0.15
   5   5  -7    0.55    0.11
   5   5  -6  150.99    2.72
   5   5  -6  151.73    2.64
  -5  -5   6  158.31    2.97
  -5  -5   5    0.29    0.10
   5   5  -5    0.39    0.10
   5   5  -4  209.41    3.47
  -5  -5   4  199.71    3.67
  -5  -5   3    0.44    0.13
   5   5  -3    0.14    0.07
   5   5  -2   55.41    1.34
   5   5  -1    0.05    0.06
   5   5  -1   -0.01    0.04
   5   5   0   20.66    0.74
   5   5   0   18.54    0.75
   5   5   1    0.30    0.11
   5   5   1    0.40    0.09
   5   5   2   23.23    0.86
   5   5   3    0.69    0.15
   5   5   4    1.25    0.21
  -5  -6  11    8.26    0.57
  -5  -6  10    2.58    0.31
  -5  -6   9   39.25    1.29
   5   6  -8    4.31    0.31
  -5  -6   8    4.15    0.30
  -5  -6   8    4.55    0.40
   5   6  -7   16.54    0.63
  -5  -6   7   15.84    0.60
  -5  -6   7   17.22    0.77
   5   6  -6   10.95    0.50
   5   6  -6    9.77    0.47
  -5  -6   6    9.58    0.56
  -5  -6   5    0.05    0.06
   5   6  -5    0.26    0.08
  -5  -6   4    3.42    0.33
   5   6  -4    2.54    0.25
   5   6  -3    0.53    0.12
   5   6  -2    0.40    0.10
   5   6  -2    0.20    0.08
   5   6  -1    0.12    0.09
   5   6  -1    0.08    0.07
   5   6   0    0.69    0.14
   5   6   0    0.61    0.14
   5   6   1    9.81    0.52
   5   6   1    9.72    0.59
   5   6   2    0.18    0.10
   5   6   2    0.16    0.08
   5   6   3    3.35    0.33
  -5  -7  10    1.00    0.20
  -5  -7   9    0.82    0.19
   5   7  -9    0.95    0.16
   5   7  -8    0.35    0.10
  -5  -7   8    0.22    0.09
   5   7  -7    0.71    0.14
  -5  -7   7    0.57    0.15
  -5  -7   6   -0.01    0.06
   5   7  -6    0.07    0.06
   5   7  -5    0.06    0.05
   5   7  -4    0.16    0.07
   5   7  -3    0.80    0.13
   5   7  -3    0.63    0.14
   5   7  -2    0.10    0.07
   5   7  -2    0.03    0.04
   5   7  -1    0.49    0.14
   5   7  -1    0.42    0.11
   5   7   0    1.72    0.26
   5   7   0    1.47    0.20
  -5  -8   9    0.15    0.08
   5   8  -9    0.02    0.05
  -5  -8   8    0.22    0.11
   5   8  -8    0.30    0.11
   5   8  -7    1.52    0.22
   5   8  -6    0.06    0.06
   5   8  -5    3.35    0.33
   5   8  -4    2.03    0.26
   5   8  -3    1.73    0.25
   5   8  -2    2.30    0.29
   5   8  -1    2.98    0.35
   5   9  -9    0.46    0.14
   5   9  -8    1.78    0.25
   5   9  -7    0.03    0.07
   5   9  -6    2.86    0.32
   5   9  -5    0.17    0.09
   5   9  -4   10.42    0.64
   5   9  -3    0.67    0.18
   5  10  -7    3.15    0.36
  -6  11  -1    4.03    0.40
  -6  11  -2    5.73    0.48
  -6  11  -3   12.67    0.72
  -6  11  -4    1.03    0.21
  -6  11  -5   11.75    0.70
  -6  11  -6    2.98    0.35
  -6  10   2    0.51    0.15
  -6  10   1    1.35    0.22
  -6  10   0    2.99    0.33
  -6  10  -1    0.83    0.18
  -6  10  -2    0.58    0.15
  -6  10  -3    0.23    0.10
  -6  10  -4    0.13    0.09
  -6  10  -5    0.02    0.06
  -6  10  -6    0.48    0.14
  -6  10  -7    0.16    0.09
  -6   9   4    0.17    0.08
  -6   9   3    1.83    0.26
  -6   9   2    0.42    0.13
  -6   9   1    0.04    0.06
  -6   9   0    2.91    0.30
  -6   9  -1    1.40    0.21
   6  -9   2    0.01    0.02
  -6   9  -2    0.08    0.08
   6  -9   3    9.12    0.32
  -6   9  -3    9.84    0.56
  -6   9  -4    0.03    0.06
   6  -9   5    2.49    0.18
  -6   9  -5    2.70    0.30
   6  -9   6    0.82    0.12
  -6   9  -6    0.63    0.16
  -6   9  -7   -0.04    0.05
   6  -9   7    0.02    0.04
   6  -9   8    0.05    0.05
   6  -9   9    0.23    0.09
   6  -9  10    4.50    0.38
  -6   8   5    0.52    0.14
  -6   8   4    2.38    0.28
  -6   8   3   -0.08    0.07
  -6   8   2    0.70    0.15
  -6   8   1    2.14    0.24
   6  -8   0    0.57    0.09
  -6   8   0    0.53    0.13
   6  -8   1    0.25    0.06
  -6   8  -1    0.29    0.10
  -6   8  -2    2.76    0.27
  -6   8  -3    0.06    0.07
   6  -8   4    5.09    0.28
  -6   8  -4    4.88    0.38
   6  -8   5    3.51    0.24
  -6   8  -5    3.65    0.33
   6  -8   6    1.50    0.17
  -6   8  -6    1.92    0.25
   6  -8   7    3.62    0.29
   6  -8   8    7.04    0.43
   6  -8   9   -0.15    0.08
   6  -8  10   11.01    0.63
  -6   7   6    0.16    0.08
  -6   7   5    2.12    0.31
  -6   7   5    2.22    0.26
  -6   7   4    0.07    0.05
   6  -7  -3    0.01    0.03
  -6   7   3    0.04    0.04
   6  -7  -2    0.05    0.04
  -6   7   2    0.03    0.06
   6  -7  -1   -0.03    0.03
  -6   7   1    0.10    0.04
   6  -7   0    0.07    0.04
  -6   7   0    0.04    0.05
   6  -7   1    0.37    0.09
  -6   7  -1    0.32    0.09
   6  -7   2    0.05    0.04
  -6   7  -2    0.00    0.04
   6  -7   3    0.15    0.05
  -6   7  -3    0.18    0.09
   6  -7   3    0.24    0.08
  -6   7  -4    0.00    0.06
   6  -7   4    0.01    0.05
  -6   7  -5    0.87    0.16
   6  -7   5    0.71    0.12
  -6   7  -6    0.12    0.03
  -6   7  -6    0.11    0.03
   6  -7   6    0.13    0.06
   6  -7   7    0.35    0.10
   6  -7   8   -0.01    0.05
   6  -7   9    0.60    0.15
   6  -7  10    0.24    0.11
  -6   6   7    0.18    0.08
  -6   6   6    0.01    0.04
  -6   6   6    0.26    0.11
  -6   6   5    0.04    0.05
  -6   6   5   -0.14    0.09
  -6   6   4    0.16    0.08
  -6   6   4    0.28    0.09
   6  -6  -3    5.43    0.34
  -6   6   3    5.25    0.33
   6  -6  -2    0.18    0.06
  -6   6   2    0.11    0.06
   6  -6  -1    2.02    0.18
  -6   6   1    2.02    0.20
   6  -6   0    0.01    0.03
  -6   6   0    0.05    0.05
  -6   6  -1    3.38    0.25
   6  -6   1    3.92    0.26
  -6   6  -2    0.42    0.10
   6  -6   2    0.37    0.09
   6  -6   3    0.05    0.05
  -6   6  -3   -0.01    0.05
   6  -6   3    0.04    0.06
  -6   6  -4    0.00    0.03
   6  -6   4    0.07    0.06
   6  -6   4   -0.04    0.05
  -6   6  -5   11.88    0.34
   6  -6   5   11.12    0.50
  -6   6  -5   12.57    0.34
   6  -6   6    0.07    0.05
   6  -6   7    1.56    0.21
   6  -6   8    0.07    0.06
   6  -6   9    0.03    0.06
  -6   5   8    0.78    0.15
  -6   5   7    0.09    0.07
  -6   5   7    0.22    0.10
  -6   5   6   -0.05    0.06
  -6   5   6    0.04    0.07
  -6   5   5    0.32    0.09
  -6   5   5    0.36    0.12
  -6   5   4   17.40    0.77
  -6   5   4   17.19    0.61
  -6   5   3    4.66    0.37
   6  -5  -3    4.56    0.30
  -6   5   3    4.28    0.27
   6  -5  -2   38.70    0.98
  -6   5   2   38.78    1.12
  -6   5   1    0.30    0.09
   6  -5   0    0.03    0.03
  -6   5   0    0.06    0.05
  -6   5  -1    0.92    0.13
   6  -5   1    0.86    0.11
  -6   5  -2    0.57    0.09
  -6   5  -2    0.42    0.09
   6  -5   2    0.59    0.10
  -6   5  -3    3.35    0.20
   6  -5   3    3.12    0.24
   6  -5   3    3.68    0.27
  -6   5  -4   13.06    0.36
   6  -5   4   12.08    0.52
   6  -5   4   13.24    0.56
   6  -5   5    6.52    0.39
   6  -5   6    0.93    0.16
   6  -5   7   -0.04    0.05
   6  -5   8    0.48    0.13
   6  -5   9    0.07    0.07
  -6   4   8    0.39    0.10
  -6   4   8    0.33    0.13
  -6   4   7    0.70    0.13
  -6   4   7    0.92    0.19
  -6   4   6   -0.02    0.04
  -6   4   6    0.12    0.07
  -6   4   5    0.74    0.11
  -6   4   5    0.92    0.18
   6  -4  -4   13.05    0.56
  -6   4   4   12.94    0.62
   6  -4  -3   23.78    0.75
  -6   4   3   22.02    0.80
   6  -4  -2    1.81    0.18
  -6   4   2    2.11    0.22
  -6   4   2    1.86    0.14
  -6   4   1    5.48    0.33
  -6   4   1    5.33    0.25
   6  -4  -1    5.20    0.24
  -6   4   0    9.12    0.41
  -6   4   0    8.64    0.33
   6  -4   0    8.74    0.33
  -6   4  -1    1.35    0.14
   6  -4   1    1.11    0.12
  -6   4  -2    0.20    0.06
   6  -4   2    0.10    0.04
  -6   4  -3   16.27    0.43
   6  -4   3   15.40    0.58
   6  -4   3   16.81    0.58
   6  -4   4    6.80    0.39
   6  -4   4    6.64    0.38
  -6   4  -4    6.62    0.17
   6  -4   5    0.16    0.06
   6  -4   6    0.61    0.14
   6  -4   7   18.09    0.77
   6  -4   8    0.19    0.10
   6  -4   9    9.48    0.61
  -6   3   9   -0.04    0.07
  -6   3   8    0.70    0.17
  -6   3   7   -0.26    0.11
  -6   3   6    0.00    0.04
  -6   3   6   -0.09    0.07
  -6   3   5    7.43    0.47
  -6   3   4    1.03    0.17
   6  -3  -4    0.86    0.13
  -6   3   4    0.95    0.10
   6  -3  -3    5.79    0.34
  -6   3   3    6.00    0.38
  -6   3   3    5.85    0.22
  -6   3   2    0.57    0.11
  -6   3   2    0.46    0.06
  -6   3   1    2.15    0.19
  -6   3   1    2.03    0.12
   6  -3  -1    2.24    0.12
  -6   3   0    1.42    0.15
   6  -3   0    1.34    0.11
  -6   3  -1    0.98    0.11
   6  -3   1    0.95    0.11
  -6   3  -2   10.68    0.36
   6  -3   2   10.69    0.41
   6  -3   3    0.03    0.06
  -6   3  -3    0.04    0.02
   6  -3   3    0.02    0.03
   6  -3   4   13.47    0.59
   6  -3   4   14.14    0.57
   6  -3   5    1.52    0.20
   6  -3   6    4.39    0.36
   6  -3   7    4.95    0.40
   6  -3   8    1.33    0.23
  -6   2   9    1.01    0.20
  -6   2   8   -0.03    0.05
  -6   2   7    1.56    0.23
  -6   2   6   -0.01    0.06
  -6   2   5    0.44    0.06
  -6   2   5    0.37    0.10
   6  -2  -4    0.10    0.04
  -6   2   4    0.15    0.03
  -6   2   3    1.64    0.19
  -6   2   2    3.20    0.25
  -6   2   1   10.17    0.43
   6  -2  -1   10.51    0.26
   6  -2   0    5.58    0.29
  -6   2   0    5.67    0.29
   6  -2   0    5.94    0.23
  -6   2  -1    0.45    0.07
   6  -2   1    0.46    0.08
   6  -2   1    0.48    0.07
   6  -2   2    6.83    0.27
   6  -2   2    6.58    0.37
   6  -2   2    6.97    0.33
  -6   2  -2    6.67    0.27
   6  -2   3    0.02    0.04
  -6   2  -3    0.03    0.02
   6  -2   3    0.02    0.04
   6  -2   4    6.24    0.40
   6  -2   4    6.42    0.38
   6  -2   5    3.21    0.30
   6  -2   6    2.34    0.27
   6  -2   7    3.60    0.36
   6  -2   8    0.61    0.16
  -6   1  10    0.20    0.11
  -6   1   9    0.43    0.13
  -6   1   8    0.96    0.19
  -6   1   8    0.88    0.12
  -6   1   7    1.41    0.13
  -6   1   7    1.39    0.21
  -6   1   6    0.19    0.08
  -6   1   6    0.06    0.03
   6  -1  -5    1.04    0.16
  -6   1   5    1.02    0.17
  -6   1   5    0.98    0.07
  -6   1   5    0.98    0.07
   6  -1  -4    0.26    0.08
   6  -1  -4    0.17    0.08
  -6   1   4    0.10    0.06
   6  -1  -3   11.17    0.49
  -6   1   3   11.08    0.49
   6  -1  -2   25.43    0.75
  -6   1   2   24.17    0.74
   6  -1  -1   21.32    0.65
  -6   1   1   21.66    0.64
   6  -1  -1   20.43    0.42
   6  -1   0    6.38    0.31
  -6   1   0    6.26    0.30
   6  -1   0    6.09    0.24
   6  -1   1    6.42    0.29
  -6   1  -1    5.98    0.28
   6  -1   2    0.45    0.10
   6  -1   2    0.47    0.07
  -6   1  -2    0.45    0.07
   6  -1   3    0.41    0.11
   6  -1   3    0.45    0.07
   6  -1   4    0.52    0.06
   6  -1   4    0.44    0.12
   6  -1   5    0.41    0.11
   6  -1   6    2.85    0.31
   6  -1   7    0.14    0.12
  -6   0  10   -0.01    0.08
  -6   0   9    0.65    0.17
  -6   0   8    0.12    0.08
  -6   0   8    0.01    0.02
  -6   0   7    0.52    0.13
  -6   0   7    0.52    0.07
  -6   0   6    0.69    0.07
  -6   0   6    0.67    0.14
   6   0  -5    3.96    0.30
   6   0  -5    4.41    0.33
  -6   0   5    4.34    0.33
   6   0  -4    0.11    0.06
  -6   0   4    0.06    0.06
  -6   0   3    0.78    0.13
   6   0  -3    0.77    0.13
  -6   0   2    0.68    0.11
   6   0  -2    0.75    0.12
   6   0  -1    1.72    0.17
  -6   0   1    1.76    0.17
   6   0   0   -0.01    0.03
  -6   0   0    0.00    0.03
   6   0   1    0.81    0.11
  -6   0  -1    0.89    0.11
   6   0   2    0.07    0.07
   6   0   2   -0.03    0.03
   6   0   3   -0.01    0.03
   6   0   3    0.03    0.07
   6   0   4    0.33    0.06
   6   0   4    0.15    0.09
   6   0   5    1.50    0.21
   6   0   6    0.04    0.06
   6   0   7   -0.06    0.10
  -6  -1  11    0.33    0.15
  -6  -1  10    0.26    0.11
  -6  -1   9    2.27    0.28
  -6  -1   8    0.86    0.10
  -6  -1   8    0.76    0.15
  -6  -1   7    0.16    0.04
  -6  -1   7    0.27    0.10
  -6  -1   6    4.17    0.34
  -6  -1   6    4.25    0.16
  -6  -1   5    0.05    0.06
   6   1  -5   -0.02    0.03
   6   1  -5   -0.01    0.05
  -6  -1   4    0.59    0.12
   6   1  -4    0.41    0.10
  -6  -1   3    0.51    0.11
   6   1  -3    0.46    0.10
   6   1  -3    0.36    0.03
   6   1  -2    0.70    0.12
  -6  -1   2    0.66    0.11
   6   1  -2    0.56    0.06
   6   1  -1    4.80    0.30
  -6  -1   1    4.55    0.29
  -6  -1   0    0.08    0.05
   6   1   0    0.05    0.04
  -6  -1  -1   16.23    0.56
   6   1   1   17.03    0.65
   6   1   2   -0.04    0.05
   6   1   2    0.00    0.03
   6   1   3    3.74    0.32
   6   1   3    3.78    0.24
   6   1   4    0.27    0.10
   6   1   5    0.29    0.11
   6   1   6    0.14    0.09
  -6  -2  11    0.64    0.17
  -6  -2  10    0.00    0.07
  -6  -2   9    0.08    0.09
  -6  -2   8    1.44    0.21
  -6  -2   8    1.59    0.14
  -6  -2   7    3.79    0.33
  -6  -2   7    3.73    0.19
  -6  -2   6    1.20    0.18
  -6  -2   6    1.27    0.09
  -6  -2   5    5.74    0.38
   6   2  -4    6.95    0.41
   6   2  -4    6.65    0.22
  -6  -2   4    6.53    0.39
   6   2  -3    5.69    0.36
   6   2  -3    5.16    0.21
  -6  -2   3    5.71    0.36
   6   2  -2    5.24    0.34
   6   2  -2    5.22    0.24
  -6  -2   2    5.57    0.35
   6   2  -1    3.16    0.25
   6   2  -1    3.24    0.21
  -6  -2   1    3.03    0.25
   6   2   0    2.58    0.22
  -6  -2   0    2.50    0.22
   6   2   1    0.21    0.09
   6   2   1    0.14    0.06
   6   2   2    0.43    0.09
   6   2   2    0.36    0.11
   6   2   3    0.45    0.10
   6   2   3    0.39    0.12
   6   2   4    0.96    0.18
   6   2   5    0.48    0.14
  -6  -3  11    0.00    0.07
  -6  -3  10    0.09    0.07
  -6  -3   9    1.14    0.21
  -6  -3   8    0.74    0.16
  -6  -3   8    0.58    0.09
  -6  -3   7    6.83    0.46
  -6  -3   7    7.01    0.29
  -6  -3   6    0.05    0.02
  -6  -3   6    0.04    0.06
   6   3  -5    0.68    0.09
  -6  -3   5    0.53    0.12
  -6  -3   4    0.15    0.08
   6   3  -4    0.19    0.05
  -6  -3   3    0.07    0.07
   6   3  -3   -0.02    0.07
   6   3  -3    0.05    0.03
   6   3  -2    8.45    0.45
   6   3  -2    7.93    0.36
  -6  -3   2    8.49    0.45
   6   3  -1    4.74    0.33
   6   3  -1    4.98    0.30
  -6  -3   1    4.83    0.34
   6   3   0    6.56    0.40
   6   3   0    7.81    0.42
   6   3   1    3.59    0.31
   6   3   1    3.60    0.28
   6   3   2    1.09    0.16
   6   3   2    0.88    0.16
   6   3   3    0.10    0.08
   6   3   4    0.32    0.11
   6   3   5    1.41    0.24
  -6  -4  11    0.28    0.11
  -6  -4  10    0.02    0.08
  -6  -4   9    3.31    0.34
  -6  -4   8    0.30    0.07
  -6  -4   8    0.41    0.14
  -6  -4   7    0.64    0.09
  -6  -4   7    0.56    0.14
   6   4  -6    2.57    0.19
  -6  -4   6    2.38    0.27
  -6  -4   5    0.35    0.10
   6   4  -5    0.36    0.08
   6   4  -4    3.80    0.25
  -6  -4   4    3.45    0.31
   6   4  -3    2.52    0.21
  -6  -4   3    2.48    0.26
   6   4  -2    0.50    0.10
  -6  -4   2    0.69    0.14
   6   4  -1    5.93    0.38
   6   4  -1    6.08    0.36
   6   4   0   -0.03    0.06
   6   4   0    0.09    0.05
   6   4   1    0.45    0.12
   6   4   2    0.07    0.06
   6   4   3   -0.11    0.08
   6   4   4    0.53    0.14
  -6  -5  11    3.95    0.41
  -6  -5  10    0.28    0.11
  -6  -5   9   24.91    1.01
  -6  -5   8    2.10    0.28
   6   5  -7   17.23    0.59
  -6  -5   7   16.41    0.57
  -6  -5   7   17.22    0.79
   6   5  -6    9.08    0.42
  -6  -5   6    9.67    0.57
  -6  -5   5    0.11    0.08
   6   5  -5    0.11    0.06
   6   5  -4    5.05    0.32
  -6  -5   4    4.69    0.38
  -6  -5   3    0.54    0.14
   6   5  -3    0.49    0.11
   6   5  -2    0.31    0.09
   6   5  -1    0.13    0.07
   6   5  -1    0.06    0.06
   6   5   0    1.37    0.20
   6   5   0    1.43    0.20
   6   5   1    8.89    0.52
   6   5   1    9.44    0.57
   6   5   2    1.29    0.22
   6   5   2    1.14    0.19
   6   5   3    6.73    0.48
  -6  -6  10   18.49    0.90
  -6  -6   9    0.35    0.14
   6   6  -8    8.64    0.44
  -6  -6   8    8.09    0.56
  -6  -6   7    0.09    0.08
   6   6  -7    0.08    0.05
   6   6  -6   14.12    0.58
  -6  -6   6   14.32    0.73
  -6  -6   5   -0.01    0.06
   6   6  -5    0.16    0.06
  -6  -6   4    0.24    0.11
   6   6  -4    0.08    0.04
   6   6  -3   -0.12    0.07
   6   6  -2   12.35    0.57
   6   6  -2   12.56    0.61
   6   6  -1   -0.04    0.05
   6   6  -1    0.00    0.05
   6   6   0   -0.06    0.07
   6   6   0   -0.14    0.07
   6   6   1    0.17    0.09
   6   6   1   -0.08    0.06
   6   6   2    2.86    0.31
  -6  -7   9    0.73    0.18
  -6  -7   8   -0.11    0.08
   6   7  -8    0.09    0.06
   6   7  -7   15.39    0.66
  -6  -7   7   16.08    0.82
  -6  -7   6    0.00    0.06
   6   7  -6    0.10    0.07
   6   7  -5    8.40    0.49
   6   7  -4    2.53    0.27
   6   7  -3    0.07    0.07
   6   7  -3   -0.04    0.08
   6   7  -2    1.26    0.21
   6   7  -2    1.45    0.20
   6   7  -1   -0.20    0.10
   6   7  -1    0.00    0.05
   6   7   0    0.32    0.12
   6   8  -7    3.12    0.31
   6   8  -6    1.78    0.24
   6   8  -5    0.09    0.07
   6   8  -4    0.73    0.17
   6   8  -3    0.02    0.06
   6   8  -2    0.59    0.16
   6   9  -6    5.31    0.44
   6   9  -5    0.31    0.11
   6   9  -4    5.94    0.49
  -7  11   0   16.94    0.84
  -7  11  -1    0.24    0.11
  -7  11  -2   14.46    0.77
  -7  11  -3    2.01    0.28
  -7  11  -4    4.03    0.40
  -7  11  -5    1.80    0.27
  -7  10   2    2.12    0.29
  -7  10   1    0.32    0.11
  -7  10   0    5.23    0.43
  -7  10  -1    0.10    0.08
  -7  10  -2    0.15    0.08
  -7  10  -3    0.04    0.06
  -7  10  -4    0.41    0.12
  -7  10  -5    1.44    0.23
  -7  10  -6    0.28    0.12
  -7   9   4    0.02    0.07
  -7   9   3    0.30    0.11
  -7   9   2    0.33    0.12
  -7   9   1    1.09    0.19
  -7   9   0    0.68    0.14
  -7   9  -1    0.66    0.15
  -7   9  -2    1.57    0.22
  -7   9  -3    0.48    0.13
   7  -9   3    0.39    0.08
   7  -9   4    1.77    0.17
  -7   9  -4    1.76    0.23
  -7   9  -5    0.10    0.07
   7  -9   5    0.00    0.04
  -7   9  -6    0.00    0.07
   7  -9   6    0.01    0.04
   7  -9   7    0.19    0.07
   7  -9   8    1.15    0.18
   7  -9   9    0.00    0.05
  -7   8   5    4.60    0.39
  -7   8   4    0.25    0.11
  -7   8   3    0.76    0.15
  -7   8   2    0.19    0.07
  -7   8   1    1.08    0.18
   7  -8   0    0.03    0.03
  -7   8   0    0.26    0.09
   7  -8   1    0.04    0.03
  -7   8  -1    0.00    0.05
   7  -8   2    6.04    0.32
  -7   8  -2    5.93    0.40
   7  -8   3    0.41    0.08
  -7   8  -3    0.63    0.14
   7  -8   4    3.26    0.25
  -7   8  -4    3.39    0.32
  -7   8  -5    8.61    0.39
   7  -8   5    8.38    0.42
  -7   8  -5    8.32    0.52
   7  -8   6    0.34    0.10
   7  -8   7    4.27    0.33
   7  -8   8    3.87    0.34
   7  -8   9    0.09    0.08
  -7   7   5    0.37    0.10
  -7   7   4    7.35    0.55
  -7   7   4    7.14    0.43
  -7   7   3    1.09    0.21
  -7   7   3    0.84    0.15
  -7   7   2    3.21    0.33
   7  -7  -2    3.10    0.26
  -7   7   2    3.66    0.29
   7  -7  -1    2.02    0.20
  -7   7   1    2.36    0.23
   7  -7   0   20.02    0.65
  -7   7   0   19.56    0.70
   7  -7   0   21.67    0.71
   7  -7   1    0.19    0.07
  -7   7  -1    0.38    0.10
  -7   7  -2   26.96    0.87
   7  -7   2   29.59    0.88
   7  -7   3   -0.01    0.04
  -7   7  -3   -0.02    0.04
  -7   7  -3    0.03    0.04
   7  -7   3    0.03    0.03
  -7   7  -4    8.03    0.37
   7  -7   4    8.48    0.43
  -7   7  -4    7.92    0.47
  -7   7  -5    3.10    0.19
   7  -7   5    2.29    0.23
   7  -7   6    0.73    0.14
   7  -7   7   -0.04    0.07
   7  -7   8    3.31    0.32
   7  -7   9    1.15    0.21
  -7   6   6    0.34    0.10
  -7   6   5    0.05    0.06
  -7   6   5    0.00    0.05
  -7   6   4   -0.21    0.10
  -7   6   4    0.04    0.05
  -7   6   3    3.40    0.34
  -7   6   3    3.36    0.26
  -7   6   2    0.00    0.06
   7  -6  -2    0.08    0.06
  -7   6   2    0.00    0.04
   7  -6  -1    0.09    0.05
  -7   6   1    0.16    0.09
  -7   6   1    0.01    0.04
   7  -6   0   -0.01    0.04
  -7   6   0   -0.03    0.05
  -7   6   0    0.03    0.04
   7  -6   1    0.33    0.08
  -7   6  -1    0.39    0.09
  -7   6  -2   -0.05    0.06
  -7   6  -2   -0.04    0.04
   7  -6   2    0.06    0.04
   7  -6   3    0.14    0.06
  -7   6  -3    0.17    0.06
   7  -6   3    0.18    0.07
  -7   6  -4    0.04    0.03
   7  -6   4    0.01    0.05
  -7   6  -5    0.32    0.04
  -7   6  -5    0.23    0.04
   7  -6   5    0.18    0.06
   7  -6   6   -0.08    0.09
   7  -6   7    0.13    0.08
   7  -6   8    0.13    0.08
   7  -6   9    0.19    0.12
  -7   5   6    0.78    0.14
  -7   5   6    0.48    0.14
  -7   5   5    0.30    0.11
  -7   5   5    0.13    0.06
  -7   5   4    0.89    0.18
  -7   5   4    1.06    0.13
   7  -5  -3    9.85    0.49
  -7   5   3   10.06    0.56
   7  -5  -2    1.97    0.20
  -7   5   2    1.74    0.22
  -7   5   1    2.77    0.26
   7  -5   0    0.20    0.05
  -7   5   0    0.14    0.07
  -7   5  -1    0.53    0.10
  -7   5  -1    0.71    0.11
   7  -5   1    0.63    0.10
  -7   5  -2    0.54    0.10
   7  -5   2    0.50    0.10
  -7   5  -3   10.58    0.38
   7  -5   3    9.92    0.48
   7  -5   3   10.96    0.48
  -7   5  -4    1.39    0.10
   7  -5   4    1.18    0.16
   7  -5   4    1.24    0.18
   7  -5   5    2.30    0.25
   7  -5   6    1.04    0.18
   7  -5   7    9.27    0.55
   7  -5   8    0.58    0.15
  -7   4   7    0.37    0.09
  -7   4   7    0.52    0.15
  -7   4   6    0.65    0.11
  -7   4   6    0.48    0.14
  -7   4   5    3.22    0.33
  -7   4   4    6.77    0.46
   7  -4  -3   10.42    0.49
  -7   4   3    9.77    0.53
  -7   4   3   10.23    0.34
  -7   4   2    0.49    0.12
  -7   4   2    0.54    0.07
   7  -4  -1    0.02    0.03
  -7   4   1    0.03    0.03
  -7   4   0    0.49    0.10
   7  -4   0    0.38    0.07
  -7   4  -1    0.83    0.12
   7  -4   1    0.82    0.11
  -7   4  -2   43.95    0.99
   7  -4   2   48.17    1.08
  -7   4  -3    0.17    0.05
   7  -4   3    0.18    0.09
   7  -4   3    0.11    0.06
   7  -4   4  118.34    2.37
   7  -4   4  120.81    2.30
  -7   4  -4  116.75    1.77
   7  -4   5    1.08    0.18
   7  -4   6   37.31    1.18
   7  -4   7    4.94    0.41
   7  -4   8   24.92    1.02
  -7   3   8    1.66    0.26
  -7   3   7    0.12    0.05
  -7   3   7    0.12    0.07
  -7   3   6    1.77    0.25
  -7   3   5    5.81    0.43
  -7   3   5    6.27    0.25
  -7   3   4   24.83    0.89
  -7   3   4   24.29    0.51
  -7   3   3    0.07    0.06
  -7   3   3    0.03    0.01
  -7   3   2   10.67    0.51
  -7   3   1   41.33    1.07
   7  -3  -1   42.08    0.77
  -7   3   0   17.52    0.60
   7  -3   0   17.69    0.47
  -7   3  -1   34.71    0.86
   7  -3   1   36.27    0.83
  -7   3  -2   61.90    1.20
   7  -3   2   62.45    1.31
   7  -3   3    7.79    0.40
  -7   3  -3    7.51    0.27
   7  -3   4   38.55    1.15
   7  -3   4   40.90    1.10
   7  -3   5   16.65    0.73
   7  -3   6    5.97    0.44
   7  -3   7    7.41    0.52
  -7   2   9    2.86    0.35
  -7   2   8    0.14    0.10
  -7   2   7    2.51    0.30
  -7   2   6    1.06    0.09
  -7   2   6    1.20    0.20
  -7   2   6    0.95    0.09
  -7   2   5    0.76    0.05
  -7   2   5    1.11    0.19
  -7   2   5    0.95    0.06
  -7   2   4    7.70    0.46
  -7   2   3   16.83    0.66
  -7   2   2    4.13    0.30
  -7   2   1   29.00    0.84
   7  -2  -1   29.83    0.55
   7  -2   0    1.57    0.16
  -7   2   0    1.59    0.16
   7  -2   0    1.71    0.13
   7  -2   1    3.57    0.23
  -7   2  -1    3.17    0.22
   7  -2   1    3.14    0.20
   7  -2   2    0.74    0.14
   7  -2   2    0.92    0.11
   7  -2   2    0.90    0.12
  -7   2  -2    0.73    0.09
   7  -2   3    0.92    0.16
   7  -2   3    0.84    0.13
  -7   2  -3    1.01    0.10
   7  -2   4    0.15    0.08
   7  -2   5    3.08    0.32
   7  -2   6    1.80    0.25
   7  -2   7    0.48    0.15
  -7   1   9    2.22    0.30
  -7   1   8    0.17    0.10
  -7   1   7   -0.04    0.02
  -7   1   7    0.03    0.09
  -7   1   7    0.02    0.02
  -7   1   6    0.59    0.15
  -7   1   5    0.24    0.10
  -7   1   4    4.29    0.34
   7  -1  -3    5.42    0.36
  -7   1   3    5.30    0.35
   7  -1  -2    5.39    0.34
  -7   1   2    5.28    0.33
   7  -1  -1    7.42    0.38
  -7   1   1    7.56    0.38
   7  -1  -1    7.52    0.23
   7  -1   0    0.48    0.09
  -7   1   0    0.40    0.09
   7  -1   0    0.38    0.06
   7  -1   1    0.12    0.05
  -7   1  -1    0.17    0.05
   7  -1   2    0.36    0.10
  -7   1  -2    0.30    0.07
   7  -1   2    0.34    0.07
   7  -1   3    0.22    0.09
   7  -1   3    0.32    0.06
   7  -1   4    0.14    0.07
   7  -1   5    0.43    0.12
   7  -1   6    0.05    0.06
  -7   0  10    3.62    0.39
  -7   0   9    2.21    0.30
  -7   0   8    1.30    0.22
  -7   0   7    0.12    0.08
  -7   0   7    0.12    0.02
  -7   0   6    0.55    0.13
  -7   0   5    0.56    0.13
  -7   0   4    0.40    0.12
  -7   0   3    0.46    0.11
   7   0  -3    0.31    0.09
   7   0  -2    5.66    0.35
  -7   0   2    4.97    0.33
   7   0  -1    1.80    0.19
  -7   0   1    1.90    0.19
  -7   0   0    0.23    0.07
   7   0   0    0.15    0.05
   7   0   1    5.46    0.30
  -7   0  -1    5.22    0.30
   7   0   2    0.02    0.06
   7   0   2    0.03    0.03
   7   0   3    1.77    0.16
   7   0   3    1.77    0.23
   7   0   4    8.53    0.54
   7   0   5   -0.12    0.08
   7   0   6    7.26    0.53
  -7  -1  10    0.29    0.13
  -7  -1   9    3.46    0.37
  -7  -1   8    0.08    0.07
  -7  -1   7    0.95    0.17
  -7  -1   6    0.00    0.06
  -7  -1   5    1.30    0.19
  -7  -1   4    0.24    0.08
   7   1  -3    8.05    0.44
  -7  -1   3    6.57    0.40
   7   1  -2    0.14    0.04
   7   1  -2    0.26    0.08
  -7  -1   2    0.12    0.06
  -7  -1   1   -0.03    0.06
   7   1  -1    0.01    0.04
   7   1   0   -0.03    0.03
  -7  -1   0    0.04    0.05
  -7  -1  -1    3.46    0.26
   7   1   1    3.88    0.27
   7   1   1    3.24    0.29
   7   1   2    0.01    0.06
   7   1   2    0.02    0.03
   7   1   3    1.35    0.21
   7   1   4   -0.20    0.09
   7   1   5    0.55    0.14
  -7  -2  10    0.29    0.12
  -7  -2   9    0.50    0.14
  -7  -2   8    0.11    0.08
  -7  -2   7    3.44    0.33
  -7  -2   6    0.20    0.09
  -7  -2   5    0.79    0.15
   7   2  -4    0.39    0.05
  -7  -2   4    0.42    0.11
  -7  -2   3    0.09    0.06
   7   2  -3    0.07    0.03
   7   2  -2    0.28    0.06
  -7  -2   2    0.14    0.08
   7   2  -2    0.28    0.09
   7   2  -1    0.06    0.04
  -7  -2   1    0.06    0.05
   7   2  -1   -0.02    0.03
  -7  -2   0    0.05    0.05
   7   2   0   -0.04    0.04
   7   2   1    0.08    0.05
   7   2   1    0.06    0.07
   7   2   2    0.03    0.04
   7   2   2   -0.03    0.07
   7   2   3    1.32    0.21
   7   2   4    0.11    0.07
  -7  -3  10    0.41    0.13
  -7  -3   9    0.18    0.10
  -7  -3   8    1.63    0.24
  -7  -3   7    0.08    0.06
  -7  -3   6    0.48    0.14
   7   3  -5    3.56    0.18
  -7  -3   5    3.71    0.33
  -7  -3   4    0.49    0.12
   7   3  -4    0.48    0.07
   7   3  -3    4.21    0.24
  -7  -3   3    4.01    0.34
  -7  -3   2    1.11    0.18
   7   3  -2    1.38    0.15
   7   3  -1    1.71    0.18
  -7  -3   1    1.49    0.20
   7   3   0    4.25    0.35
   7   3   0    3.87    0.30
   7   3   1    0.58    0.14
   7   3   2    0.39    0.12
   7   3   3   -0.04    0.08
  -7  -4  10    4.56    0.44
  -7  -4   9    3.77    0.39
  -7  -4   8    8.53    0.57
  -7  -4   7    3.41    0.35
   7   4  -6    1.97    0.16
  -7  -4   6    2.10    0.27
  -7  -4   5    0.37    0.12
   7   4  -5    0.23    0.06
   7   4  -4    1.72    0.17
  -7  -4   4    1.59    0.22
   7   4  -3    2.18    0.20
  -7  -4   3    2.60    0.28
  -7  -4   2    2.19    0.26
   7   4  -2    2.33    0.22
   7   4  -1    5.32    0.39
   7   4  -1    5.66    0.36
   7   4   0   -0.03    0.05
   7   4   0    0.04    0.06
   7   4   1    0.02    0.06
   7   4   1    0.09    0.07
   7   4   2    0.13    0.06
   7   4   3    0.71    0.16
  -7  -5   9    0.91    0.20
  -7  -5   8    0.28    0.12
  -7  -5   7    0.41    0.14
  -7  -5   6   -0.06    0.07
   7   5  -6    0.01    0.03
  -7  -5   5    0.28    0.10
   7   5  -5    0.53    0.10
  -7  -5   4   -0.18    0.09
   7   5  -4    0.02    0.05
  -7  -5   3    0.20    0.08
   7   5  -3    0.25    0.08
   7   5  -2   -0.05    0.08
   7   5  -2    0.04    0.05
   7   5  -1    0.58    0.13
   7   5  -1    0.63    0.14
   7   5   0    0.92    0.17
   7   5   0    0.44    0.12
   7   5   1    5.00    0.41
   7   5   1    5.09    0.42
   7   5   2    1.98    0.28
   7   5   2    1.87    0.26
  -7  -6   8    0.14    0.11
  -7  -6   7   12.05    0.70
  -7  -6   6    0.15    0.10
   7   6  -5   11.80    0.54
  -7  -6   5   11.45    0.67
   7   6  -4    1.27    0.18
   7   6  -3    0.10    0.06
   7   6  -2    0.85    0.16
   7   6  -2    0.92    0.17
   7   6  -1    0.06    0.07
   7   6  -1    0.02    0.04
   7   6   0    0.29    0.11
   7   6   0    0.30    0.10
   7   6   1    1.67    0.24
   7   7  -4    0.25    0.09
   7   7  -3    0.17    0.09
   7   7  -3   -0.20    0.09
   7   7  -2    0.53    0.14
   7   7  -1   -0.05    0.07
  -8  11   0   -0.27    0.12
  -8  11  -1    0.11    0.08
  -8  11  -2   -0.03    0.05
  -8  11  -3    0.17    0.09
  -8  11  -4   -0.04    0.07
  -8  10   1    0.00    0.04
  -8  10   0    0.80    0.17
  -8  10  -1    0.19    0.10
  -8  10  -2    0.02    0.05
  -8  10  -3    0.98    0.19
  -8  10  -4    0.05    0.06
  -8  10  -5    0.31    0.11
  -8   9   2    0.45    0.12
  -8   9   1    1.99    0.24
  -8   9   0    0.02    0.05
  -8   9  -1    0.17    0.08
   8  -9   2    1.78    0.18
  -8   9  -2    1.70    0.23
   8  -9   3    0.32    0.09
  -8   9  -3    0.32    0.10
  -8   9  -3    0.18    0.08
  -8   9  -4    0.36    0.10
  -8   9  -4    0.37    0.10
   8  -9   4    0.44    0.10
  -8   9  -5    0.14    0.10
   8  -9   5    0.33    0.09
   8  -9   6    0.58    0.12
   8  -9   7    0.11    0.07
   8  -9   8   -0.01    0.05
  -8   8   3    0.01    0.08
  -8   8   3   -0.01    0.04
  -8   8   2   -0.10    0.09
  -8   8   2   -0.16    0.07
  -8   8   1    0.48    0.14
  -8   8   1    0.34    0.10
  -8   8   0    0.77    0.16
  -8   8   0    0.84    0.15
  -8   8  -1    1.36    0.20
  -8   8  -1    1.27    0.18
  -8   8  -2    5.39    0.38
   8  -8   2    4.65    0.31
  -8   8  -2    4.82    0.36
   8  -8   3    1.01    0.15
  -8   8  -3    1.30    0.17
  -8   8  -3    0.86    0.16
  -8   8  -4    0.93    0.14
   8  -8   4    0.58    0.12
   8  -8   5    0.88    0.15
   8  -8   6    0.02    0.04
   8  -8   7   -0.01    0.05
   8  -8   8    0.55    0.15
  -8   7   4    1.50    0.25
  -8   7   4    1.45    0.19
  -8   7   3    7.61    0.54
  -8   7   3    7.09    0.40
  -8   7   2    0.09    0.07
  -8   7   2    0.02    0.04
  -8   7   1    4.56    0.39
  -8   7   1    4.99    0.32
  -8   7   0    2.52    0.27
  -8   7   0    2.44    0.23
   8  -7   0    2.78    0.23
   8  -7   1    0.07    0.04
  -8   7  -1    0.24    0.09
  -8   7  -1    0.12    0.06
  -8   7  -2    3.45    0.28
  -8   7  -2    3.56    0.29
   8  -7   2    3.73    0.28
   8  -7   3    0.44    0.10
  -8   7  -3    0.41    0.10
  -8   7  -4    0.15    0.05
   8  -7   4    0.26    0.09
   8  -7   5   -0.01    0.06
   8  -7   6    0.10    0.07
   8  -7   7    2.66    0.29
   8  -7   8    0.61    0.15
  -8   6   5    0.17    0.11
  -8   6   4    2.01    0.28
  -8   6   4    2.33    0.21
  -8   6   3    4.60    0.41
  -8   6   3    4.78    0.29
  -8   6   2    0.25    0.10
  -8   6   2    0.30    0.08
  -8   6   1    1.15    0.19
  -8   6   1    1.16    0.14
  -8   6   0    2.95    0.28
  -8   6   0    2.48    0.21
   8  -6   0    2.90    0.21
   8  -6   1    0.22    0.06
  -8   6  -1    0.15    0.06
  -8   6  -1    0.27    0.08
  -8   6  -2    0.47    0.10
   8  -6   2    0.59    0.11
   8  -6   3    0.56    0.12
  -8   6  -3    0.61    0.10
   8  -6   3    0.54    0.11
   8  -6   4    0.78    0.15
  -8   6  -4    0.78    0.10
   8  -6   5    1.30    0.19
   8  -6   6    0.65    0.15
   8  -6   7    0.63    0.14
   8  -6   8    5.14    0.44
  -8   5   6    0.55    0.16
  -8   5   5    0.07    0.08
  -8   5   5    0.10    0.04
  -8   5   4    0.28    0.11
  -8   5   3    0.02    0.06
  -8   5   2    0.02    0.05
  -8   5   1    2.00    0.23
   8  -5   0    0.11    0.05
  -8   5   0    0.11    0.07
  -8   5  -1    0.62    0.11
   8  -5   1    0.56    0.10
  -8   5  -2    0.67    0.12
   8  -5   2    0.73    0.12
   8  -5   3    0.70    0.13
  -8   5  -3    0.84    0.11
   8  -5   3    0.64    0.12
   8  -5   4    1.71    0.23
  -8   5  -4    1.82    0.12
   8  -5   5    0.67    0.15
   8  -5   6    1.43    0.22
   8  -5   7    0.43    0.13
  -8   4   7   -0.05    0.07
  -8   4   6    0.29    0.11
  -8   4   5    3.97    0.38
  -8   4   5    3.83    0.20
  -8   4   4    0.13    0.09
  -8   4   4    0.12    0.03
  -8   4   3    0.28    0.09
  -8   4   3    0.25    0.04
  -8   4   2    0.42    0.12
  -8   4   1   16.46    0.66
   8  -4  -1   17.30    0.44
  -8   4   0    0.14    0.07
   8  -4   0    0.12    0.04
  -8   4  -1   18.93    0.64
   8  -4   1   20.80    0.60
   8  -4   2    0.43    0.09
  -8   4  -2    0.31    0.08
   8  -4   3    4.44    0.35
  -8   4  -3    4.52    0.23
   8  -4   3    4.72    0.31
   8  -4   4    0.15    0.09
  -8   4  -4    0.07    0.02
   8  -4   5   11.60    0.63
   8  -4   6    0.19    0.10
   8  -4   7    8.74    0.58
  -8   3   7    0.77    0.18
  -8   3   6   40.58    1.33
  -8   3   5    0.05    0.07
  -8   3   4  119.11    2.51
  -8   3   3    4.21    0.35
  -8   3   2   79.81    1.77
  -8   3   1   17.97    0.68
   8  -3  -1   18.65    0.41
  -8   3   0   78.55    1.68
   8  -3   0   84.22    1.45
  -8   3  -1    3.28    0.24
   8  -3   1    3.31    0.22
   8  -3   2  115.23    2.39
  -8   3  -2  122.79    2.08
   8  -3   2  116.00    2.16
   8  -3   3    0.18    0.09
  -8   3  -3    0.21    0.05
   8  -3   3    0.17    0.07
   8  -3   4   27.49    1.00
   8  -3   5    0.17    0.09
   8  -3   6    0.00    0.07
  -8   2   8   12.65    0.74
  -8   2   7   17.19    0.83
  -8   2   6   56.57    1.60
  -8   2   5    8.59    0.53
  -8   2   4   50.46    1.38
  -8   2   3   21.14    0.80
  -8   2   2    7.97    0.45
   8  -2  -1   13.85    0.57
  -8   2   1   14.97    0.59
   8  -2  -1   14.16    0.32
   8  -2   0    9.23    0.43
   8  -2   0    9.17    0.32
   8  -2   1    5.35    0.30
   8  -2   1    4.79    0.27
  -8   2  -1    5.12    0.30
   8  -2   2    9.23    0.52
   8  -2   2    9.80    0.44
  -8   2  -2   10.24    0.40
   8  -2   3   10.66    0.59
   8  -2   3   11.81    0.53
  -8   2  -3   11.03    0.38
   8  -2   4   -0.02    0.07
   8  -2   5    0.07    0.06
   8  -2   6    1.80    0.27
  -8   1   8    3.87    0.40
  -8   1   7    0.32    0.12
  -8   1   6    4.56    0.40
  -8   1   5   -0.05    0.10
  -8   1   4    1.27    0.19
  -8   1   3    1.74    0.21
  -8   1   2   -0.03    0.06
   8  -1  -2    0.00    0.04
   8  -1  -1    0.18    0.07
  -8   1   1    0.26    0.08
   8  -1  -1    0.28    0.04
   8  -1   0    0.05    0.04
  -8   1   0    0.08    0.05
   8  -1   0    0.05    0.03
   8  -1   1    6.35    0.34
   8  -1   1    5.85    0.31
  -8   1  -1    5.94    0.33
   8  -1   2    1.95    0.17
   8  -1   2    1.71    0.22
  -8   1  -2    2.09    0.18
   8  -1   3    0.67    0.15
   8  -1   4    1.37    0.23
   8  -1   5    0.04    0.07
  -8   0   9   -0.03    0.07
  -8   0   8    0.09    0.07
  -8   0   7    0.31    0.11
  -8   0   6   -0.04    0.08
  -8   0   5    0.12    0.07
  -8   0   4    0.36    0.10
  -8   0   3    0.15    0.07
   8   0  -2    0.07    0.06
  -8   0   2   -0.03    0.06
   8   0  -1    2.75    0.25
   8   0  -1    3.26    0.18
  -8   0   1    3.14    0.27
  -8   0   0    0.01    0.04
   8   0   0    0.07    0.06
   8   0   1    9.46    0.44
   8   0   1    9.34    0.53
  -8   0  -1   10.13    0.45
   8   0   2    2.06    0.19
   8   0   2    2.40    0.28
   8   0   3    3.64    0.35
   8   0   4    2.72    0.32
  -8  -1   9    0.37    0.14
  -8  -1   8    0.20    0.10
  -8  -1   7    2.93    0.32
  -8  -1   6    1.45    0.22
  -8  -1   5    1.30    0.20
  -8  -1   4   21.47    0.82
  -8  -1   3    0.08    0.07
  -8  -1   2   21.51    0.80
   8   1  -2   24.19    0.55
   8   1  -1    0.15    0.05
  -8  -1   1    0.24    0.09
   8   1  -1    0.08    0.05
   8   1   0   10.27    0.49
  -8  -1   0    8.99    0.46
   8   1   1    0.16    0.10
  -8  -1  -1    0.06    0.05
   8   1   1    0.03    0.04
   8   1   2   13.65    0.70
   8   1   3    0.23    0.10
   8   1   4   12.91    0.72
  -8  -2   9    1.18    0.23
  -8  -2   8    0.13    0.09
  -8  -2   7   10.32    0.61
  -8  -2   6    0.55    0.15
  -8  -2   5    7.94    0.51
   8   2  -4    1.07    0.06
  -8  -2   4    1.08    0.19
   8   2  -3    6.22    0.24
  -8  -2   3    5.95    0.41
   8   2  -2    0.42    0.07
  -8  -2   2    0.38    0.12
   8   2  -1   10.07    0.43
  -8  -2   1   10.84    0.54
   8   2   0    0.41    0.12
  -8  -2   0    0.53    0.12
   8   2   1    4.02    0.37
   8   2   2    0.21    0.10
   8   2   3    0.03    0.05
  -8  -3   9    0.10    0.09
  -8  -3   8    0.37    0.13
  -8  -3   7    0.07    0.08
  -8  -3   6    0.28    0.10
  -8  -3   5    0.51    0.14
  -8  -3   4    1.49    0.22
   8   3  -4    1.48    0.12
  -8  -3   3    0.24    0.09
   8   3  -3    0.20    0.06
   8   3  -2    0.06    0.04
  -8  -3   2    0.18    0.08
   8   3  -1    0.92    0.14
  -8  -3   1    1.08    0.19
   8   3   0   -0.02    0.07
   8   3   0    0.05    0.06
   8   3   1    0.15    0.10
   8   3   2   -0.03    0.06
  -8  -4   8    1.66    0.26
  -8  -4   7    0.01    0.06
  -8  -4   6    0.02    0.06
  -8  -4   5    0.62    0.15
  -8  -4   4    0.12    0.08
   8   4  -3    1.65    0.18
  -8  -4   3    1.53    0.23
  -8  -4   2    5.00    0.41
   8   4  -2    4.64    0.32
   8   4  -1    1.07    0.17
   8   4  -1    1.07    0.19
   8   4   0    3.76    0.36
   8   4   0    3.92    0.33
   8   4   1    0.06    0.07
   8   4   1    0.25    0.10
   8   4   2    1.09    0.20
  -8  -5   7    0.27    0.10
  -8  -5   6    0.58    0.16
  -8  -5   5    3.39    0.36
  -8  -5   4    0.71    0.17
  -8  -5   3    1.42    0.24
   8   5  -2    2.12    0.26
   8   5  -2    2.34    0.25
   8   5  -1    2.13    0.27
   8   5  -1    2.07    0.25
   8   5   0    0.72    0.15
   8   5   0    0.84    0.18
   8   5   1    5.11    0.44
  -8  -6   5    0.84    0.19
   8   6  -3    0.07    0.06
   8   6  -2    0.35    0.11
   8   6  -1    0.78    0.17
  -9  11  -3    2.05    0.28
  -9  10  -1    0.55    0.14
  -9  10  -1    0.64    0.15
  -9  10  -2    0.11    0.08
  -9  10  -2   -0.03    0.05
  -9  10  -3   -0.05    0.06
  -9  10  -3   -0.11    0.07
  -9  10  -4   -0.05    0.06
  -9   9   1    5.80    0.49
  -9   9   0    2.54    0.31
  -9   9   0    2.46    0.26
  -9   9  -1    0.90    0.18
  -9   9  -1    0.82    0.15
   9  -9   2    0.56    0.12
  -9   9  -2    0.59    0.14
  -9   9  -2    0.77    0.15
   9  -9   3    0.43    0.10
  -9   9  -3    0.45    0.11
  -9   9  -3    0.55    0.14
   9  -9   4    1.79    0.21
   9  -9   5    3.22    0.29
   9  -9   6    1.65    0.22
   9  -9   7    0.89    0.17
  -9   8   2    0.20    0.11
  -9   8   1    0.30    0.11
  -9   8   1    0.39    0.10
  -9   8   0    0.32    0.12
  -9   8   0    0.45    0.11
  -9   8  -1    0.06    0.06
  -9   8  -1    0.04    0.03
   9  -8   2    1.51    0.19
  -9   8  -2    1.85    0.22
  -9   8  -2    1.81    0.22
   9  -8   3    0.61    0.13
  -9   8  -3    0.52    0.11
   9  -8   4    0.11    0.08
   9  -8   5    2.77    0.28
   9  -8   6    0.30    0.10
   9  -8   7    0.22    0.11
  -9   7   3    0.31    0.11
  -9   7   2    0.01    0.07
  -9   7   1    0.64    0.15
  -9   7   1    0.44    0.09
  -9   7   0    1.43    0.21
  -9   7   0    1.23    0.16
  -9   7  -1    0.98    0.17
  -9   7  -1    0.95    0.15
  -9   7  -2    0.81    0.14
   9  -7   3    0.72    0.14
  -9   7  -3    1.03    0.14
   9  -7   4    1.23    0.19
   9  -7   5    0.49    0.12
   9  -7   6    0.48    0.13
   9  -7   7    0.66    0.15
  -9   6   4    0.54    0.15
  -9   6   3   -0.04    0.07
  -9   6   2    0.98    0.19
  -9   6   1    4.68    0.38
  -9   6   0    0.27    0.10
  -9   6  -1    6.59    0.40
  -9   6  -2    0.10    0.06
   9  -6   3   -0.02    0.08
  -9   6  -3   -0.04    0.04
   9  -6   4    2.99    0.31
   9  -6   5    0.48    0.13
   9  -6   6    0.00    0.06
  -9   5   5    0.21    0.12
  -9   5   4    0.94    0.19
  -9   5   3    0.07    0.06
  -9   5   2    1.76    0.24
  -9   5   1    4.68    0.36
  -9   5   0   11.50    0.55
  -9   5  -1    5.96    0.37
  -9   5  -2    5.68    0.33
   9  -5   2    5.64    0.33
   9  -5   3    0.18    0.09
  -9   5  -3    0.61    0.10
   9  -5   4    1.90    0.25
   9  -5   5    1.93    0.27
   9  -5   6    5.50    0.46
  -9   4   6    0.04    0.07
  -9   4   5    0.05    0.06
  -9   4   4    0.21    0.09
  -9   4   3    0.15    0.10
  -9   4   2    0.40    0.12
  -9   4   1    1.12    0.17
  -9   4   0    0.02    0.04
   9  -4   1    0.12    0.04
  -9   4  -1    0.14    0.06
   9  -4   2   -0.02    0.06
  -9   4  -2    0.03    0.04
   9  -4   2   -0.03    0.04
   9  -4   3    0.04    0.07
  -9   4  -3    0.00    0.02
   9  -4   4    0.66    0.17
   9  -4   5    2.82    0.32
   9  -4   6    0.68    0.17
  -9   3   7    3.66    0.40
  -9   3   6    0.43    0.15
  -9   3   5    1.03    0.20
  -9   3   4    1.63    0.23
  -9   3   3    8.55    0.52
  -9   3   2    0.07    0.07
  -9   3   1    6.59    0.41
  -9   3   0    0.45    0.10
   9  -3   0    0.41    0.07
  -9   3  -1    3.58    0.26
   9  -3   1    3.81    0.24
   9  -3   2    0.23    0.09
  -9   3  -2    0.40    0.09
   9  -3   2    0.24    0.07
   9  -3   3   10.85    0.61
  -9   3  -3   10.21    0.37
   9  -3   4    0.07    0.09
   9  -3   5    0.13    0.08
  -9   2   7    1.81    0.27
  -9   2   6   46.78    1.46
  -9   2   5    0.45    0.14
  -9   2   4   10.57    0.60
  -9   2   3    0.10    0.07
  -9   2   2    3.77    0.32
  -9   2   1    0.04    0.06
   9  -2   0    0.16    0.07
  -9   2   0    0.09    0.05
  -9   2  -1    5.54    0.33
   9  -2   2    2.81    0.30
  -9   2  -2    3.14    0.23
   9  -2   3    1.61    0.24
   9  -2   4    1.71    0.26
  -9   1   7    3.76    0.39
  -9   1   6    3.63    0.37
  -9   1   5   12.31    0.66
  -9   1   4    2.19    0.26
  -9   1   3    1.66    0.22
  -9   1   2    4.92    0.36
  -9   1   1    3.08    0.27
   9  -1   0    0.75    0.13
  -9   1   0    0.69    0.13
   9  -1   1    9.94    0.46
  -9   1  -1   10.05    0.46
   9  -1   2    1.04    0.19
  -9   1  -2    1.26    0.15
   9  -1   3    0.04    0.06
   9  -1   4    0.10    0.08
  -9   0   8    0.23    0.11
  -9   0   7    7.03    0.52
  -9   0   6    0.16    0.09
  -9   0   5    0.68    0.15
  -9   0   4    0.21    0.09
  -9   0   3    0.14    0.09
  -9   0   2    0.31    0.10
  -9   0   1    1.84    0.22
   9   0  -1    2.38    0.15
   9   0   0    1.83    0.21
  -9   0   0    1.51    0.19
   9   0   1    1.20    0.20
  -9   0  -1    1.49    0.18
   9   0   2    0.50    0.15
   9   0   3    0.09    0.07
  -9  -1   8    0.36    0.14
  -9  -1   7    3.16    0.35
  -9  -1   6    3.59    0.37
  -9  -1   5    0.74    0.16
  -9  -1   4    6.08    0.45
  -9  -1   3    0.30    0.10
  -9  -1   2    2.42    0.27
   9   1  -1    1.70    0.15
  -9  -1   1    1.62    0.21
  -9  -1   0    2.34    0.25
   9   1   1   -0.24    0.10
   9   1   2    2.45    0.30
  -9  -2   8    7.70    0.56
  -9  -2   7   -0.03    0.09
  -9  -2   6   13.91    0.74
  -9  -2   5    0.74    0.16
  -9  -2   4   15.07    0.73
  -9  -2   3    0.95    0.18
  -9  -2   2    0.57    0.14
  -9  -2   1    0.00    0.05
   9   2   0    0.61    0.11
   9   2   0    0.62    0.16
   9   2   1    0.19    0.08
  -9  -3   7    1.36    0.23
  -9  -3   6    0.17    0.09
  -9  -3   5    1.75    0.25
  -9  -3   4   -0.09    0.09
  -9  -3   3    2.09    0.27
  -9  -3   2    0.04    0.08
   9   3  -1    0.96    0.19
  -9  -3   1    1.18    0.21
   9   3   0    0.18    0.10
  -9  -4   6    0.04    0.08
  -9  -4   5    0.24    0.10
  -9  -4   4    0.16    0.10
  -9  -4   3    0.19    0.10
   9   4  -1   -0.17    0.09
   9   5  -2   12.73    0.70
 -10   9   0    0.18    0.09
 -10   9  -1    0.03    0.06
 -10   9  -2    0.09    0.07
 -10   8   1    0.14    0.09
 -10   8   0    0.20    0.10
 -10   8  -1    2.19    0.27
  10  -8   2    0.13    0.06
 -10   8  -2    0.13    0.06
  10  -8   3    0.74    0.15
  10  -8   4    1.75    0.24
  10  -8   5   -0.19    0.09
  10  -8   6    3.80    0.37
 -10   7   2    1.16    0.22
 -10   7   1    0.83    0.18
 -10   7   0   -0.08    0.07
 -10   7  -1    0.64    0.13
  10  -7   2    0.21    0.09
 -10   7  -2    0.28    0.09
  10  -7   3    0.39    0.12
  10  -7   4    3.85    0.36
  10  -7   5    1.85    0.26
 -10   6   3    0.12    0.09
 -10   6   2    0.74    0.16
 -10   6   1    0.46    0.13
 -10   6   0    0.11    0.08
 -10   6  -1    1.10    0.17
  10  -6   2    0.38    0.12
 -10   6  -2    0.47    0.10
  10  -6   3    1.61    0.23
  10  -6   4    1.25    0.21
  10  -6   5    0.74    0.18
 -10   5   4    0.67    0.17
 -10   5   3    1.64    0.25
 -10   5   2    0.01    0.06
 -10   5   1    0.08    0.07
 -10   5   0    0.86    0.15
 -10   5  -1    0.17    0.07
  10  -5   2    0.30    0.11
 -10   5  -2    0.43    0.09
  10  -5   3    1.26    0.21
  10  -5   4    0.44    0.13
  10  -5   5   -0.16    0.10
 -10   4   5    0.49    0.16
 -10   4   4    1.50    0.25
 -10   4   3    1.29    0.21
 -10   4   2    8.22    0.52
 -10   4   1    5.15    0.39
 -10   4   0    3.02    0.28
 -10   4  -1    0.73    0.13
  10  -4   2    0.45    0.14
 -10   4  -2    0.45    0.09
  10  -4   3    0.40    0.13
  10  -4   4    0.09    0.09
 -10   3   6    0.11    0.07
 -10   3   5    0.29    0.10
 -10   3   4    0.12    0.08
 -10   3   3    1.58    0.23
 -10   3   2   -0.04    0.05
 -10   3   1    0.84    0.15
 -10   3   0    0.23    0.08
 -10   3  -1    0.56    0.11
  10  -3   2    0.75    0.17
 -10   3  -2    0.72    0.12
  10  -3   3    0.74    0.17
 -10   2   6    0.21    0.12
 -10   2   5    6.81    0.51
 -10   2   4    0.95    0.18
 -10   2   3    0.87    0.17
 -10   2   2    0.13    0.08
 -10   2   1    1.98    0.23
 -10   2   0    0.53    0.11
 -10   2  -1    8.16    0.43
  10  -2   2    1.56    0.25
  10  -2   3    0.01    0.05
 -10   1   6    1.88    0.28
 -10   1   5    1.62    0.24
 -10   1   4    0.34    0.11
 -10   1   3    0.69    0.16
 -10   1   2    0.24    0.11
 -10   1   1    0.03    0.07
 -10   1   0   19.84    0.75
  10  -1   1    0.41    0.14
 -10   1  -1    0.27    0.08
  10  -1   2    9.34    0.61
 -10   0   6    4.76    0.43
 -10   0   5    0.03    0.06
 -10   0   4    0.28    0.12
 -10   0   3    2.16    0.27
 -10   0   2    3.57    0.33
 -10   0   1    2.32    0.26
 -10   0   0   10.30    0.53
  10   0   1    5.61    0.47
 -10   0  -1    5.91    0.38
 -10  -1   6    0.09    0.07
 -10  -1   5    1.27    0.22
 -10  -1   4    0.38    0.12
 -10  -1   3    0.04    0.06
 -10  -1   2    0.90    0.17
 -10  -1   1    1.47    0.21
  10   1   0    0.12    0.10
 -10  -1   0    0.18    0.08
 -10  -2   6    0.79    0.18
 -10  -2   5    2.60    0.32
 -10  -2   4   -0.10    0.07
 -10  -2   3    0.34    0.12
 -10  -2   2    0.45    0.12
 -10  -2   1    0.02    0.06
 -10  -3   5    0.09    0.07
 -10  -3   4    0.14    0.08
 -10  -3   3    0.08    0.08
 -10  -3   2    1.54    0.24
 -11   8   0   -0.05    0.06
  11  -8   2   -0.07    0.07
  11  -8   3    0.33    0.12
  11  -8   4    0.15    0.09
 -11   7   2    6.49    0.52
 -11   7   1    0.88    0.19
 -11   7   0    7.98    0.52
 -11   7  -1    2.16    0.25
  11  -7   2   17.30    0.79
  11  -7   3    0.12    0.10
 -11   6   2    3.61    0.37
 -11   6   1   14.44    0.73
 -11   6   0    0.99    0.18
 -11   6  -1   10.73    0.55
  11  -6   2    3.59    0.36
  11  -6   3    1.93    0.27
 -11   5   3    0.79    0.18
 -11   5   2    0.27    0.11
 -11   5   1    0.38    0.12
 -11   5   0   -0.02    0.05
 -11   5  -1    0.16    0.07
  11  -5   2    0.40    0.15
 -11   4   4    0.11    0.08
 -11   4   3    2.00    0.28
 -11   4   2    0.40    0.12
 -11   4   1    6.83    0.47
 -11   4   0    0.18    0.08
  11  -4   2    0.03    0.06
 -11   3   4    0.17    0.10
 -11   3   3    0.42    0.14
 -11   3   2    3.07    0.31
 -11   3   1    0.26    0.09
 -11   3   0    1.63    0.21
 -11   2   5    0.11    0.08
 -11   2   4    0.02    0.05
 -11   2   3   -0.04    0.09
 -11   2   2    0.73    0.16
 -11   2   1    1.91    0.24
 -11   2   0    1.26    0.18
 -11   1   5    0.15    0.08
 -11   1   4    0.24    0.11
 -11   1   3    1.82    0.25
 -11   1   2    0.05    0.06
 -11   1   1    1.43    0.21
 -11   1   0    0.44    0.11
 -11   0   5    0.08    0.08
 -11   0   4   -0.20    0.10
 -11   0   3    0.15    0.09
 -11   0   2    1.79    0.24
 -11   0   1    1.54    0.22
 -11  -1   4    0.44    0.15
 -11  -1   3    0.23    0.09
 -11  -1   2    1.06    0.20
 -11  -1   1    1.39    0.22
 -11  -2   3    0.00    0.05
 -11  -2   2    3.42    0.36
 -11  -2   1    0.03    0.05
 -12   6   1    0.77    0.17
 -12   5   2   -0.08    0.08
 -12   5   1    0.07    0.07
 -12   4   3    0.65    0.16
 -12   4   2    1.12    0.21
 -12   4   1    0.72    0.16
 -12   3   3   -0.17    0.09
 -12   3   2    4.12    0.38
 -12   3   1    0.76    0.16
 -12   2   3    0.34    0.13
 -12   2   2   12.35    0.68
 -12   2   1   -0.07    0.06
 -12   1   3    0.01    0.08
 -12   1   2    0.02    0.04
 -12   0   3    0.56    0.15
 -12   0   2    0.55    0.15
   0   0   0    0.00    0.00
;
_shelx_hkl_checksum              54322
_shelx_shelxl_version_number     2014/7
_olex2_submission_original_sample_id G-DIMM
_olex2_submission_special_instructions 'No special instructions were received'
loop_
_space_group_symop_operation_xyz
'x, y, z'
'-x, -y, -z'
loop_
_atom_site_label
_atom_site_type_symbol
_atom_site_fract_x
_atom_site_fract_y
_atom_site_fract_z
_atom_site_U_iso_or_equiv
_atom_site_adp_type
_atom_site_occupancy
_atom_site_site_symmetry_order
_atom_site_calc_flag
_atom_site_refinement_flags_posn
_atom_site_refinement_flags_occupancy
O1 O 0.25450(12) 0.66487(13) 0.28679(13) 0.0268(3) Uani 1 1 d . .
O2 O -0.15781(12) 0.24728(14) 0.22209(15) 0.0307(3) Uani 1 1 d . .
N1 N 0.04762(13) 0.45361(15) 0.24946(14) 0.0188(3) Uani 1 1 d . .
N2 N -0.32148(15) 0.83405(17) 0.25520(15) 0.0258(3) Uani 1 1 d . .
C1 C 0.20408(16) 0.52729(18) 0.27256(17) 0.0191(3) Uani 1 1 d . .
C2 C 0.30077(16) 0.42857(18) 0.27597(17) 0.0186(3) Uani 1 1 d . .
C3 C 0.45570(17) 0.49579(19) 0.30321(18) 0.0219(3) Uani 1 1 d . .
H3 H 0.5001 0.6063 0.3234 0.026 Uiso 1 1 calc R .
C4 C 0.54887(17) 0.4018(2) 0.30141(19) 0.0249(4) Uani 1 1 d . .
H4 H 0.6559 0.4492 0.3208 0.030 Uiso 1 1 calc R .
C5 C 0.48590(17) 0.2424(2) 0.27178(18) 0.0240(4) Uani 1 1 d . .
H5 H 0.5500 0.1800 0.2701 0.029 Uiso 1 1 calc R .
C6 C 0.32712(17) 0.16866(19) 0.24361(17) 0.0205(3) Uani 1 1 d . .
C7 C 0.25666(18) 0.00441(19) 0.21265(18) 0.0238(3) Uani 1 1 d . .
H7 H 0.3174 -0.0616 0.2095 0.029 Uiso 1 1 calc R .
C8 C 0.10268(18) -0.06101(19) 0.18724(18) 0.0244(4) Uani 1 1 d . .
H8 H 0.0576 -0.1718 0.1661 0.029 Uiso 1 1 calc R .
C9 C 0.01062(17) 0.03503(19) 0.19221(17) 0.0221(3) Uani 1 1 d . .
H9 H -0.0962 -0.0109 0.1752 0.026 Uiso 1 1 calc R .
C10 C 0.07482(16) 0.19488(18) 0.22159(17) 0.0183(3) Uani 1 1 d . .
C11 C 0.23350(16) 0.26514(18) 0.24726(16) 0.0177(3) Uani 1 1 d . .
C12 C -0.02328(16) 0.29517(19) 0.22999(17) 0.0202(3) Uani 1 1 d . .
C13 C -0.23731(16) 0.60490(18) 0.11433(17) 0.0201(3) Uani 1 1 d . .
H13 H -0.3045 0.5769 0.0193 0.024 Uiso 1 1 calc R .
C14 C -0.14547(16) 0.51268(18) 0.11312(17) 0.0204(3) Uani 1 1 d . .
H14 H -0.1493 0.4231 0.0176 0.024 Uiso 1 1 calc R .
C15 C -0.04810(16) 0.55045(18) 0.25049(17) 0.0186(3) Uani 1 1 d . .
C16 C -0.04369(17) 0.68008(19) 0.38883(18) 0.0216(3) Uani 1 1 d . .
H16 H 0.0224 0.7053 0.4834 0.026 Uiso 1 1 calc R .
C17 C -0.13424(17) 0.77371(19) 0.39168(18) 0.0216(3) Uani 1 1 d . .
H17 H -0.1296 0.8625 0.4882 0.026 Uiso 1 1 calc R .
C18 C -0.23299(16) 0.73945(18) 0.25387(17) 0.0187(3) Uani 1 1 d . .
C19 C -0.3325(2) 0.9573(2) 0.3993(2) 0.0311(4) Uani 1 1 d . .
H19A H -0.4002 1.0114 0.3767 0.047 Uiso 0.5 1 calc R P
H19B H -0.3737 0.9043 0.4578 0.047 Uiso 0.5 1 calc R P
H19C H -0.2309 1.0401 0.4612 0.047 Uiso 0.5 1 calc R P
H19D H -0.2697 0.9591 0.4871 0.047 Uiso 0.5 1 calc R P
H19E H -0.2961 1.0663 0.4060 0.047 Uiso 0.5 1 calc R P
H19F H -0.4390 0.9304 0.4026 0.047 Uiso 0.5 1 calc R P
C20 C -0.41784(19) 0.8017(2) 0.1118(2) 0.0311(4) Uani 1 1 d . .
H20A H -0.4720 0.8805 0.1350 0.047 Uiso 0.5 1 calc R P
H20B H -0.3549 0.8139 0.0436 0.047 Uiso 0.5 1 calc R P
H20C H -0.4919 0.6886 0.0597 0.047 Uiso 0.5 1 calc R P
H20D H -0.4072 0.7082 0.0239 0.047 Uiso 0.5 1 calc R P
H20E H -0.5243 0.7748 0.1153 0.047 Uiso 0.5 1 calc R P
H20F H -0.3874 0.9001 0.0991 0.047 Uiso 0.5 1 calc R P
loop_
_atom_site_aniso_label
_atom_site_aniso_U_11
_atom_site_aniso_U_22
_atom_site_aniso_U_33
_atom_site_aniso_U_23
_atom_site_aniso_U_13
_atom_site_aniso_U_12
O1 0.0242(6) 0.0200(6) 0.0399(7) 0.0166(5) 0.0108(5) 0.0088(5)
O2 0.0188(6) 0.0317(7) 0.0510(8) 0.0255(6) 0.0139(5) 0.0114(5)
N1 0.0173(6) 0.0201(7) 0.0243(7) 0.0129(5) 0.0081(5) 0.0099(5)
N2 0.0314(7) 0.0302(8) 0.0262(7) 0.0153(6) 0.0123(6) 0.0214(6)
C1 0.0183(7) 0.0196(8) 0.0197(7) 0.0098(6) 0.0058(6) 0.0066(6)
C2 0.0194(7) 0.0210(8) 0.0180(7) 0.0104(6) 0.0073(6) 0.0084(6)
C3 0.0196(7) 0.0220(8) 0.0261(8) 0.0138(7) 0.0072(6) 0.0062(6)
C4 0.0173(7) 0.0313(9) 0.0302(9) 0.0174(7) 0.0076(7) 0.0101(6)
C5 0.0217(8) 0.0298(9) 0.0294(9) 0.0178(7) 0.0101(7) 0.0151(7)
C6 0.0222(8) 0.0244(8) 0.0209(8) 0.0129(6) 0.0084(6) 0.0124(6)
C7 0.0280(8) 0.0236(8) 0.0285(8) 0.0155(7) 0.0118(7) 0.0152(7)
C8 0.0291(8) 0.0188(8) 0.0287(8) 0.0128(7) 0.0112(7) 0.0097(6)
C9 0.0207(7) 0.0215(8) 0.0240(8) 0.0116(6) 0.0069(6) 0.0059(6)
C10 0.0190(7) 0.0206(8) 0.0191(7) 0.0113(6) 0.0076(6) 0.0088(6)
C11 0.0179(7) 0.0209(8) 0.0160(7) 0.0094(6) 0.0058(6) 0.0080(6)
C12 0.0188(7) 0.0215(8) 0.0225(8) 0.0120(6) 0.0067(6) 0.0074(6)
C13 0.0184(7) 0.0215(8) 0.0219(8) 0.0119(6) 0.0051(6) 0.0070(6)
C14 0.0211(7) 0.0187(7) 0.0212(8) 0.0087(6) 0.0081(6) 0.0078(6)
C15 0.0168(7) 0.0192(7) 0.0259(8) 0.0136(6) 0.0089(6) 0.0093(6)
C16 0.0194(7) 0.0246(8) 0.0220(8) 0.0117(6) 0.0062(6) 0.0088(6)
C17 0.0216(8) 0.0204(8) 0.0219(8) 0.0083(6) 0.0081(6) 0.0086(6)
C18 0.0173(7) 0.0185(7) 0.0252(8) 0.0131(6) 0.0096(6) 0.0072(6)
C19 0.0344(9) 0.0286(9) 0.0333(9) 0.0119(8) 0.0122(8) 0.0202(7)
C20 0.0290(9) 0.0316(9) 0.0347(10) 0.0152(8) 0.0045(7) 0.0175(7)
loop_
_atom_type_symbol
_atom_type_description
_atom_type_scat_dispersion_real
_atom_type_scat_dispersion_imag
_atom_type_scat_source
C C 0.0033 0.0016 'International Tables Vol C Tables 4.2.6.8 and 6.1.1.4'
H H 0.0000 0.0000 'International Tables Vol C Tables 4.2.6.8 and 6.1.1.4'
N N 0.0061 0.0033 'International Tables Vol C Tables 4.2.6.8 and 6.1.1.4'
O O 0.0106 0.0060 'International Tables Vol C Tables 4.2.6.8 and 6.1.1.4'
loop_
_geom_angle_atom_site_label_1
_geom_angle_atom_site_label_2
_geom_angle_atom_site_label_3
_geom_angle
C1 N1 C12 125.32(12)
C1 N1 C15 117.39(12)
C12 N1 C15 117.27(12)
C18 N2 C19 121.35(13)
C18 N2 C20 120.73(13)
C19 N2 C20 117.66(13)
O1 C1 N1 120.41(13)
O1 C1 C2 122.94(13)
N1 C1 C2 116.64(12)
C3 C2 C1 119.50(13)
C3 C2 C11 120.45(13)
C11 C2 C1 120.03(13)
C2 C3 H3 119.8
C2 C3 C4 120.34(14)
C4 C3 H3 119.8
C3 C4 H4 119.9
C5 C4 C3 120.22(14)
C5 C4 H4 119.9
C4 C5 H5 119.4
C4 C5 C6 121.27(14)
C6 C5 H5 119.4
C5 C6 C7 123.37(14)
C5 C6 C11 118.24(14)
C7 C6 C11 118.38(13)
C6 C7 H7 119.4
C8 C7 C6 121.20(14)
C8 C7 H7 119.4
C7 C8 H8 119.8
C7 C8 C9 120.30(14)
C9 C8 H8 119.8
C8 C9 H9 119.9
C10 C9 C8 120.19(14)
C10 C9 H9 119.9
C9 C10 C11 120.65(13)
C9 C10 C12 119.40(13)
C11 C10 C12 119.94(13)
C2 C11 C6 119.47(13)
C2 C11 C10 121.26(13)
C10 C11 C6 119.27(13)
O2 C12 N1 120.25(13)
O2 C12 C10 123.25(14)
N1 C12 C10 116.50(12)
C14 C13 H13 119.4
C14 C13 C18 121.20(14)
C18 C13 H13 119.4
C13 C14 H14 119.9
C15 C14 C13 120.24(14)
C15 C14 H14 119.9
C14 C15 N1 120.30(13)
C16 C15 N1 120.14(13)
C16 C15 C14 119.56(13)
C15 C16 H16 119.6
C15 C16 C17 120.82(14)
C17 C16 H16 119.6
C16 C17 H17 119.5
C16 C17 C18 120.91(14)
C18 C17 H17 119.5
N2 C18 C13 121.42(13)
N2 C18 C17 121.32(13)
C17 C18 C13 117.26(13)
N2 C19 H19A 109.5
N2 C19 H19B 109.5
N2 C19 H19C 109.5
N2 C19 H19D 109.5
N2 C19 H19E 109.5
N2 C19 H19F 109.5
H19A C19 H19B 109.5
H19A C19 H19C 109.5
H19A C19 H19D 141.1
H19A C19 H19E 56.3
H19A C19 H19F 56.3
H19B C19 H19C 109.5
H19B C19 H19D 56.3
H19B C19 H19E 141.1
H19B C19 H19F 56.3
H19C C19 H19D 56.3
H19C C19 H19E 56.3
H19C C19 H19F 141.1
H19D C19 H19E 109.5
H19D C19 H19F 109.5
H19E C19 H19F 109.5
N2 C20 H20A 109.5
N2 C20 H20B 109.5
N2 C20 H20C 109.5
N2 C20 H20D 109.5
N2 C20 H20E 109.5
N2 C20 H20F 109.5
H20A C20 H20B 109.5
H20A C20 H20C 109.5
H20A C20 H20D 141.1
H20A C20 H20E 56.3
H20A C20 H20F 56.3
H20B C20 H20C 109.5
H20B C20 H20D 56.3
H20B C20 H20E 141.1
H20B C20 H20F 56.3
H20C C20 H20D 56.3
H20C C20 H20E 56.3
H20C C20 H20F 141.1
H20D C20 H20E 109.5
H20D C20 H20F 109.5
H20E C20 H20F 109.5
loop_
_geom_bond_atom_site_label_1
_geom_bond_atom_site_label_2
_geom_bond_distance
O1 C1 1.2172(18)
O2 C12 1.2133(18)
N1 C1 1.4031(19)
N1 C12 1.4066(19)
N1 C15 1.4486(17)
N2 C18 1.3773(18)
N2 C19 1.441(2)
N2 C20 1.444(2)
C1 C2 1.479(2)
C2 C3 1.375(2)
C2 C11 1.411(2)
C3 H3 0.9500
C3 C4 1.407(2)
C4 H4 0.9500
C4 C5 1.367(2)
C5 H5 0.9500
C5 C6 1.414(2)
C6 C7 1.415(2)
C6 C11 1.425(2)
C7 H7 0.9500
C7 C8 1.367(2)
C8 H8 0.9500
C8 C9 1.408(2)
C9 H9 0.9500
C9 C10 1.373(2)
C10 C11 1.413(2)
C10 C12 1.4801(19)
C13 H13 0.9500
C13 C14 1.384(2)
C13 C18 1.408(2)
C14 H14 0.9500
C14 C15 1.383(2)
C15 C16 1.379(2)
C16 H16 0.9500
C16 C17 1.382(2)
C17 H17 0.9500
C17 C18 1.404(2)
C19 H19A 0.9800
C19 H19B 0.9800
C19 H19C 0.9800
C19 H19D 0.9800
C19 H19E 0.9800
C19 H19F 0.9800
C20 H20A 0.9800
C20 H20B 0.9800
C20 H20C 0.9800
C20 H20D 0.9800
C20 H20E 0.9800
C20 H20F 0.9800
loop_
_geom_torsion_atom_site_label_1
_geom_torsion_atom_site_label_2
_geom_torsion_atom_site_label_3
_geom_torsion_atom_site_label_4
_geom_torsion
O1 C1 C2 C3 3.0(2)
O1 C1 C2 C11 -175.29(13)
N1 C1 C2 C3 -177.90(13)
N1 C1 C2 C11 3.8(2)
N1 C15 C16 C17 179.94(13)
C1 N1 C12 O2 174.59(14)
C1 N1 C12 C10 -4.9(2)
C1 N1 C15 C14 106.90(16)
C1 N1 C15 C16 -73.70(18)
C1 C2 C3 C4 -177.74(13)
C1 C2 C11 C6 177.06(13)
C1 C2 C11 C10 -2.8(2)
C2 C3 C4 C5 0.3(2)
C3 C2 C11 C6 -1.2(2)
C3 C2 C11 C10 178.93(13)
C3 C4 C5 C6 -0.5(2)
C4 C5 C6 C7 -179.91(15)
C4 C5 C6 C11 -0.2(2)
C5 C6 C7 C8 179.52(15)
C5 C6 C11 C2 1.0(2)
C5 C6 C11 C10 -179.14(13)
C6 C7 C8 C9 -0.3(2)
C7 C6 C11 C2 -179.22(13)
C7 C6 C11 C10 0.6(2)
C7 C8 C9 C10 0.5(2)
C8 C9 C10 C11 0.0(2)
C8 C9 C10 C12 -178.58(13)
C9 C10 C11 C2 179.34(13)
C9 C10 C11 C6 -0.5(2)
C9 C10 C12 O2 4.9(2)
C9 C10 C12 N1 -175.66(13)
C11 C2 C3 C4 0.6(2)
C11 C6 C7 C8 -0.2(2)
C11 C10 C12 O2 -173.65(14)
C11 C10 C12 N1 5.8(2)
C12 N1 C1 O1 179.30(13)
C12 N1 C1 C2 0.2(2)
C12 N1 C15 C14 -74.94(17)
C12 N1 C15 C16 104.46(16)
C12 C10 C11 C2 -2.1(2)
C12 C10 C11 C6 178.04(13)
C13 C14 C15 N1 179.75(13)
C13 C14 C15 C16 0.3(2)
C14 C13 C18 N2 178.43(13)
C14 C13 C18 C17 -1.3(2)
C14 C15 C16 C17 -0.7(2)
C15 N1 C1 O1 -2.7(2)
C15 N1 C1 C2 178.19(12)
C15 N1 C12 O2 -3.4(2)
C15 N1 C12 C10 177.13(12)
C15 C16 C17 C18 0.0(2)
C16 C17 C18 N2 -178.74(14)
C16 C17 C18 C13 1.0(2)
C18 C13 C14 C15 0.7(2)
C19 N2 C18 C13 171.67(14)
C19 N2 C18 C17 -8.6(2)
C20 N2 C18 C13 -2.3(2)
C20 N2 C18 C17 177.42(14)
