#------------------------------------------------------------------------------
#$Date: 2015-07-05 12:33:00 +0300 (Sun, 05 Jul 2015) $
#$Revision: 140177 $
#$URL: svn://www.crystallography.net/cod/cif/1/52/00/1520063.cif $
#------------------------------------------------------------------------------
#
# This file is available in the Crystallography Open Database (COD),
# http://www.crystallography.net/
#
# All data on this site have been placed in the public domain by the
# contributors.
#
data_1520063
loop_
_publ_author_name
'Zhang, Jiaheng'
'Shreeve, Jean&#x2019;ne M.'
_publ_section_title
;
 Nitroaminofurazans with Azo and Azoxy Linkages: A Comparative Study of
 Structural, Electronic, Physicochemical, and Energetic Properties
;
_journal_issue                   23
_journal_name_full               'The Journal of Physical Chemistry C'
_journal_page_first              12887
_journal_paper_doi               10.1021/acs.jpcc.5b03714
_journal_volume                  119
_journal_year                    2015
_chemical_formula_moiety         'C4 H2 N10 O6'
_chemical_formula_sum            'C4 H2 N10 O6'
_chemical_formula_weight         286.16
_space_group_crystal_system      monoclinic
_space_group_IT_number           14
_space_group_name_Hall           '-P 2ybc'
_space_group_name_H-M_alt        'P 1 21/c 1'
_symmetry_space_group_name_Hall  '-P 2ybc'
_symmetry_space_group_name_H-M   'P 1 21/c 1'
_atom_sites_solution_hydrogens   difmap
_atom_sites_solution_primary     direct
_audit_creation_date             2014-11-20
_audit_creation_method
;
Olex2 1.2
(compiled 2014.09.19 svn.r3010 for OlexSys, GUI svn.r4874)
;
_cell_angle_alpha                90
_cell_angle_beta                 97.913(4)
_cell_angle_gamma                90
_cell_formula_units_Z            2
_cell_length_a                   5.6265(7)
_cell_length_b                   9.1195(10)
_cell_length_c                   9.5532(11)
_cell_measurement_reflns_used    8935
_cell_measurement_temperature    150
_cell_measurement_theta_max      33.72
_cell_measurement_theta_min      3.66
_cell_volume                     485.52(10)
_computing_cell_refinement       'SAINT v8.34A (Bruker, 2013)'
_computing_data_reduction        'SAINT v8.34A (Bruker, 2013)'
_computing_molecular_graphics    'Olex2 (Dolomanov et al., 2009)'
_computing_publication_material  'Olex2 (Dolomanov et al., 2009)'
_computing_structure_refinement  'ShelXL (Sheldrick, 2008)'
_computing_structure_solution    'ShelXT (Sheldrick, 2008)'
_diffrn_ambient_temperature      150
_diffrn_detector                 'Bruker Photon-100 area detector'
_diffrn_detector_area_resol_mean 10.5
_diffrn_detector_type            'CMOS area detector'
_diffrn_measured_fraction_theta_full 0.990
_diffrn_measured_fraction_theta_max 0.992
_diffrn_measurement_device       'Fixed Chi Three-Circle Diffractometer'
_diffrn_measurement_device_type  'Bruker D8 Venture'
_diffrn_measurement_method       '\w and \f scans'
_diffrn_radiation_monochromator  'TRIUMPH graphite'
_diffrn_radiation_probe          x-ray
_diffrn_radiation_type           MoK\a
_diffrn_radiation_wavelength     0.71073
_diffrn_reflns_av_R_equivalents  0.0441
_diffrn_reflns_av_unetI/netI     0.0240
_diffrn_reflns_laue_measured_fraction_full 0.990
_diffrn_reflns_laue_measured_fraction_max 0.992
_diffrn_reflns_limit_h_max       8
_diffrn_reflns_limit_h_min       -8
_diffrn_reflns_limit_k_max       14
_diffrn_reflns_limit_k_min       -14
_diffrn_reflns_limit_l_max       14
_diffrn_reflns_limit_l_min       -14
_diffrn_reflns_number            23487
_diffrn_reflns_point_group_measured_fraction_full 0.990
_diffrn_reflns_point_group_measured_fraction_max 0.992
_diffrn_reflns_theta_full        25.242
_diffrn_reflns_theta_max         33.827
_diffrn_reflns_theta_min         5.255
_diffrn_source                   'sealed tube'
_diffrn_source_type              fine-focus
_diffrn_standards_number         0
_exptl_absorpt_coefficient_mu    0.181
_exptl_absorpt_correction_T_max  0.7467
_exptl_absorpt_correction_T_min  0.7203
_exptl_absorpt_correction_type   multi-scan
_exptl_absorpt_process_details
;
SADABS-2014/4 (Bruker,2014) was used for absorption correction.
wR2(int) was 0.0576 before and 0.0532 after correction.
The Ratio of minimum to maximum transmission is 0.9646.
The \l/2 correction factor is 0.00150.
;
_exptl_crystal_colour            yellow
_exptl_crystal_colour_primary    yellow
_exptl_crystal_density_diffrn    1.957
_exptl_crystal_description       fragment
_exptl_crystal_F_000             288
_exptl_crystal_size_max          0.4
_exptl_crystal_size_mid          0.1
_exptl_crystal_size_min          0.05
_refine_diff_density_max         0.587
_refine_diff_density_min         -0.281
_refine_diff_density_rms         0.080
_refine_ls_extinction_method     none
_refine_ls_goodness_of_fit_ref   1.039
_refine_ls_hydrogen_treatment    refall
_refine_ls_matrix_type           full
_refine_ls_number_parameters     95
_refine_ls_number_reflns         1939
_refine_ls_number_restraints     0
_refine_ls_restrained_S_all      1.039
_refine_ls_R_factor_all          0.0619
_refine_ls_R_factor_gt           0.0425
_refine_ls_shift/su_max          0.000
_refine_ls_shift/su_mean         0.000
_refine_ls_structure_factor_coef Fsqd
_refine_ls_weighting_details
'w=1/[\s^2^(Fo^2^)+(0.0594P)^2^+0.1774P] where P=(Fo^2^+2Fc^2^)/3'
_refine_ls_weighting_scheme      calc
_refine_ls_wR_factor_gt          0.1021
_refine_ls_wR_factor_ref         0.1122
_reflns_Friedel_coverage         0.000
_reflns_number_gt                1520
_reflns_number_total             1939
_reflns_threshold_expression     'I > 2\s(I)'
_cod_data_source_file            jp5b03714_si_002.cif
_cod_data_source_block           medabs
_cod_depositor_comments
;
The following automatic conversions were performed:

'_diffrn_radiation_probe' value 'X-ray' changed to 'x-ray' according
to
/usr/data/users/saulius/crontab/automatic-downloads/rss-feeds/ACS/lib/dictionaries/cif_core.dic
dictionary named 'cif_core.dic' version 2.4.2 from 2011-04-26.

Automatic conversion script
Id: cif_fix_values 3271 2015-04-21 07:52:19Z andrius 

 Adding full bibliography for 1520063--1520064.cif.
;
_cod_database_code               1520063
_shelx_space_group_comment
;
The symmetry employed for this shelxl refinement is uniquely defined
by the following loop, which should always be used as a source of
symmetry information in preference to the above space-group names.
They are only intended as comments.
;
_olex2_refinement_description
;
;
_shelx_res_file
;
    medabs.res created by SHELXL-2014/7

TITL medabs_a.res in P2(1)/c
CELL 0.71073 5.6265 9.1195 9.5532 90 97.913 90
ZERR 2 0.0007 0.001 0.0011 0 0.004 0
LATT 1
SYMM -X,0.5+Y,0.5-Z

SFAC C H N O
UNIT 8 4 20 12
EQIV $1 +X,0.5-Y,-0.5+Z

L.S. 10 0 0
PLAN  20
TEMP -123.15
HTAB N4 N3_$1
REM Old TITL medabs in P21/c #14
BOND $H
LIST 4
fmap 2 53
MORE -1
ACTA
CONF
SHEL 4 0.6
REM <HKL>C:/Users/DAN/Desktop/11192014/Shr9/work/medabs.hkl</HKL>

WGHT    0.059400    0.177400
FVAR       0.30948
O1    4   -0.014806    0.393827    0.889493    11.00000    0.02335    0.02025 =
         0.01221    0.00220    0.00558    0.00271
O2    4    0.565975    0.168153    0.820446    11.00000    0.02516    0.02430 =
         0.01577    0.00394   -0.00454    0.00585
O3    4    0.656704    0.149707    0.606994    11.00000    0.02815    0.03752 =
         0.02514    0.00434    0.00837    0.01908
N1    3   -0.070827    0.513395    0.544081    11.00000    0.01514    0.01330 =
         0.00954   -0.00005    0.00010    0.00144
N2    3   -0.123523    0.470677    0.777471    11.00000    0.01921    0.01838 =
         0.01315    0.00105    0.00338    0.00205
N3    3    0.183976    0.316073    0.856167    11.00000    0.02113    0.01519 =
         0.01160    0.00084    0.00178    0.00208
N4    3    0.360805    0.294608    0.642824    11.00000    0.01703    0.01804 =
         0.01007    0.00158    0.00000    0.00734
H4    2    0.340614    0.293941    0.554322    11.00000    0.02699
N5    3    0.537985    0.196265    0.694522    11.00000    0.01543    0.01550 =
         0.01764    0.00161   -0.00132    0.00272
C1    1    0.000601    0.444515    0.673828    11.00000    0.01396    0.01222 =
         0.01000    0.00003   -0.00010    0.00032
C2    1    0.194370    0.346135    0.723521    11.00000    0.01418    0.01042 =
         0.01069   -0.00026   -0.00062    0.00013
HKLF 4

REM  medabs_a.res in P2(1)/c
REM R1 =  0.0425 for    1520 Fo > 4sig(Fo)  and  0.0619 for all    1939 data
REM     95 parameters refined using      0 restraints

END

WGHT      0.0595      0.1766

REM Highest difference peak  0.587,  deepest hole -0.281,  1-sigma level  0.080
Q1    1   0.0949  0.3885  0.6929  11.00000  0.05    0.59
Q2    1   0.2838  0.3203  0.6831  11.00000  0.05    0.57
Q3    1  -0.0241  0.4813  0.6097  11.00000  0.05    0.55
Q4    1  -0.0629  0.4434  0.7220  11.00000  0.05    0.54
Q5    1   0.1826  0.3327  0.7865  11.00000  0.05    0.48
Q6    1  -0.0160  0.4795  0.4969  11.00000  0.05    0.43
Q7    1   0.4488  0.2549  0.6720  11.00000  0.05    0.36
Q8    1   0.5284  0.1566  0.7634  11.00000  0.05    0.35
Q9    1   0.0830  0.3544  0.8652  11.00000  0.05    0.33
Q10   1  -0.2224  0.5161  0.7811  11.00000  0.05    0.33
Q11   1   0.6346  0.1626  0.6586  11.00000  0.05    0.31
Q12   1   0.2943  0.3011  0.8982  11.00000  0.05    0.27
Q13   1  -0.1795  0.5207  0.5204  11.00000  0.05    0.27
Q14   1   0.5801  0.1961  0.6167  11.00000  0.05    0.26
Q15   1   0.4911  0.2039  0.8623  11.00000  0.05    0.25
Q16   1   0.3785  0.3233  0.6032  11.00000  0.05    0.25
Q17   1  -0.0923  0.3652  0.9218  11.00000  0.05    0.24
Q18   1   0.6588  0.2029  0.5567  11.00000  0.05    0.23
Q19   1  -0.1528  0.5554  0.5708  11.00000  0.05    0.22
Q20   1   0.0318  0.4744  0.6827  11.00000  0.05    0.22
;
_shelx_res_checksum              69873
_shelx_hkl_file
;
   1   0   0   50.92    1.45
  -1   0   0   49.19    1.46
  -1   0   0   54.91    1.44
  -1   0   0   54.32    1.44
  -1   0   0   54.96    1.44
  -1   0   0   52.79    1.46
  -1   0   0   51.88    1.45
   1   0   0   52.76    1.44
   1   0   0   52.69    1.44
   1   0   0   54.06    1.47
  -2   0   0  187.78    5.10
  -2   0   0  197.49    5.06
  -2   0   0  192.72    5.06
  -2   0   0  182.34    5.17
   2   0   0  195.90    5.06
   2   0   0  194.49    5.07
   2   0   0  187.85    5.11
   2   0   0  173.88    5.08
  -2   0   0  202.10    5.09
   3   0   0   12.44    0.52
  -3   0   0   12.60    0.59
   3   0   0   12.71    0.58
   3   0   0   13.28    0.59
  -3   0   0   12.71    0.54
  -3   0   0   12.56    0.51
  -3   0   0   13.14    0.51
  -3   0   0   13.24    0.54
   3   0   0   12.93    0.54
   3   0   0   13.74    0.55
  -3   0   0   12.92    0.62
  -4   0   0    1.31    0.32
   4   0   0    1.53    0.25
   4   0   0    1.63    0.30
   4   0   0    1.82    0.32
  -4   0   0    1.48    0.21
  -4   0   0    1.57    0.29
   4   0   0    1.25    0.28
  -4   0   0    1.94    0.33
   4   0   0    1.68    0.26
  -4   0   0    1.19    0.24
   5   0   0   24.45    1.08
  -5   0   0   24.62    1.09
  -5   0   0   25.67    1.03
  -5   0   0   23.83    1.06
   5   0   0   24.53    0.96
  -5   0   0   24.74    1.14
   5   0   0   23.82    0.99
   5   0   0   23.34    1.07
   6   0   0   18.99    1.02
   6   0   0   17.31    0.87
  -6   0   0   18.17    1.00
   6   0   0   16.23    0.90
   6   0   0   15.80    1.16
  -6   0   0   17.63    1.07
  -6   0   0   17.85    1.02
   7   0   0    0.22    0.41
   7   0   0    1.35    0.50
  -7   0   0    0.50    0.56
  -7   0   0    0.50    0.49
  -8   0   0   -0.23    0.66
   8   0   0   -0.29    0.65
  -8   0   0    0.28    0.74
   8   0   0    1.04    0.62
   8   0   0    0.48    0.58
  -1  -1   0   33.11    0.94
  -1  -1   0   33.89    0.97
  -1  -1   0   33.10    0.91
  -1  -1   0   32.96    0.95
  -1  -1   0   33.28    0.94
   1  -1   0   32.46    0.96
  -1  -1   0   32.25    0.95
   1  -1   0   33.16    0.92
   1  -1   0   32.05    0.90
   1  -1   0   33.11    0.90
   1   1   0   32.63    0.94
   1   1   0   33.27    0.93
   1   1   0   34.43    0.97
   1   1   0   31.95    0.94
  -1   1   0   32.16    0.94
   1   1   0   32.75    0.94
   1   1   0   32.51    0.90
  -1   1   0   32.22    0.96
  -1   1   0   32.23    0.91
  -1   1   0   32.11    0.89
  -1   1   0   33.93    0.89
  -1   1   0   31.94    0.95
   1   1   0   33.35    0.95
  -2  -1   0  121.74    3.30
  -2  -1   0  117.55    3.30
   2  -1   0  123.47    3.26
   2  -1   0  121.34    3.26
  -2  -1   0  122.81    3.30
   2  -1   0  119.48    3.30
   2  -1   0  122.70    3.27
  -2  -1   0  124.94    3.32
   2  -1   0  116.34    3.33
  -2   1   0  123.47    3.19
  -2   1   0  123.84    3.19
  -2   1   0  122.19    3.25
   2   1   0  120.86    3.21
   2   1   0  123.31    3.29
  -2   1   0  122.38    3.25
   2   1   0  125.37    3.31
   2   1   0  116.42    3.31
   2   1   0  107.72    3.36
  -2   1   0  124.36    3.26
  -2   1   0  129.47    3.31
  -2   1   0  120.97    3.33
   2   1   0  126.23    3.31
  -3  -1   0   76.49    2.22
  -3  -1   0   77.57    2.17
   3  -1   0   76.78    2.15
  -3  -1   0   75.70    2.19
  -3  -1   0   75.46    2.22
   3  -1   0   75.79    2.16
  -3  -1   0   76.74    2.19
   3  -1   0   76.98    2.16
  -3  -1   0   77.42    2.23
   3  -1   0   76.86    2.25
   3  -1   0   74.25    2.19
  -3   1   0   75.90    2.13
   3   1   0   71.65    2.24
  -3   1   0   75.82    2.25
  -3   1   0   79.16    2.15
  -3   1   0   76.03    2.14
  -3   1   0   78.94    2.23
   3   1   0   78.80    2.21
   3   1   0   74.03    2.22
  -3   1   0   75.99    2.23
   3   1   0   81.11    2.03
   3   1   0   76.17    2.20
   4  -1   0    0.30    0.17
  -4  -1   0    0.41    0.27
   4  -1   0    0.50    0.20
  -4  -1   0    0.75    0.22
  -4  -1   0    0.57    0.27
   4  -1   0    0.37    0.24
  -4  -1   0    0.25    0.23
   4  -1   0    0.85    0.25
  -4  -1   0    0.39    0.25
   4  -1   0    0.54    0.25
  -4  -1   0    0.81    0.28
  -4   1   0    0.14    0.22
   4   1   0    0.24    0.19
   4   1   0    0.48    0.31
   4   1   0    0.35    0.24
  -4   1   0    0.68    0.27
  -4   1   0    0.46    0.23
  -4   1   0    0.33    0.27
   4   1   0    0.53    0.22
  -4   1   0    0.57    0.23
   4   1   0    0.50    0.25
   5  -1   0   26.18    1.01
   5  -1   0   26.40    0.98
  -5  -1   0   24.49    1.09
  -5  -1   0   26.24    1.10
  -5  -1   0   23.37    1.08
   5  -1   0   25.48    1.12
  -5  -1   0   27.00    1.11
   5   1   0   27.32    1.11
  -5   1   0   26.24    1.14
  -5   1   0   25.88    1.16
  -5   1   0   26.08    1.04
   5   1   0   25.86    1.06
   5   1   0   25.17    1.00
  -5   1   0   25.29    1.10
   5   1   0   25.28    1.16
   6  -1   0   23.29    1.15
  -6  -1   0   22.56    1.13
  -6  -1   0   21.76    1.12
   6  -1   0   22.81    1.02
   6  -1   0   21.98    0.99
  -6  -1   0   22.68    1.23
   6   1   0   22.43    1.10
  -6   1   0   23.11    1.14
  -6   1   0   23.28    1.15
   6   1   0   21.68    1.09
  -6   1   0   23.03    1.15
   6   1   0   22.90    1.08
   6   1   0   21.98    1.35
   7  -1   0    0.88    0.39
   7  -1   0   -0.17    0.47
   7  -1   0   -0.04    0.41
  -7  -1   0   -0.03    0.48
  -7   1   0    0.05    0.47
   7   1   0    1.08    0.50
   7   1   0    1.08    0.52
  -7   1   0    0.24    0.51
   7   1   0    0.12    0.46
  -8  -1   0    0.73    0.70
   8  -1   0   -0.66    0.50
   8  -1   0   -0.54    0.67
   8  -1   0    0.76    0.70
  -8  -1   0   -0.45    0.72
  -8   1   0   -0.20    0.68
   8   1   0   -1.01    0.57
   8   1   0   -1.08    0.65
  -8   1   0    0.25    0.71
   8   1   0   -0.06    0.59
   0  -2   0   36.80    1.01
   0  -2   0   35.28    1.02
   0  -2   0   35.61    1.04
   0  -2   0   37.04    0.99
   0  -2   0   33.34    0.99
   0   2   0   37.50    1.00
   0   2   0   36.62    1.03
   0   2   0   36.96    1.01
   0   2   0   36.45    0.99
   0   2   0   37.00    0.99
   0   2   0   35.83    1.04
   1  -2   0  823.34   21.90
   1  -2   0  854.92   22.36
  -1  -2   0  826.67   22.17
  -1  -2   0  798.50   21.95
   1  -2   0  804.38   22.08
  -1  -2   0  861.10   22.30
  -1  -2   0  868.99   22.22
  -1  -2   0  821.00   22.11
   1  -2   0  798.92   22.21
  -1  -2   0  875.22   22.18
  -1  -2   0  823.01   22.16
   1  -2   0  869.19   21.91
  -1   2   0  826.00   22.14
   1   2   0  901.25   22.28
   1   2   0  879.78   22.17
  -1   2   0  804.53   22.14
  -1   2   0  829.02   22.08
   1   2   0  818.85   22.06
   1   2   0  799.62   22.16
  -1   2   0  864.79   22.26
   1   2   0  851.85   22.18
  -1   2   0  856.58   22.11
   1   2   0  884.39   22.31
   1   2   0  826.27   22.16
  -2  -2   0   64.57    1.95
  -2  -2   0   65.23    1.89
  -2  -2   0   68.21    1.92
   2  -2   0   68.81    1.83
  -2  -2   0   66.89    1.90
   2  -2   0   66.40    1.83
  -2  -2   0   66.73    1.92
  -2  -2   0   68.06    1.94
   2  -2   0   68.31    1.95
   2  -2   0   67.21    1.87
  -2   2   0   65.46    1.90
   2   2   0   66.03    1.93
   2   2   0   67.35    1.89
  -2   2   0   70.26    1.82
   2   2   0   66.34    1.84
   2   2   0   68.62    1.92
   2   2   0   68.68    1.91
  -2   2   0   67.33    1.81
  -2   2   0   69.49    1.83
  -2   2   0   68.49    1.94
   2   2   0   66.95    1.91
   2   2   0   64.15    1.92
  -2   2   0   67.23    1.93
  -2   2   0   68.59    1.83
  -2   2   0   68.65    1.86
   3  -2   0   13.34    0.52
  -3  -2   0   12.95    0.57
   3  -2   0   11.93    0.60
   3  -2   0   13.17    0.56
   3  -2   0   12.66    0.49
  -3  -2   0   13.18    0.59
  -3  -2   0   13.33    0.63
  -3  -2   0   12.95    0.67
  -3  -2   0   12.80    0.59
   3  -2   0   13.48    0.51
  -3  -2   0   12.59    0.51
  -3   2   0   13.27    0.42
  -3   2   0   12.82    0.53
  -3   2   0   12.22    0.51
  -3   2   0   12.62    0.41
   3   2   0   13.59    0.64
  -3   2   0   12.41    0.55
   3   2   0   12.89    0.45
   3   2   0   13.29    0.58
  -3   2   0   13.33    0.49
   3   2   0   12.28    0.56
  -3   2   0   12.40    0.44
  -3   2   0   12.36    0.57
   3   2   0   13.09    0.58
   3   2   0   12.75    0.58
   4  -2   0    1.35    0.22
   4  -2   0    1.48    0.25
  -4  -2   0    1.01    0.32
   4  -2   0    1.43    0.27
  -4  -2   0    1.09    0.27
   4  -2   0    1.55    0.32
   4  -2   0    1.11    0.31
  -4  -2   0    1.40    0.32
  -4  -2   0    1.27    0.30
  -4  -2   0    1.03    0.28
  -4  -2   0    1.24    0.30
  -4   2   0    1.93    0.27
   4   2   0    1.10    0.30
   4   2   0    1.06    0.27
  -4   2   0    1.02    0.14
  -4   2   0    0.88    0.27
   4   2   0    1.33    0.31
  -4   2   0    1.14    0.27
  -4   2   0    1.05    0.22
   4   2   0    1.39    0.16
   4   2   0    1.29    0.14
  -4   2   0    0.89    0.29
  -4   2   0    1.44    0.24
   4   2   0    1.57    0.27
   4   2   0    1.47    0.37
  -5  -2   0    5.96    0.69
   5  -2   0    5.05    0.49
   5  -2   0    6.59    0.60
   5  -2   0    5.19    0.61
  -5  -2   0    5.97    0.61
  -5  -2   0    5.78    0.61
   5  -2   0    5.86    0.47
  -5   2   0    5.86    0.62
  -5   2   0    5.48    0.63
   5   2   0    5.70    0.61
  -5   2   0    5.56    0.59
   5   2   0    5.95    0.56
   5   2   0    7.12    0.72
  -5   2   0    5.31    0.61
   5   2   0    6.14    0.54
  -6  -2   0    3.12    0.54
   6  -2   0    2.75    0.47
   6  -2   0    2.01    0.56
   6  -2   0    2.97    0.42
  -6  -2   0    2.78    0.53
  -6  -2   0    2.83    0.62
   6  -2   0    3.46    0.42
   6   2   0    3.00    0.46
  -6   2   0    3.14    0.53
   6   2   0    2.43    0.47
   6   2   0    2.82    0.50
  -6   2   0    3.11    0.53
   6   2   0    2.40    0.74
  -6   2   0    3.09    0.55
   7  -2   0    1.94    0.39
   7  -2   0    1.24    0.52
   7  -2   0    2.42    0.51
  -7  -2   0    2.65    0.91
  -7  -2   0    1.86    0.67
  -7   2   0    0.75    0.57
   7   2   0    1.35    0.59
   7   2   0    2.16    0.51
  -7   2   0    2.46    0.62
   7   2   0    2.32    0.58
   8  -2   0    3.45    0.52
  -8  -2   0    3.53    0.88
   8  -2   0    4.70    0.80
  -8  -2   0    4.16    0.90
  -8   2   0    2.76    0.80
   8   2   0    3.16    0.77
   8   2   0    2.81    0.76
  -8   2   0    3.37    0.91
   8   2   0    2.85    0.75
   0  -3   0   -0.23    0.15
   0  -3   0   -0.25    0.11
   0  -3   0   -0.15    0.09
   0  -3   0   -0.16    0.08
   0  -3   0   -0.21    0.11
   0   3   0   -0.27    0.07
   0   3   0   -0.35    0.10
   0   3   0   -0.04    0.13
   0   3   0   -0.14    0.08
   0   3   0   -0.25    0.13
   0   3   0   -0.28    0.11
   0   3   0   -0.19    0.09
   1  -3   0   48.91    1.22
  -1  -3   0   48.10    1.34
   1  -3   0   46.32    1.34
  -1  -3   0   45.65    1.34
   1  -3   0   46.04    1.35
  -1  -3   0   45.28    1.29
  -1  -3   0   46.55    1.30
  -1  -3   0   47.03    1.38
  -1  -3   0   45.68    1.34
  -1   3   0   42.33    1.39
   1   3   0   46.16    1.37
  -1   3   0   46.53    1.32
   1   3   0   47.79    1.30
  -1   3   0   46.59    1.32
   1   3   0   45.73    1.35
   1   3   0   45.59    1.33
  -1   3   0   46.21    1.33
  -1   3   0   45.73    1.34
   1   3   0   46.21    1.29
  -2  -3   0    0.73    0.18
  -2  -3   0    0.63    0.18
  -2  -3   0    0.67    0.19
  -2  -3   0    0.47    0.18
   2  -3   0    0.53    0.09
   2  -3   0    0.38    0.18
   2  -3   0    0.48    0.14
  -2  -3   0    0.87    0.14
  -2  -3   0    0.36    0.22
   2   3   0    0.88    0.19
  -2   3   0    0.54    0.13
   2   3   0    0.54    0.23
   2   3   0    0.40    0.15
   2   3   0    0.65    0.16
  -2   3   0    0.62    0.14
   2   3   0    0.81    0.16
  -2   3   0    0.37    0.15
  -2   3   0    0.33    0.13
   2   3   0    0.64    0.19
   2   3   0    0.65    0.18
  -3  -3   0    2.14    0.32
   3  -3   0    2.84    0.26
  -3  -3   0    2.87    0.32
   3  -3   0    2.44    0.29
   3  -3   0    2.61    0.36
   3  -3   0    2.44    0.21
  -3  -3   0    2.65    0.25
  -3  -3   0    2.94    0.34
  -3  -3   0    2.14    0.30
  -3   3   0    2.60    0.24
   3   3   0    2.03    0.23
   3   3   0    2.96    0.33
  -3   3   0    2.17    0.29
   3   3   0    2.53    0.31
   3   3   0    2.83    0.34
   3   3   0    1.86    0.26
   3   3   0    2.50    0.33
   3   3   0    2.42    0.27
  -3   3   0    2.95    0.35
  -3   3   0    2.44    0.22
  -3   3   0    2.30    0.25
  -3   3   0    2.71    0.15
  -3   3   0    2.27    0.26
  -3   3   0    2.93    0.21
  -4  -3   0    5.47    0.57
   4  -3   0    5.92    0.52
   4  -3   0    5.86    0.41
  -4  -3   0    6.25    0.57
   4  -3   0    4.82    0.34
  -4  -3   0    5.81    0.56
  -4  -3   0    5.31    0.51
  -4  -3   0    4.63    0.61
   4  -3   0    5.87    0.43
  -4  -3   0    4.60    0.49
  -4   3   0    5.27    0.37
   4   3   0    6.11    0.48
  -4   3   0    4.69    0.41
   4   3   0    5.51    0.47
   4   3   0    6.10    0.32
  -4   3   0    5.28    0.47
   4   3   0    5.96    0.52
  -4   3   0    5.49    0.30
  -4   3   0    5.56    0.29
  -4   3   0    4.99    0.27
   4   3   0    5.01    0.47
  -4   3   0    4.65    0.48
  -4   3   0    5.30    0.50
   4   3   0    5.66    0.63
  -5  -3   0   10.84    0.84
   5  -3   0   10.15    0.54
  -5  -3   0    9.19    0.71
  -5  -3   0    9.22    0.70
   5  -3   0   10.15    0.66
   5  -3   0    9.70    0.69
   5  -3   0   10.15    0.59
   5   3   0    9.33    0.72
   5   3   0    9.27    0.68
   5   3   0    9.95    0.65
   5   3   0    9.04    0.39
  -5   3   0    8.20    0.73
  -5   3   0    9.63    0.61
  -5   3   0    9.88    0.74
   5   3   0    9.25    0.43
   5   3   0    9.74    0.95
  -5   3   0    9.75    0.71
  -6  -3   0    2.14    0.62
  -6  -3   0    2.47    0.52
   6  -3   0    2.56    0.49
  -6  -3   0    2.64    0.50
   6  -3   0    2.50    0.55
   6  -3   0    2.41    0.34
   6  -3   0    2.89    0.43
   6   3   0    2.31    0.42
   6   3   0    2.63    0.84
  -6   3   0    2.41    0.49
  -6   3   0    3.03    0.56
  -6   3   0    2.80    0.51
   6   3   0    3.32    0.52
   6   3   0    2.62    0.51
  -7  -3   0    0.49    0.60
   7  -3   0   -0.56    0.30
  -7  -3   0   -0.10    0.49
   7  -3   0    0.06    0.49
   7  -3   0   -0.03    0.43
  -7   3   0    0.07    0.57
  -7   3   0    0.83    0.54
   7   3   0    0.24    0.53
   7   3   0   -0.24    0.50
   8  -3   0   -0.34    0.67
   8  -3   0    0.61    0.44
   8  -3   0   -1.02    0.77
  -8  -3   0   -0.22    0.70
  -8  -3   0    0.49    0.83
   8   3   0    1.09    0.76
   8   3   0    0.48    0.70
  -8   3   0   -0.19    0.72
  -8   3   0   -1.17    0.78
   8   3   0   -0.38    0.65
   0  -4   0   14.27    0.56
   0  -4   0   13.91    0.50
   0  -4   0   13.06    0.47
   0  -4   0   13.74    0.47
   0   4   0   13.97    0.46
   0   4   0   14.57    0.48
   0   4   0   13.92    0.44
   0   4   0   14.85    0.53
   0   4   0   14.02    0.50
   0   4   0   14.74    0.53
   0   4   0   13.64    0.53
   1  -4   0   14.05    0.56
  -1  -4   0   14.35    0.52
  -1  -4   0   14.38    0.50
  -1  -4   0   12.30    0.65
   1  -4   0   14.28    0.55
   1  -4   0   13.48    0.41
   1  -4   0   14.47    0.41
  -1  -4   0   13.87    0.47
   1   4   0   13.38    0.56
   1   4   0   13.76    0.53
  -1   4   0   13.80    0.53
  -1   4   0   14.25    0.52
   1   4   0   13.90    0.50
   1   4   0   13.05    0.51
   1   4   0   14.27    0.48
  -1   4   0   14.85    0.52
   1   4   0   14.83    0.51
  -1   4   0   14.28    0.54
  -1   4   0   14.01    0.53
  -2  -4   0    0.55    0.14
  -2  -4   0    0.20    0.23
   2  -4   0    0.16    0.06
  -2  -4   0    0.39    0.20
   2  -4   0    0.16    0.06
  -2  -4   0   -0.05    0.15
   2  -4   0    0.28    0.20
  -2   4   0    0.43    0.15
  -2   4   0    0.58    0.16
   2   4   0    0.32    0.19
  -2   4   0    0.24    0.14
   2   4   0    0.42    0.21
   2   4   0    0.41    0.18
   2   4   0    0.47    0.19
   2   4   0    0.17    0.14
  -2   4   0    0.40    0.15
  -2   4   0    0.39    0.15
   2   4   0    0.13    0.14
   2   4   0   -0.11    0.16
  -3  -4   0    6.36    0.45
   3  -4   0    6.23    0.28
  -3  -4   0    6.69    0.56
   3  -4   0    5.49    0.38
  -3  -4   0    6.32    0.48
  -3  -4   0    5.33    0.49
  -3  -4   0    5.41    0.36
  -3  -4   0    5.22    0.49
   3  -4   0    5.76    0.48
   3  -4   0    6.21    0.30
  -3   4   0    5.69    0.39
   3   4   0    6.64    0.46
   3   4   0    7.21    0.41
   3   4   0    6.32    0.46
   3   4   0    6.33    0.41
  -3   4   0    6.04    0.35
  -3   4   0    6.56    0.41
   3   4   0    6.30    0.41
  -3   4   0    5.89    0.44
   3   4   0    6.03    0.50
   3   4   0    5.84    0.52
  -3   4   0    6.35    0.38
  -3   4   0    5.97    0.41
   4  -4   0    9.15    0.52
  -4  -4   0    9.62    0.70
   4  -4   0    9.19    0.42
  -4  -4   0    9.38    0.64
   4  -4   0   10.77    0.64
  -4  -4   0    9.06    0.61
  -4  -4   0    9.64    0.78
  -4  -4   0    9.95    0.60
   4  -4   0    9.21    0.64
  -4   4   0    8.75    0.58
   4   4   0    8.80    0.52
   4   4   0    9.00    0.80
   4   4   0    9.47    0.65
  -4   4   0    7.56    0.34
  -4   4   0    9.68    0.47
  -4   4   0    9.59    0.43
   4   4   0    9.02    0.57
  -4   4   0   10.13    0.62
   4   4   0    9.54    0.59
  -4   4   0    9.01    0.38
   5  -4   0   20.83    0.79
  -5  -4   0   21.54    0.97
   5  -4   0   20.15    1.02
  -5  -4   0   20.42    1.28
  -5  -4   0   21.63    1.03
   5  -4   0   22.19    0.88
  -5  -4   0   21.11    1.04
   5   4   0   20.63    0.96
  -5   4   0   22.82    1.01
  -5   4   0   20.26    1.04
   5   4   0   21.55    1.06
   5   4   0   18.79    1.27
  -5   4   0   20.33    0.66
   5   4   0   19.57    0.78
  -5   4   0   19.87    0.78
  -5   4   0   19.67    0.69
   5   4   0   20.15    0.82
   5   4   0   20.62    0.96
  -5   4   0   19.91    1.12
   6  -4   0    5.87    0.68
   6  -4   0    7.33    0.65
  -6  -4   0    6.60    0.76
  -6  -4   0    6.50    0.77
   6  -4   0    7.00    0.53
  -6  -4   0    7.31    0.90
   6  -4   0    6.06    0.69
   6   4   0    7.05    0.90
  -6   4   0    6.35    0.75
  -6   4   0    6.06    0.81
   6   4   0    7.31    0.74
   6   4   0    6.05    0.71
   6   4   0    6.10    0.37
   7  -4   0   -0.74    0.46
  -7  -4   0    0.55    0.61
   7  -4   0    1.27    0.49
  -7  -4   0    0.72    0.52
   7  -4   0    0.06    0.30
   7   4   0    0.36    0.50
   7   4   0    0.69    0.92
   7   4   0   -0.64    0.63
  -7   4   0    0.90    0.59
  -8  -4   0   -1.87    0.86
   8  -4   0   -0.69    0.71
   8  -4   0    0.40    0.42
  -8  -4   0    1.50    0.79
   8   4   0    0.31    0.77
  -8   4   0    1.49    0.77
   8   4   0    0.68    0.74
  -8   4   0   -1.68    0.83
   8   4   0    0.37    0.87
   0  -5   0   -0.06    0.11
   0  -5   0   -0.06    0.18
   0  -5   0    0.06    0.14
   0  -5   0    0.07    0.10
   0   5   0    0.06    0.11
   0   5   0   -0.01    0.10
   0   5   0   -0.19    0.15
   0   5   0    0.15    0.17
   0   5   0    0.00    0.11
   0   5   0   -0.04    0.12
   1  -5   0    0.02    0.07
   1  -5   0   -0.02    0.07
   1  -5   0   -0.12    0.14
  -1  -5   0    0.15    0.20
   1  -5   0   -0.15    0.16
  -1  -5   0    0.12    0.14
  -1  -5   0    0.26    0.12
  -1  -5   0    0.05    0.12
  -1  -5   0   -0.02    0.13
  -1  -5   0   -0.03    0.15
   1   5   0    0.02    0.15
   1   5   0   -0.13    0.18
  -1   5   0    0.04    0.15
  -1   5   0    0.01    0.14
  -1   5   0   -0.02    0.14
   1   5   0   -0.02    0.14
  -1   5   0   -0.03    0.16
   1   5   0    0.27    0.13
   1   5   0    0.04    0.10
  -1   5   0    0.00    0.12
   1   5   0    0.32    0.13
   1   5   0    0.02    0.09
  -2  -5   0  104.57    2.96
  -2  -5   0  105.08    2.88
  -2  -5   0  105.33    3.01
  -2  -5   0  103.52    2.95
  -2  -5   0  108.41    2.97
  -2   5   0  103.66    2.90
   2   5   0  102.51    2.94
  -2   5   0  102.30    2.97
  -2   5   0  107.45    2.92
   2   5   0  104.66    2.89
  -2   5   0  101.01    2.95
   2   5   0  103.80    2.96
  -2   5   0  102.33    2.95
   2   5   0  104.40    2.87
   2   5   0  105.90    2.93
   2   5   0  107.36    2.98
   2   5   0  101.54    2.98
  -3  -5   0   18.08    0.83
  -3  -5   0   17.64    0.72
  -3  -5   0   17.63    0.75
  -3  -5   0   18.16    0.74
  -3  -5   0   19.42    0.83
   3  -5   0   18.89    0.56
   3  -5   0   17.78    0.56
   3  -5   0   18.88    0.83
  -3   5   0   17.55    0.79
   3   5   0   18.65    0.76
   3   5   0   18.55    0.85
  -3   5   0   18.16    0.78
   3   5   0   16.87    0.75
   3   5   0   16.18    0.74
   3   5   0   18.86    0.72
  -3   5   0   18.00    0.69
  -3   5   0   18.88    0.83
   3   5   0   18.86    0.82
  -3   5   0   19.40    0.74
   3   5   0   19.01    0.87
  -3   5   0   19.00    0.75
   4  -5   0   11.40    0.74
  -4  -5   0   10.57    0.75
  -4  -5   0   11.62    0.73
  -4  -5   0   12.68    0.93
  -4  -5   0   11.85    0.66
   4  -5   0   11.18    0.47
  -4  -5   0   11.29    0.72
   4  -5   0   11.94    0.46
   4  -5   0   11.94    0.61
  -4   5   0   10.86    0.60
  -4   5   0   11.53    0.52
   4   5   0   13.06    0.96
  -4   5   0   10.87    0.67
   4   5   0   10.97    0.62
  -4   5   0   10.23    0.80
   4   5   0   12.08    0.70
  -4   5   0   12.88    0.71
   4   5   0   10.86    0.67
   5  -5   0    2.89    0.48
  -5  -5   0    2.91    0.46
   5  -5   0    2.71    0.31
  -5  -5   0    4.10    0.88
   5  -5   0    3.06    0.35
   5  -5   0    2.74    0.38
  -5  -5   0    2.53    0.45
  -5  -5   0    2.31    0.47
  -5   5   0    3.42    0.47
   5   5   0    3.57    0.46
   5   5   0    2.91    0.49
   5   5   0    2.30    0.74
  -5   5   0    2.82    0.49
  -5   5   0    2.84    0.39
   5   5   0    3.25    0.38
   5   5   0    2.90    0.45
   5   5   0    2.57    0.41
  -5   5   0    3.05    0.56
  -5   5   0    3.21    0.37
   6  -5   0   -0.15    0.34
   6  -5   0    0.06    0.47
   6  -5   0    0.15    0.38
  -6  -5   0    0.23    0.43
  -6  -5   0   -0.36    0.44
  -6  -5   0    1.08    0.53
  -6   5   0   -0.24    0.44
   6   5   0    0.46    0.39
   6   5   0    0.58    0.43
   6   5   0   -0.13    0.49
  -7  -5   0    0.19    0.60
   7  -5   0    0.73    0.31
  -7  -5   0   -0.61    0.64
   7  -5   0    0.39    0.52
   7  -5   0    0.47    0.56
   7   5   0   -0.12    0.71
   7   5   0    0.73    0.71
   7   5   0    1.07    0.55
  -7   5   0    1.06    0.60
  -7   5   0    0.64    0.64
   8  -5   0    1.02    0.44
  -8  -5   0   -2.05    0.96
   8  -5   0    0.52    0.74
  -8  -5   0    1.58    0.87
   8   5   0    0.39    0.80
   8   5   0    0.36    0.85
  -8   5   0   -0.17    0.90
   8   5   0    1.50    0.99
  -8   5   0    0.05    0.84
   0  -6   0  190.57    5.13
   0  -6   0  201.75    5.29
   0  -6   0  194.28    5.13
   0  -6   0  196.54    5.17
   0   6   0  179.53    5.24
   0   6   0  194.99    5.23
   0   6   0  191.41    5.13
   0   6   0  194.96    5.17
   0   6   0  185.79    5.23
   0   6   0  183.81    5.09
   0   6   0  199.10    5.13
  -1  -6   0   22.11    0.89
  -1  -6   0   22.21    0.75
  -1  -6   0   21.42    0.80
   1  -6   0   22.09    0.65
  -1  -6   0   20.61    0.78
  -1  -6   0   22.11    0.79
   1  -6   0   22.12    0.86
   1  -6   0   20.71    0.66
   1  -6   0   21.26    0.80
   1   6   0   23.00    0.78
   1   6   0   20.99    0.77
  -1   6   0   21.65    0.78
   1   6   0   20.67    0.82
  -1   6   0   21.19    0.82
  -1   6   0   22.90    0.79
  -1   6   0   21.63    0.82
   1   6   0   21.33    0.72
  -1   6   0   20.72    0.78
   1   6   0   22.28    0.71
  -1   6   0   21.18    0.81
   1   6   0   22.01    0.82
   1   6   0   20.58    0.83
  -1   6   0   22.31    0.80
  -2  -6   0    5.85    0.52
  -2  -6   0    5.16    0.42
  -2  -6   0    5.72    0.37
  -2  -6   0    6.38    0.41
  -2  -6   0    6.06    0.53
  -2  -6   0    5.56    0.45
  -2   6   0    5.68    0.49
  -2   6   0    6.15    0.47
   2   6   0    6.02    0.43
   2   6   0    5.79    0.37
  -2   6   0    5.54    0.52
   2   6   0    6.65    0.43
  -2   6   0    6.21    0.48
   2   6   0    5.77    0.45
   2   6   0    5.75    0.46
   2   6   0    5.89    0.48
  -2   6   0    6.03    0.45
  -3  -6   0   29.50    1.20
  -3  -6   0   30.34    1.19
  -3  -6   0   29.76    1.02
  -3  -6   0   30.47    1.06
  -3  -6   0   29.61    1.13
   3   6   0   28.35    1.17
  -3   6   0   30.64    1.08
  -3   6   0   28.02    1.02
   3   6   0   29.62    1.01
  -3   6   0   28.70    1.17
   3   6   0   28.89    1.11
   3   6   0   28.99    1.06
  -3   6   0   33.68    1.15
  -3   6   0   29.98    1.08
   3   6   0   30.45    1.17
   3   6   0   28.70    1.10
  -3   6   0   26.75    1.17
   4  -6   0   12.16    0.43
  -4  -6   0   11.59    0.84
   4  -6   0   11.58    0.45
   4  -6   0   12.26    0.76
  -4  -6   0   11.90    0.78
  -4  -6   0   12.54    0.69
  -4  -6   0   11.63    1.02
  -4  -6   0   12.13    0.80
  -4   6   0   12.33    0.58
  -4   6   0   11.46    0.72
  -4   6   0   12.64    0.80
   4   6   0    9.86    1.11
   4   6   0   12.88    0.87
   4   6   0   11.67    0.74
  -4   6   0   12.52    0.77
   4   6   0   12.56    0.66
  -5  -6   0    0.55    0.44
  -5  -6   0    0.40    0.40
   5  -6   0    0.37    0.17
  -5  -6   0    0.26    0.36
   5  -6   0    0.52    0.22
   5  -6   0    0.04    0.39
  -5  -6   0    1.74    0.90
  -5   6   0    0.27    0.35
  -5   6   0    0.53    0.43
  -5   6   0   -0.18    0.64
   5   6   0    0.67    0.25
   5   6   0    0.29    0.43
   5   6   0    0.19    0.35
  -5   6   0    0.41    0.39
   5   6   0    0.08    0.34
  -5   6   0    0.01    0.21
  -6  -6   0    1.29    0.53
   6  -6   0    0.69    0.49
  -6  -6   0    0.92    0.60
  -6  -6   0    2.50    0.55
   6  -6   0    1.21    0.23
   6  -6   0    1.51    0.37
   6   6   0    1.37    0.46
   6   6   0    0.76    0.60
   6   6   0    1.57    0.31
  -6   6   0    1.09    0.53
  -6   6   0    0.99    0.51
   6   6   0    1.61    0.50
   7  -6   0    4.76    0.58
  -7  -6   0    4.90    0.99
  -7  -6   0    6.03    0.84
  -7   6   0    5.09    0.84
   7   6   0    5.62    0.79
   7   6   0    3.85    0.88
   7   6   0    4.68    0.73
  -7   6   0    6.11    0.86
   0  -7   0    0.09    0.17
   0  -7   0   -0.20    0.13
   0  -7   0   -0.23    0.22
   0   7   0   -0.07    0.22
   0   7   0    0.07    0.17
   0   7   0    0.23    0.17
   0   7   0    0.49    0.23
   0   7   0   -0.20    0.15
   0   7   0   -0.12    0.10
   0   7   0   -0.27    0.23
   0   7   0   -0.10    0.19
   1  -7   0    0.85    0.29
  -1  -7   0    0.87    0.24
  -1  -7   0    1.03    0.23
  -1  -7   0    0.71    0.22
  -1  -7   0    0.80    0.22
   1  -7   0    1.37    0.28
   1  -7   0    1.05    0.15
   1  -7   0    0.94    0.15
  -1  -7   0    0.97    0.31
  -1   7   0    1.22    0.27
   1   7   0    1.18    0.19
  -1   7   0    1.17    0.25
   1   7   0    1.06    0.25
  -1   7   0    0.77    0.30
   1   7   0    1.53    0.21
   1   7   0    1.14    0.26
   1   7   0    1.20    0.22
  -1   7   0    1.31    0.23
   1   7   0    0.96    0.27
  -1   7   0    1.12    0.32
   1   7   0    0.88    0.14
  -2  -7   0   12.29    0.65
  -2  -7   0   11.85    0.70
  -2  -7   0   12.71    0.71
  -2  -7   0   11.52    0.56
  -2  -7   0   12.65    0.57
  -2   7   0   10.11    0.73
  -2   7   0   11.35    0.68
   2   7   0   11.45    0.67
  -2   7   0   11.43    0.69
  -2   7   0   11.39    0.59
   2   7   0   12.58    0.53
   2   7   0   12.78    0.82
  -2   7   0   10.83    0.69
  -2   7   0   10.85    0.73
   2   7   0   12.36    0.61
   2   7   0   12.36    0.68
  -3  -7   0    6.06    0.46
  -3  -7   0    5.36    0.58
  -3  -7   0    6.33    0.75
  -3  -7   0    5.94    0.59
  -3  -7   0    6.22    0.62
   3   7   0    6.02    0.43
  -3   7   0    5.75    0.46
  -3   7   0    6.24    0.67
  -3   7   0    5.30    0.52
   3   7   0    5.52    0.59
  -3   7   0    5.64    0.64
   3   7   0    6.06    0.71
   3   7   0    6.01    0.57
  -3   7   0    6.61    0.59
  -4  -7   0    0.81    0.61
  -4  -7   0    0.94    0.41
  -4  -7   0    1.40    0.54
  -4  -7   0    1.11    0.35
  -4  -7   0    1.03    0.33
   4   7   0    0.93    0.29
  -4   7   0    0.59    0.34
  -4   7   0    0.71    0.50
   4   7   0    0.54    0.32
   4   7   0    0.85    0.47
  -4   7   0    1.34    0.55
  -4   7   0    0.84    0.27
   4   7   0    0.98    0.50
   4   7   0    0.74    0.28
   5  -7   0    0.15    0.15
  -5  -7   0    0.32    0.47
  -5  -7   0    0.25    0.38
  -5  -7   0    1.27    0.43
  -5   7   0    0.06    0.28
  -5   7   0    1.00    0.44
   5   7   0    0.11    0.39
   5   7   0    0.06    0.36
   5   7   0    0.85    0.30
  -5   7   0    0.55    0.48
   5   7   0    0.56    0.52
  -6  -7   0   28.89    1.42
   6  -7   0   23.55    0.92
  -6  -7   0   26.07    1.52
  -6  -7   0   27.12    1.32
   6   7   0   25.87    1.08
   6   7   0   28.36    1.59
   6   7   0   26.47    1.30
  -6   7   0   27.75    1.49
   6   7   0   25.49    1.31
  -6   7   0   28.88    1.48
  -7  -7   0    2.40    0.72
   7   7   0    0.90    0.70
  -7   7   0    1.11    0.74
   7   7   0    1.76    0.69
  -7   7   0    1.30    0.80
   0  -8   0   18.74    0.70
   0  -8   0   18.66    0.90
   0  -8   0   18.51    0.75
   0  -8   0   18.02    0.74
   0   8   0   19.47    0.68
   0   8   0   18.98    0.82
   0   8   0   18.24    0.83
   0   8   0   18.47    0.73
   0   8   0   18.15    0.70
   1  -8   0   15.65    0.82
  -1  -8   0   15.19    0.81
   1  -8   0   14.73    0.56
  -1  -8   0   15.65    0.76
   1  -8   0   15.27    0.55
  -1  -8   0   15.74    0.68
   1  -8   0   15.34    0.72
  -1   8   0   13.97    0.81
   1   8   0   16.31    0.61
  -1   8   0   14.32    0.88
  -1   8   0   14.45    0.72
  -1   8   0   16.03    0.67
  -1   8   0   16.25    0.75
   1   8   0   16.32    0.78
   1   8   0   15.42    0.74
  -2  -8   0   -0.04    0.26
  -2  -8   0   -0.26    0.23
  -2  -8   0    0.18    0.32
  -2   8   0   -0.30    0.44
   2   8   0    0.01    0.21
  -2   8   0    0.53    0.27
  -2   8   0   -0.20    0.23
  -2   8   0    0.03    0.39
  -2   8   0    0.10    0.23
   2   8   0    0.28    0.32
   2   8   0    0.53    0.28
  -2   8   0   -0.79    0.42
   2   8   0    0.32    0.33
  -3  -8   0    3.93    0.49
  -3  -8   0    3.50    0.50
  -3  -8   0    4.75    0.65
  -3  -8   0    4.57    0.60
  -3  -8   0    3.91    0.43
  -3   8   0    3.76    0.47
   3   8   0    3.78    0.53
   3   8   0    4.16    0.41
  -3   8   0    4.49    0.47
   3   8   0    4.00    0.49
   3   8   0    3.24    0.44
  -3   8   0    3.84    0.67
  -4  -8   0    1.56    0.97
  -4  -8   0    1.06    0.42
  -4  -8   0    1.25    0.41
  -4  -8   0    1.15    0.62
  -4  -8   0    1.38    0.35
   4   8   0    0.82    0.32
  -4   8   0    1.25    0.43
  -4   8   0    1.08    0.30
   4   8   0    0.20    0.53
   4   8   0    0.99    0.38
   4   8   0    1.14    0.31
  -5  -8   0    4.32    0.63
  -5  -8   0    4.30    0.59
  -5  -8   0    4.36    0.56
  -5   8   0    4.53    0.57
   5   8   0    5.50    0.78
   5   8   0    4.90    0.56
   5   8   0    4.16    0.58
  -5   8   0    6.43    0.75
   5   8   0    4.76    0.60
  -6  -8   0    3.92    0.68
  -6  -8   0    7.40    0.99
  -6  -8   0    2.75    0.84
   6   8   0    3.68    0.65
   6   8   0    4.26    0.53
  -6   8   0    4.74    0.86
  -6   8   0    4.86    0.76
   6   8   0    3.85    0.61
  -7  -8   0    4.52    0.94
  -7   8   0    4.38    0.92
   7   8   0    4.64    0.79
  -7   8   0    2.25    0.97
   0  -9   0    0.03    0.25
   0  -9   0    0.03    0.18
   0  -9   0   -0.16    0.32
   0   9   0    0.19    0.40
   0   9   0   -0.11    0.24
   0   9   0    0.18    0.28
   0   9   0   -0.22    0.27
   0   9   0    0.29    0.27
   1  -9   0    5.68    0.35
   1  -9   0    5.33    0.61
   1  -9   0    5.69    0.36
   1  -9   0    5.29    0.51
  -1  -9   0    5.69    0.62
  -1  -9   0    5.19    0.44
  -1  -9   0    5.09    0.63
  -1  -9   0    5.21    0.48
   1   9   0    5.45    0.43
   1   9   0    5.60    0.53
   1   9   0    5.65    0.62
  -1   9   0    6.04    0.63
  -1   9   0    5.50    0.53
   1   9   0    5.45    0.55
  -1   9   0    4.69    0.46
  -1   9   0    4.94    0.58
  -2  -9   0    0.35    0.38
  -2  -9   0    0.28    0.33
  -2  -9   0    0.29    0.25
  -2  -9   0   -0.04    0.26
   2   9   0    0.23    0.38
  -2   9   0   -0.19    0.27
   2   9   0    0.44    0.29
   2   9   0    0.12    0.41
   2   9   0    0.26    0.24
  -2   9   0    0.15    0.28
  -2   9   0    0.44    0.77
  -2   9   0    0.32    0.29
  -3  -9   0    0.19    0.27
  -3  -9   0    0.20    0.38
  -3  -9   0   -0.04    0.59
  -3  -9   0   -0.16    0.33
  -3  -9   0    0.13    0.40
   3   9   0    0.02    0.50
   3   9   0   -0.01    0.47
   3   9   0    0.67    0.34
  -3   9   0   -0.40    0.30
  -3   9   0   -0.08    0.27
  -4  -9   0    0.46    0.50
  -4  -9   0    0.59    0.34
  -4  -9   0    0.33    0.45
   4   9   0    0.68    0.34
  -4   9   0    0.20    0.38
  -4   9   0    0.76    0.34
   4   9   0    0.37    0.76
  -4   9   0    0.81    0.45
   4   9   0    0.34    1.16
   4   9   0    0.23    0.34
  -5  -9   0   18.37    1.05
  -5  -9   0   19.12    1.29
  -5  -9   0   23.14    1.23
  -5   9   0   20.34    1.30
   5   9   0   19.80    1.04
  -5   9   0   19.12    0.99
   5   9   0   20.32    1.02
  -5   9   0   20.05    1.05
   5   9   0   18.43    1.12
  -6  -9   0   -0.45    0.77
  -6  -9   0    0.32    0.66
  -6   9   0    1.02    0.76
   6   9   0    0.49    0.59
  -6   9   0    0.70    0.81
   0 -10   0    2.15    0.35
   0 -10   0    1.95    0.46
   0 -10   0    1.97    0.28
   0 -10   0    1.97    0.32
   0  10   0    1.60    0.60
   0  10   0    0.80    0.38
   0  10   0    1.79    0.39
   1 -10   0    0.05    0.19
  -1 -10   0    0.48    0.28
  -1 -10   0    0.24    0.35
  -1 -10   0    0.10    0.26
   1 -10   0    0.62    0.35
  -1 -10   0    0.44    0.42
  -1  10   0    0.51    0.26
  -1  10   0    0.16    0.64
   1  10   0   -0.35    0.30
  -1  10   0    0.16    0.31
  -1  10   0   -0.12    0.47
   1  10   0    0.20    0.44
  -1  10   0   -0.18    0.34
   1  10   0    0.49    0.27
   1  10   0    0.64    0.53
  -2 -10   0    4.55    0.67
  -2 -10   0    4.88    0.62
  -2 -10   0    4.91    0.66
  -2 -10   0    4.95    0.49
   2  10   0    5.09    0.44
  -2  10   0    4.77    0.59
   2  10   0    5.18    0.66
  -2  10   0    5.51    0.84
  -2  10   0    4.74    0.54
  -2  10   0    5.63    0.58
   2  10   0    5.29    0.55
  -3 -10   0   -0.10    0.31
  -3 -10   0   -0.89    0.38
  -3 -10   0    0.19    0.51
  -3  10   0    0.58    0.40
   3  10   0   -0.30    0.30
  -3  10   0    0.25    0.33
  -3  10   0    0.17    0.38
   3  10   0   -0.25    0.35
  -4 -10   0    0.44    0.52
  -4 -10   0    0.50    0.58
  -4  10   0   -0.03    0.83
   4  10   0    0.13    0.43
   4  10   0   -0.40    0.45
  -4  10   0    0.75    0.41
  -4  10   0   -0.19    0.45
  -5 -10   0    1.00    0.70
  -5 -10   0    2.27    0.65
   5  10   0    1.68    0.56
   5  10   0    0.60    0.52
  -5  10   0    0.94    0.71
  -5  10   0    1.15    0.47
  -5  10   0    1.15    0.72
  -5  10   0    0.72    0.58
  -6 -10   0   -0.17    0.95
  -6 -10   0    2.87    0.85
  -6  10   0    0.14    0.91
   6  10   0    0.26    0.68
  -6  10   0    0.22    0.89
   0 -11   0    0.06    0.42
   0 -11   0    0.33    0.44
   0 -11   0   -0.25    0.29
   0  11   0    0.04    0.37
  -1 -11   0   -0.03    0.31
   1 -11   0    0.37    0.47
   1 -11   0   -0.06    0.19
   1 -11   0    0.34    0.22
  -1 -11   0    0.71    0.63
  -1 -11   0    0.76    0.38
  -1  11   0   -0.10    0.38
  -1  11   0   -0.31    0.30
   1  11   0   -0.10    0.41
   1  11   0    0.39    0.56
  -1  11   0   -1.04    0.53
  -2 -11   0    8.36    0.60
  -2 -11   0    7.71    0.89
  -2 -11   0    7.01    0.73
   2  11   0    7.02    0.75
  -2  11   0    6.06    0.72
  -2  11   0    7.57    0.81
   2  11   0    8.29    0.82
  -3 -11   0    0.60    0.48
  -3 -11   0    1.48    0.54
   3  11   0    0.32    0.43
  -3  11   0    1.19    0.50
  -3  11   0    0.76    0.44
   3  11   0    1.25    0.46
  -3  11   0    1.00    0.47
  -4 -11   0    5.45    0.72
  -4 -11   0    5.28    0.76
   4  11   0    5.90    0.68
  -4  11   0    7.04    0.98
  -4  11   0    5.62    0.70
   4  11   0    4.34    0.65
  -4  11   0    5.46    0.63
  -4  11   0    6.70    0.86
  -5 -11   0    1.15    0.76
  -5 -11   0    0.28    0.74
  -5  11   0    0.18    0.87
   5  11   0    0.82    0.61
   5  11   0   -0.23    0.60
  -5  11   0    0.65    0.56
  -5  11   0    0.88    0.76
  -5  11   0    0.44    0.85
   0 -12   0   -0.15    0.37
   0 -12   0    0.90    0.32
   0 -12   0    0.07    0.49
   0  12   0    0.26    0.41
   0  12   0   -0.15    0.45
   1 -12   0    0.34    0.27
  -1 -12   0   -0.12    0.50
  -1 -12   0   -0.47    0.34
   1 -12   0    0.15    0.24
   1  12   0    0.04    0.47
   1  12   0   -0.19    0.40
  -1  12   0   -0.39    0.42
  -2 -12   0    1.41    0.45
  -2 -12   0    1.18    0.58
   2  12   0    1.09    0.51
  -2  12   0    2.37    0.62
  -2  12   0    1.56    0.48
   2  12   0    0.16    0.45
  -3 -12   0    2.01    0.58
  -3 -12   0    3.30    0.66
   3  12   0    1.92    0.61
   3  12   0    1.84    0.62
  -3  12   0    1.67    0.60
  -3  12   0    0.88    0.75
  -3  12   0    1.57    0.51
  -4 -12   0    0.48    0.65
  -4 -12   0    0.57    0.71
  -4  12   0    1.40    0.81
   4  12   0   -0.70    0.57
  -4  12   0   -1.05    0.79
  -4  12   0    1.30    0.59
  -4  12   0   -0.16    0.69
  -4  12   0   -0.05    0.71
   4  12   0   -0.67    0.59
   0 -13   0    0.37    0.35
   0 -13   0    1.07    0.69
   0  13   0    0.34    0.48
   1 -13   0    0.31    0.43
  -1 -13   0    1.26    0.47
   1 -13   0   -0.22    0.28
  -1 -13   0    0.26    0.63
   1  13   0   -0.34    0.55
   1  13   0   -0.10    0.55
  -1  13   0   -0.35    0.55
  -1  13   0    0.59    0.54
  -2 -13   0    2.27    0.75
  -2 -13   0    2.61    0.57
  -2  13   0    0.67    0.56
   2  13   0    1.75    0.62
  -2  13   0    1.05    0.68
   2  13   0    1.53    0.70
  -3 -13   0    0.81    0.64
  -3 -13   0    1.04    0.80
  -3  13   0    0.87    0.75
   3  13   0    0.42    0.67
  -3  13   0    1.08    0.62
   3  13   0    0.92    0.72
   0 -14   0    0.40    0.41
   0 -14   0    0.98    0.83
   0  14   0    0.76    0.66
   0  14   0    0.05    0.71
   1 -14   0    0.59    0.30
  -1 -14   0    0.70    0.83
   1 -14   0    0.70    0.28
   1  14   0    0.82    0.68
  -1  14   0   -0.50    0.63
  -1  14   0   -1.25    0.75
   1  14   0    1.14    0.82
  -8   0   1   -0.67    0.70
   8   0  -1    1.15    0.52
  -8   0   1   -0.73    0.70
   8   0  -1    0.05    0.64
   8   0  -1    0.34    0.61
   7   0  -1   -0.49    0.41
   7   0  -1    0.32    0.42
  -7   0   1    0.20    0.61
  -7   0   1   -0.32    0.46
   7   0  -1   -0.26    0.54
   6   0  -1    0.02    0.32
  -6   0   1   -0.18    0.47
   6   0  -1    0.69    0.57
   6   0  -1   -0.03    0.27
  -6   0   1    0.23    0.37
  -6   0   1    0.47    0.39
   6   0  -1   -0.07    0.32
   5   0  -1    0.14    0.24
   5   0  -1   -0.45    0.35
   5   0  -1    0.95    0.45
  -5   0   1    0.24    0.32
  -5   0   1    0.10    0.32
   5   0  -1    0.13    0.29
   5   0  -1   -0.38    0.21
  -5   0   1   -0.24    0.33
  -5   0   1   -0.04    0.30
   4   0  -1    0.11    0.23
   4   0  -1   -0.29    0.23
  -4   0   1    0.22    0.17
  -4   0   1    0.44    0.19
  -4   0   1    0.16    0.22
   4   0  -1   -0.01    0.18
   4   0  -1   -0.09    0.24
  -4   0   1    0.10    0.23
  -4   0   1    0.09    0.24
   4   0  -1    0.15    0.20
  -4   0   1   -0.09    0.21
  -3   0   1   -0.22    0.11
  -3   0   1    0.05    0.11
   3   0  -1   -0.05    0.16
   3   0  -1   -0.17    0.18
   3   0  -1   -0.08    0.15
   3   0  -1   -0.18    0.18
   3   0  -1   -0.21    0.19
  -3   0   1    0.02    0.16
  -3   0   1    0.14    0.21
  -3   0   1   -0.13    0.11
  -3   0   1    0.17    0.18
  -2   0   1    0.04    0.04
  -2   0   1    0.29    0.14
   2   0  -1    0.04    0.14
   2   0  -1    0.12    0.14
   2   0  -1    0.00    0.13
  -2   0   1    0.05    0.13
   2   0  -1    0.00    0.12
   2   0  -1   -0.03    0.05
   2   0  -1    0.06    0.12
  -2   0   1    0.06    0.17
  -1   0   1    0.03    0.09
   1   0  -1    0.03    0.11
  -1   0   1    0.07    0.08
  -1   0   1   -0.09    0.09
  -1   0   1   -0.02    0.10
   1   0  -1   -0.11    0.07
   1   0  -1   -0.07    0.12
  -1   0   1    0.02    0.15
   1   0  -1    0.07    0.10
  -1   0   1    0.24    0.10
   1   0  -1   -0.03    0.11
   1   0  -1    0.22    0.09
   1   0   1    0.01    0.13
  -1   0  -1    0.06    0.15
  -1   0  -1   -0.09    0.11
  -1   0  -1    0.04    0.10
   1   0   1    0.02    0.12
   1   0   1    0.04    0.11
  -1   0  -1   -0.05    0.10
   1   0   1   -0.03    0.08
  -1   0  -1   -0.06    0.09
   1   0   1    0.07    0.08
  -1   0  -1    0.04    0.10
   1   0   1    0.00    0.11
  -1   0  -1    0.03    0.07
   1   0   1    0.05    0.12
   2   0   1   -0.02    0.10
   2   0   1    0.20    0.12
  -2   0  -1    0.03    0.16
  -2   0  -1   -0.01    0.09
  -2   0  -1    0.02    0.07
   2   0   1   -0.19    0.12
   2   0   1    0.04    0.07
  -2   0  -1   -0.01    0.10
  -2   0  -1    0.03    0.13
  -2   0  -1    0.01    0.12
   2   0   1   -0.09    0.13
  -2   0  -1   -0.05    0.14
   2   0   1    0.05    0.15
  -3   0  -1    0.09    0.18
  -3   0  -1    0.00    0.12
  -3   0  -1   -0.09    0.08
  -3   0  -1    0.20    0.12
   3   0   1   -0.16    0.13
  -3   0  -1   -0.04    0.14
   3   0   1   -0.02    0.07
   3   0   1    0.01    0.18
  -3   0  -1    0.22    0.22
   3   0   1    0.04    0.17
  -3   0  -1    0.03    0.14
   3   0   1    0.10    0.21
   3   0   1   -0.04    0.13
  -3   0  -1   -0.10    0.19
  -4   0  -1    0.16    0.27
  -4   0  -1    0.12    0.20
   4   0   1    0.11    0.22
   4   0   1   -0.08    0.18
  -4   0  -1   -0.11    0.21
   4   0   1   -0.10    0.18
   4   0   1    0.09    0.25
  -4   0  -1   -0.06    0.25
  -4   0  -1   -0.40    0.23
   4   0   1    0.38    0.23
  -4   0  -1   -0.07    0.22
   5   0   1   -0.08    0.29
  -5   0  -1    0.15    0.34
   5   0   1   -0.04    0.40
  -5   0  -1    0.04    0.33
   5   0   1   -0.18    0.22
   5   0   1    0.17    0.25
  -5   0  -1    0.25    0.36
  -5   0  -1   -0.31    0.33
  -6   0  -1    0.31    0.38
   6   0   1   -0.34    0.33
  -6   0  -1   -0.18    0.50
   6   0   1    0.15    0.38
   6   0   1    0.26    0.61
  -6   0  -1   -0.52    0.36
   6   0   1   -0.34    0.31
   7   0   1    0.19    0.43
  -7   0  -1   -0.50    0.79
  -7   0  -1   -0.07    0.48
   7   0   1    0.76    0.62
   7   0   1    0.52    0.47
  -8   0  -1    0.40    0.74
  -8   0  -1    0.56    0.78
   8   0   1    0.93    0.65
   8   0   1    0.50    0.66
   8  -1  -1    3.57    0.70
  -8  -1   1    2.29    0.86
   8  -1  -1    3.83    0.77
  -8  -1   1    2.59    0.78
   8  -1  -1    3.85    0.59
  -8   1   1    3.36    0.78
   8   1  -1    2.66    0.66
   8   1  -1    3.33    0.81
  -8   1   1    4.02    0.86
   8   1  -1    2.94    0.68
   7  -1  -1    0.92    0.45
   7  -1  -1    0.95    0.51
  -7  -1   1    1.13    0.54
   7  -1  -1    0.87    0.50
   7   1  -1    0.46    0.45
   7   1  -1    1.01    0.43
  -7   1   1    1.49    0.56
  -7   1   1    1.33    0.53
  -6  -1   1    1.61    0.54
  -6  -1   1    1.16    0.45
   6  -1  -1    1.28    0.38
   6  -1  -1    0.83    0.31
  -6  -1   1    1.50    0.45
   6  -1  -1    0.71    0.40
   6  -1  -1    1.09    0.55
   6   1  -1    1.07    0.35
   6   1  -1    1.21    0.37
   6   1  -1    1.19    0.41
  -6   1   1    1.37    0.52
  -6   1   1    0.92    0.38
   6   1  -1    1.00    0.65
  -6   1   1    1.75    0.47
   5  -1  -1    0.83    0.30
  -5  -1   1    1.12    0.34
  -5  -1   1    1.37    0.41
  -5  -1   1    1.55    0.38
   5  -1  -1    1.08    0.34
   5  -1  -1    0.62    0.24
   5  -1  -1    1.37    0.47
   5  -1  -1    0.58    0.36
  -5   1   1    0.99    0.35
  -5   1   1    0.70    0.35
   5   1  -1    1.72    0.38
   5   1  -1    1.64    0.50
  -5   1   1    1.00    0.34
   5   1  -1    1.47    0.31
   5   1  -1    0.82    0.50
  -5   1   1    0.84    0.39
   5   1  -1    1.25    0.32
  -4  -1   1   29.67    1.05
  -4  -1   1   27.02    1.04
   4  -1  -1   29.72    1.01
  -4  -1   1   26.72    0.98
  -4  -1   1   28.47    1.03
  -4  -1   1   28.36    1.02
   4  -1  -1   28.43    0.99
   4  -1  -1   28.92    0.98
   4  -1  -1   28.52    1.07
  -4  -1   1   27.35    1.07
   4  -1  -1   27.60    1.02
  -4   1   1   27.56    1.11
   4   1  -1   27.90    1.00
   4   1  -1   29.06    1.05
  -4   1   1   27.65    0.97
   4   1  -1   28.65    1.07
  -4   1   1   28.93    1.00
  -4   1   1   28.19    1.01
   4   1  -1   28.94    1.03
  -4   1   1   28.68    0.98
  -4   1   1   28.08    1.09
   4   1  -1   28.37    1.06
  -3  -1   1    8.89    0.41
   3  -1  -1    9.16    0.44
   3  -1  -1    9.04    0.49
  -3  -1   1    8.80    0.47
   3  -1  -1    8.77    0.42
  -3  -1   1    9.36    0.44
   3  -1  -1    9.63    0.45
  -3  -1   1    9.33    0.45
  -3  -1   1    8.69    0.51
  -3   1   1    9.15    0.42
   3   1  -1    8.93    0.47
   3   1  -1    9.47    0.48
   3   1  -1    9.45    0.29
   3   1  -1    8.21    0.46
   3   1  -1    9.02    0.29
   3   1  -1    9.00    0.43
  -3   1   1    8.40    0.41
  -3   1   1    9.23    0.42
  -3   1   1    8.90    0.53
   3   1  -1    8.75    0.48
  -3   1   1    9.12    0.45
  -3   1   1    9.18    0.37
  -2  -1   1   59.69    1.71
  -2  -1   1   60.64    1.71
   2  -1  -1   61.13    1.71
  -2  -1   1   60.57    1.74
   2  -1  -1   60.45    1.67
   2  -1  -1   68.18    1.70
   2  -1  -1   59.06    1.75
   2  -1  -1   59.87    1.61
  -2  -1   1   59.50    1.71
   2  -1  -1   61.89    1.68
  -2  -1   1   58.46    1.71
  -2  -1   1   61.60    1.72
  -2   1   1   63.18    1.67
   2   1  -1   55.40    1.77
   2   1  -1   57.90    1.71
   2   1  -1   62.15    1.63
   2   1  -1   57.91    1.71
  -2   1   1   62.84    1.67
   2   1  -1   60.73    1.72
   2   1  -1   61.98    1.72
  -2   1   1   59.17    1.74
   2   1  -1   61.01    1.72
  -2   1   1   57.32    1.74
  -2   1   1   60.66    1.61
  -2   1   1   62.59    1.69
  -2   1   1   59.03    1.75
   1  -1  -1   62.57    1.73
  -1  -1   1   64.96    1.78
  -1  -1   1   68.52    1.75
  -1  -1   1   64.64    1.78
  -1  -1   1   66.53    1.78
   1  -1  -1   66.41    1.79
  -1  -1   1   65.79    1.78
   1  -1  -1   65.37    1.74
   1  -1  -1   63.59    1.74
  -1  -1   1   66.85    1.75
  -1  -1   1   62.75    1.79
   1  -1  -1   63.64    1.78
   1   1  -1   66.08    1.78
  -1   1   1   66.46    1.74
  -1   1   1   65.68    1.80
  -1   1   1   64.37    1.79
   1   1  -1   64.04    1.75
  -1   1   1   57.40    1.73
  -1   1   1   65.02    1.77
   1   1  -1   67.45    1.79
   1   1  -1   65.93    1.78
   1   1  -1   63.99    1.78
   1   1  -1   63.18    1.75
  -1   1   1   64.32    1.73
   1   1  -1   66.06    1.78
  -1   1   1   66.17    1.73
   0  -1   1    0.25    0.10
   0  -1   1    0.40    0.10
   0  -1   1    0.31    0.12
   0  -1  -1    0.33    0.08
   0  -1  -1    0.28    0.10
   0   1   1    0.46    0.06
   0   1  -1    0.34    0.08
   0   1  -1    0.41    0.06
   0   1   1    0.37    0.10
   0   1  -1    0.37    0.10
   0   1   1    0.41    0.08
   0   1   1    0.36    0.12
   1  -1   1    4.30    0.20
  -1  -1  -1    4.78    0.27
   1  -1   1    3.70    0.27
   1  -1   1    4.27    0.21
  -1  -1  -1    4.06    0.23
  -1  -1  -1    4.51    0.21
  -1  -1  -1    5.12    0.31
  -1  -1  -1    4.61    0.27
   1  -1   1    4.33    0.23
   1  -1   1    4.37    0.28
   1  -1   1    4.24    0.17
  -1  -1  -1    4.39    0.23
  -1  -1  -1    4.62    0.26
   1   1   1    3.98    0.25
  -1   1  -1    4.52    0.21
   1   1   1    4.67    0.24
  -1   1  -1    4.44    0.16
  -1   1  -1    4.14    0.24
   1   1   1    4.64    0.28
  -1   1  -1    4.36    0.28
   1   1   1    4.53    0.26
  -1   1  -1    4.40    0.22
   1   1   1    4.16    0.22
   1   1   1    4.96    0.30
  -1   1  -1    4.26    0.29
  -1   1  -1    4.18    0.22
  -2  -1  -1  193.98    5.28
   2  -1   1  194.84    5.17
   2  -1   1  187.47    5.29
   2  -1   1  187.71    5.22
  -2  -1  -1  192.77    5.25
   2  -1   1  194.23    5.23
  -2  -1  -1  200.09    5.26
  -2  -1  -1  196.05    5.18
  -2  -1  -1  195.02    5.26
   2  -1   1  189.60    5.27
  -2  -1  -1  204.46    5.30
  -2  -1  -1  196.22    5.23
   2  -1   1  198.19    5.19
  -2   1  -1  208.74    5.18
   2   1   1  197.02    5.23
  -2   1  -1  208.76    5.29
   2   1   1  198.08    5.28
   2   1   1  203.96    5.19
  -2   1  -1  194.99    5.22
  -2   1  -1  199.36    5.22
  -2   1  -1  198.51    5.19
  -2   1  -1  193.54    5.28
   2   1   1  189.60    5.28
  -2   1  -1  198.70    5.29
   2   1   1  196.60    5.27
   2   1   1  200.82    5.27
   3  -1   1    1.28    0.17
   3  -1   1    1.15    0.17
   3  -1   1    1.28    0.24
  -3  -1  -1    1.67    0.26
  -3  -1  -1    1.17    0.21
  -3  -1  -1    1.49    0.17
   3  -1   1    1.23    0.21
  -3  -1  -1    1.24    0.28
  -3  -1  -1    1.25    0.19
  -3  -1  -1    1.40    0.20
  -3  -1  -1    1.41    0.26
  -3   1  -1    1.28    0.25
   3   1   1    1.65    0.26
  -3   1  -1    1.03    0.17
  -3   1  -1    1.36    0.20
  -3   1  -1    1.27    0.18
  -3   1  -1    1.49    0.15
   3   1   1    1.14    0.24
   3   1   1    1.87    0.24
   3   1   1    1.41    0.14
  -3   1  -1    1.54    0.18
  -3   1  -1    1.45    0.20
   4  -1   1   16.22    0.75
  -4  -1  -1   17.77    0.82
   4  -1   1   17.26    0.71
  -4  -1  -1   16.66    0.79
  -4  -1  -1   17.69    0.78
  -4  -1  -1   16.19    0.77
   4  -1   1   17.02    0.67
   4  -1   1   17.29    0.81
  -4  -1  -1   15.96    0.78
  -4  -1  -1   17.19    0.73
   4   1   1   18.45    0.77
   4   1   1   17.05    0.80
  -4   1  -1   17.37    0.71
  -4   1  -1   17.15    0.80
  -4   1  -1   16.43    0.79
   4   1   1   17.73    0.70
   4   1   1   17.64    0.51
   4   1   1   17.75    0.79
  -4   1  -1   17.18    0.68
  -4   1  -1   16.01    0.68
  -4   1  -1   16.30    0.72
   5  -1   1   -0.15    0.53
   5  -1   1    1.00    0.25
  -5  -1  -1    1.26    0.41
  -5  -1  -1    2.10    0.45
  -5  -1  -1    1.34    0.40
  -5  -1  -1    1.35    0.36
   5  -1   1    1.74    0.38
   5  -1   1    1.71    0.29
  -5   1  -1    1.20    0.38
  -5   1  -1    1.56    0.37
   5   1   1    1.19    0.29
   5   1   1    1.25    0.48
  -5   1  -1    1.18    0.35
   5   1   1    1.15    0.36
   5   1   1    1.70    0.36
  -5   1  -1    1.20    0.35
  -6  -1  -1   13.65    1.07
   6  -1   1   12.51    0.88
   6  -1   1   11.87    0.73
  -6  -1  -1   13.34    0.90
  -6  -1  -1   12.35    0.88
   6  -1   1   11.28    0.74
  -6   1  -1   13.60    0.90
  -6   1  -1   14.82    0.95
   6   1   1   10.77    1.20
   6   1   1   13.28    0.83
   6   1   1   12.23    0.75
   6   1   1   12.22    0.84
  -6   1  -1   13.27    1.00
   7  -1   1    7.35    0.81
  -7  -1  -1    9.05    0.93
   7  -1   1    8.83    0.91
   7  -1   1    8.43    0.80
   7   1   1    7.25    0.84
  -7   1  -1    7.67    0.94
   7   1   1    7.68    0.92
   7   1   1    8.01    1.05
   8  -1   1   -0.15    0.64
  -8  -1  -1   -0.46    0.79
   8  -1   1    0.28    0.54
  -8  -1  -1   -0.38    0.75
   8  -1   1    1.63    0.67
  -8   1  -1   -1.14    0.76
   8   1   1    1.01    0.68
   8   1   1   -0.28    0.64
  -8   1  -1   -0.86    0.75
   8   1   1   -0.24    0.66
   8  -2  -1    2.57    0.72
  -8  -2   1    1.35    0.86
  -8  -2   1    2.52    0.75
   8  -2  -1    2.83    0.68
   8  -2  -1    3.28    0.57
   8   2  -1    3.57    0.80
   8   2  -1    2.46    0.70
  -8   2   1    3.48    0.81
  -8   2   1    3.76    0.87
   8   2  -1    2.70    0.67
   7  -2  -1    0.79    0.34
   7  -2  -1    1.03    0.45
  -7  -2   1   -0.16    0.50
   7  -2  -1    0.52    0.49
  -7  -2   1   -0.37    0.89
  -7   2   1    0.50    0.53
   7   2  -1    0.33    0.61
  -7   2   1    0.56    0.51
   7   2  -1    0.77    0.47
   7   2  -1    0.47    0.50
   6  -2  -1    3.14    0.50
  -6  -2   1    2.58    0.54
   6  -2  -1    2.87    0.56
  -6  -2   1    3.47    0.52
   6  -2  -1    3.32    0.45
   6  -2  -1    2.47    0.37
  -6  -2   1    3.77    0.67
   6   2  -1    2.99    0.49
   6   2  -1    3.38    0.46
   6   2  -1    3.31    0.50
   6   2  -1    4.26    0.80
  -6   2   1    3.16    0.53
  -6   2   1    2.78    0.50
  -6   2   1    3.10    0.55
  -5  -2   1   32.16    1.26
   5  -2  -1   31.70    1.12
  -5  -2   1   33.81    1.27
  -5  -2   1   31.02    1.26
   5  -2  -1   32.94    1.28
   5  -2  -1   31.72    1.29
   5  -2  -1   31.58    1.17
   5  -2  -1   31.58    1.16
   5   2  -1   30.74    1.23
   5   2  -1   31.69    1.23
  -5   2   1   31.12    1.20
   5   2  -1   32.34    1.20
  -5   2   1   29.83    1.21
  -5   2   1   30.92    1.29
  -4  -2   1    7.94    0.55
  -4  -2   1    7.98    0.60
  -4  -2   1    6.60    0.45
   4  -2  -1    7.75    0.43
  -4  -2   1    7.35    0.55
  -4  -2   1    7.95    0.58
   4  -2  -1    7.69    0.56
   4  -2  -1    7.36    0.53
   4  -2  -1    7.71    0.50
   4  -2  -1    7.59    0.48
  -4  -2   1    7.02    0.55
  -4   2   1    7.35    0.56
  -4   2   1    7.33    0.35
   4   2  -1    7.88    0.30
   4   2  -1    7.87    0.31
   4   2  -1    7.53    0.53
   4   2  -1    8.01    0.51
  -4   2   1    7.25    0.51
  -4   2   1    6.33    0.45
   4   2  -1    7.76    0.63
  -4   2   1    7.57    0.46
   4   2  -1    8.09    0.52
   4   2  -1    6.77    0.56
  -4   2   1    8.21    0.51
  -3  -2   1    3.84    0.39
  -3  -2   1    3.24    0.35
  -3  -2   1    3.56    0.37
   3  -2  -1    3.50    0.29
   3  -2  -1    3.07    0.31
   3  -2  -1    3.29    0.26
  -3  -2   1    3.32    0.39
   3  -2  -1    3.65    0.37
  -3  -2   1    3.63    0.32
   3  -2  -1    3.01    0.34
  -3  -2   1    3.51    0.26
   3   2  -1    3.77    0.37
   3   2  -1    3.52    0.23
   3   2  -1    3.56    0.22
   3   2  -1    3.81    0.40
  -3   2   1    3.38    0.20
   3   2  -1    3.35    0.33
  -3   2   1    3.93    0.27
  -3   2   1    2.68    0.27
   3   2  -1    4.18    0.32
   3   2  -1    2.99    0.32
  -3   2   1    3.88    0.30
  -3   2   1    2.92    0.37
  -3   2   1    4.28    0.32
  -3   2   1    3.65    0.19
  -2  -2   1    0.41    0.12
   2  -2  -1    0.59    0.10
  -2  -2   1    0.88    0.19
  -2  -2   1    0.33    0.16
  -2  -2   1    0.48    0.12
   2  -2  -1    0.46    0.11
   2  -2  -1    0.36    0.13
  -2  -2   1    0.38    0.17
   2  -2  -1    0.35    0.16
  -2  -2   1    0.56    0.16
   2  -2  -1    0.49    0.09
   2   2  -1    0.55    0.12
  -2   2   1    0.56    0.13
  -2   2   1    0.55    0.09
  -2   2   1    0.51    0.07
   2   2  -1    0.69    0.18
   2   2  -1    0.71    0.14
   2   2  -1    0.48    0.16
  -2   2   1    0.55    0.14
  -2   2   1    0.31    0.17
   2   2  -1    0.51    0.11
   2   2  -1    0.62    0.16
  -2   2   1    0.48    0.11
   2   2  -1    0.54    0.18
  -2   2   1    0.46    0.13
   2   2  -1    0.54    0.14
   1  -2  -1  297.86    8.33
   1  -2  -1  320.67    8.32
  -1  -2   1  324.75    8.34
  -1  -2   1  325.95    8.34
   1  -2  -1  309.20    8.30
  -1  -2   1  307.66    8.33
  -1  -2   1  326.70    8.35
   1  -2  -1  321.36    8.29
  -1  -2   1  313.94    8.34
  -1  -2   1  309.54    8.36
   1   2  -1  324.97    8.34
   1   2  -1  311.29    8.33
  -1   2   1  309.60    8.35
   1   2  -1  313.60    8.32
   1   2  -1  321.75    8.33
   1   2  -1  308.90    8.33
  -1   2   1  320.22    8.33
   1   2  -1  324.99    8.35
   1   2  -1  324.62    8.35
  -1   2   1  323.11    8.32
  -1   2   1  315.56    8.30
   0  -2   1   67.30    1.84
   0  -2  -1   66.91    1.86
   0  -2   1   67.64    1.84
   0  -2  -1   66.50    1.83
   0  -2   1   70.29    1.88
   0  -2   1   68.78    1.80
   0  -2   1   68.31    1.88
   0  -2  -1   67.46    1.87
   0  -2  -1   67.27    1.84
   0  -2   1   67.79    1.84
   0  -2  -1   69.80    1.87
   0   2  -1   70.21    1.88
   0   2  -1   68.85    1.84
   0   2  -1   65.11    1.84
   0   2   1   69.18    1.87
   0   2  -1   68.80    1.84
   0   2   1   67.89    1.83
   0   2   1   65.63    1.86
   0   2   1   68.08    1.83
   0   2   1   69.45    1.80
   0   2  -1   69.52    1.80
   0   2  -1   67.49    1.87
   0   2  -1   70.85    1.88
   0   2   1   69.95    1.87
  -1  -2  -1  822.23   21.31
   1  -2   1  795.76   21.08
  -1  -2  -1  822.60   21.08
  -1  -2  -1  827.62   21.36
  -1  -2  -1  803.74   21.25
  -1  -2  -1  797.40   21.06
  -1  -2  -1  755.31   20.92
  -1  -2  -1  833.90   21.29
   1  -2   1  788.99   21.08
   1  -2   1  771.93   21.23
   1  -2   1  811.04   21.31
   1   2   1  784.03   21.24
  -1   2  -1  802.93   21.04
   1   2   1  816.23   21.10
   1   2   1  799.91   21.18
   1   2   1  842.08   21.19
  -1   2  -1  815.60   21.09
  -1   2  -1  796.27   21.19
  -1   2  -1  823.75   21.07
  -1   2  -1  823.57   21.04
   1   2   1  789.76   20.98
   1   2   1  756.06   21.22
  -1   2  -1  771.63   21.25
  -2  -2  -1   65.78    1.86
  -2  -2  -1   65.36    1.81
  -2  -2  -1   65.13    1.85
   2  -2   1   64.74    1.76
   2  -2   1   64.71    1.78
   2  -2   1   57.94    1.95
   2  -2   1   57.52    1.81
  -2  -2  -1   75.82    2.18
  -2  -2  -1   64.41    1.79
   2  -2   1   64.01    1.87
  -2  -2  -1   66.50    1.86
  -2  -2  -1   63.97    1.82
   2   2   1   63.56    1.87
  -2   2  -1   65.89    1.87
   2   2   1   65.27    1.79
  -2   2  -1   65.47    1.76
  -2   2  -1   62.93    1.87
   2   2   1   63.55    1.86
   2   2   1   65.22    1.86
  -2   2  -1   65.24    1.86
   2   2   1   64.32    1.85
  -2   2  -1   64.26    1.77
  -2   2  -1   64.10    1.76
  -2   2  -1   64.96    1.77
   2   2   1   63.44    1.83
   3  -2   1   10.16    0.44
   3  -2   1   10.47    0.45
  -3  -2  -1   10.27    0.40
   3  -2   1   10.24    0.47
   3  -2   1   10.00    0.55
  -3  -2  -1   10.93    0.59
  -3  -2  -1   10.27    0.47
  -3  -2  -1   10.17    0.54
  -3  -2  -1   10.39    0.51
   3  -2   1    9.48    0.48
  -3  -2  -1    9.98    0.55
   3   2   1    9.43    0.54
  -3   2  -1    9.43    0.53
   3   2   1   10.71    0.50
   3   2   1   10.56    0.54
  -3   2  -1   10.88    0.38
  -3   2  -1   10.99    0.45
   3   2   1   10.16    0.41
   3   2   1    9.95    0.49
  -3   2  -1    9.96    0.48
  -3   2  -1    9.94    0.39
   3   2   1   10.11    0.52
  -3   2  -1   10.73    0.50
   4  -2   1   34.86    1.29
   4  -2   1   36.12    1.13
  -4  -2  -1   33.79    1.19
   4  -2   1   34.65    1.17
  -4  -2  -1   37.07    1.63
  -4  -2  -1   34.91    1.22
  -4  -2  -1   34.66    1.28
   4  -2   1   35.37    1.15
  -4  -2  -1   37.80    1.27
   4  -2   1   32.07    1.62
  -4  -2  -1   35.83    1.28
   4   2   1   31.96    1.19
  -4   2  -1   34.85    1.14
   4   2   1   35.03    1.03
   4   2   1   35.52    1.19
  -4   2  -1   36.31    1.13
  -4   2  -1   35.26    1.23
   4   2   1   36.21    1.26
  -4   2  -1   33.49    1.20
   4   2   1   35.62    1.27
  -4   2  -1   33.48    1.08
  -4   2  -1   38.02    1.27
  -4   2  -1   35.15    0.99
  -4   2  -1   35.62    0.99
  -5  -2  -1   10.01    0.70
   5  -2   1    9.84    0.59
  -5  -2  -1   10.49    0.83
  -5  -2  -1   10.25    0.74
   5  -2   1    9.75    0.73
   5  -2   1   10.23    0.57
   5  -2   1    9.75    0.72
  -5   2  -1    9.56    0.72
  -5   2  -1   10.37    0.69
  -5   2  -1   10.02    0.69
   5   2   1   11.00    0.69
   5   2   1   10.17    0.93
   5   2   1    9.92    0.63
   5   2   1   10.08    0.69
  -5   2  -1    9.92    0.73
   6  -2   1   19.11    0.88
   6  -2   1   19.99    1.10
   6  -2   1   19.19    1.12
   6  -2   1   18.16    0.88
  -6  -2  -1   18.78    1.02
  -6  -2  -1   18.77    1.05
  -6  -2  -1   18.32    1.22
   6   2   1   17.55    1.42
  -6   2  -1   19.35    1.06
   6   2   1   19.77    1.05
   6   2   1   19.89    1.08
  -6   2  -1   19.59    1.10
  -6   2  -1   19.70    1.09
   6   2   1   19.23    0.94
   7  -2   1    0.56    0.37
  -7  -2  -1    0.21    0.52
   7  -2   1   -0.05    0.44
   7  -2   1   -0.06    0.47
  -7  -2  -1   -0.17    0.61
   7   2   1    0.05    0.53
   7   2   1   -0.20    0.52
  -7   2  -1   -0.19    0.74
  -7   2  -1    0.98    0.53
   7   2   1    0.32    0.45
  -8  -2  -1    1.01    0.78
   8  -2   1   -0.74    0.72
  -8  -2  -1    0.04    0.79
   8  -2   1    0.04    0.48
  -8   2  -1   -1.16    0.75
   8   2   1    1.60    0.77
   8   2   1   -0.14    0.67
  -8   2  -1    1.06    0.79
   8   2   1   -0.87    0.68
   8  -3  -1    0.37    0.45
  -8  -3   1    1.96    0.71
  -8  -3   1    0.58    0.76
   8  -3  -1    0.67    0.71
   8  -3  -1    0.40    0.66
  -8   3   1    1.31    0.72
   8   3  -1    1.81    0.76
  -8   3   1    0.52    0.79
   8   3  -1    0.50    0.68
   8   3  -1    0.17    0.74
  -7  -3   1   10.78    1.51
   7  -3  -1   10.63    0.89
   7  -3  -1   10.90    0.72
  -7  -3   1    8.21    1.22
   7  -3  -1    9.58    0.95
   7   3  -1   11.35    1.08
  -7   3   1   11.45    0.94
  -7   3   1    9.57    1.03
   7   3  -1    8.82    1.00
   6  -3  -1    2.33    0.34
  -6  -3   1    2.56    0.55
   6  -3  -1    2.95    0.44
   6  -3  -1    2.75    0.54
  -6  -3   1    2.18    0.49
   6  -3  -1    2.64    0.54
  -6  -3   1    3.05    0.66
   6   3  -1    2.71    0.81
  -6   3   1    1.97    0.46
   6   3  -1    2.79    0.48
  -6   3   1    1.37    0.54
   6   3  -1    2.05    0.47
   6   3  -1    2.23    0.43
  -6   3   1    3.55    0.55
  -5  -3   1    0.23    0.31
   5  -3  -1   -0.14    0.16
  -5  -3   1    0.21    0.41
  -5  -3   1    0.21    0.81
   5  -3  -1   -0.04    0.31
   5  -3  -1   -0.01    0.24
  -5  -3   1    0.12    0.34
   5  -3  -1    0.04    0.30
   5   3  -1    0.19    0.28
   5   3  -1    0.29    0.55
  -5   3   1    0.16    0.31
  -5   3   1    0.03    0.29
   5   3  -1    0.24    0.15
   5   3  -1   -0.11    0.29
  -5   3   1   -0.71    0.41
   5   3  -1   -0.01    0.18
  -5   3   1    0.47    0.36
   5   3  -1   -0.27    0.28
   4  -3  -1   50.47    1.57
  -4  -3   1   50.69    1.65
   4  -3  -1   51.51    1.50
   4  -3  -1   53.60    1.52
  -4  -3   1   49.91    1.63
  -4  -3   1   50.04    1.66
  -4  -3   1   46.63    1.57
  -4  -3   1   51.20    1.65
  -4  -3   1   50.66    1.68
   4  -3  -1   52.28    1.71
  -4   3   1   47.24    1.61
  -4   3   1   51.76    1.40
   4   3  -1   51.18    1.70
   4   3  -1   50.90    1.61
   4   3  -1   50.61    1.65
  -4   3   1   45.34    1.59
   4   3  -1   50.80    1.44
   4   3  -1   50.39    1.65
  -4   3   1   52.34    1.46
   4   3  -1   49.92    1.62
  -4   3   1   51.48    1.58
  -4   3   1   50.61    1.60
  -4   3   1   46.82    1.42
  -4   3   1   53.96    1.41
  -4   3   1   49.42    1.69
   3  -3  -1   17.67    0.78
  -3  -3   1   19.42    0.77
  -3  -3   1   19.68    0.77
  -3  -3   1   19.03    0.72
   3  -3  -1   18.12    0.70
   3  -3  -1   19.87    0.63
  -3  -3   1   18.42    0.75
  -3  -3   1   19.09    0.77
  -3  -3   1   18.37    0.69
   3  -3  -1   18.85    0.61
   3   3  -1   18.96    0.79
  -3   3   1   18.54    0.69
   3   3  -1   18.26    0.63
  -3   3   1   18.31    0.72
   3   3  -1   18.35    0.73
  -3   3   1   18.35    0.57
  -3   3   1   18.54    0.72
  -3   3   1   16.31    0.76
  -3   3   1   18.06    0.55
   3   3  -1   19.28    0.76
   3   3  -1   19.73    0.78
   3   3  -1   19.04    0.74
  -3   3   1   18.93    0.62
   3   3  -1   19.08    0.65
  -3   3   1   18.78    0.79
  -2  -3   1   16.07    0.59
  -2  -3   1   15.70    0.62
   2  -3  -1   16.50    0.47
  -2  -3   1   15.73    0.61
  -2  -3   1   15.76    0.61
  -2  -3   1   15.44    0.54
   2  -3  -1   15.12    0.58
   2   3  -1   15.29    0.54
   2   3  -1   16.37    0.62
  -2   3   1   15.64    0.60
  -2   3   1   15.22    0.56
  -2   3   1   14.86    0.61
   2   3  -1   15.99    0.64
  -2   3   1   13.79    0.55
   2   3  -1   15.79    0.55
  -2   3   1   16.02    0.60
   2   3  -1   15.15    0.59
   2   3  -1   15.92    0.62
  -2   3   1   16.46    0.55
   2   3  -1   15.93    0.62
   2   3  -1   15.70    0.56
  -1  -3   1  159.24    4.25
  -1  -3   1  160.69    4.22
   1  -3  -1  156.04    4.21
   1  -3  -1  153.38    4.21
  -1  -3   1  157.82    4.22
   1  -3  -1  156.76    4.11
   1  -3  -1  166.79    4.12
  -1  -3   1  158.26    4.22
  -1  -3   1  163.94    4.23
  -1  -3   1  162.99    4.13
  -1   3   1  157.61    4.21
   1   3  -1  158.90    4.22
   1   3  -1  166.57    4.23
   1   3  -1  166.16    4.26
  -1   3   1  156.99    4.21
  -1   3   1  155.26    4.24
  -1   3   1  146.88    4.26
   1   3  -1  157.23    4.13
   1   3  -1  134.13    4.24
   1   3  -1  152.88    4.22
   0  -3   1  146.67    3.83
   0  -3  -1  141.97    3.81
   0  -3  -1  140.12    3.77
   0  -3  -1  141.55    3.77
   0  -3  -1  141.92    3.75
   0  -3   1  144.10    3.80
   0  -3  -1  136.54    3.82
   0  -3   1  139.18    3.77
   0  -3   1  145.97    3.78
   0  -3  -1  147.11    3.83
   0  -3   1  137.07    3.84
   0   3  -1  146.45    3.77
   0   3   1  145.97    3.77
   0   3   1  131.81    3.82
   0   3  -1  146.51    3.82
   0   3  -1  145.59    3.74
   0   3  -1  141.10    3.79
   0   3   1  144.78    3.82
   0   3   1  141.56    3.81
   0   3   1  148.93    3.75
   0   3  -1  132.54    3.82
  -1  -3  -1  929.97   24.73
  -1  -3  -1  957.92   24.95
   1  -3   1  929.16   24.87
  -1  -3  -1  976.55   24.65
  -1  -3  -1  955.77   24.95
  -1  -3  -1  941.52   24.66
   1  -3   1  933.09   24.90
   1  -3   1  905.59   24.67
   1  -3   1 1000.00   24.69
  -1  -3  -1  941.01   24.71
  -1  -3  -1  966.62   24.89
  -1   3  -1  938.82   24.66
  -1   3  -1  936.29   24.79
  -1   3  -1  890.17   24.74
  -1   3  -1  919.46   24.56
   1   3   1  943.67   24.78
   1   3   1  989.49   24.90
   1   3   1  966.09   24.64
  -1   3  -1  971.53   24.59
   1   3   1  934.04   24.80
   1   3   1  910.88   24.94
  -1   3  -1  927.22   24.59
   1   3   1  933.05   24.56
  -1   3  -1  925.87   24.82
  -1   3  -1  893.49   24.55
   1   3   1  932.84   24.94
   2  -3   1    0.23    0.10
  -2  -3  -1    0.10    0.11
  -2  -3  -1    0.24    0.15
   2  -3   1    0.41    0.13
   2  -3   1    0.14    0.20
  -2  -3  -1    0.22    0.19
  -2  -3  -1    0.30    0.11
  -2  -3  -1    0.44    0.17
  -2  -3  -1    0.17    0.20
  -2  -3  -1    0.22    0.14
   2  -3   1    0.32    0.16
   2  -3   1    0.27    0.10
  -2   3  -1   -0.12    0.16
  -2   3  -1    0.34    0.08
  -2   3  -1    0.13    0.11
  -2   3  -1    0.33    0.12
  -2   3  -1    0.22    0.13
  -2   3  -1    0.19    0.06
   2   3   1    0.67    0.17
   2   3   1    0.25    0.15
   2   3   1    0.30    0.14
   2   3   1    0.11    0.17
  -2   3  -1    0.37    0.13
   2   3   1    0.19    0.17
   2   3   1    0.24    0.19
  -3  -3  -1   86.69    2.40
  -3  -3  -1   87.26    2.47
   3  -3   1   85.35    2.39
  -3  -3  -1   81.51    2.54
  -3  -3  -1   77.22    2.52
   3  -3   1   86.63    2.39
   3  -3   1   86.30    2.39
  -3  -3  -1   89.69    2.52
  -3  -3  -1   86.88    2.52
  -3  -3  -1   86.61    2.53
   3  -3   1   86.09    2.55
  -3   3  -1   92.71    2.54
  -3   3  -1   84.22    2.49
  -3   3  -1   81.31    2.51
  -3   3  -1   83.80    2.34
   3   3   1   87.59    2.52
   3   3   1   90.06    2.54
  -3   3  -1   88.57    2.39
  -3   3  -1   89.93    2.38
  -3   3  -1   88.91    2.53
   3   3   1   87.75    2.51
   3   3   1   87.30    2.40
   3   3   1   85.19    2.52
   3   3   1   88.35    2.49
  -4  -3  -1   17.37    0.93
   4  -3   1   18.15    0.69
  -4  -3  -1   17.83    0.79
  -4  -3  -1   18.82    0.88
   4  -3   1   17.38    0.68
   4  -3   1   16.90    0.84
  -4  -3  -1   17.68    0.87
   4  -3   1   17.70    0.73
   4   3   1   18.07    0.67
  -4   3  -1   18.49    0.82
   4   3   1   16.90    0.82
  -4   3  -1   17.26    0.60
   4   3   1   17.84    0.89
  -4   3  -1   17.66    0.60
   4   3   1   16.76    0.76
  -4   3  -1   18.51    0.72
   4   3   1   19.61    1.03
  -4   3  -1   18.06    0.68
  -4   3  -1   17.54    0.85
   4   3   1   17.16    0.80
   5  -3   1    1.64    0.37
   5  -3   1    2.09    0.30
  -5  -3  -1    1.26    0.45
  -5  -3  -1    1.61    0.40
   5  -3   1    1.75    0.39
   5  -3   1    2.04    0.28
  -5  -3  -1    1.28    0.40
   5   3   1    1.52    0.20
  -5   3  -1    1.60    0.40
   5   3   1    0.98    0.56
  -5   3  -1    1.33    0.34
  -5   3  -1    1.59    0.37
  -5   3  -1    1.06    0.38
   5   3   1    1.64    0.37
   5   3   1    1.52    0.35
   5   3   1    1.18    0.38
  -6  -3  -1    0.14    0.43
   6  -3   1    0.17    0.25
  -6  -3  -1    0.42    0.39
   6  -3   1    1.09    0.41
  -6  -3  -1    0.61    0.65
   6  -3   1    0.60    0.50
   6  -3   1    0.40    0.33
  -6   3  -1    0.05    0.42
   6   3   1    0.55    0.36
   6   3   1    0.53    0.39
  -6   3  -1    0.13    0.58
  -6   3  -1    1.26    0.83
  -6   3  -1    0.53    0.44
   6   3   1    0.18    0.43
  -7  -3  -1    0.50    0.60
   7  -3   1    1.01    0.46
  -7  -3  -1    0.57    0.54
   7  -3   1    0.84    0.51
   7  -3   1    0.57    0.35
  -7   3  -1    1.09    0.65
   7   3   1    1.34    0.50
   7   3   1    0.63    0.57
   7   3   1    0.25    0.56
  -7   3  -1    0.87    0.58
   8  -3   1    8.00    0.91
  -8  -3  -1    8.29    1.08
   8  -3   1    9.47    1.22
  -8  -3  -1    8.59    1.00
   8   3   1   10.90    1.32
   8   3   1    6.47    1.00
  -8   3  -1    7.72    1.02
   8   3   1   10.12    1.28
  -8   3  -1   10.38    1.33
   8  -4  -1   -0.18    0.39
   8  -4  -1    0.43    0.66
  -8  -4   1    0.60    0.86
  -8  -4   1    0.49    0.78
   8  -4  -1    0.05    0.71
   8   4  -1    0.04    0.84
  -8   4   1   -1.18    0.74
   8   4  -1    0.19    0.70
   8   4  -1   -0.63    0.79
  -8   4   1   -1.43    0.79
   7  -4  -1   15.54    1.02
   7  -4  -1   13.47    1.08
  -7  -4   1   15.76    1.15
   7  -4  -1   13.53    0.78
  -7   4   1   14.22    1.15
  -7   4   1   14.97    1.13
   7   4  -1   15.45    1.14
   7   4  -1   16.61    1.23
   7   4  -1   14.13    1.06
  -6  -4   1   -0.64    0.50
   6  -4  -1    0.16    0.21
   6  -4  -1    0.55    0.38
  -6  -4   1   -0.02    0.45
   6  -4  -1   -0.30    0.33
  -6  -4   1    0.46    0.43
   6  -4  -1    0.14    0.39
  -6   4   1    0.27    0.42
  -6   4   1    0.38    0.43
   6   4  -1    0.62    0.40
   6   4  -1    0.31    0.40
   6   4  -1    0.56    0.48
   5  -4  -1   11.00    0.79
   5  -4  -1   12.54    0.70
  -5  -4   1   11.66    0.80
  -5  -4   1   12.48    1.11
  -5  -4   1   11.72    0.80
   5  -4  -1   11.83    0.62
  -5  -4   1   12.51    0.85
   5  -4  -1   12.01    0.55
  -5   4   1   11.87    0.81
   5   4  -1   11.76    0.71
   5   4  -1   12.10    0.74
   5   4  -1   11.51    0.61
   5   4  -1   12.46    0.55
  -5   4   1   14.12    0.74
  -5   4   1   11.88    0.46
   5   4  -1   12.53    0.81
  -5   4   1   12.22    0.90
  -5   4   1   12.57    0.48
   5   4  -1   10.94    1.05
  -4  -4   1   24.57    1.11
   4  -4  -1   24.28    0.81
   4  -4  -1   24.21    1.05
  -4  -4   1   24.15    1.00
  -4  -4   1   24.66    1.01
  -4  -4   1   25.19    1.04
  -4  -4   1   24.90    1.01
   4  -4  -1   24.84    0.93
   4   4  -1   28.40    1.53
  -4   4   1   26.50    0.97
   4   4  -1   25.37    1.03
   4   4  -1   24.30    1.13
  -4   4   1   25.12    0.81
   4   4  -1   24.40    1.04
  -4   4   1   24.93    0.83
   4   4  -1   24.24    0.87
   4   4  -1   25.06    0.94
  -4   4   1   23.22    0.96
  -4   4   1   25.60    1.06
   4   4  -1   23.70    0.98
  -3  -4   1    1.07    0.25
   3  -4  -1    1.22    0.28
  -3  -4   1    1.34    0.25
  -3  -4   1    1.11    0.31
   3  -4  -1    1.34    0.15
  -3  -4   1    1.50    0.32
   3  -4  -1    1.15    0.18
   3  -4  -1    1.23    0.24
  -3  -4   1    1.51    0.27
  -3  -4   1    0.92    0.17
  -3   4   1    1.40    0.21
  -3   4   1    1.12    0.24
   3   4  -1    1.24    0.28
  -3   4   1    1.76    0.25
  -3   4   1    1.38    0.26
   3   4  -1    1.48    0.24
  -3   4   1    1.42    0.23
   3   4  -1    1.25    0.28
   3   4  -1    0.91    0.24
   3   4  -1    1.36    0.23
   3   4  -1    1.43    0.31
  -3   4   1    1.47    0.22
   3   4  -1    0.92    0.22
  -2  -4   1   36.04    1.20
   2  -4  -1   39.58    1.01
  -2  -4   1   37.80    1.24
  -2  -4   1   39.01    1.11
  -2  -4   1   37.02    1.17
  -2  -4   1   36.76    1.18
   2  -4  -1   37.07    1.01
   2  -4  -1   35.50    1.25
  -2   4   1   38.33    1.20
  -2   4   1   38.47    1.15
   2   4  -1   37.39    1.21
   2   4  -1   38.01    1.21
   2   4  -1   38.26    1.18
  -2   4   1   35.92    1.18
   2   4  -1   38.61    1.11
   2   4  -1   36.99    1.20
   2   4  -1   38.45    1.21
   2   4  -1   37.08    1.16
  -2   4   1   38.74    1.17
  -2   4   1   39.46    1.18
   1  -4  -1    4.01    0.30
  -1  -4   1    3.91    0.25
   1  -4  -1    3.66    0.18
  -1  -4   1    3.94    0.17
   1  -4  -1    3.90    0.17
   1  -4  -1    3.45    0.31
  -1  -4   1    3.83    0.30
  -1  -4   1    3.41    0.35
   1   4  -1    3.71    0.17
  -1   4   1    4.10    0.26
  -1   4   1    4.30    0.28
   1   4  -1    4.02    0.26
  -1   4   1    4.33    0.29
   1   4  -1    4.24    0.30
   1   4  -1    3.89    0.30
  -1   4   1    3.94    0.28
  -1   4   1    3.69    0.26
   1   4  -1    4.05    0.25
   0  -4   1   82.85    2.35
   0  -4  -1   85.08    2.30
   0  -4  -1   82.77    2.39
   0  -4  -1   84.23    2.32
   0  -4   1   84.30    2.38
   0  -4   1   84.69    2.32
   0   4  -1   86.28    2.36
   0   4   1   83.72    2.40
   0   4   1   87.23    2.30
   0   4  -1   86.41    2.41
   0   4   1   83.41    2.35
   0   4  -1   85.00    2.31
   0   4   1   86.02    2.30
   0   4  -1   88.11    2.31
   0   4   1   83.94    2.38
   0   4  -1   85.59    2.28
   0   4   1   88.25    2.39
   0   4   1   86.45    2.31
   0   4  -1   86.19    2.28
  -1  -4  -1    7.99    0.30
   1  -4   1    7.63    0.35
  -1  -4  -1    8.07    0.38
   1  -4   1    8.46    0.38
  -1  -4  -1    7.78    0.37
   1  -4   1    8.22    0.30
  -1  -4  -1    7.38    0.51
   1  -4   1    8.10    0.42
   1   4   1    7.33    0.36
   1   4   1    8.17    0.37
   1   4   1    8.59    0.41
   1   4   1    8.44    0.43
  -1   4  -1    9.14    0.55
  -1   4  -1    7.54    0.38
  -1   4  -1    8.53    0.37
  -1   4  -1    7.51    0.24
   1   4   1    8.22    0.30
  -1   4  -1    8.11    0.34
  -1   4  -1    8.33    0.39
   1   4   1    7.49    0.34
   2  -4   1  348.55    9.84
  -2  -4  -1  370.08    9.77
  -2  -4  -1  356.61    9.80
  -2  -4  -1  378.08    9.74
   2  -4   1  351.70    9.62
  -2  -4  -1  382.19    9.74
   2  -4   1  357.73    9.80
  -2  -4  -1  374.73    9.67
  -2  -4  -1  366.22    9.81
  -2  -4  -1  370.46    9.76
   2  -4   1  373.34    9.63
   2   4   1  372.91    9.76
   2   4   1  379.39    9.67
  -2   4  -1  361.54    9.77
   2   4   1  372.35    9.77
  -2   4  -1  358.62    9.75
   2   4   1  362.92    9.79
   2   4   1  362.52    9.73
   2   4   1  378.59    9.74
   2   4   1  373.96    9.78
  -2   4  -1  370.30    9.80
   3  -4   1    5.85    0.30
   3  -4   1    5.71    0.33
  -3  -4  -1    5.78    0.50
  -3  -4  -1    6.06    0.41
  -3  -4  -1    5.76    0.57
   3  -4   1    5.11    0.43
  -3  -4  -1    6.00    0.48
  -3  -4  -1    6.25    0.39
  -3  -4  -1    5.92    0.48
   3  -4   1    5.79    0.38
  -3   4  -1    5.30    0.22
  -3   4  -1    5.99    0.43
   3   4   1    6.66    0.44
  -3   4  -1    6.03    0.37
   3   4   1    6.05    0.43
  -3   4  -1    6.39    0.25
   3   4   1    5.93    0.49
  -3   4  -1    6.01    0.48
  -3   4  -1    5.46    0.40
   3   4   1    5.80    0.54
   3   4   1    5.58    0.45
  -3   4  -1    5.92    0.39
   3   4   1    5.60    0.42
  -3   4  -1    5.86    0.37
  -4  -4  -1    1.35    0.46
  -4  -4  -1    0.74    0.32
  -4  -4  -1    0.95    0.30
   4  -4   1    0.80    0.24
   4  -4   1    0.82    0.30
  -4  -4  -1    0.98    0.31
   4  -4   1    1.10    0.19
   4  -4   1    1.10    0.23
  -4   4  -1    1.15    0.19
   4   4   1    1.09    0.30
  -4   4  -1    0.82    0.22
  -4   4  -1    0.97    0.31
  -4   4  -1    1.08    0.21
   4   4   1    0.64    0.29
   4   4   1    1.20    0.29
  -4   4  -1    1.18    0.29
   4   4   1    0.88    0.42
   4   4   1    0.74    0.27
  -5  -4  -1    0.17    0.36
   5  -4   1    0.10    0.18
  -5  -4  -1    0.37    0.35
   5  -4   1   -0.02    0.25
  -5  -4  -1    0.06    0.36
  -5  -4  -1    0.13    1.12
   5  -4   1   -0.04    0.35
   5  -4   1   -0.01    0.51
  -5   4  -1    0.05    0.29
   5   4   1    0.48    0.33
  -5   4  -1    0.20    0.37
   5   4   1    0.02    0.29
   5   4   1    0.40    0.38
  -5   4  -1    0.12    0.29
   5   4   1   -0.47    0.57
  -5   4  -1    0.08    0.18
  -5   4  -1   -0.19    0.34
   5   4   1   -0.01    0.31
  -5   4  -1   -0.01    0.31
  -6  -4  -1   -0.04    0.49
   6  -4   1    0.29    0.33
   6  -4   1    0.23    0.24
   6  -4   1   -0.14    0.44
  -6  -4  -1   -0.10    0.43
   6  -4   1   -0.44    0.36
  -6  -4  -1    0.13    0.44
  -6   4  -1    0.22    0.43
   6   4   1   -0.32    0.21
   6   4   1    0.23    0.34
   6   4   1   -0.52    0.38
  -6   4  -1   -0.09    0.39
   6   4   1   -0.30    0.49
   7  -4   1   15.35    1.16
  -7  -4  -1   12.77    1.11
  -7  -4  -1   15.14    1.23
   7  -4   1   14.74    0.84
   7  -4   1   15.13    0.99
   7   4   1   14.70    1.05
  -7   4  -1   15.50    1.24
  -7   4  -1   15.76    1.21
   7   4   1   14.86    1.18
   7   4   1   16.43    1.35
   8  -4   1    4.50    0.91
   8  -4   1    5.41    0.62
  -8  -4  -1    4.64    1.07
  -8  -4  -1    5.76    0.93
   8   4   1    6.99    0.98
   8   4   1    5.07    0.88
   8   4   1    3.55    1.02
  -8   4  -1    6.64    1.03
  -8   4  -1    3.86    1.00
  -8  -5   1    1.50    0.87
  -8  -5   1   -0.85    0.87
  -8   5   1   -0.37    0.83
   8   5  -1    0.78    0.76
   8   5  -1   -0.68    0.86
   8   5  -1   -0.23    0.99
  -8   5   1   -0.59    0.93
  -7  -5   1    4.16    0.73
   7  -5  -1    2.20    0.58
   7  -5  -1    2.22    0.35
   7   5  -1    2.68    0.62
  -7   5   1    2.12    0.62
   7   5  -1    2.35    0.56
   7   5  -1    2.32    0.72
  -7   5   1    2.81    0.69
  -6  -5   1   -0.17    0.46
   6  -5  -1   -0.15    0.33
   6  -5  -1   -0.02    0.21
   6  -5  -1   -0.37    0.39
   6  -5  -1    0.44    0.45
  -6  -5   1   -0.19    0.52
  -6  -5   1   -0.05    0.47
   6   5  -1    0.16    0.40
  -6   5   1    0.19    0.43
  -6   5   1   -0.17    0.41
   6   5  -1    0.53    0.41
   6   5  -1    0.22    0.49
  -5  -5   1    3.91    0.75
  -5  -5   1    3.07    0.48
   5  -5  -1    3.61    0.42
   5  -5  -1    3.32    0.43
  -5  -5   1    4.13    0.56
   5  -5  -1    3.64    0.52
   5  -5  -1    3.45    0.32
  -5  -5   1    3.23    0.50
   5   5  -1    4.08    0.39
   5   5  -1    3.04    0.45
  -5   5   1    3.80    0.37
  -5   5   1    3.37    0.39
   5   5  -1    2.88    0.49
   5   5  -1    2.84    0.98
   5   5  -1    3.08    0.46
  -5   5   1    2.64    0.50
  -5   5   1    4.40    0.59
   5   5  -1    3.46    0.45
  -4  -5   1   16.05    0.83
   4  -5  -1   15.54    0.73
  -4  -5   1   15.98    0.86
   4  -5  -1   15.62    0.55
   4  -5  -1   16.28    0.56
  -4  -5   1   15.22    0.78
  -4  -5   1   16.17    0.96
   4  -5  -1   15.51    0.84
  -4  -5   1   16.65    0.83
  -4   5   1   14.81    0.81
  -4   5   1   14.11    0.75
   4   5  -1   15.42    0.64
  -4   5   1   15.89    0.62
   4   5  -1   15.55    0.80
  -4   5   1   15.50    0.69
   4   5  -1   15.52    0.74
   4   5  -1   14.68    0.99
   4   5  -1   15.09    0.70
   4   5  -1   15.62    0.88
  -4   5   1   16.43    0.86
  -3  -5   1   57.11    1.81
  -3  -5   1   60.64    1.83
  -3  -5   1   58.77    1.90
  -3  -5   1   57.81    1.75
   3  -5  -1   61.16    1.60
   3  -5  -1   61.17    1.83
  -3  -5   1   60.15    1.87
   3   5  -1   54.10    1.83
  -3   5   1   57.68    1.88
  -3   5   1   59.07    1.88
  -3   5   1   59.61    1.84
   3   5  -1   63.88    1.90
   3   5  -1   61.53    1.88
  -3   5   1   63.74    1.84
   3   5  -1   60.03    1.80
   3   5  -1   60.95    1.84
  -3   5   1   57.52    1.80
   3   5  -1   58.89    1.89
  -3   5   1   57.97    1.77
   3   5  -1   61.83    1.79
   3   5  -1   60.93    1.76
  -2  -5   1    0.18    0.20
  -2  -5   1   -0.05    0.21
  -2  -5   1    0.13    0.14
  -2  -5   1    0.21    0.17
  -2  -5   1    0.31    0.14
  -2  -5   1    0.15    0.22
   2   5  -1   -0.08    0.19
  -2   5   1    0.11    0.19
   2   5  -1   -0.06    0.18
   2   5  -1    0.00    0.12
   2   5  -1    0.18    0.18
  -2   5   1    0.17    0.19
  -2   5   1    0.05    0.16
  -2   5   1    0.20    0.20
   2   5  -1    0.09    0.21
  -2   5   1   -0.11    0.16
   2   5  -1   -0.02    0.21
   2   5  -1    0.51    0.17
  -1  -5   1   76.52    2.22
  -1  -5   1   79.31    2.21
  -1  -5   1   75.82    2.20
  -1  -5   1   78.24    2.29
   1  -5  -1   77.15    2.08
   1  -5  -1   70.51    2.07
   1  -5  -1   78.21    2.24
  -1   5   1   79.56    2.19
   1   5  -1   77.76    2.19
   1   5  -1   78.97    2.23
  -1   5   1   78.78    2.23
   1   5  -1   77.70    2.26
   1   5  -1   80.14    2.07
  -1   5   1   78.32    2.22
   1   5  -1   74.92    2.23
   1   5  -1   77.62    2.19
  -1   5   1   79.48    2.23
  -1   5   1   78.14    2.22
  -1   5   1   78.47    2.23
   1   5  -1   78.38    2.20
   0  -5  -1   50.38    1.52
   0  -5  -1   50.32    1.41
   0  -5   1   50.62    1.49
   0  -5   1   48.39    1.53
   0  -5   1   50.02    1.42
   0  -5   1   50.43    1.47
   0  -5  -1   47.95    1.51
   0  -5   1   50.59    1.43
   0  -5  -1   49.19    1.42
   0  -5  -1   48.16    1.42
   0   5   1   50.78    1.41
   0   5   1   46.90    1.49
   0   5   1   50.33    1.39
   0   5  -1   51.39    1.49
   0   5  -1   50.83    1.38
   0   5   1   46.35    1.48
   0   5  -1   50.97    1.41
   0   5  -1   50.84    1.38
   0   5  -1   50.38    1.49
   0   5  -1   49.64    1.40
   0   5   1   49.80    1.51
   0   5   1   51.59    1.40
   0   5  -1   46.41    1.50
   0   5   1   50.04    1.46
   1  -5   1    2.68    0.19
   1  -5   1    2.57    0.34
   1  -5   1    1.94    0.26
  -1  -5  -1    2.57    0.33
  -1  -5  -1    2.35    0.33
  -1  -5  -1    2.38    0.28
  -1  -5  -1    2.08    0.28
  -1  -5  -1    2.19    0.24
  -1  -5  -1    2.35    0.20
   1  -5   1    2.54    0.19
  -1   5  -1    2.38    0.30
  -1   5  -1    2.48    0.12
   1   5   1    2.38    0.30
   1   5   1    2.46    0.22
   1   5   1    2.48    0.20
   1   5   1    2.85    0.26
   1   5   1    2.67    0.27
  -1   5  -1    2.30    0.23
   1   5   1    2.12    0.27
   1   5   1    1.89    0.22
  -1   5  -1    2.44    0.25
  -1   5  -1    2.14    0.24
  -1   5  -1    2.30    0.29
   2  -5   1  113.96    3.16
  -2  -5  -1  112.25    2.97
   2  -5   1  107.38    2.92
  -2  -5  -1  112.56    3.17
   2  -5   1   94.93    3.00
  -2  -5  -1  110.28    3.10
  -2  -5  -1  112.08    3.11
   2  -5   1  112.59    3.10
  -2  -5  -1  107.07    3.08
  -2  -5  -1  113.40    3.12
  -2  -5  -1  111.09    3.06
   2   5   1  107.31    3.12
  -2   5  -1  109.75    3.12
   2   5   1  113.06    2.97
   2   5   1  103.63    3.05
   2   5   1  110.96    3.12
   2   5   1  112.69    3.11
   2   5   1  102.35    3.07
   2   5   1  109.12    3.09
  -2   5  -1  113.94    3.14
  -2   5  -1  110.51    3.07
  -2   5  -1  110.00    3.07
  -2   5  -1  106.83    3.07
  -2   5  -1  114.75    3.02
  -3  -5  -1   17.23    0.79
  -3  -5  -1   16.82    0.79
   3  -5   1   17.59    0.78
   3  -5   1   17.15    0.56
  -3  -5  -1   16.60    0.85
  -3  -5  -1   17.48    0.85
  -3  -5  -1   16.93    0.70
  -3  -5  -1   17.43    0.69
   3  -5   1   16.64    0.57
  -3   5  -1   16.03    0.77
   3   5   1   16.45    0.75
   3   5   1   16.45    0.84
  -3   5  -1   17.67    0.67
   3   5   1   18.05    0.78
  -3   5  -1   17.21    0.81
  -3   5  -1   16.41    0.76
  -3   5  -1   16.55    0.71
   3   5   1   16.01    0.73
   3   5   1   17.77    0.73
  -3   5  -1   18.19    0.69
   3   5   1   17.23    0.82
   4  -5   1    9.63    0.66
  -4  -5  -1    8.55    0.91
  -4  -5  -1    8.05    0.57
   4  -5   1    7.81    0.40
  -4  -5  -1    8.21    0.66
  -4  -5  -1    8.06    0.68
   4  -5   1    8.51    0.44
  -4   5  -1    8.16    0.56
   4   5   1    7.50    0.78
  -4   5  -1    7.34    0.55
  -4   5  -1    7.75    0.62
   4   5   1    7.34    0.59
   4   5   1    7.25    0.64
  -4   5  -1    7.90    0.45
   4   5   1    7.49    0.59
   4   5   1    7.21    0.84
   5  -5   1    0.01    0.27
  -5  -5  -1   -0.56    0.41
   5  -5   1   -0.02    0.36
  -5  -5  -1    0.81    0.81
   5  -5   1    0.10    0.26
  -5  -5  -1   -0.17    0.36
  -5  -5  -1   -0.10    0.32
   5  -5   1    0.07    0.18
  -5   5  -1    0.11    0.32
   5   5   1    0.16    0.43
  -5   5  -1   -0.68    0.43
   5   5   1    0.00    0.43
  -5   5  -1    0.00    0.26
   5   5   1   -0.11    0.70
   5   5   1   -0.24    0.31
   5   5   1   -0.11    0.32
  -5   5  -1    0.21    0.35
  -6  -5  -1    1.95    0.55
  -6  -5  -1    2.20    0.64
   6  -5   1    2.61    0.46
   6  -5   1    2.38    0.38
   6  -5   1    2.99    0.43
  -6   5  -1    1.86    0.55
  -6   5  -1    1.98    0.58
   6   5   1    2.45    0.30
   6   5   1    2.03    0.61
   6   5   1    2.84    0.53
   6   5   1    2.24    0.54
  -7  -5  -1   12.41    1.24
  -7  -5  -1   16.02    1.18
   7  -5   1   14.27    0.80
   7  -5   1   11.49    1.16
   7   5   1   14.38    1.19
   7   5   1   14.38    1.43
  -7   5  -1   13.95    1.17
   7   5   1   15.17    1.11
  -7   5  -1   13.12    1.23
   8  -5   1    1.88    0.45
  -8  -5  -1    3.40    0.95
   8  -5   1   -0.36    0.84
  -8  -5  -1   -0.25    1.03
   8   5   1    1.62    0.94
   8   5   1    0.71    1.05
  -8   5  -1    2.58    0.81
  -8   5  -1    0.59    0.97
   8   5   1    0.51    0.82
   7  -6  -1    0.56    0.63
  -7  -6   1    0.56    0.75
   7  -6  -1    0.23    0.49
  -7  -6   1    1.00    0.61
   7   6  -1   -0.81    0.66
   7   6  -1    0.76    0.78
  -7   6   1    0.02    0.70
  -7   6   1    1.24    0.58
   7   6  -1    0.86    0.59
   6  -6  -1    6.23    0.63
   6  -6  -1    5.84    0.57
  -6  -6   1    5.77    0.78
  -6  -6   1    5.85    0.70
  -6  -6   1    5.16    0.78
   6   6  -1    6.54    0.77
   6   6  -1    6.72    0.82
  -6   6   1    6.18    0.83
  -6   6   1    4.68    0.64
   6   6  -1    5.44    0.54
   6   6  -1    6.12    0.73
  -5  -6   1   -0.70    0.38
  -5  -6   1    0.74    0.81
  -5  -6   1    0.20    0.35
  -5  -6   1   -0.18    0.63
   5  -6  -1    0.18    0.36
  -5  -6   1    0.07    0.37
   5  -6  -1    0.19    0.20
   5   6  -1    0.34    0.42
  -5   6   1    0.26    0.20
   5   6  -1   -0.09    0.34
  -5   6   1   -0.39    0.39
  -5   6   1   -0.02    0.38
   5   6  -1   -0.43    0.29
   5   6  -1    0.47    0.24
  -5   6   1   -0.31    0.41
  -4  -6   1   21.94    1.20
  -4  -6   1   23.24    0.98
  -4  -6   1   20.81    0.97
  -4  -6   1   23.73    1.06
  -4  -6   1   21.93    1.03
   4  -6  -1   22.09    0.67
   4  -6  -1   22.41    0.67
   4   6  -1   22.86    1.74
  -4   6   1   23.40    0.98
   4   6  -1   22.81    0.88
   4   6  -1   23.38    0.88
  -4   6   1   20.89    1.07
   4   6  -1   22.34    0.99
  -4   6   1   21.64    0.95
   4   6  -1   22.14    1.11
  -4   6   1   23.20    0.84
  -4   6   1   21.73    1.03
  -4   6   1   22.51    1.23
   4   6  -1   22.32    1.09
  -3  -6   1    0.71    0.29
  -3  -6   1    0.64    0.28
  -3  -6   1    0.58    0.25
  -3  -6   1    0.44    0.36
  -3  -6   1    0.45    0.26
  -3   6   1    0.61    0.34
   3   6  -1    0.11    0.22
   3   6  -1    0.43    0.34
  -3   6   1    0.99    0.27
  -3   6   1    1.21    0.34
   3   6  -1    0.57    0.32
   3   6  -1    0.52    0.21
   3   6  -1    0.82    0.30
   3   6  -1    0.77    0.35
  -3   6   1    0.59    0.37
  -3   6   1    0.46    0.28
   3   6  -1    0.78    0.33
  -3   6   1    1.61    0.39
  -2  -6   1    4.38    0.28
  -2  -6   1    4.18    0.47
  -2  -6   1    3.67    0.37
  -2  -6   1    4.04    0.47
  -2  -6   1    3.62    0.39
  -2  -6   1    4.55    0.42
  -2   6   1    3.59    0.40
  -2   6   1    4.57    0.46
  -2   6   1    3.62    0.45
   2   6  -1    4.10    0.42
   2   6  -1    3.81    0.45
   2   6  -1    4.58    0.33
   2   6  -1    3.78    0.26
  -2   6   1    3.60    0.45
   2   6  -1    4.21    0.39
   2   6  -1    3.55    0.44
  -2   6   1    3.72    0.44
   2   6  -1    3.88    0.43
   1  -6  -1    4.50    0.24
  -1  -6   1    4.44    0.36
   1  -6  -1    4.05    0.22
  -1  -6   1    4.78    0.34
   1  -6  -1    4.65    0.41
  -1  -6   1    4.52    0.39
  -1  -6   1    4.38    0.42
   1   6  -1    4.51    0.32
   1   6  -1    4.93    0.34
   1   6  -1    4.20    0.38
  -1   6   1    4.13    0.36
  -1   6   1    4.54    0.41
   1   6  -1    4.68    0.42
  -1   6   1    4.83    0.38
  -1   6   1    4.39    0.36
  -1   6   1    4.56    0.32
   1   6  -1    4.13    0.26
  -1   6   1    4.85    0.41
  -1   6   1    3.45    0.36
   1   6  -1    4.52    0.21
   0  -6  -1   12.24    0.50
   0  -6   1   12.56    0.50
   0  -6   1   12.78    0.58
   0  -6   1   13.10    0.65
   0  -6  -1   12.88    0.50
   0  -6  -1   12.34    0.51
   0  -6  -1   13.57    0.62
   0  -6   1   12.90    0.52
   0   6   1   12.76    0.55
   0   6   1   12.33    0.43
   0   6  -1   12.17    0.54
   0   6  -1   12.70    0.45
   0   6  -1   12.35    0.54
   0   6   1   13.00    0.59
   0   6  -1   13.25    0.59
   0   6  -1   13.41    0.58
   0   6  -1   12.98    0.46
   0   6   1   11.83    0.62
   0   6  -1   13.23    0.64
   0   6   1   13.45    0.61
   0   6   1   12.35    0.54
   0   6  -1   11.74    0.43
   0   6   1   13.16    0.51
  -1  -6  -1    5.74    0.43
   1  -6   1    5.41    0.28
  -1  -6  -1    4.98    0.29
   1  -6   1    5.00    0.44
  -1  -6  -1    4.92    0.34
  -1  -6  -1    6.08    0.41
  -1  -6  -1    6.04    0.45
   1  -6   1    5.71    0.43
  -1  -6  -1    5.23    0.39
   1  -6   1    5.14    0.27
   1   6   1    5.21    0.43
  -1   6  -1    5.18    0.36
  -1   6  -1    4.86    0.36
   1   6   1    5.91    0.38
  -1   6  -1    5.66    0.37
  -1   6  -1    5.19    0.40
   1   6   1    5.55    0.32
  -1   6  -1    5.39    0.44
   1   6   1    4.95    0.40
   1   6   1    5.27    0.36
   1   6   1    5.42    0.30
  -1   6  -1    5.41    0.36
   1   6   1    5.11    0.34
  -2  -6  -1    9.61    0.55
  -2  -6  -1    9.28    0.61
  -2  -6  -1    9.95    0.63
  -2  -6  -1   10.02    0.43
   2  -6   1    9.68    0.59
   2  -6   1    9.14    0.34
  -2  -6  -1    9.76    0.56
   2  -6   1   10.30    0.35
  -2  -6  -1    8.89    0.47
  -2   6  -1    8.30    0.69
   2   6   1    9.16    0.49
  -2   6  -1    9.63    0.56
   2   6   1   10.55    0.57
   2   6   1   10.16    0.59
  -2   6  -1    9.64    0.52
   2   6   1    9.83    0.44
  -2   6  -1   10.29    0.54
  -2   6  -1   10.48    0.58
   2   6   1    9.11    0.55
  -2   6  -1    9.61    0.47
  -2   6  -1    9.14    0.59
   3  -6   1   14.21    0.48
  -3  -6  -1   14.00    0.79
   3  -6   1   14.24    0.73
  -3  -6  -1   13.88    0.88
   3  -6   1   14.25    0.47
  -3  -6  -1   13.69    0.61
  -3  -6  -1   13.58    0.76
  -3  -6  -1   14.34    0.75
   3   6   1   14.02    0.82
   3   6   1   11.96    0.81
  -3   6  -1   14.25    0.64
  -3   6  -1   14.72    0.68
   3   6   1   14.76    0.74
   3   6   1   14.05    0.66
   3   6   1   11.28    1.20
  -3   6  -1   14.97    0.77
  -3   6  -1   13.52    0.73
   4  -6   1    8.17    0.37
  -4  -6  -1    7.22    0.77
  -4  -6  -1    7.10    0.85
   4  -6   1    7.66    0.68
   4  -6   1    6.91    0.40
  -4  -6  -1    7.84    0.57
  -4  -6  -1    8.81    0.72
  -4  -6  -1    8.69    0.74
   4   6   1    7.46    0.58
   4   6   1    8.51    0.82
  -4   6  -1    7.62    0.48
  -4   6  -1    7.64    0.67
   4   6   1    7.36    0.77
   4   6   1    8.29    0.65
  -4   6  -1    8.89    0.70
  -4   6  -1    7.36    0.64
  -5  -6  -1    0.81    0.39
  -5  -6  -1    1.16    0.94
  -5  -6  -1    0.85    0.50
   5  -6   1    0.31    0.26
  -5  -6  -1    0.60    0.39
   5  -6   1    0.52    0.18
   5  -6   1    0.33    0.38
   5   6   1    0.28    0.45
  -5   6  -1    0.97    0.53
   5   6   1    0.21    0.57
   5   6   1    0.42    0.38
  -5   6  -1    0.57    0.39
  -5   6  -1    0.77    0.45
   5   6   1    0.85    0.37
  -5   6  -1    0.37    0.24
   6  -6   1    0.91    0.24
  -6  -6  -1    0.69    0.52
  -6  -6  -1    1.30    0.69
   6  -6   1    0.55    0.49
   6  -6   1    0.82    0.36
  -6  -6  -1    1.96    0.55
   6   6   1    0.26    0.32
   6   6   1    0.86    0.55
  -6   6  -1    0.32    0.51
  -6   6  -1    0.34    0.53
   6   6   1    0.09    0.48
   6   6   1    1.52    0.71
   7  -6   1    0.46    0.31
  -7  -6  -1    0.58    0.72
   7  -6   1   -0.39    0.61
  -7  -6  -1    0.99    0.68
   7   6   1   -0.51    0.64
  -7   6  -1    0.21    0.65
   7   6   1   -0.49    0.89
   7   6   1    0.48    0.58
  -7   6  -1   -0.04    0.72
   7  -7  -1    0.26    0.42
   7  -7  -1    0.75    0.31
  -7  -7   1    1.42    0.75
  -7  -7   1    1.48    0.78
  -7   7   1    2.23    0.77
  -7   7   1    1.08    0.79
   7   7  -1    0.64    0.59
   7   7  -1   -0.05    0.78
  -6  -7   1    1.45    0.55
  -6  -7   1    1.73    0.60
   6  -7  -1    0.99    0.22
  -6  -7   1    0.80    0.64
   6  -7  -1    1.23    0.25
   6   7  -1    1.89    0.51
   6   7  -1    1.03    0.39
  -6   7   1    0.99    0.60
  -6   7   1    2.48    0.63
   6   7  -1    1.30    0.50
   6   7  -1    1.43    0.75
  -5  -7   1    1.78    0.47
  -5  -7   1    0.31    0.46
  -5  -7   1    1.07    0.46
  -5   7   1    1.15    0.29
   5   7  -1    0.97    0.37
   5   7  -1    1.03    0.37
   5   7  -1    1.04    0.55
  -5   7   1    1.76    0.47
  -5   7   1    0.45    0.47
   5   7  -1    0.70    0.30
  -4  -7   1   -0.18    0.31
  -4  -7   1   -0.04    0.34
  -4  -7   1    0.20    0.44
  -4  -7   1   -0.12    0.36
  -4  -7   1    1.14    0.67
  -4   7   1   -0.16    0.22
  -4   7   1   -0.19    0.48
   4   7  -1   -0.07    0.44
  -4   7   1    0.16    0.32
  -4   7   1    0.14    0.39
   4   7  -1    0.17    0.24
   4   7  -1    0.53    0.25
   4   7  -1    0.16    0.29
  -3  -7   1   29.14    1.05
  -3  -7   1   29.90    1.27
  -3  -7   1   28.37    1.14
  -3  -7   1   29.34    1.21
  -3  -7   1   30.60    0.99
  -3   7   1   26.44    1.14
   3   7  -1   29.93    0.95
   3   7  -1   29.50    1.16
   3   7  -1   29.32    1.19
  -3   7   1   25.82    1.17
  -3   7   1   25.96    1.19
   3   7  -1   28.55    1.08
   3   7  -1   29.24    1.15
  -2  -7   1    2.87    0.38
  -2  -7   1    4.74    0.52
  -2  -7   1    4.04    0.45
  -2  -7   1    4.94    0.41
  -2  -7   1    4.08    0.29
  -2   7   1    4.40    0.48
  -2   7   1    3.52    0.41
  -2   7   1    4.51    0.56
  -2   7   1    4.26    0.46
   2   7  -1    4.35    0.66
   2   7  -1    3.80    0.43
  -2   7   1    3.45    0.43
   2   7  -1    4.72    0.48
   2   7  -1    3.88    0.27
   2   7  -1    4.10    0.54
   2   7  -1    4.18    0.50
   1  -7  -1    7.20    0.31
   1  -7  -1    7.34    0.33
   1  -7  -1    7.78    0.53
  -1  -7   1    7.58    0.51
  -1  -7   1    6.33    0.48
  -1  -7   1    7.41    0.54
  -1  -7   1    7.78    0.46
  -1  -7   1    7.11    0.45
  -1   7   1    7.51    0.51
  -1   7   1    7.91    0.53
   1   7  -1    6.26    0.42
   1   7  -1    7.44    0.50
   1   7  -1    7.34    0.43
   1   7  -1    7.51    0.55
   1   7  -1    7.53    0.49
  -1   7   1    7.75    0.54
  -1   7   1    6.59    0.46
  -1   7   1    7.20    0.46
  -1   7   1    7.37    0.59
   1   7  -1    6.50    0.35
   1   7  -1    7.14    0.29
   1   7  -1    7.90    0.30
   0  -7   1   -0.09    0.16
   0  -7   1    0.04    0.17
   0  -7   1   -0.07    0.25
   0  -7   1    0.11    0.20
   0  -7  -1   -0.12    0.23
   0  -7  -1   -0.05    0.15
   0  -7  -1   -0.04    0.17
   0  -7  -1   -0.05    0.17
   0   7   1   -0.03    0.21
   0   7  -1   -0.07    0.20
   0   7   1   -0.09    0.18
   0   7   1    0.05    0.24
   0   7  -1    0.04    0.20
   0   7  -1   -0.01    0.20
   0   7  -1   -0.08    0.20
   0   7   1    0.59    0.31
   0   7  -1    0.03    0.15
   0   7   1    0.20    0.10
   0   7  -1    0.17    0.19
   0   7  -1    0.22    0.16
   0   7  -1   -0.14    0.27
   1  -7   1    3.70    0.42
  -1  -7  -1    3.51    0.43
   1  -7   1    3.56    0.27
  -1  -7  -1    3.54    0.42
  -1  -7  -1    3.93    0.30
  -1  -7  -1    3.88    0.36
   1  -7   1    4.01    0.46
  -1  -7  -1    3.05    0.38
  -1   7  -1    3.53    0.39
   1   7   1    3.88    0.40
   1   7   1    3.63    0.37
  -1   7  -1    3.67    0.41
  -1   7  -1    3.80    0.38
   1   7   1    4.37    0.42
   1   7   1    4.29    0.35
   1   7   1    2.95    0.35
  -1   7  -1    3.05    0.39
   1   7   1    3.41    0.40
  -1   7  -1    3.59    0.36
  -1   7  -1    3.81    0.38
   1   7   1    3.24    0.31
  -1   7  -1    4.38    0.46
  -2  -7  -1    2.49    0.38
  -2  -7  -1    2.34    0.42
   2  -7   1    2.23    0.19
  -2  -7  -1    2.57    0.36
   2  -7   1    2.53    0.19
  -2  -7  -1    2.52    0.28
  -2  -7  -1    2.68    0.35
   2  -7   1    2.61    0.37
  -2   7  -1    2.47    0.42
   2   7   1    2.20    0.35
  -2   7  -1    2.76    0.49
   2   7   1    2.61    0.27
  -2   7  -1    2.20    0.29
  -2   7  -1    2.31    0.33
  -2   7  -1    2.70    0.38
   2   7   1    2.99    0.35
   2   7   1    2.65    0.38
  -2   7  -1    2.73    0.38
  -3  -7  -1    1.59    0.47
  -3  -7  -1    1.89    0.44
  -3  -7  -1    1.79    0.37
   3  -7   1    1.27    0.16
  -3  -7  -1    1.78    0.36
  -3  -7  -1    1.90    0.28
  -3   7  -1    1.96    0.37
  -3   7  -1    1.29    0.42
   3   7   1    1.55    0.34
  -3   7  -1    1.57    0.28
  -3   7  -1    2.34    0.48
   3   7   1    1.58    0.29
  -3   7  -1    1.94    0.27
   3   7   1    0.84    0.38
  -3   7  -1    1.78    0.40
  -4  -7  -1    5.83    0.82
   4  -7   1    5.94    0.28
   4  -7   1    5.27    0.64
  -4  -7  -1    5.46    0.69
  -4  -7  -1    6.70    0.66
  -4  -7  -1    5.09    0.72
   4  -7   1    5.96    0.31
  -4  -7  -1    5.74    0.52
  -4   7  -1    6.04    0.49
   4   7   1    6.14    0.72
   4   7   1    5.37    0.61
   4   7   1    5.73    0.56
  -4   7  -1    6.37    0.69
  -4   7  -1    5.82    0.64
  -4   7  -1    5.76    0.75
  -5  -7  -1    0.77    0.51
  -5  -7  -1    0.66    0.42
   5  -7   1    0.23    0.20
   5  -7   1   -0.02    0.43
  -5  -7  -1    1.23    0.50
   5  -7   1    0.54    0.17
  -5   7  -1    0.69    0.48
  -5   7  -1    0.70    0.31
   5   7   1    0.08    0.49
   5   7   1    0.55    0.40
   5   7   1    0.73    0.39
  -6  -7  -1    9.51    0.98
   6  -7   1    8.52    0.49
  -6  -7  -1    9.85    0.93
  -6  -7  -1    9.90    1.02
   6  -7   1    6.34    0.59
   6  -7   1    8.98    0.96
   6   7   1    6.97    0.89
   6   7   1    8.00    0.94
   6   7   1    6.93    0.70
   6   7   1    7.76    0.87
  -6   7  -1    8.68    1.06
  -6   7  -1    8.41    1.00
  -7  -7  -1    1.25    0.74
   7  -7   1    0.13    0.31
  -7   7  -1    0.65    0.76
   7   7   1   -0.77    0.72
  -7   7  -1    0.88    0.85
   7   7   1    1.76    0.70
  -7  -8   1    0.57    0.78
  -7   8   1    1.50    0.84
  -7   8   1    0.91    0.88
   7   8  -1    0.26    0.65
  -6  -8   1   -0.42    0.69
  -6  -8   1    0.61    0.59
  -6  -8   1    1.26    0.62
  -6   8   1    0.76    0.62
   6   8  -1    0.01    0.41
  -6   8   1    1.61    0.93
   6   8  -1   -0.21    0.49
   6   8  -1   -0.43    0.48
  -5  -8   1    0.09    0.47
  -5  -8   1    0.07    0.44
  -5  -8   1    0.94    0.48
   5   8  -1    0.03    0.59
   5   8  -1   -0.20    0.41
  -5   8   1    0.10    0.47
   5   8  -1    0.59    0.38
   5   8  -1    0.21    0.32
  -5   8   1    0.43    0.53
  -5   8   1    0.27    0.30
  -4  -8   1    3.01    0.53
  -4  -8   1    2.28    0.54
  -4  -8   1    1.56    0.44
  -4  -8   1    2.71    0.44
  -4  -8   1    3.02    0.83
  -4   8   1    1.70    0.32
   4   8  -1    1.82    0.57
   4   8  -1    1.75    0.35
   4   8  -1    2.47    0.71
  -4   8   1    2.09    0.49
   4   8  -1    1.93    0.32
   4   8  -1    2.16    0.45
  -4   8   1    2.65    0.50
  -3  -8   1   20.62    0.90
  -3  -8   1   22.25    1.03
  -3  -8   1   21.45    1.17
  -3  -8   1   22.39    1.11
   3   8  -1   21.89    1.02
   3   8  -1   23.01    1.10
   3   8  -1   22.56    0.77
  -3   8   1   22.07    0.95
   3   8  -1   21.96    0.96
   3   8  -1   23.11    1.10
  -2  -8   1   10.56    0.65
  -2  -8   1   10.41    0.73
  -2  -8   1   10.85    0.59
  -2   8   1   10.09    0.90
   2   8  -1   10.63    0.69
   2   8  -1    9.74    0.75
   2   8  -1   10.59    0.40
  -2   8   1   11.72    0.64
  -2   8   1   11.75    0.65
   2   8  -1   10.96    0.65
  -2   8   1   10.02    0.79
   1  -8  -1    6.71    0.34
  -1  -8   1    6.07    0.47
  -1  -8   1    6.32    0.47
   1  -8  -1    6.18    0.33
   1  -8  -1    5.34    0.54
  -1  -8   1    6.91    0.57
  -1  -8   1    6.64    0.56
   1   8  -1    5.77    0.52
   1   8  -1    6.59    0.62
   1   8  -1    7.06    0.78
  -1   8   1    6.10    0.53
  -1   8   1    6.46    0.59
  -1   8   1    6.02    0.59
  -1   8   1    6.09    0.47
   1   8  -1    6.28    0.27
   1   8  -1    6.15    0.27
   1   8  -1    5.78    0.52
   0  -8   1   -0.12    0.22
   0  -8  -1    0.19    0.27
   0  -8   1    0.13    0.17
   0  -8   1    0.24    0.28
   0  -8   1    0.07    0.21
   0  -8  -1    0.02    0.20
   0  -8  -1    0.17    0.17
   0  -8  -1    0.26    0.23
   0   8  -1   -0.08    0.22
   0   8   1    0.03    0.19
   0   8  -1    0.13    0.23
   0   8  -1    0.05    0.23
   0   8   1    0.08    0.20
   0   8   1   -0.14    0.25
   0   8  -1   -0.12    0.18
   0   8  -1   -0.21    0.17
   0   8   1    0.12    0.29
   0   8  -1    0.11    0.36
   0   8   1    0.40    0.26
   1  -8   1   14.91    0.56
  -1  -8  -1   14.45    0.74
   1  -8   1   15.70    0.82
  -1  -8  -1   14.05    0.67
  -1  -8  -1   14.82    0.81
   1  -8   1   14.96    0.73
  -1  -8  -1   14.49    0.57
   1  -8   1   15.35    0.56
  -1   8  -1   14.42    0.74
   1   8   1   13.97    0.76
  -1   8  -1   14.27    0.86
  -1   8  -1   14.21    0.70
  -1   8  -1   14.25    0.68
   2  -8   1    0.20    0.11
  -2  -8  -1   -0.12    0.31
  -2  -8  -1    0.98    0.36
  -2  -8  -1    0.21    0.25
   2  -8   1    0.38    0.29
   2  -8   1   -0.03    0.11
  -2  -8  -1    0.09    0.19
  -2   8  -1    0.34    0.24
  -2   8  -1   -0.06    0.24
   2   8   1    0.01    0.28
  -2   8  -1   -0.49    0.45
   2   8   1    0.40    0.22
   2   8   1   -0.07    0.28
   2   8   1   -0.09    0.32
  -2   8  -1    0.34    0.38
  -3  -8  -1   24.26    1.13
  -3  -8  -1   23.32    0.84
  -3  -8  -1   24.16    1.27
  -3  -8  -1   23.85    1.07
  -3  -8  -1   23.74    1.11
  -3   8  -1   23.37    0.97
   3   8   1   22.72    0.92
  -3   8  -1   23.12    0.93
   3   8   1   22.62    1.13
   3   8   1   22.73    1.05
  -4  -8  -1    2.69    0.89
  -4  -8  -1    3.12    0.38
  -4  -8  -1    3.06    0.53
  -4  -8  -1    2.39    0.51
   4   8   1    3.41    0.67
   4   8   1    2.88    0.46
   4   8   1    3.02    0.42
  -4   8  -1    3.96    0.51
  -4   8  -1    3.17    0.54
  -4   8  -1    2.85    0.69
  -4   8  -1    2.83    0.39
  -5  -8  -1   -0.32    0.40
  -5  -8  -1    0.04    0.43
  -5  -8  -1   -0.03    0.56
   5   8   1   -0.53    0.33
  -5   8  -1    0.36    0.55
  -5   8  -1   -0.12    0.33
  -5   8  -1    0.53    0.39
   5   8   1   -0.52    0.64
   5   8   1    0.35    0.43
   5   8   1   -0.02    0.42
  -6  -8  -1    0.84    0.74
  -6  -8  -1   -0.04    0.58
  -6   8  -1   -0.49    0.62
  -6   8  -1    0.64    0.69
   6   8   1    0.62    0.53
   6   8   1    0.55    0.60
   6   8   1   -0.61    0.43
  -7  -8  -1    2.21    0.79
   7   8   1    1.98    0.80
  -7   8  -1   -0.61    0.97
  -7   8  -1   -0.54    0.83
  -6  -9   1    3.77    0.73
  -6  -9   1    0.45    0.78
   6   9  -1    2.12    0.81
  -6   9   1    1.81    0.79
   6   9  -1    0.14    0.63
  -6   9   1    1.31    0.74
  -5  -9   1   12.70    1.06
  -5  -9   1   10.33    0.93
  -5  -9   1   10.27    1.14
   5   9  -1    9.57    0.92
   5   9  -1   11.21    0.85
  -5   9   1   11.05    1.05
  -5   9   1   10.89    1.13
  -5   9   1   11.90    0.79
  -4  -9   1   -0.48    0.68
  -4  -9   1   -0.37    0.40
  -4  -9   1   -0.72    0.36
   4   9  -1    0.19    0.31
   4   9  -1    0.56    0.73
  -4   9   1    0.09    0.47
  -4   9   1    0.32    0.31
  -4   9   1    0.45    0.38
  -4   9   1    0.59    0.45
  -3  -9   1    1.12    0.35
  -3  -9   1    0.86    0.57
  -3  -9   1    0.31    0.40
  -3  -9   1    0.45    0.33
  -3   9   1    1.20    0.39
  -3   9   1    0.23    0.29
   3   9  -1    0.50    0.37
  -3   9   1    1.53    0.39
   3   9  -1    1.22    0.59
   3   9  -1    0.79    0.21
   3   9  -1    0.48    0.33
  -2  -9   1   11.57    0.73
  -2  -9   1   12.98    0.82
  -2  -9   1   12.88    0.68
  -2   9   1   10.69    1.02
   2   9  -1   11.59    0.92
   2   9  -1   13.33    0.89
   2   9  -1   12.22    0.75
  -2   9   1   13.16    0.75
   2   9  -1   12.89    0.77
  -2   9   1   13.07    0.73
  -2   9   1   10.89    0.98
   1  -9  -1    9.86    0.71
  -1  -9   1    8.93    0.70
   1  -9  -1    9.43    0.45
  -1  -9   1    9.65    0.72
  -1  -9   1   10.12    0.61
  -1  -9   1    9.86    0.59
   1  -9  -1   10.12    0.44
   1   9  -1    9.33    0.71
   1   9  -1   10.50    0.67
   1   9  -1    9.80    0.66
  -1   9   1    9.05    0.78
  -1   9   1   10.09    0.67
   1   9  -1    9.34    0.84
  -1   9   1   10.10    0.60
  -1   9   1   10.14    0.77
   0  -9   1    0.09    0.20
   0  -9  -1   -0.05    0.29
   0  -9   1   -0.29    0.32
   0  -9   1    0.26    0.28
   0  -9  -1    0.00    0.16
   0   9   1   -0.27    0.27
   0   9  -1    0.31    0.27
   0   9   1   -0.26    0.35
   0   9   1   -0.17    0.27
   0   9  -1   -0.15    0.22
   0   9  -1    0.43    0.47
   0   9  -1   -0.27    0.19
   0   9  -1   -0.50    0.26
   0   9   1   -0.42    0.22
   0   9  -1    0.14    0.28
   0   9   1    0.22    0.36
  -1  -9  -1    3.26    0.36
  -1  -9  -1    2.73    0.38
   1  -9   1    4.34    0.52
   1  -9   1    3.18    0.32
  -1  -9  -1    2.88    0.43
  -1  -9  -1    3.34    0.46
   1  -9   1    3.04    0.33
   1  -9   1    3.68    0.51
  -1   9  -1    3.12    0.40
   1   9   1    3.26    0.38
  -1   9  -1    3.55    0.43
   1   9   1    2.96    0.46
  -1   9  -1    3.29    0.40
  -1   9  -1    3.51    0.40
   1   9   1    3.62    0.41
  -1   9  -1    3.33    0.60
   2  -9   1    2.06    0.22
  -2  -9  -1    2.55    0.37
   2  -9   1    2.51    0.22
  -2  -9  -1    2.64    0.35
  -2  -9  -1    2.55    0.44
   2  -9   1    2.53    0.47
  -2   9  -1    2.71    0.52
   2   9   1    2.82    0.47
  -2   9  -1    2.70    0.37
  -2   9  -1    2.91    0.41
   2   9   1    2.90    0.45
   2   9   1    3.11    0.42
   2   9   1    2.24    0.48
  -2   9  -1    1.90    0.36
  -3  -9  -1   -0.66    0.30
  -3  -9  -1    0.42    0.27
  -3  -9  -1    0.70    0.64
  -3  -9  -1    0.46    0.41
  -3  -9  -1    0.09    0.69
  -3   9  -1   -0.02    0.29
   3   9   1    0.37    0.28
  -3   9  -1    0.28    0.30
   3   9   1   -0.37    0.51
   3   9   1   -0.18    0.31
  -4  -9  -1   15.00    1.03
  -4  -9  -1   15.17    1.00
  -4   9  -1   15.18    0.84
  -4   9  -1   15.17    0.87
   4   9   1   15.57    0.99
   4   9   1   15.46    0.85
  -4   9  -1   17.52    1.10
  -5  -9  -1    0.78    0.61
  -5  -9  -1    1.56    0.56
  -5   9  -1    1.64    0.67
   5   9   1    1.46    0.51
  -5   9  -1    0.92    0.47
   5   9   1   -0.13    0.42
  -5   9  -1    0.31    0.42
   5   9   1    1.17    0.48
  -6  -9  -1    1.06    0.68
  -6  -9  -1   -0.67    0.75
   6   9   1   -0.58    0.58
  -6   9  -1   -0.47    0.79
  -6   9  -1    0.29    0.84
  -6 -10   1    3.15    0.91
  -6 -10   1    0.52    0.99
  -6  10   1    2.23    0.96
   6  10  -1    1.26    0.69
  -6  10   1    1.84    0.92
  -5 -10   1    4.34    0.82
  -5 -10   1    4.91    0.81
  -5  10   1    5.53    0.80
  -5  10   1    4.40    0.83
   5  10  -1    4.48    0.61
  -5  10   1    5.72    0.68
   5  10  -1    2.80    0.63
  -5  10   1    4.74    0.58
  -4 -10   1    1.51    0.46
  -4 -10   1    0.54    0.53
  -4  10   1    1.53    0.59
   4  10  -1    1.02    0.43
   4  10  -1    0.93    0.45
  -4  10   1    0.89    0.40
  -4  10   1    1.36    0.54
  -4  10   1    0.93    0.56
  -4  10   1    1.17    0.51
  -3 -10   1    2.68    0.53
  -3 -10   1    2.56    0.63
  -3 -10   1    3.57    0.45
   3  10  -1    2.55    0.45
  -3  10   1    2.83    0.51
  -3  10   1    1.97    0.48
  -3  10   1    3.32    0.48
  -2 -10   1    0.14    0.30
  -2 -10   1    0.38    0.39
  -2 -10   1    0.60    0.33
  -2 -10   1    0.37    0.49
   2  10  -1   -0.02    0.31
  -2  10   1    0.24    0.37
   2  10  -1    0.27    0.36
  -2  10   1   -0.39    0.33
  -1 -10   1    9.24    0.63
   1 -10  -1   10.86    0.51
   1 -10  -1   10.48    0.48
  -1 -10   1    8.81    0.80
   1 -10  -1   11.48    0.83
  -1 -10   1   11.29    0.84
  -1 -10   1    9.45    0.65
   1  10  -1   10.04    0.90
   1  10  -1   10.51    0.75
  -1  10   1    9.04    0.74
   1  10  -1    9.66    0.72
  -1  10   1   10.19    0.94
  -1  10   1    9.68    0.95
   1  10  -1   10.24    1.06
  -1  10   1    9.39    0.62
   0 -10  -1    2.24    0.29
   0 -10   1    1.91    0.45
   0 -10   1    1.94    0.34
   0 -10  -1    1.96    0.33
   0 -10   1    2.54    0.32
   0 -10  -1    2.40    0.47
   0 -10   1    2.13    0.39
   0  10   1    2.08    0.34
   0  10  -1    2.22    0.40
   0  10  -1    2.54    0.41
   0  10  -1    2.69    0.29
   0  10  -1    2.47    0.26
   0  10  -1    2.10    0.72
   0  10   1    2.14    0.52
   0  10   1    2.05    0.50
   0  10   1    2.11    0.42
   1 -10   1    0.05    0.20
  -1 -10  -1    0.19    0.40
  -1 -10  -1    0.20    0.23
  -1 -10  -1    0.05    0.36
   1 -10   1    0.23    0.38
   1 -10   1    0.21    0.19
   1 -10   1    0.70    0.37
   1  10   1   -0.04    0.38
   1  10   1    0.39    0.44
  -1  10  -1    0.11    0.31
   1  10   1    0.48    0.35
  -1  10  -1    0.52    0.30
  -1  10  -1    0.63    0.25
  -1  10  -1    0.48    0.40
   1  10   1    0.20    0.43
   1  10   1    0.10    0.27
  -2 -10  -1    5.07    0.60
  -2 -10  -1    4.77    0.39
  -2 -10  -1    5.12    0.66
   2 -10   1    4.78    0.26
  -2 -10  -1    5.29    0.65
  -2  10  -1    5.21    0.63
  -2  10  -1    4.98    0.57
   2  10   1    5.00    0.49
   2  10   1    6.01    0.67
  -2  10  -1    5.88    0.62
  -3 -10  -1    3.14    0.55
  -3 -10  -1    3.89    0.62
  -3  10  -1    4.11    0.54
  -3  10  -1    3.32    0.48
   3  10   1    3.05    0.50
   3  10   1    2.40    0.41
  -3  10  -1    3.21    0.45
  -4 -10  -1    2.59    0.61
  -4 -10  -1    1.09    0.49
   4  10   1    0.45    0.42
  -4  10  -1    0.67    0.60
   4  10   1    0.14    0.43
  -4  10  -1    0.96    0.46
  -4  10  -1    0.85    0.41
  -5 -10  -1    1.85    0.69
  -5 -10  -1    1.85    0.73
   5  10   1    0.92    0.51
   5  10   1    0.97    0.55
  -5  10  -1    1.39    0.54
  -5  10  -1    2.62    0.72
  -6 -10  -1   -1.66    0.89
  -6 -10  -1    1.62    0.77
   6  10   1   -0.36    0.73
  -6  10  -1    0.23    1.01
  -6  10  -1   -0.44    0.94
  -5 -11   1    1.28    0.87
  -5 -11   1    0.55    0.72
  -5  11   1    0.75    0.73
  -5  11   1    0.66    0.77
  -5  11   1    2.37    0.56
  -5  11   1    1.08    0.81
   5  11  -1    0.16    0.59
  -5  11   1    0.26    0.85
   5  11  -1   -0.78    0.63
  -4 -11   1   11.42    1.14
  -4 -11   1   12.71    1.14
   4  11  -1   10.11    1.06
  -4  11   1   10.74    1.23
   4  11  -1   10.31    0.95
  -4  11   1   12.68    1.59
  -4  11   1   12.82    1.23
  -4  11   1    9.55    0.90
  -3 -11   1    1.45    0.53
  -3 -11   1    1.04    0.49
  -3 -11   1    1.55    0.48
  -3  11   1    0.56    0.43
  -3  11   1    0.95    0.48
  -3  11   1    0.73    0.53
   3  11  -1    0.76    0.44
   3  11  -1    0.43    0.46
  -3  11   1    1.06    0.50
  -2 -11   1    0.32    0.44
  -2 -11   1   -0.26    0.37
  -2 -11   1    0.46    0.38
  -2  11   1   -0.14    0.41
  -2  11   1   -0.48    0.40
   2  11  -1    0.33    0.48
   2  11  -1    0.47    0.37
   1 -11  -1    0.38    0.47
  -1 -11   1    0.36    0.36
  -1 -11   1    0.16    0.38
   1 -11  -1    0.21    0.23
   1 -11  -1    0.49    0.21
  -1 -11   1    0.40    0.53
  -1  11   1   -0.40    0.33
   1  11  -1    0.36    0.40
   1  11  -1   -0.41    0.56
  -1  11   1   -0.29    0.41
   0 -11   1    0.06    0.32
   0 -11  -1    0.23    0.32
   0 -11   1    0.87    0.41
   0 -11  -1    0.11    0.46
   0 -11   1    1.14    0.43
   0  11   1    0.20    0.34
   0  11  -1   -0.07    0.40
   0  11   1    0.01    0.42
   1 -11   1    2.53    0.32
   1 -11   1    3.05    0.52
   1 -11   1    3.51    0.47
  -1 -11  -1    2.53    0.41
  -1 -11  -1    2.70    0.59
  -1  11  -1    2.93    0.44
   1  11   1    2.99    0.39
  -1  11  -1    3.08    0.50
   1  11   1    2.30    0.56
  -2 -11  -1    0.02    0.47
  -2 -11  -1   -0.31    0.33
  -2  11  -1    0.10    0.37
  -2  11  -1   -0.23    0.55
   2  11   1    0.53    0.34
   2  11   1    0.11    0.40
  -2  11  -1    0.52    0.41
  -3 -11  -1    0.26    0.51
  -3 -11  -1   -0.88    0.38
  -3  11  -1    0.87    0.45
  -3  11  -1   -0.05    0.46
  -3  11  -1   -0.55    0.44
   3  11   1    0.53    0.47
  -4 -11  -1   -0.48    0.52
  -4 -11  -1   -0.75    0.62
  -4  11  -1    0.59    0.62
   4  11   1    0.38    0.53
   4  11   1   -0.87    0.48
  -4  11  -1    0.45    0.46
  -4  11  -1   -0.64    0.53
  -4  11  -1    0.84    0.66
  -5 -11  -1    0.36    0.78
  -5 -11  -1    2.00    0.77
  -5  11  -1    1.13    0.92
   5  11   1    1.81    0.62
  -5  11  -1    1.92    0.89
  -5  11  -1    1.71    0.66
   5  11   1    2.02    0.70
  -4 -12   1   10.46    1.23
  -4 -12   1   10.41    1.26
  -4  12   1   11.24    1.28
   4  12  -1    9.27    1.10
  -4  12   1    8.21    1.03
  -4  12   1   11.92    1.26
  -4  12   1    9.66    1.11
  -4  12   1    8.55    1.04
   4  12  -1   11.99    1.18
  -3 -12   1    1.73    0.61
  -3 -12   1    2.01    0.59
  -3  12   1    1.60    0.63
  -3  12   1    1.01    0.61
   3  12  -1    1.70    0.64
   3  12  -1    0.22    0.52
  -3  12   1    1.66    0.70
  -3  12   1    1.76    0.53
  -2 -12   1    3.40    0.49
  -2 -12   1    2.57    0.60
  -2  12   1    2.94    0.62
   2  12  -1    2.48    0.51
  -2  12   1    3.05    0.57
   2  12  -1    2.59    0.66
  -2  12   1    2.61    0.53
  -1 -12   1    1.93    0.46
   1 -12  -1    1.99    0.58
  -1 -12   1    1.03    0.54
  -1 -12   1    1.12    0.38
   1 -12  -1    0.74    0.29
   1 -12  -1    0.99    0.24
  -1  12   1    1.38    0.48
   1  12  -1    0.47    0.47
  -1  12   1    1.54    0.46
   1  12  -1    1.45    0.42
  -1  12   1    0.76    0.50
   0 -12   1    0.08    0.28
   0 -12   1    1.08    0.54
   0 -12  -1    0.22    0.31
   0 -12  -1   -0.58    0.51
   0 -12  -1    0.79    0.38
   0 -12   1   -0.21    0.46
   0 -12   1    0.26    0.38
   0  12  -1   -0.24    0.40
   0  12   1    0.20    0.41
   0  12   1    0.43    0.50
  -1 -12  -1    0.23    0.35
  -1 -12  -1    0.01    0.52
   1 -12   1   -0.46    0.27
   1 -12   1   -0.29    0.24
  -1  12  -1    0.11    0.44
   1  12   1   -0.95    0.43
  -1  12  -1    0.21    0.45
  -2 -12  -1    0.69    0.60
  -2 -12  -1   -0.63    0.42
   2  12   1   -0.03    0.48
  -2  12  -1    0.28    0.54
  -2  12  -1   -0.32    0.46
   2  12   1    0.28    0.50
  -3 -12  -1    3.52    0.71
  -3 -12  -1    2.74    0.59
  -3  12  -1    3.02    0.58
   3  12   1    1.90    0.56
  -3  12  -1    3.33    0.65
   3  12   1    2.27    0.59
  -4 -12  -1   -1.05    0.70
  -4 -12  -1    1.15    0.79
   4  12   1    0.16    0.58
   4  12   1    0.45    0.62
  -4  12  -1    0.10    0.85
  -4  12  -1    0.25    0.60
  -3 -13   1    2.97    0.88
  -3 -13   1    2.71    0.73
   3  13  -1    1.26    0.72
  -3  13   1    2.21    0.72
   3  13  -1    2.14    0.71
  -3  13   1    2.78    0.85
  -2 -13   1    3.49    0.58
  -2 -13   1    2.80    0.78
  -2  13   1    4.46    0.78
   2  13  -1    2.53    0.74
  -2  13   1    4.30    0.68
   2  13  -1    2.77    0.67
   1 -13  -1    3.66    0.45
  -1 -13   1    3.57    0.82
  -1  13   1    3.85    0.65
  -1  13   1    2.72    0.69
   1  13  -1    3.70    0.72
   1  13  -1    2.70    0.63
   0 -13   1    3.22    0.68
   0 -13  -1    2.63    0.43
   0 -13   1    2.00    0.40
   0 -13  -1    3.26    0.75
   0  13  -1    1.97    0.61
   0  13   1    0.85    0.52
   0  13  -1    1.55    0.57
   0  13   1    1.93    0.58
   1 -13   1    0.03    0.29
  -1 -13  -1    0.10    0.69
   1 -13   1   -0.19    0.34
  -1 -13  -1    0.56    0.46
  -1  13  -1   -0.70    0.58
  -1  13  -1    0.40    0.56
   1  13   1   -0.02    0.56
   1  13   1    0.17    0.55
  -2 -13  -1    0.49    0.51
  -2 -13  -1    0.63    0.66
  -2  13  -1    0.50    0.61
   2  13   1   -0.10    0.58
  -2  13  -1    0.13    0.58
   2  13   1   -0.43    0.60
  -3 -13  -1    1.55    0.86
  -3 -13  -1    0.20    0.65
   3  13   1    0.04    0.67
   3  13   1   -1.07    0.68
  -3  13  -1    2.27    0.65
   1 -14  -1   -0.16    0.29
  -1 -14   1    0.75    0.49
  -1 -14   1    2.33    0.87
  -1  14   1    1.14    0.66
  -1  14   1    2.48    0.77
   1  14  -1    0.13    0.78
   1  14  -1    0.40    0.65
   0 -14  -1    0.01    0.44
   0 -14   1    1.15    0.44
   0 -14  -1    1.96    0.86
   0 -14   1    0.33    0.87
   0  14  -1   -0.09    0.64
   0  14   1   -0.79    0.68
   0  14  -1   -0.02    0.78
   1 -14   1   -0.17    0.35
   1 -14   1    0.48    0.30
  -1 -14  -1    0.05    0.86
  -1 -14  -1    0.95    0.54
  -1  14  -1   -0.57    0.76
   1  14   1   -0.47    0.72
  -1  14  -1    0.18    0.63
   1  14   1    0.66    0.67
  -8   0   2   -0.76    0.71
   8   0  -2    0.14    0.66
  -8   0   2    0.39    0.69
   8   0  -2    0.90    0.57
   8   0  -2    0.12    0.62
  -7   0   2   15.08    1.06
   7   0  -2   16.22    1.09
  -7   0   2   13.47    1.06
   7   0  -2   14.31    0.98
  -6   0   2    1.81    0.42
  -6   0   2    1.83    0.46
  -6   0   2    1.34    0.53
   6   0  -2    0.67    0.60
   6   0  -2    1.55    0.42
   6   0  -2    1.69    0.40
   6   0  -2    2.06    0.39
   5   0  -2    2.32    0.35
  -5   0   2    3.08    0.40
   5   0  -2    4.47    0.59
   5   0  -2    2.85    0.43
   5   0  -2    2.19    0.32
  -5   0   2    2.66    0.40
  -5   0   2    2.69    0.44
   5   0  -2    3.13    0.43
  -4   0   2   -0.01    0.19
   4   0  -2    0.38    0.24
  -4   0   2    0.09    0.19
  -4   0   2   -0.21    0.16
  -4   0   2    0.18    0.24
   4   0  -2    0.38    0.20
   4   0  -2    0.08    0.20
  -4   0   2    0.11    0.21
  -4   0   2    0.29    0.27
   4   0  -2    0.26    0.23
   4   0  -2    0.25    0.24
  -3   0   2  189.67    5.29
  -3   0   2  192.75    5.26
   3   0  -2  196.03    5.25
  -3   0   2  196.16    5.11
   3   0  -2  198.09    5.28
   3   0  -2  194.55    5.25
  -3   0   2  207.46    5.24
  -3   0   2  196.23    5.33
  -3   0   2  198.09    5.24
  -3   0   2  196.01    5.24
   3   0  -2  194.43    5.11
   3   0  -2  192.55    5.31
   3   0  -2  183.05    5.22
   3   0  -2  194.49    5.31
   2   0  -2   29.94    0.95
   2   0  -2   31.47    0.89
  -2   0   2   30.31    0.89
   2   0  -2   29.12    0.94
  -2   0   2   30.48    0.91
  -2   0   2   30.17    0.98
   2   0  -2   29.45    0.85
  -2   0   2   29.26    0.95
   2   0  -2   30.00    0.92
   2   0  -2   29.54    0.96
  -2   0   2   30.60    0.93
  -2   0   2   30.39    0.85
  -2   0   2   30.88    0.93
   2   0  -2   29.64    0.95
  -1   0   2    5.23    0.21
   1   0  -2    5.61    0.28
   1   0  -2    5.74    0.30
  -1   0   2    5.66    0.30
  -1   0   2    6.12    0.26
  -1   0   2    6.62    0.36
   1   0  -2    5.71    0.30
   1   0  -2    5.84    0.21
  -1   0   2    5.37    0.27
   1   0  -2    5.60    0.30
   1   0  -2    6.11    0.28
  -1   0   2    5.35    0.27
   0   0  -2  461.36   12.10
   0   0   2  458.30   12.17
   0   0   2  478.86   12.18
   0   0   2  444.88   12.07
   0   0  -2  470.15   12.18
   0   0   2  466.96   12.17
   0   0   2  447.94   12.11
   0   0  -2  464.20   12.15
   0   0   2  464.56   12.15
   0   0  -2  428.70   12.03
   0   0  -2  458.44   12.11
   0   0   2  462.25   12.30
   0   0  -2  478.00   12.22
  -1   0  -2   74.52    2.12
   1   0   2   79.09    2.10
  -1   0  -2   77.31    2.10
   1   0   2   77.27    2.13
   1   0   2   77.33    2.06
   1   0   2   77.22    2.12
  -1   0  -2   77.84    2.14
   1   0   2   77.17    2.15
  -1   0  -2   78.09    2.06
  -1   0  -2   75.74    2.12
   1   0   2   81.20    2.14
   1   0   2   76.30    2.12
  -1   0  -2   77.90    2.15
  -1   0  -2   76.58    2.12
  -2   0  -2    6.75    0.28
   2   0   2    6.45    0.35
  -2   0  -2    6.25    0.34
   2   0   2    6.77    0.37
   2   0   2    6.77    0.38
  -2   0  -2    6.56    0.30
  -2   0  -2    6.40    0.33
  -2   0  -2    6.73    0.35
  -2   0  -2    6.36    0.37
   2   0   2    6.69    0.28
   2   0   2    6.25    0.39
   2   0   2    6.49    0.30
  -2   0  -2    5.84    0.42
  -3   0  -2   26.92    0.80
   3   0   2   26.33    0.84
   3   0   2   23.53    0.90
  -3   0  -2   26.41    0.93
  -3   0  -2   27.45    0.84
   3   0   2   27.19    0.80
  -3   0  -2   26.91    0.91
   3   0   2   26.58    0.93
  -3   0  -2   25.86    0.94
  -3   0  -2   27.25    0.93
   3   0   2   25.28    0.93
   3   0   2   26.95    0.99
  -3   0  -2   28.03    1.00
  -4   0  -2    0.59    0.31
  -4   0  -2    0.43    0.22
   4   0   2    0.66    0.28
  -4   0  -2   -0.23    0.40
   4   0   2    0.12    0.17
   4   0   2    0.12    0.21
  -4   0  -2    0.12    0.24
  -4   0  -2    0.27    0.22
  -4   0  -2   -0.25    0.22
   4   0   2    0.01    0.12
  -4   0  -2    0.18    0.28
  -4   0  -2   -0.04    0.13
   4   0   2    0.05    0.28
   5   0   2    9.79    0.57
  -5   0  -2    9.82    0.74
   5   0   2    8.85    0.81
  -5   0  -2   10.43    0.75
   5   0   2   10.46    0.73
   5   0   2   10.56    0.67
  -5   0  -2    9.87    0.72
  -5   0  -2   10.65    0.71
   6   0   2    6.76    0.73
  -6   0  -2    4.67    0.66
  -6   0  -2    5.39    0.74
   6   0   2    6.26    0.66
   6   0   2    5.88    0.76
   6   0   2    5.38    0.57
  -6   0  -2    4.67    0.60
   7   0   2   -0.21    0.47
   7   0   2   -0.12    0.45
  -7   0  -2   -0.30    0.51
   7   0   2   -0.16    0.42
  -7   0  -2    0.32    0.58
  -8   0  -2    2.03    0.84
  -8   0  -2    1.46    0.81
   8   0   2    1.73    0.72
   8   0   2    3.10    0.78
   8  -1  -2    1.36    0.66
  -8  -1   2    1.91    0.74
   8  -1  -2    2.58    0.60
  -8  -1   2    2.42    0.81
   8  -1  -2    3.59    0.72
  -8   1   2    0.79    0.73
   8   1  -2    1.80    0.63
  -8   1   2    1.59    0.73
   8   1  -2    1.32    0.67
   8   1  -2    0.33    0.64
  -7  -1   2    5.90    0.73
  -7  -1   2    4.26    0.88
   7  -1  -2    5.83    0.83
   7  -1  -2    5.20    0.64
   7  -1  -2    5.19    0.67
   7   1  -2    5.82    0.82
  -7   1   2    5.54    0.75
  -7   1   2    5.41    0.66
   7   1  -2    6.22    0.66
   7   1  -2    5.76    0.64
   6  -1  -2   22.57    1.21
  -6  -1   2   23.12    1.17
   6  -1  -2   24.32    1.06
   6  -1  -2   25.21    1.19
  -6  -1   2   23.53    1.24
   6  -1  -2   25.00    1.04
  -6  -1   2   25.96    1.14
  -6   1   2   24.74    1.18
   6   1  -2   25.20    1.09
   6   1  -2   22.52    1.38
   6   1  -2   25.66    1.11
   6   1  -2   24.08    1.15
  -6   1   2   22.58    1.08
  -6   1   2   24.63    1.18
  -5  -1   2   33.79    1.35
   5  -1  -2   33.07    1.27
  -5  -1   2   33.23    1.27
   5  -1  -2   35.37    1.31
   5  -1  -2   32.93    1.24
   5  -1  -2   33.75    1.21
  -5  -1   2   35.67    1.31
   5  -1  -2   35.56    1.34
   5   1  -2   35.61    1.27
   5   1  -2   33.43    1.25
   5   1  -2   33.70    1.35
   5   1  -2   35.22    1.32
  -5   1   2   34.20    1.23
  -5   1   2   34.29    1.36
   5   1  -2   34.54    1.34
  -5   1   2   35.06    1.24
   4  -1  -2    4.91    0.43
  -4  -1   2    5.68    0.46
  -4  -1   2    5.40    0.49
   4  -1  -2    5.50    0.46
   4  -1  -2    5.89    0.47
   4  -1  -2    5.57    0.45
  -4  -1   2    4.92    0.45
  -4  -1   2    5.59    0.47
   4  -1  -2    5.50    0.39
  -4  -1   2    4.58    0.37
  -4  -1   2    5.99    0.51
   4   1  -2    5.13    0.49
   4   1  -2    6.00    0.39
   4   1  -2    5.63    0.52
  -4   1   2    5.79    0.44
   4   1  -2    4.69    0.44
   4   1  -2    5.38    0.45
  -4   1   2    4.94    0.43
  -4   1   2    5.17    0.49
  -4   1   2    5.56    0.45
   4   1  -2    4.88    0.42
   3  -1  -2    2.38    0.27
   3  -1  -2    2.42    0.33
   3  -1  -2    1.79    0.24
   3  -1  -2    2.26    0.26
  -3  -1   2    2.05    0.21
  -3  -1   2    2.00    0.27
   3  -1  -2    2.05    0.16
  -3  -1   2    1.62    0.25
  -3  -1   2    1.87    0.29
   3  -1  -2    2.32    0.24
  -3  -1   2    1.65    0.22
  -3  -1   2    1.84    0.24
  -3   1   2    1.72    0.20
  -3   1   2    2.12    0.16
   3   1  -2    2.19    0.27
   3   1  -2    2.22    0.24
   3   1  -2    2.15    0.18
   3   1  -2    2.11    0.28
  -3   1   2    1.75    0.20
  -3   1   2    2.33    0.31
  -3   1   2    2.50    0.28
  -3   1   2    1.96    0.22
  -3   1   2    2.49    0.18
   3   1  -2    2.35    0.27
   3   1  -2    2.49    0.28
  -2  -1   2    0.41    0.14
  -2  -1   2    0.31    0.17
   2  -1  -2    0.58    0.14
   2  -1  -2    0.65    0.16
  -2  -1   2    0.58    0.14
   2  -1  -2    0.49    0.11
   2  -1  -2    0.57    0.11
  -2  -1   2    0.65    0.11
   2  -1  -2    0.39    0.11
  -2  -1   2    0.56    0.14
  -2  -1   2    0.49    0.19
   2  -1  -2    0.47    0.16
  -2  -1   2    0.41    0.13
  -2   1   2    0.90    0.17
   2   1  -2    0.46    0.15
   2   1  -2    0.78    0.17
   2   1  -2    0.54    0.16
  -2   1   2    0.51    0.11
  -2   1   2    0.44    0.13
  -2   1   2    0.65    0.11
   2   1  -2    0.58    0.16
  -2   1   2    0.18    0.16
  -2   1   2    0.59    0.12
   2   1  -2    0.56    0.16
  -2   1   2    0.58    0.12
   2   1  -2    0.67    0.12
   2   1  -2    0.42    0.14
  -1  -1   2   86.27    2.40
   1  -1  -2   85.46    2.38
   1  -1  -2   87.64    2.35
   1  -1  -2   84.96    2.38
  -1  -1   2   85.77    2.35
   1  -1  -2   86.15    2.35
  -1  -1   2   83.75    2.35
   1  -1  -2   90.80    2.36
  -1  -1   2   86.53    2.37
  -1  -1   2   91.28    2.39
  -1  -1   2   90.64    2.39
  -1   1   2   90.11    2.38
   1   1  -2   87.53    2.35
  -1   1   2   87.40    2.29
  -1   1   2   83.59    2.29
  -1   1   2   85.39    2.38
  -1   1   2   86.29    2.35
   1   1  -2   87.84    2.38
   1   1  -2   87.86    2.39
   1   1  -2   89.18    2.36
   1   1  -2   88.46    2.40
  -1   1   2   86.17    2.35
   1   1  -2   87.32    2.38
  -1   1   2   88.40    2.35
   0  -1  -2    9.41    0.37
   0  -1  -2    9.40    0.34
   0  -1  -2    8.72    0.38
   0  -1   2    9.31    0.36
   0  -1   2    9.10    0.37
   0  -1  -2    9.02    0.33
   0  -1   2    9.05    0.37
   0  -1  -2    9.16    0.37
   0  -1   2    8.63    0.39
   0  -1  -2    9.73    0.39
   0  -1   2    9.03    0.34
   0  -1   2    9.61    0.31
   0   1  -2    9.35    0.35
   0   1   2    8.78    0.33
   0   1   2    9.45    0.33
   0   1  -2    9.83    0.39
   0   1   2    9.11    0.38
   0   1   2    9.04    0.36
   0   1   2    9.17    0.35
   0   1  -2    9.18    0.31
   0   1   2    9.06    0.35
   0   1  -2    8.95    0.38
   0   1  -2    9.33    0.36
   0   1  -2    9.54    0.38
   0   1  -2    9.37    0.34
  -1  -1  -2  225.76    6.01
   1  -1   2  224.35    5.99
  -1  -1  -2  232.05    6.02
  -1  -1  -2  233.35    5.97
   1  -1   2  235.46    6.02
   1  -1   2  222.17    6.02
   1  -1   2  230.32    5.98
  -1  -1  -2  231.81    6.01
   1  -1   2  221.67    6.01
  -1  -1  -2  224.73    5.99
  -1  -1  -2  226.12    5.96
  -1  -1  -2  222.13    6.02
   1   1   2  211.22    6.02
   1   1   2  233.93    6.01
   1   1   2  230.88    5.99
   1   1   2  224.97    5.97
   1   1   2  223.51    6.01
  -1   1  -2  225.56    6.01
  -1   1  -2  219.21    6.02
  -1   1  -2  222.37    5.98
   1   1   2  228.85    6.01
  -1   1  -2  230.86    6.03
  -1   1  -2  227.30    5.99
  -1   1  -2  231.09    5.98
   1   1   2  230.18    5.97
  -2  -1  -2   59.32    1.64
  -2  -1  -2   60.43    1.72
   2  -1   2   60.18    1.58
   2  -1   2   59.45    1.62
   2  -1   2   58.60    1.71
   2  -1   2   57.79    1.67
   2  -1   2   57.29    1.72
  -2  -1  -2   58.25    1.70
   2  -1   2   53.36    1.79
  -2  -1  -2   53.89    1.72
  -2  -1  -2   56.94    1.63
   2   1   2   57.85    1.70
   2   1   2   57.41    1.70
  -2   1  -2   60.03    1.71
   2   1   2   54.19    1.80
  -2   1  -2   59.99    1.65
  -2   1  -2   59.80    1.67
  -2   1  -2   61.07    1.58
   2   1   2   60.03    1.63
   2   1   2   60.13    1.64
  -2   1  -2   58.21    1.62
   2   1   2   59.72    1.71
  -2   1  -2   58.62    1.71
  -3  -1  -2  133.70    3.76
  -3  -1  -2  135.60    3.80
   3  -1   2  136.68    3.74
  -3  -1  -2  133.71    3.76
   3  -1   2  136.52    3.63
  -3  -1  -2  133.47    3.75
  -3  -1  -2  131.30    3.81
  -3  -1  -2  140.19    3.65
   3  -1   2  131.54    3.78
   3  -1   2  137.43    3.65
   3  -1   2  138.62    3.83
  -3  -1  -2  139.31    3.70
   3   1   2  135.20    3.82
   3   1   2  131.09    3.78
  -3   1  -2  136.78    3.73
   3   1   2  140.26    3.79
   3   1   2  135.78    3.77
   3   1   2  131.65    3.70
  -3   1  -2  140.67    3.81
  -3   1  -2  138.83    3.65
  -3   1  -2  132.78    3.80
   3   1   2  141.15    3.65
  -3   1  -2  135.95    3.63
  -3   1  -2  136.60    3.80
  -3   1  -2  133.70    3.71
  -4  -1  -2   21.24    0.81
  -4  -1  -2   20.35    0.88
  -4  -1  -2   21.14    0.67
  -4  -1  -2   19.80    0.86
  -4  -1  -2   19.14    0.89
  -4  -1  -2   20.42    0.85
   4  -1   2   19.95    0.84
  -4  -1  -2   18.70    0.88
  -4  -1  -2   20.47    0.93
   4  -1   2   20.99    0.92
   4  -1   2   20.87    0.64
   4  -1   2   22.09    0.85
   4   1   2   21.59    0.88
   4   1   2   20.46    0.91
   4   1   2   21.06    0.67
  -4   1  -2   21.46    0.92
  -4   1  -2   19.68    0.75
   4   1   2   21.44    0.89
  -4   1  -2   20.56    0.65
  -4   1  -2   21.27    0.76
   4   1   2   20.59    0.78
  -4   1  -2   18.10    0.79
  -4   1  -2   21.30    0.85
  -4   1  -2   19.46    0.88
   4   1   2   19.99    0.82
  -5  -1  -2    0.89    0.38
  -5  -1  -2    0.07    0.33
   5  -1   2    1.23    0.27
  -5  -1  -2    0.42    0.32
   5  -1   2   -0.02    0.33
   5  -1   2    0.71    0.30
  -5   1  -2    0.87    0.35
   5   1   2    0.31    0.30
   5   1   2    0.77    0.32
   5   1   2    0.72    0.46
  -5   1  -2    0.57    0.37
  -5   1  -2    0.50    0.37
   5   1   2    0.79    0.26
  -5   1  -2    0.41    0.34
   6  -1   2    2.64    0.42
   6  -1   2    3.46    0.53
  -6  -1  -2    2.80    0.57
  -6  -1  -2    2.75    0.65
   6  -1   2    2.35    0.39
  -6  -1  -2    2.46    0.50
  -6   1  -2    3.25    0.56
  -6   1  -2    2.82    0.54
  -6   1  -2    2.75    0.60
  -6   1  -2    3.41    0.62
   6   1   2    2.71    0.91
   6   1   2    2.16    0.51
   6   1   2    2.86    0.51
   6   1   2    3.00    0.43
  -7  -1  -2    6.21    0.78
   7  -1   2    6.30    0.67
   7  -1   2    6.10    0.61
  -7  -1  -2    5.93    0.92
   7  -1   2    5.45    0.74
  -7   1  -2    6.29    0.87
   7   1   2    6.74    0.89
   7   1   2    5.91    1.12
   7   1   2    5.58    0.64
  -7   1  -2    6.83    0.84
   8  -1   2    1.33    0.64
   8  -1   2    0.90    0.67
  -8  -1  -2    0.31    0.80
  -8  -1  -2    1.94    0.86
  -8   1  -2    0.52    0.85
  -8   1  -2   -0.03    0.80
   8   1   2    0.19    0.70
   8   1   2    2.51    0.78
   8   1   2    0.94    0.69
   8  -2  -2    6.38    0.71
   8  -2  -2    5.77    0.77
  -8  -2   2    6.24    0.89
   8  -2  -2    5.78    0.81
  -8  -2   2    5.52    0.89
  -8   2   2    7.18    1.02
   8   2  -2    7.02    0.88
   8   2  -2    5.23    0.82
  -8   2   2    6.92    0.87
   8   2  -2    6.57    0.87
  -7  -2   2    0.37    0.48
   7  -2  -2    0.30    0.45
   7  -2  -2    0.54    0.47
   7  -2  -2    0.82    0.34
   7   2  -2    0.86    0.75
  -7   2   2    0.07    0.50
  -7   2   2    1.06    0.53
   7   2  -2    0.98    0.49
   7   2  -2    0.73    0.51
   6  -2  -2   10.45    0.75
   6  -2  -2   10.88    0.64
  -6  -2   2   10.79    0.82
   6  -2  -2   10.28    0.91
   6  -2  -2   10.40    0.83
  -6  -2   2   10.60    1.02
  -6  -2   2    9.85    0.83
   6   2  -2   10.77    0.81
   6   2  -2   10.28    0.80
   6   2  -2    8.48    0.92
  -6   2   2   10.39    0.83
  -6   2   2    9.09    0.92
  -6   2   2    9.86    0.79
   6   2  -2   10.87    0.74
   5  -2  -2    0.32    0.30
  -5  -2   2    0.23    0.33
   5  -2  -2   -0.17    0.30
  -5  -2   2    0.05    0.36
   5  -2  -2   -0.02    0.19
  -5  -2   2   -0.13    0.28
   5  -2  -2   -0.37    0.38
   5  -2  -2    0.06    0.32
  -5   2   2    0.21    0.32
   5   2  -2   -0.07    0.55
   5   2  -2    0.37    0.28
  -5   2   2    0.15    0.30
   5   2  -2   -0.12    0.27
   5   2  -2    0.20    0.28
  -4  -2   2    0.90    0.30
   4  -2  -2    0.66    0.23
   4  -2  -2    0.51    0.23
   4  -2  -2    0.65    0.28
   4  -2  -2    1.06    0.27
  -4  -2   2    0.98    0.31
  -4  -2   2    0.82    0.31
  -4  -2   2    0.44    0.27
  -4  -2   2    0.89    0.29
   4  -2  -2    1.13    0.21
  -4   2   2    0.64    0.21
  -4   2   2    1.01    0.24
   4   2  -2    1.08    0.15
   4   2  -2    0.67    0.32
  -4   2   2    0.67    0.25
  -4   2   2    1.04    0.31
   4   2  -2    1.04    0.15
   4   2  -2    1.07    0.26
   4   2  -2    1.00    0.26
   4   2  -2    0.63    0.35
  -4   2   2    0.78    0.10
   4   2  -2    0.76    0.26
  -4   2   2    0.70    0.24
  -4   2   2    0.86    0.14
  -3  -2   2   24.04    0.83
   3  -2  -2   24.65    0.80
   3  -2  -2   25.19    0.88
  -3  -2   2   22.37    0.86
   3  -2  -2   24.12    0.92
  -3  -2   2   25.44    0.91
  -3  -2   2   25.44    0.86
   3  -2  -2   24.24    0.74
  -3  -2   2   24.46    0.89
   3  -2  -2   25.20    0.81
  -3  -2   2   23.84    0.91
  -3   2   2   23.81    0.88
  -3   2   2   25.19    0.79
   3   2  -2   25.51    0.88
   3   2  -2   24.66    0.89
   3   2  -2   23.51    0.86
   3   2  -2   25.63    0.91
   3   2  -2   24.38    0.88
  -3   2   2   25.26    0.74
  -3   2   2   24.64    0.83
   3   2  -2   23.71    0.76
  -3   2   2   25.27    0.76
  -3   2   2   24.93    0.94
  -3   2   2   27.82    0.82
  -2  -2   2   83.65    2.33
   2  -2  -2   83.22    2.25
  -2  -2   2   85.36    2.32
   2  -2  -2   81.40    2.24
  -2  -2   2   80.63    2.34
  -2  -2   2   81.64    2.27
  -2  -2   2   82.84    2.31
  -2  -2   2   83.47    2.33
   2  -2  -2   81.89    2.32
  -2   2   2   85.55    2.25
  -2   2   2   84.75    2.23
   2   2  -2   82.44    2.31
  -2   2   2   81.43    2.30
  -2   2   2   81.55    2.35
   2   2  -2   84.65    2.33
  -2   2   2   78.68    2.24
   2   2  -2   81.44    2.32
   2   2  -2   83.01    2.26
   2   2  -2   78.31    2.39
   2   2  -2   84.13    2.34
  -2   2   2   83.60    2.34
   2   2  -2   83.65    2.28
  -2   2   2   84.39    2.23
  -1  -2   2   31.13    0.89
  -1  -2   2   29.54    0.83
  -1  -2   2   29.66    0.91
  -1  -2   2   28.68    0.94
   1  -2  -2   29.86    0.90
   1  -2  -2   29.59    0.89
   1  -2  -2   30.44    0.85
   1  -2  -2   29.68    0.92
  -1  -2   2   31.39    0.90
  -1  -2   2   29.32    0.83
   1  -2  -2   29.44    0.83
  -1  -2   2   28.23    0.90
  -1  -2   2   30.17    0.91
   1  -2  -2   28.73    0.85
  -1   2   2   29.01    0.94
   1   2  -2   30.31    0.93
   1   2  -2   30.51    0.91
  -1   2   2   28.89    0.88
   1   2  -2   30.73    0.91
  -1   2   2   27.87    0.88
   1   2  -2   30.23    0.92
  -1   2   2   29.56    0.84
   1   2  -2   29.66    0.90
   1   2  -2   28.60    0.89
  -1   2   2   30.10    0.84
   0  -2  -2   53.93    1.41
   0  -2   2   53.09    1.53
   0  -2   2   52.67    1.43
   0  -2  -2   54.69    1.52
   0  -2   2   53.33    1.48
   0  -2   2   51.24    1.50
   0  -2   2   52.84    1.49
   0  -2  -2   53.44    1.47
   0  -2   2   53.56    1.44
   0  -2  -2   51.10    1.50
   0  -2  -2   52.02    1.47
   0   2  -2   54.33    1.45
   0   2  -2   52.64    1.50
   0   2   2   51.12    1.47
   0   2  -2   52.44    1.50
   0   2   2   51.83    1.47
   0   2   2   51.75    1.51
   0   2  -2   52.29    1.52
   0   2   2   53.52    1.47
   0   2   2   52.59    1.41
   0   2   2   52.97    1.50
   0   2  -2   53.16    1.47
   0   2  -2   54.96    1.44
   0   2   2   54.18    1.50
   0   2  -2   52.57    1.48
  -1  -2  -2   36.34    1.13
  -1  -2  -2   38.07    1.02
  -1  -2  -2   35.34    1.10
   1  -2   2   37.31    1.09
  -1  -2  -2   35.63    1.09
   1  -2   2   38.77    1.08
   1  -2   2   36.93    1.08
  -1  -2  -2   36.56    1.11
  -1  -2  -2   36.91    1.12
   1  -2   2   38.21    1.11
   1  -2   2   35.31    1.14
  -1   2  -2   38.22    1.10
   1   2   2   36.92    1.11
  -1   2  -2   35.65    1.13
  -1   2  -2   38.38    1.10
  -1   2  -2   37.02    1.06
  -1   2  -2   37.53    1.07
   1   2   2   38.44    1.13
   1   2   2   36.07    1.13
   1   2   2   37.54    1.10
   1   2   2   36.93    1.11
  -1   2  -2   38.24    1.00
  -1   2  -2   37.98    0.99
  -2  -2  -2    3.07    0.39
  -2  -2  -2    2.30    0.24
  -2  -2  -2    2.25    0.24
   2  -2   2    2.33    0.29
   2  -2   2    2.61    0.22
  -2  -2  -2    2.61    0.27
  -2  -2  -2    2.51    0.23
   2  -2   2    2.47    0.16
  -2  -2  -2    2.19    0.24
   2  -2   2    2.62    0.26
   2  -2   2    2.41    0.26
  -2  -2  -2    2.63    0.25
  -2  -2  -2    2.75    0.32
  -2   2  -2    2.56    0.19
  -2   2  -2    2.88    0.35
  -2   2  -2    3.17    0.24
   2   2   2    2.35    0.26
  -2   2  -2    2.70    0.16
   2   2   2    2.57    0.33
   2   2   2    2.06    0.24
  -2   2  -2    2.48    0.25
   2   2   2    2.92    0.25
  -2   2  -2    2.53    0.22
  -2   2  -2    2.67    0.23
  -3  -2  -2    3.05    0.35
  -3  -2  -2    2.64    0.35
   3  -2   2    2.80    0.24
  -3  -2  -2    2.68    0.27
   3  -2   2    2.24    0.27
   3  -2   2    2.62    0.28
  -3  -2  -2    3.47    0.32
   3  -2   2    2.93    0.37
  -3  -2  -2    2.73    0.32
   3  -2   2    2.64    0.28
  -3  -2  -2    2.06    0.31
  -3  -2  -2    2.48    0.31
   3  -2   2    2.45    0.23
   3   2   2    2.54    0.27
  -3   2  -2    2.36    0.30
  -3   2  -2    2.75    0.27
  -3   2  -2    2.83    0.24
   3   2   2    2.74    0.27
  -3   2  -2    2.29    0.24
  -3   2  -2    2.83    0.21
   3   2   2    2.35    0.33
   3   2   2    2.88    0.31
  -3   2  -2    2.79    0.31
  -3   2  -2    2.58    0.28
  -4  -2  -2   12.03    0.70
  -4  -2  -2   13.17    0.67
  -4  -2  -2   12.44    0.72
   4  -2   2   13.44    0.67
   4  -2   2   12.75    0.71
   4  -2   2   11.74    0.63
   4  -2   2   13.71    0.56
  -4  -2  -2   12.24    0.66
  -4  -2  -2   13.88    0.75
  -4  -2  -2   13.05    0.52
  -4  -2  -2   12.29    0.82
   4  -2   2   13.04    0.61
  -4  -2  -2   12.78    0.75
  -4   2  -2   13.39    0.57
   4   2   2   13.39    0.80
  -4   2  -2   14.18    0.76
   4   2   2   13.16    0.56
  -4   2  -2   13.27    0.64
   4   2   2   14.48    0.73
  -4   2  -2   13.57    0.49
   4   2   2   12.82    0.62
  -4   2  -2   13.67    0.74
   4   2   2   13.44    0.71
  -5  -2  -2    0.88    0.43
   5  -2   2    0.92    0.38
   5  -2   2    0.37    0.24
  -5  -2  -2    0.55    0.35
   5  -2   2    0.54    0.34
  -5  -2  -2    0.55    0.35
  -5  -2  -2    0.72    0.51
   5  -2   2    0.66    0.24
  -5   2  -2    0.47    0.39
   5   2   2    0.69    0.32
   5   2   2    0.53    0.49
   5   2   2    0.78    0.21
  -5   2  -2    0.63    0.34
   5   2   2    0.48    0.32
  -5   2  -2    0.78    0.37
  -5   2  -2    0.39    0.35
   5   2   2    0.74    0.30
  -6  -2  -2   -0.37    0.62
   6  -2   2    0.56    0.55
  -6  -2  -2   -0.16    0.41
  -6  -2  -2   -0.15    0.41
   6  -2   2    0.82    0.32
   6  -2   2   -0.45    0.39
   6  -2   2    0.54    0.31
   6   2   2    0.04    0.40
  -6   2  -2    0.13    0.44
   6   2   2    0.13    0.35
  -6   2  -2    0.06    0.41
   6   2   2    0.53    0.42
  -6   2  -2    0.35    0.73
   7  -2   2   11.59    0.91
  -7  -2  -2    9.96    1.05
   7  -2   2   11.54    0.83
   7  -2   2   10.62    0.85
  -7   2  -2   11.07    1.06
   7   2   2   11.48    0.93
   7   2   2   12.98    1.02
   7   2   2   12.37    1.49
  -7   2  -2   10.00    1.11
  -8  -2  -2    7.12    1.04
   8  -2   2    7.42    0.78
  -8  -2  -2    9.84    1.27
   8  -2   2    8.59    1.05
  -8   2  -2    7.65    1.03
  -8   2  -2    6.38    0.98
   8   2   2    7.36    0.91
   8   2   2    8.91    1.06
   8   2   2    6.08    0.97
   8  -3  -2    0.39    0.68
   8  -3  -2    0.40    0.44
  -8  -3   2   -1.61    0.80
  -8  -3   2    0.76    0.75
  -8   3   2    1.27    0.75
   8   3  -2   -0.44    0.73
  -8   3   2    0.06    0.74
   8   3  -2   -0.28    0.68
   8   3  -2   -0.37    0.71
  -7  -3   2    2.33    0.58
   7  -3  -2    1.26    0.37
   7  -3  -2    2.13    0.52
   7  -3  -2    2.08    0.56
  -7  -3   2    0.47    0.73
  -7   3   2    1.39    0.55
   7   3  -2    1.59    0.61
  -7   3   2    1.65    0.57
   7   3  -2    1.43    0.57
   7   3  -2    2.05    0.52
  -6  -3   2    0.24    0.43
  -6  -3   2   -0.37    0.52
   6  -3  -2    0.44    0.48
   6  -3  -2    0.30    0.33
   6  -3  -2   -0.12    0.24
   6  -3  -2   -0.41    0.35
  -6  -3   2   -0.22    0.35
  -6   3   2    0.06    0.49
   6   3  -2   -0.30    0.38
  -6   3   2    0.39    0.41
   6   3  -2    0.03    0.40
  -6   3   2    0.36    0.38
   6   3  -2    0.00    0.32
   6   3  -2   -0.86    0.76
   5  -3  -2    3.03    0.36
  -5  -3   2    4.02    0.64
   5  -3  -2    3.70    0.42
  -5  -3   2    3.28    0.43
   5  -3  -2    4.36    0.50
   5  -3  -2    3.54    0.49
  -5  -3   2    4.19    0.55
  -5  -3   2    4.08    0.54
   5   3  -2    3.71    0.31
   5   3  -2    3.51    0.34
   5   3  -2    3.34    0.42
  -5   3   2    4.19    0.53
  -5   3   2    3.74    0.39
   5   3  -2    2.98    0.40
  -5   3   2    4.34    0.51
   5   3  -2    4.08    0.65
   5   3  -2    4.27    0.49
  -4  -3   2    4.09    0.35
  -4  -3   2    3.97    0.46
  -4  -3   2    3.53    0.48
  -4  -3   2    4.19    0.47
   4  -3  -2    4.51    0.41
   4  -3  -2    4.19    0.39
  -4  -3   2    4.07    0.50
   4  -3  -2    3.75    0.33
  -4  -3   2    3.67    0.42
   4  -3  -2    3.95    0.50
   4   3  -2    4.16    0.42
  -4   3   2    4.64    0.40
   4   3  -2    3.94    0.31
  -4   3   2    3.99    0.24
  -4   3   2    4.42    0.49
   4   3  -2    4.67    0.46
   4   3  -2    4.22    0.47
  -4   3   2    4.12    0.51
   4   3  -2    5.39    0.61
   4   3  -2    4.03    0.34
   4   3  -2    3.58    0.48
  -4   3   2    4.16    0.29
   4   3  -2    4.18    0.48
  -4   3   2    4.62    0.34
   3  -3  -2   13.38    0.60
  -3  -3   2   13.45    0.63
  -3  -3   2   12.83    0.54
  -3  -3   2   13.65    0.57
  -3  -3   2   13.57    0.64
  -3  -3   2   12.53    0.65
   3  -3  -2   13.59    0.50
   3  -3  -2   13.58    0.49
  -3  -3   2   13.45    0.65
  -3   3   2   13.08    0.63
   3   3  -2   12.46    0.60
  -3   3   2   13.08    0.44
  -3   3   2   13.53    0.57
  -3   3   2   13.73    0.42
   3   3  -2   13.13    0.66
   3   3  -2   13.01    0.61
   3   3  -2   12.81    0.51
  -3   3   2   12.86    0.55
  -3   3   2   12.94    0.55
   3   3  -2   12.58    0.51
  -3   3   2   13.80    0.54
   3   3  -2   13.45    0.64
   3   3  -2   12.94    0.55
   3   3  -2   13.17    0.60
  -2  -3   2   60.97    1.68
   2  -3  -2   59.69    1.64
  -2  -3   2   59.92    1.77
   2  -3  -2   59.45    1.70
  -2  -3   2   63.10    1.77
  -2  -3   2   62.77    1.75
   2  -3  -2   61.97    1.64
   2  -3  -2   56.91    1.83
  -2   3   2   58.96    1.74
   2   3  -2   60.98    1.72
  -2   3   2   59.35    1.78
   2   3  -2   60.34    1.67
   2   3  -2   60.72    1.77
   2   3  -2   59.81    1.77
  -2   3   2   61.72    1.60
   2   3  -2   55.84    1.75
   2   3  -2   61.77    1.77
  -2   3   2   60.85    1.71
  -2   3   2   54.73    1.68
  -2   3   2   65.32    1.60
   2   3  -2   58.07    1.76
  -2   3   2   59.31    1.69
  -2   3   2   60.96    1.78
   1  -3  -2    3.18    0.27
  -1  -3   2    3.28    0.28
  -1  -3   2    3.03    0.27
   1  -3  -2    3.34    0.18
   1  -3  -2    2.85    0.23
   1  -3  -2    3.05    0.19
  -1  -3   2    3.39    0.23
   1  -3  -2    3.17    0.27
  -1  -3   2    2.96    0.28
  -1  -3   2    2.67    0.29
   1   3  -2    3.40    0.26
   1   3  -2    3.16    0.24
  -1   3   2    3.29    0.22
   1   3  -2    2.86    0.28
  -1   3   2    3.16    0.16
  -1   3   2    2.70    0.23
   1   3  -2    2.75    0.24
  -1   3   2    2.97    0.28
  -1   3   2    2.89    0.23
  -1   3   2    3.41    0.24
   1   3  -2    3.17    0.26
  -1   3   2    2.80    0.14
   1   3  -2    2.94    0.26
   0  -3   2   33.34    0.96
   0  -3  -2   31.93    1.02
   0  -3  -2   33.05    1.00
   0  -3   2   32.53    1.04
   0  -3   2   33.62    0.92
   0  -3  -2   32.28    0.97
   0  -3   2   33.80    1.04
   0  -3   2   33.00    0.98
   0  -3   2   32.79    1.01
   0  -3  -2   33.44    0.98
   0  -3   2   35.13    0.99
   0   3   2   33.09    0.96
   0   3   2   34.58    0.90
   0   3   2   33.77    1.00
   0   3   2   32.94    0.97
   0   3  -2   32.57    1.02
   0   3  -2   32.67    1.03
   0   3  -2   32.75    0.97
   0   3  -2   34.49    0.99
   0   3   2   33.25    0.90
   0   3  -2   33.42    0.92
   0   3  -2   33.08    0.96
   0   3  -2   33.45    1.03
   0   3   2   33.37    1.03
   0   3   2   32.08    1.01
   1  -3   2    0.35    0.13
   1  -3   2    0.27    0.13
  -1  -3  -2    0.15    0.14
  -1  -3  -2    0.31    0.17
   1  -3   2    0.21    0.09
   1  -3   2    0.22    0.12
  -1  -3  -2    0.12    0.17
  -1  -3  -2    0.06    0.12
   1  -3   2    0.28    0.15
  -1  -3  -2    0.19    0.13
  -1  -3  -2    0.25    0.10
   1   3   2    0.55    0.17
   1   3   2    0.13    0.10
  -1   3  -2    0.05    0.13
  -1   3  -2    0.05    0.11
   1   3   2    0.26    0.14
  -1   3  -2    0.33    0.14
  -1   3  -2    0.21    0.08
   1   3   2    0.19    0.15
  -1   3  -2    0.23    0.10
   1   3   2    0.43    0.11
   1   3   2    0.44    0.14
  -1   3  -2    0.33    0.12
  -1   3  -2    0.21    0.08
  -2  -3  -2    0.89    0.24
  -2  -3  -2    0.51    0.19
  -2  -3  -2    0.82    0.15
  -2  -3  -2    1.15    0.17
  -2  -3  -2    0.92    0.15
   2  -3   2    0.55    0.13
  -2  -3  -2    0.82    0.17
   2  -3   2    0.59    0.14
   2  -3   2    0.68    0.23
  -2  -3  -2    0.66    0.18
  -2  -3  -2    0.74    0.27
   2   3   2    0.80    0.16
  -2   3  -2    0.74    0.16
  -2   3  -2    0.50    0.08
   2   3   2    0.65    0.21
  -2   3  -2    0.60    0.16
  -2   3  -2    0.72    0.15
   2   3   2    0.74    0.20
  -2   3  -2    0.87    0.23
   2   3   2    0.60    0.22
   2   3   2    0.88    0.16
  -2   3  -2    0.62    0.15
   2   3   2    0.69    0.20
  -2   3  -2    0.89    0.12
  -3  -3  -2    2.25    0.27
  -3  -3  -2    1.80    0.33
   3  -3   2    2.12    0.26
   3  -3   2    2.34    0.24
  -3  -3  -2    2.22    0.30
  -3  -3  -2    1.55    0.30
   3  -3   2    1.76    0.24
  -3  -3  -2    2.59    0.29
  -3  -3  -2    2.06    0.28
  -3  -3  -2    2.47    0.35
   3  -3   2    2.16    0.32
  -3   3  -2    2.38    0.27
  -3   3  -2    2.67    0.30
   3   3   2    2.50    0.30
  -3   3  -2    2.44    0.29
  -3   3  -2    1.97    0.24
   3   3   2    2.19    0.33
  -3   3  -2    1.77    0.19
   3   3   2    2.61    0.35
   3   3   2    2.42    0.28
  -3   3  -2    1.94    0.24
   3   3   2    2.38    0.25
  -3   3  -2    2.25    0.34
   3   3   2    1.95    0.30
   4  -3   2    1.53    0.24
  -4  -3  -2    1.24    0.38
   4  -3   2    1.57    0.33
  -4  -3  -2    1.22    0.44
  -4  -3  -2    1.36    0.29
  -4  -3  -2    1.26    0.37
  -4  -3  -2    1.60    0.40
   4  -3   2    1.28    0.29
   4  -3   2    1.12    0.22
  -4  -3  -2    1.61    0.39
   4   3   2    1.34    0.26
  -4   3  -2    0.84    0.23
   4   3   2    1.45    0.31
   4   3   2    1.67    0.34
   4   3   2    1.22    0.41
  -4   3  -2    2.07    0.37
   4   3   2    0.89    0.30
  -4   3  -2    1.52    0.28
  -4   3  -2    1.34    0.20
   5  -3   2   -0.01    0.21
   5  -3   2   -0.38    0.29
   5  -3   2   -0.23    0.21
   5  -3   2    0.23    0.36
  -5  -3  -2    0.09    0.32
  -5  -3  -2    0.18    0.63
  -5  -3  -2    0.48    0.36
   5   3   2   -0.20    0.32
   5   3   2    0.09    0.26
   5   3   2   -0.19    0.31
  -5   3  -2    0.43    0.35
   5   3   2   -0.05    0.27
   5   3   2    0.01    0.57
  -5   3  -2    0.32    0.33
  -5   3  -2   -0.17    0.19
  -5   3  -2    0.32    0.17
  -5   3  -2    0.25    0.32
  -6  -3  -2   -0.64    0.44
   6  -3   2    0.41    0.28
  -6  -3  -2   -0.04    0.39
   6  -3   2   -0.70    0.51
   6  -3   2   -0.10    0.38
   6  -3   2    0.14    0.31
   6   3   2   -0.42    0.41
  -6   3  -2    0.21    0.43
   6   3   2    0.42    0.43
   6   3   2    0.04    0.36
  -6   3  -2    0.18    0.48
   7  -3   2    0.00    0.44
   7  -3   2    0.72    0.52
   7  -3   2    0.10    0.36
  -7  -3  -2    0.64    0.55
  -7  -3  -2   -0.23    0.60
   7   3   2    0.92    0.56
   7   3   2    1.03    0.64
  -7   3  -2    0.75    0.52
   7   3   2    0.73    0.51
  -7   3  -2   -1.25    0.55
  -8  -3  -2    0.07    0.79
   8  -3   2   -0.72    0.74
  -8  -3  -2    0.48    0.96
   8  -3   2   -0.01    0.54
  -8   3  -2    1.89    0.86
  -8   3  -2   -1.90    0.90
   8   3   2    0.92    0.90
   8   3   2    0.44    0.76
   8   3   2   -0.56    0.79
  -8  -4   2   10.82    1.33
  -8  -4   2    8.36    1.13
   8  -4  -2   14.01    1.28
  -8   4   2    9.73    1.08
  -8   4   2    9.71    1.31
   8   4  -2   11.86    1.30
   8   4  -2    8.58    1.06
   8   4  -2    9.00    1.07
  -7  -4   2    8.36    0.98
   7  -4  -2    6.47    0.61
   7  -4  -2    6.96    0.89
  -7  -4   2    5.65    0.91
   7   4  -2    6.68    0.94
  -7   4   2    6.60    0.77
   7   4  -2    5.67    0.78
   7   4  -2    6.66    0.75
  -7   4   2    7.86    0.99
  -6  -4   2    1.46    0.53
   6  -4  -2    1.53    0.41
  -6  -4   2    1.61    0.48
   6  -4  -2    2.00    0.46
   6  -4  -2    1.66    0.30
  -6  -4   2    2.09    0.55
   6   4  -2    1.65    0.51
   6   4  -2    1.68    0.23
  -6   4   2    1.93    0.47
   6   4  -2    1.49    0.39
   6   4  -2    1.70    0.46
  -6   4   2    2.22    0.53
  -5  -4   2   12.71    0.85
  -5  -4   2   15.01    0.87
   5  -4  -2   13.20    0.75
  -5  -4   2   13.36    1.13
  -5  -4   2   12.31    0.95
  -5  -4   2   14.11    0.88
   5  -4  -2   13.71    0.60
   5  -4  -2   14.66    0.66
  -5   4   2   13.70    0.75
  -5   4   2   13.53    0.53
  -5   4   2   14.24    0.88
   5   4  -2   15.12    0.77
   5   4  -2   14.67    0.86
  -5   4   2   13.82    0.51
   5   4  -2   13.79    0.66
   5   4  -2   14.00    1.20
   5   4  -2   14.26    0.80
   4  -4  -2    5.07    0.47
  -4  -4   2    4.53    0.55
  -4  -4   2    4.07    0.55
  -4  -4   2    4.23    0.53
  -4  -4   2    4.60    0.53
  -4  -4   2    4.33    0.52
  -4   4   2    4.86    0.39
  -4   4   2    4.94    0.43
   4   4  -2    4.98    0.53
   4   4  -2    4.53    0.34
  -4   4   2    4.20    0.50
   4   4  -2    4.87    0.42
   4   4  -2    4.29    0.48
   4   4  -2    4.93    0.56
   4   4  -2    4.47    0.43
   4   4  -2    4.76    0.56
  -3  -4   2    9.20    0.60
  -3  -4   2    9.50    0.48
  -3  -4   2    9.43    0.56
  -3  -4   2   10.43    0.58
   3  -4  -2    9.98    0.54
   3  -4  -2    9.73    0.38
  -3  -4   2   11.16    0.48
  -3  -4   2    9.35    0.57
   3  -4  -2    9.60    0.38
   3   4  -2    9.66    0.58
  -3   4   2    9.68    0.51
  -3   4   2    9.32    0.48
   3   4  -2   10.03    0.62
  -3   4   2    9.15    0.57
   3   4  -2    9.54    0.45
   3   4  -2    9.56    0.54
  -3   4   2    8.19    0.52
   3   4  -2    9.28    0.53
   3   4  -2    9.89    0.57
  -3   4   2    9.91    0.48
  -3   4   2   10.79    0.54
   3   4  -2   10.29    0.51
   3   4  -2   10.15    0.46
   2  -4  -2   30.28    0.82
  -2  -4   2   26.60    1.07
  -2  -4   2   29.49    0.85
   2  -4  -2   30.57    0.99
  -2  -4   2   28.84    1.00
   2  -4  -2   27.31    0.81
  -2  -4   2   27.67    0.99
  -2  -4   2   29.00    0.94
  -2  -4   2   28.94    1.01
   2   4  -2   28.08    0.97
   2   4  -2   27.10    0.98
   2   4  -2   28.28    0.97
  -2   4   2   29.40    0.97
  -2   4   2   29.50    0.93
   2   4  -2   29.53    0.99
   2   4  -2   28.98    0.98
  -2   4   2   28.49    0.97
   2   4  -2   29.11    0.85
  -2   4   2   28.45    0.95
  -2   4   2   28.86    0.92
   2   4  -2   28.38    0.95
  -1  -4   2   12.85    0.59
   1  -4  -2   12.89    0.42
   1  -4  -2   11.63    0.59
  -1  -4   2   12.46    0.54
   1  -4  -2   13.04    0.51
  -1  -4   2   14.22    0.58
  -1  -4   2   13.14    0.50
  -1  -4   2   13.51    0.74
   1  -4  -2   12.76    0.42
   1   4  -2   12.07    0.52
  -1   4   2   12.52    0.37
  -1   4   2   13.74    0.49
  -1   4   2   12.47    0.48
   1   4  -2   12.67    0.49
   1   4  -2   13.46    0.54
   1   4  -2   13.01    0.55
  -1   4   2   12.87    0.51
   1   4  -2   13.08    0.53
  -1   4   2   13.09    0.50
  -1   4   2   11.67    0.55
  -1   4   2   11.87    0.39
   0  -4  -2    3.05    0.32
   0  -4   2    2.60    0.28
   0  -4  -2    2.99    0.26
   0  -4  -2    3.28    0.28
   0  -4   2    2.45    0.32
   0  -4   2    2.90    0.28
   0  -4   2    3.27    0.26
   0  -4  -2    2.74    0.28
   0  -4  -2    2.87    0.24
   0   4   2    3.26    0.17
   0   4   2    3.21    0.27
   0   4  -2    3.23    0.26
   0   4   2    3.11    0.24
   0   4   2    3.08    0.19
   0   4   2    2.68    0.24
   0   4  -2    3.45    0.16
   0   4   2    2.45    0.27
   0   4  -2    2.96    0.25
   0   4  -2    3.71    0.25
   0   4  -2    3.16    0.27
   0   4   2    3.06    0.31
   0   4  -2    2.89    0.19
   0   4  -2    3.18    0.32
   0   4   2    2.96    0.17
  -1  -4  -2    3.45    0.33
  -1  -4  -2    3.54    0.36
   1  -4   2    4.14    0.28
  -1  -4  -2    3.37    0.31
   1  -4   2    3.94    0.37
  -1  -4  -2    3.63    0.31
   1  -4   2    3.89    0.26
  -1  -4  -2    3.38    0.39
   1  -4   2    3.88    0.25
  -1   4  -2    3.93    0.32
  -1   4  -2    3.63    0.26
   1   4   2    3.79    0.32
   1   4   2    3.95    0.31
  -1   4  -2    3.32    0.27
   1   4   2    3.42    0.34
  -1   4  -2    3.65    0.18
   1   4   2    3.64    0.27
  -1   4  -2    3.52    0.28
   1   4   2    4.05    0.31
  -1   4  -2    3.81    0.23
  -1   4  -2    3.59    0.23
   1   4   2    4.02    0.25
  -2  -4  -2   20.79    0.82
   2  -4   2   19.67    0.76
  -2  -4  -2   19.86    0.81
   2  -4   2   20.47    0.67
  -2  -4  -2   20.37    0.79
  -2  -4  -2   20.16    0.63
  -2  -4  -2   19.57    0.74
  -2  -4  -2   20.63    0.77
   2  -4   2   19.03    0.80
  -2  -4  -2   20.18    0.64
   2  -4   2   19.61    0.66
  -2  -4  -2   21.32    0.74
   2   4   2   20.32    0.80
   2   4   2   20.24    0.74
  -2   4  -2   19.32    0.75
  -2   4  -2   20.08    0.60
  -2   4  -2   20.63    0.63
   2   4   2   19.82    0.77
   2   4   2   20.32    0.77
  -2   4  -2   20.07    0.63
   2   4   2   19.92    0.75
  -2   4  -2   20.28    0.76
  -2   4  -2   19.22    0.74
  -2   4  -2   19.52    0.80
  -2   4  -2   20.81    0.73
   2   4   2   20.20    0.77
  -2   4  -2   20.28    0.64
  -3  -4  -2    0.54    0.29
  -3  -4  -2    0.23    0.34
   3  -4   2    0.37    0.22
  -3  -4  -2    0.24    0.21
  -3  -4  -2    0.43    0.21
  -3  -4  -2    0.38    0.21
   3  -4   2    0.34    0.18
  -3  -4  -2    0.07    0.23
  -3  -4  -2    0.05    0.25
  -3  -4  -2    0.38    0.19
   3  -4   2    0.54    0.15
  -3   4  -2    0.27    0.15
  -3   4  -2    0.14    0.23
   3   4   2    0.18    0.26
  -3   4  -2    0.66    0.23
   3   4   2    0.48    0.29
   3   4   2    0.55    0.24
  -3   4  -2    0.31    0.15
   3   4   2    0.40    0.24
  -3   4  -2    0.23    0.17
   3   4   2    0.22    0.21
  -3   4  -2    0.25    0.21
  -3   4  -2    0.56    0.17
   3   4   2    0.23    0.21
   4  -4   2   -0.14    0.28
  -4  -4  -2    0.03    0.19
  -4  -4  -2   -0.01    0.41
  -4  -4  -2   -0.06    0.34
  -4  -4  -2    0.11    0.33
  -4  -4  -2    0.03    0.48
   4  -4   2    0.01    0.24
  -4  -4  -2   -0.22    0.29
   4  -4   2    0.13    0.21
  -4  -4  -2   -0.08    0.25
   4  -4   2   -0.26    0.17
  -4   4  -2   -0.21    0.28
  -4   4  -2    0.00    0.17
   4   4   2    0.01    0.31
  -4   4  -2   -0.19    0.23
   4   4   2   -0.04    0.29
   4   4   2    0.33    0.25
   4   4   2   -0.24    0.25
  -4   4  -2    0.27    0.22
   4   4   2   -0.16    0.43
  -4   4  -2    0.02    0.23
  -5  -4  -2   24.02    1.06
  -5  -4  -2   22.53    1.23
   5  -4   2   25.17    0.95
  -5  -4  -2   25.05    1.18
   5  -4   2   25.13    0.91
  -5  -4  -2   24.69    1.18
   5  -4   2   26.38    1.17
   5  -4   2   25.83    1.07
  -5   4  -2   24.84    0.99
  -5   4  -2   25.66    1.19
   5   4   2   21.35    1.42
  -5   4  -2   24.11    0.97
  -5   4  -2   26.42    0.87
   5   4   2   25.44    1.00
   5   4   2   26.45    1.16
   5   4   2   27.75    1.20
  -5   4  -2   25.22    0.90
   5   4   2   26.14    1.08
   6  -4   2    1.76    0.54
  -6  -4  -2    1.86    0.78
  -6  -4  -2    1.94    0.53
  -6  -4  -2    2.48    0.68
   6  -4   2    1.39    0.36
   6   4   2    1.58    0.43
  -6   4  -2    1.33    0.54
   6   4   2    1.91    0.54
   6   4   2    2.01    0.51
   6   4   2    1.60    0.34
  -7  -4  -2    0.62    0.59
   7  -4   2    0.36    0.60
  -7  -4  -2    0.37    0.67
   7  -4   2    1.38    0.40
   7   4   2    0.77    0.72
   7   4   2    0.82    0.59
  -7   4  -2    0.45    0.70
  -7   4  -2    0.45    0.60
   7   4   2    0.86    0.52
  -8  -4  -2    1.47    0.81
   8  -4   2    2.47    0.54
   8  -4   2    2.19    0.82
  -8  -4  -2    3.21    1.03
   8   4   2    4.55    1.17
   8   4   2    0.02    0.86
  -8   4  -2    2.49    0.92
  -8   4  -2    1.46    0.99
   8   4   2    2.45    0.84
  -8  -5   2    0.97    0.96
   8  -5  -2   -0.19    0.82
   8  -5  -2    0.32    0.45
  -8  -5   2    0.92    0.86
  -8   5   2    0.07    0.87
   8   5  -2    1.24    0.74
  -8   5   2   -1.44    0.89
   8   5  -2    0.30    0.81
   8   5  -2   -2.42    0.93
   7  -5  -2    4.56    0.70
  -7  -5   2    4.58    0.78
   7  -5  -2    5.41    0.67
  -7  -5   2    4.05    0.70
   7   5  -2    5.37    0.69
   7   5  -2    3.89    0.72
  -7   5   2    3.75    0.72
   7   5  -2    4.80    0.87
  -7   5   2    3.65    0.74
   6  -5  -2    0.67    0.42
  -6  -5   2    0.81    0.54
  -6  -5   2    0.82    0.50
   6  -5  -2    0.91    0.37
  -6  -5   2    0.87    0.49
  -6   5   2    1.07    0.46
   6   5  -2    0.49    0.51
   6   5  -2    0.40    0.41
   6   5  -2    0.70    0.43
   6   5  -2    0.32    0.38
  -6   5   2    1.43    0.51
  -5  -5   2   20.68    1.09
  -5  -5   2   20.48    1.02
   5  -5  -2   21.67    0.98
  -5  -5   2   19.67    1.04
  -5  -5   2   19.10    1.38
   5  -5  -2   21.40    0.79
  -5  -5   2   18.56    1.14
   5   5  -2   21.77    1.09
   5   5  -2   21.72    0.80
   5   5  -2   18.22    1.49
  -5   5   2   18.41    0.93
   5   5  -2   20.80    0.94
   5   5  -2   21.36    0.93
  -5   5   2   21.04    1.09
   5   5  -2   21.09    0.97
  -5   5   2   19.88    0.82
  -5   5   2   20.31    1.29
   4  -5  -2    8.15    0.38
   4  -5  -2    8.46    0.39
  -4  -5   2    7.70    0.65
  -4  -5   2    7.98    0.65
  -4  -5   2    7.29    0.61
   4  -5  -2    7.92    0.57
  -4  -5   2    8.06    0.81
  -4  -5   2    7.61    0.62
   4   5  -2    8.22    0.61
   4   5  -2    7.69    0.56
   4   5  -2    7.70    0.77
   4   5  -2    8.04    0.46
   4   5  -2    7.54    0.74
  -4   5   2    7.45    0.56
  -4   5   2    7.79    0.71
  -4   5   2    8.15    0.55
   4   5  -2    8.01    0.50
  -4   5   2    6.96    0.66
   4   5  -2    7.19    0.87
  -4   5   2    7.53    0.69
   3  -5  -2   -0.07    0.09
   3  -5  -2    0.12    0.22
  -3  -5   2    0.16    0.28
  -3  -5   2   -0.23    0.32
  -3  -5   2    0.11    0.26
  -3  -5   2    0.05    0.22
   3  -5  -2    0.12    0.09
  -3  -5   2    0.03    0.24
  -3  -5   2    0.16    0.19
   3   5  -2   -0.09    0.30
   3   5  -2    0.66    0.35
  -3   5   2   -0.04    0.22
   3   5  -2    0.11    0.22
  -3   5   2   -0.14    0.25
  -3   5   2    0.13    0.19
   3   5  -2    0.37    0.27
   3   5  -2    0.31    0.24
  -3   5   2   -0.16    0.26
   3   5  -2    0.11    0.27
  -3   5   2   -0.25    0.22
   3   5  -2    0.09    0.18
  -3   5   2    0.54    0.28
   3   5  -2   -0.02    0.17
  -2  -5   2    2.60    0.34
  -2  -5   2    2.30    0.19
  -2  -5   2    2.60    0.34
   2  -5  -2    2.66    0.15
   2  -5  -2    2.45    0.14
  -2  -5   2    2.81    0.33
   2  -5  -2    2.57    0.29
  -2  -5   2    2.68    0.31
  -2  -5   2    2.30    0.27
   2   5  -2    3.21    0.38
   2   5  -2    2.41    0.28
  -2   5   2    2.25    0.27
   2   5  -2    2.59    0.35
   2   5  -2    2.82    0.30
  -2   5   2    2.39    0.33
  -2   5   2    2.05    0.26
   2   5  -2    2.45    0.18
   2   5  -2    2.66    0.35
  -2   5   2    2.49    0.33
  -2   5   2    2.62    0.33
   2   5  -2    2.12    0.27
  -2   5   2    2.61    0.35
   2   5  -2    2.21    0.29
  -1  -5   2   11.57    0.51
  -1  -5   2   11.25    0.50
   1  -5  -2   11.31    0.39
   1  -5  -2   11.85    0.41
   1  -5  -2   11.48    0.53
  -1  -5   2   11.26    0.55
  -1  -5   2   11.33    0.58
   1   5  -2   10.18    0.49
  -1   5   2   10.75    0.53
  -1   5   2   10.16    0.47
   1   5  -2   11.10    0.52
   1   5  -2   11.95    0.55
   1   5  -2   11.90    0.54
  -1   5   2   12.02    0.51
   1   5  -2   11.47    0.53
   1   5  -2   10.31    0.44
  -1   5   2   11.14    0.48
   0  -5  -2    2.25    0.28
   0  -5   2    2.00    0.27
   0  -5   2    2.46    0.33
   0  -5  -2    2.34    0.32
   0  -5  -2    2.40    0.24
   0  -5   2    2.78    0.36
   0  -5  -2    2.30    0.31
   0  -5  -2    2.74    0.27
   0  -5   2    2.11    0.26
   0  -5   2    2.75    0.27
   0   5  -2    2.48    0.29
   0   5   2    2.48    0.34
   0   5  -2    2.43    0.16
   0   5  -2    2.80    0.28
   0   5  -2    2.45    0.16
   0   5   2    2.66    0.31
   0   5  -2    2.42    0.18
   0   5   2    2.44    0.31
   0   5   2    2.75    0.19
   0   5   2    2.20    0.25
   0   5  -2    2.10    0.28
   0   5  -2    1.89    0.25
   0   5  -2    2.27    0.25
   0   5   2    2.59    0.23
   0   5   2    2.61    0.17
  -1  -5  -2   45.49    1.46
  -1  -5  -2   47.89    1.41
   1  -5   2   47.18    1.36
   1  -5   2   45.81    1.32
  -1  -5  -2   45.63    1.44
  -1  -5  -2   46.73    1.42
   1  -5   2   47.05    1.32
   1  -5   2   46.87    1.47
   1   5   2   45.15    1.43
   1   5   2   44.18    1.40
  -1   5  -2   45.87    1.34
  -1   5  -2   46.55    1.30
  -1   5  -2   45.40    1.42
  -1   5  -2   43.79    1.39
   1   5   2   48.06    1.41
  -1   5  -2   45.62    1.43
  -1   5  -2   44.64    1.27
  -1   5  -2   44.40    1.43
   1   5   2   46.06    1.44
   1   5   2   44.77    1.36
  -2  -5  -2   98.38    2.58
  -2  -5  -2   98.37    2.83
   2  -5   2   96.05    2.74
   2  -5   2   98.12    2.63
   2  -5   2   94.55    2.62
  -2  -5  -2   97.18    2.75
  -2  -5  -2   98.19    2.76
  -2  -5  -2   95.15    2.75
   2  -5   2   92.90    2.81
  -2  -5  -2   94.02    2.77
  -2  -5  -2   96.74    2.78
  -2   5  -2   97.51    2.73
   2   5   2   94.24    2.78
  -2   5  -2   97.47    2.78
  -2   5  -2   94.28    2.74
   2   5   2   98.92    2.76
   2   5   2   93.57    2.77
  -2   5  -2   91.67    2.74
   2   5   2   96.60    2.75
  -2   5  -2  101.51    2.56
  -2   5  -2   94.75    2.79
  -2   5  -2   95.16    2.54
  -2   5  -2  100.05    2.64
   2   5   2   95.36    2.77
   2   5   2   94.12    2.75
   3  -5   2    0.53    0.23
  -3  -5  -2    0.68    0.27
  -3  -5  -2    0.59    0.21
  -3  -5  -2    0.22    0.27
   3  -5   2    0.36    0.15
   3  -5   2    0.55    0.26
   3  -5   2    0.56    0.30
  -3  -5  -2    0.85    0.37
  -3  -5  -2    0.40    0.33
  -3  -5  -2    0.68    0.23
  -3  -5  -2    0.52    0.25
  -3   5  -2    0.56    0.31
  -3   5  -2    0.63    0.20
   3   5   2    0.66    0.29
   3   5   2    0.51    0.30
  -3   5  -2    0.58    0.26
   3   5   2    0.73    0.25
  -3   5  -2    0.65    0.11
   3   5   2    0.35    0.35
  -3   5  -2    0.23    0.27
  -3   5  -2    0.33    0.19
   3   5   2    0.53    0.24
   4  -5   2   11.11    0.57
  -4  -5  -2   11.47    0.76
   4  -5   2   12.76    0.77
   4  -5   2   11.83    0.53
  -4  -5  -2   10.55    1.01
  -4  -5  -2   11.67    0.77
  -4  -5  -2   11.82    0.72
  -4  -5  -2   11.65    0.64
  -4   5  -2   12.35    0.57
   4   5   2   12.38    0.78
   4   5   2   12.27    0.71
  -4   5  -2   11.38    0.75
  -4   5  -2   11.64    0.60
  -4   5  -2   11.36    0.68
   4   5   2   11.59    0.70
   4   5   2   11.56    0.77
  -5  -5  -2    1.39    0.40
   5  -5   2    1.51    0.44
   5  -5   2    0.82    0.22
  -5  -5  -2    0.93    0.62
  -5  -5  -2    1.62    0.50
  -5  -5  -2    1.36    0.39
   5  -5   2    1.62    0.33
  -5   5  -2    1.02    0.41
   5   5   2    0.92    0.37
  -5   5  -2    1.43    0.40
   5   5   2    1.55    0.41
  -5   5  -2    1.13    0.25
   5   5   2    1.02    0.50
  -5   5  -2    1.21    0.40
   5   5   2    1.42    0.53
  -6  -5  -2    2.43    0.54
   6  -5   2    2.25    0.71
   6  -5   2    2.32    0.33
   6  -5   2    2.98    0.46
  -6  -5  -2    1.30    0.64
  -6  -5  -2    2.96    0.57
   6   5   2    3.04    0.57
   6   5   2    2.75    0.52
  -6   5  -2    2.41    0.62
   6   5   2    1.90    0.61
  -6   5  -2    3.06    0.56
   6   5   2    1.91    0.31
   7  -5   2    5.61    0.64
   7  -5   2    5.38    0.83
  -7  -5  -2    4.61    0.87
  -7  -5  -2    6.66    0.83
  -7   5  -2    4.81    0.87
   7   5   2    6.17    0.86
   7   5   2    3.99    0.68
  -7   5  -2    5.12    0.78
   7   5   2    4.06    0.91
  -7  -6   2    7.82    1.07
  -7  -6   2    6.97    0.89
   7  -6  -2    4.71    0.58
   7  -6  -2    6.56    0.60
   7   6  -2    6.39    0.82
  -7   6   2    6.06    0.82
   7   6  -2    6.31    1.00
   7   6  -2    5.83    0.78
  -7   6   2    7.38    0.93
   6  -6  -2    2.73    0.36
  -6  -6   2    3.05    0.65
   6  -6  -2    1.68    0.28
  -6  -6   2    2.86    0.67
   6  -6  -2    2.69    0.52
   6   6  -2    2.40    0.52
   6   6  -2    2.26    0.36
  -6   6   2    2.51    0.55
   6   6  -2    1.96    0.50
  -6   6   2    2.24    0.58
   6   6  -2    2.31    0.66
   5  -6  -2    1.30    0.41
  -5  -6   2    0.78    0.46
   5  -6  -2    1.06    0.19
  -5  -6   2    1.09    0.41
  -5  -6   2    1.20    0.42
   5  -6  -2    1.27    0.23
  -5  -6   2    0.97    0.81
   5   6  -2    1.30    0.30
   5   6  -2    0.87    0.37
   5   6  -2    0.85    0.45
  -5   6   2    1.61    0.38
  -5   6   2    1.66    0.46
  -5   6   2    0.90    0.24
   5   6  -2    0.79    0.33
  -5   6   2    1.05    0.44
  -4  -6   2    7.58    0.63
   4  -6  -2    7.80    0.32
   4  -6  -2    7.95    0.62
  -4  -6   2    8.18    0.67
  -4  -6   2    8.04    0.78
  -4  -6   2    8.52    0.66
  -4  -6   2    7.71    0.69
   4  -6  -2    7.30    0.31
   4   6  -2    6.11    0.61
   4   6  -2    7.57    0.51
   4   6  -2    9.06    0.78
   4   6  -2    8.03    0.49
  -4   6   2    7.39    0.58
  -4   6   2    7.30    0.66
   4   6  -2    6.55    0.87
  -4   6   2    7.77    0.68
  -3  -6   2   26.33    0.85
  -3  -6   2   25.38    1.00
  -3  -6   2   22.59    1.25
  -3  -6   2   25.60    1.07
  -3  -6   2   25.31    1.03
   3   6  -2   25.11    1.03
   3   6  -2   25.23    1.09
   3   6  -2   26.69    0.84
  -3   6   2   28.24    0.97
   3   6  -2   26.16    1.06
  -3   6   2   25.22    1.02
  -3   6   2   25.58    1.11
  -3   6   2   24.44    1.00
  -3   6   2   24.70    1.04
   3   6  -2   25.85    0.96
  -3   6   2   25.51    1.00
   3   6  -2   24.01    1.09
  -2  -6   2    0.51    0.27
  -2  -6   2    0.37    0.22
  -2  -6   2    0.55    0.26
  -2  -6   2    0.54    0.26
   2  -6  -2    0.58    0.08
  -2  -6   2    0.50    0.24
   2  -6  -2    0.80    0.09
  -2   6   2    0.70    0.27
   2   6  -2    0.53    0.20
   2   6  -2    0.72    0.26
  -2   6   2    0.87    0.29
  -2   6   2    0.92    0.28
   2   6  -2    0.96    0.25
   2   6  -2    0.76    0.22
  -2   6   2    0.58    0.25
   2   6  -2    0.95    0.32
  -2   6   2    0.40    0.24
  -2   6   2    0.61    0.25
  -1  -6   2   -0.01    0.20
  -1  -6   2   -0.04    0.20
   1  -6  -2   -0.12    0.20
  -1  -6   2   -0.02    0.21
   1  -6  -2    0.01    0.13
  -1  -6   2    0.33    0.20
   1  -6  -2    0.18    0.11
   1  -6  -2    0.00    0.20
  -1  -6   2   -0.14    0.16
   1   6  -2    0.11    0.19
  -1   6   2    0.10    0.22
   1   6  -2    0.34    0.25
  -1   6   2    0.11    0.19
  -1   6   2    0.02    0.19
   1   6  -2    0.25    0.20
   1   6  -2   -0.14    0.17
  -1   6   2    0.09    0.18
   1   6  -2    0.00    0.12
  -1   6   2    0.35    0.16
   1   6  -2    0.06    0.17
  -1   6   2    0.17    0.20
   1   6  -2    0.28    0.18
   0  -6  -2   17.50    0.65
   0  -6   2   17.40    0.70
   0  -6  -2   17.46    0.64
   0  -6   2   17.87    0.76
   0  -6   2   17.36    0.66
   0  -6   2   17.54    0.74
   0  -6   2   18.15    0.65
   0  -6  -2   16.93    0.73
   0  -6  -2   17.81    0.74
   0   6   2   17.15    0.73
   0   6   2   16.69    0.67
   0   6  -2   18.93    0.66
   0   6   2   18.15    0.58
   0   6   2   17.83    0.70
   0   6  -2   17.23    0.58
   0   6   2   16.64    0.76
   0   6  -2   17.14    0.72
   0   6  -2   17.00    0.71
   0   6   2   16.78    0.73
   0   6  -2   17.85    0.53
   0   6  -2   17.40    0.74
   0   6   2   18.77    0.58
   0   6  -2   17.73    0.53
   0   6  -2   17.59    0.68
  -1  -6  -2   35.22    1.20
  -1  -6  -2   35.51    1.18
  -1  -6  -2   35.89    1.15
   1  -6   2   35.79    1.22
   1  -6   2   36.35    1.06
  -1  -6  -2   35.34    1.16
  -1  -6  -2   35.54    1.23
   1   6   2   35.98    1.15
  -1   6  -2   34.74    1.00
  -1   6  -2   33.53    1.21
  -1   6  -2   33.18    0.98
   1   6   2   35.55    1.21
   1   6   2   33.74    1.19
  -1   6  -2   35.41    1.19
   1   6   2   33.08    1.10
  -1   6  -2   34.97    1.17
   1   6   2   35.29    1.14
  -1   6  -2   33.49    1.17
  -1   6  -2   33.58    1.14
   2  -6   2    7.14    0.47
  -2  -6  -2    7.14    0.40
  -2  -6  -2    7.77    0.61
   2  -6   2    8.34    0.49
   2  -6   2    6.78    0.34
  -2  -6  -2    7.90    0.51
  -2  -6  -2    6.65    0.56
  -2  -6  -2    6.16    0.49
  -2  -6  -2    6.86    0.57
  -2  -6  -2    6.99    0.27
   2  -6   2    6.90    0.54
   2   6   2    6.50    0.48
  -2   6  -2    7.18    0.46
   2   6   2    7.27    0.46
   2   6   2    6.67    0.49
   2   6   2    7.46    0.56
  -2   6  -2    6.89    0.46
  -2   6  -2    6.37    0.65
   2   6   2    5.15    0.48
  -2   6  -2    7.87    0.47
  -2   6  -2    6.49    0.50
  -3  -6  -2   11.85    0.64
   3  -6   2   11.72    0.48
   3  -6   2   12.68    0.70
  -3  -6  -2   11.09    0.80
  -3  -6  -2   12.95    0.79
   3  -6   2   13.08    0.77
  -3  -6  -2   13.06    0.73
   3  -6   2   12.26    0.50
  -3  -6  -2   11.85    0.52
   3   6   2   11.65    0.65
  -3   6  -2   12.04    0.61
  -3   6  -2   11.70    0.73
  -3   6  -2   11.99    0.72
   3   6   2   12.98    0.71
   3   6   2   12.36    0.79
   3   6   2   12.09    0.93
  -3   6  -2   13.24    0.61
   3   6   2   12.11    0.77
   4  -6   2    5.36    0.42
   4  -6   2    5.71    0.38
  -4  -6  -2    6.95    0.85
  -4  -6  -2    5.78    0.64
  -4  -6  -2    6.72    0.67
   4  -6   2    5.58    0.62
  -4  -6  -2    6.79    0.50
  -4  -6  -2    5.79    0.68
   4   6   2    5.35    0.70
  -4   6  -2    6.69    0.70
  -4   6  -2    6.71    0.67
   4   6   2    6.39    0.60
   4   6   2    7.48    0.84
  -4   6  -2    5.77    0.55
  -4   6  -2    6.30    0.48
   4   6   2    6.79    0.62
   5  -6   2    5.90    0.43
   5  -6   2    5.44    0.73
  -5  -6  -2    6.83    0.73
  -5  -6  -2    5.47    0.64
  -5  -6  -2    6.68    0.73
   5  -6   2    5.54    0.54
  -5   6  -2    5.37    0.52
   5   6   2    7.14    0.72
   5   6   2    7.78    0.93
  -5   6  -2    5.72    0.74
   5   6   2    6.00    0.67
  -6  -6  -2   -0.16    0.51
   6  -6   2   -0.09    0.24
   6  -6   2    0.12    0.42
  -6  -6  -2    0.75    0.68
   6  -6   2   -0.04    0.47
  -6  -6  -2    0.35    0.47
   6   6   2    0.45    0.52
   6   6   2   -0.31    0.31
  -6   6  -2    0.71    0.55
   6   6   2    0.34    0.44
   6   6   2   -0.82    0.68
  -6   6  -2   -0.36    0.55
   7  -6   2    0.16    0.64
  -7  -6  -2    1.49    0.71
   7  -6   2    1.33    0.37
   7   6   2    2.72    0.95
  -7   6  -2    1.45    0.81
   7   6   2    1.81    0.66
  -7   6  -2    0.10    0.70
   7   6   2    1.62    0.73
  -7  -7   2    1.42    0.78
  -7  -7   2    1.56    0.77
   7  -7  -2    2.01    0.36
   7   7  -2    1.78    0.65
   7   7  -2    0.74    0.76
  -7   7   2    2.19    0.77
  -7   7   2    0.36    0.85
  -6  -7   2   18.24    1.34
  -6  -7   2   19.82    1.25
   6  -7  -2   18.98    0.68
  -6  -7   2   20.39    1.26
   6  -7  -2   18.03    0.67
   6   7  -2   19.29    1.43
   6   7  -2   20.92    1.09
   6   7  -2   19.51    0.94
   6   7  -2   19.97    1.11
  -6   7   2   18.82    1.18
  -6   7   2   21.92    1.28
  -5  -7   2    1.33    0.47
  -5  -7   2    0.81    0.49
  -5  -7   2    1.37    0.46
  -5   7   2    0.91    0.48
   5   7  -2    0.97    0.31
  -5   7   2    1.18    0.41
   5   7  -2    0.26    0.34
   5   7  -2    0.36    0.33
   5   7  -2    0.07    0.52
  -5   7   2    0.46    0.27
  -4  -7   2    7.58    0.67
  -4  -7   2    7.77    0.86
  -4  -7   2    8.30    0.67
  -4  -7   2    9.06    0.73
  -4  -7   2    9.75    0.79
   4   7  -2    9.42    0.86
  -4   7   2    7.85    0.64
  -4   7   2    8.51    0.72
   4   7  -2    8.40    0.59
  -4   7   2    8.82    0.87
   4   7  -2    7.79    0.63
   4   7  -2    7.01    0.70
  -3  -7   2    1.08    0.21
  -3  -7   2    1.48    0.46
  -3  -7   2    1.43    0.32
  -3  -7   2    0.95    0.37
  -3  -7   2    0.96    0.33
   3   7  -2    1.25    0.39
  -3   7   2    0.60    0.32
   3   7  -2    0.72    0.28
  -3   7   2    1.23    0.43
   3   7  -2    1.30    0.35
  -3   7   2    1.12    0.48
   3   7  -2    0.96    0.48
   3   7  -2    1.57    0.20
  -2  -7   2    8.32    0.55
   2  -7  -2    7.54    0.25
  -2  -7   2    8.14    0.56
  -2  -7   2    8.43    0.62
  -2  -7   2    8.52    0.65
  -2   7   2    7.54    0.62
   2   7  -2    8.81    0.70
  -2   7   2    8.62    0.56
   2   7  -2    8.80    0.55
  -2   7   2    7.86    0.65
  -2   7   2    7.25    0.75
   2   7  -2    7.84    0.62
  -2   7   2    7.70    0.62
   2   7  -2    7.94    0.58
  -2   7   2    8.70    0.68
  -1  -7   2    0.09    0.23
   1  -7  -2    0.13    0.11
   1  -7  -2    0.14    0.13
  -1  -7   2   -0.10    0.23
  -1  -7   2    0.05    0.18
  -1  -7   2    0.12    0.26
   1  -7  -2    0.13    0.24
  -1   7   2    0.01    0.21
   1   7  -2   -0.07    0.24
  -1   7   2    0.12    0.28
  -1   7   2    0.21    0.30
  -1   7   2    0.43    0.26
  -1   7   2    0.10    0.24
   1   7  -2    0.34    0.33
   1   7  -2    0.05    0.22
  -1   7   2    0.32    0.22
  -1   7   2    0.02    0.20
   1   7  -2    0.26    0.23
   0  -7   2    1.56    0.33
   0  -7  -2    1.68    0.31
   0  -7   2    1.68    0.30
   0  -7  -2    1.58    0.25
   0  -7  -2    1.61    0.29
   0  -7  -2    1.14    0.19
   0  -7   2    1.80    0.25
   0  -7   2    1.81    0.23
   0   7   2    1.50    0.23
   0   7   2    2.35    0.39
   0   7   2    1.27    0.14
   0   7  -2    1.67    0.37
   0   7  -2    1.14    0.24
   0   7  -2    1.32    0.14
   0   7  -2    1.90    0.28
   0   7   2    1.89    0.21
   0   7  -2    1.65    0.26
   0   7  -2    2.01    0.26
   0   7   2    1.57    0.21
   0   7   2    1.65    0.27
   0   7  -2    1.83    0.18
   0   7   2    2.06    0.33
   0   7  -2    2.07    0.28
   0   7  -2    1.93    0.18
   1  -7   2    7.93    0.58
  -1  -7  -2    8.23    0.56
   1  -7   2    8.56    0.42
   1  -7   2    8.35    0.43
  -1  -7  -2    8.41    0.56
  -1  -7  -2    9.23    0.61
  -1  -7  -2    8.43    0.59
  -1  -7  -2    8.12    0.48
   1   7   2    8.63    0.64
   1   7   2    9.17    0.55
  -1   7  -2    7.00    0.31
  -1   7  -2    8.49    0.47
   1   7   2    8.95    0.51
  -1   7  -2    9.01    0.48
  -1   7  -2    8.02    0.53
  -1   7  -2    8.47    0.35
  -1   7  -2    9.60    0.61
   1   7   2    8.39    0.56
  -1   7  -2    8.81    0.67
  -2  -7  -2   14.20    0.79
  -2  -7  -2   14.75    0.72
  -2  -7  -2   14.53    0.81
   2  -7   2   13.91    0.52
  -2  -7  -2   15.03    0.80
  -2  -7  -2   14.71    0.74
   2  -7   2   14.88    0.78
   2   7   2   14.28    0.67
  -2   7  -2   14.74    0.71
  -2   7  -2   13.88    0.70
  -2   7  -2   13.88    0.73
   2   7   2   14.39    0.78
  -2   7  -2   14.41    0.62
   2   7   2   13.69    0.74
   3  -7   2   96.85    2.59
  -3  -7  -2   96.84    2.94
   3  -7   2   94.14    2.58
  -3  -7  -2   92.63    2.92
  -3  -7  -2   93.46    2.58
  -3  -7  -2   99.27    2.90
  -3  -7  -2   92.95    2.58
   3  -7   2   94.60    2.84
  -3  -7  -2   94.27    2.87
  -3   7  -2   93.40    2.70
  -3   7  -2   89.14    2.86
  -3   7  -2   99.43    2.69
  -3   7  -2   96.03    2.79
   3   7   2   91.86    2.86
  -3   7  -2   91.39    2.90
   3   7   2   96.79    2.80
   3   7   2   95.94    2.89
  -4  -7  -2   10.02    0.99
   4  -7   2    9.76    0.89
  -4  -7  -2    9.36    0.79
  -4  -7  -2    8.58    0.70
   4  -7   2    9.83    0.44
  -4  -7  -2   10.04    0.79
   4  -7   2    9.74    0.47
   4   7   2   10.52    0.73
   4   7   2    9.71    0.73
  -4   7  -2   10.28    0.62
   4   7   2   10.56    1.00
  -4   7  -2   10.18    0.80
  -4   7  -2   10.57    0.56
  -4   7  -2    9.25    0.74
   5  -7   2    5.21    0.42
  -5  -7  -2    4.80    0.68
   5  -7   2    5.15    0.48
  -5  -7  -2    4.31    0.63
  -5  -7  -2    4.99    0.63
   5  -7   2    3.99    0.62
  -5   7  -2    4.81    0.57
   5   7   2    5.51    0.72
  -5   7  -2    4.70    0.64
  -5   7  -2    5.53    0.54
   5   7   2    4.85    0.61
   5   7   2    4.78    0.74
  -6  -7  -2    0.34    0.53
   6  -7   2    0.22    0.24
  -6  -7  -2    1.10    0.63
   6  -7   2   -0.61    0.37
   6  -7   2   -0.51    0.57
  -6  -7  -2   -0.67    0.70
   6   7   2   -0.07    0.46
   6   7   2    0.87    0.73
  -6   7  -2   -0.26    0.55
  -6   7  -2   -0.53    0.60
   6   7   2   -0.50    0.37
   6   7   2    0.66    0.56
  -7  -7  -2    0.75    0.70
   7  -7   2   -0.05    0.74
   7   7   2    1.23    0.69
   7   7   2    0.74    0.81
  -7   7  -2    0.57    0.79
  -7   7  -2   -0.12    0.85
  -7  -8   2    4.83    1.05
  -7  -8   2    5.14    0.96
  -7   8   2    5.04    0.99
   7   8  -2    3.49    0.79
  -7   8   2    5.32    1.01
  -6  -8   2    1.00    0.66
  -6  -8   2    1.01    0.79
  -6  -8   2    1.76    0.65
   6   8  -2    0.87    0.46
  -6   8   2    0.18    0.62
   6   8  -2    1.26    0.50
  -6   8   2    0.90    0.62
  -5  -8   2    1.81    0.59
  -5  -8   2    1.31    0.50
  -5  -8   2    2.53    0.56
  -5   8   2    1.74    0.55
   5   8  -2    1.70    0.38
   5   8  -2    1.43    0.43
  -5   8   2    1.29    0.36
   5   8  -2    1.09    0.60
   5   8  -2    1.33    0.38
  -5   8   2    1.50    0.49
  -4  -8   2    1.16    0.57
  -4  -8   2    0.90    0.41
  -4  -8   2    1.24    0.46
  -4  -8   2    1.52    1.16
  -4  -8   2    1.28    0.40
   4   8  -2    0.67    0.38
  -4   8   2    0.81    0.43
   4   8  -2    0.98    0.52
   4   8  -2    1.02    0.29
  -4   8   2    0.87    0.39
   4   8  -2    0.47    0.30
  -3  -8   2    2.45    0.42
  -3  -8   2    2.75    0.42
  -3  -8   2    1.93    0.56
  -3  -8   2    2.51    0.47
  -3   8   2    2.93    0.45
   3   8  -2    1.95    0.35
   3   8  -2    2.62    0.43
   3   8  -2    3.18    0.68
  -3   8   2    3.35    0.46
  -2  -8   2   39.93    1.48
  -2  -8   2   40.49    1.49
  -2  -8   2   40.45    1.39
  -2  -8   2   39.61    1.37
   2   8  -2   39.24    1.49
  -2   8   2   41.04    1.41
  -2   8   2   39.03    1.52
   2   8  -2   39.65    1.42
   2   8  -2   41.04    1.44
  -2   8   2   37.13    1.49
  -2   8   2   38.56    1.44
   2   8  -2   38.95    1.40
  -2   8   2   39.70    1.41
   1  -8  -2    0.25    0.28
  -1  -8   2   -0.25    0.27
   1  -8  -2    0.06    0.16
  -1  -8   2    0.00    0.29
  -1  -8   2    0.48    0.23
   1  -8  -2    0.15    0.14
  -1  -8   2    0.29    0.27
  -1   8   2    0.35    0.38
  -1   8   2    0.77    0.31
  -1   8   2    0.06    0.25
   1   8  -2   -0.22    0.41
  -1   8   2    0.06    0.26
   1   8  -2    0.29    0.27
   1   8  -2    0.21    0.25
  -1   8   2    0.08    0.42
   1   8  -2    0.03    0.31
   0  -8  -2   29.15    1.15
   0  -8   2   29.99    1.12
   0  -8  -2   28.31    1.01
   0  -8   2   28.68    1.03
   0  -8  -2   29.16    0.99
   0  -8   2   28.85    1.00
   0  -8   2   29.19    1.19
   0   8  -2   28.67    1.07
   0   8   2   29.37    1.05
   0   8  -2   30.16    0.99
   0   8  -2   29.13    0.82
   0   8  -2   30.18    1.20
   0   8   2   28.49    1.12
   0   8  -2   28.13    1.12
   0   8   2   28.41    0.94
   0   8   2   29.41    0.94
  -1  -8  -2    0.05    0.22
  -1  -8  -2   -0.02    0.28
   1  -8   2    0.23    0.28
   1  -8   2   -0.04    0.16
  -1  -8  -2   -0.26    0.27
   1  -8   2    0.18    0.17
  -1   8  -2    0.06    0.25
  -1   8  -2   -0.39    0.23
  -1   8  -2   -0.07    0.20
  -1   8  -2    0.01    0.22
  -1   8  -2   -0.04    0.46
   1   8   2    0.04    0.27
   1   8   2    0.19    0.24
   2  -8   2    0.36    0.14
  -2  -8  -2    0.24    0.46
  -2  -8  -2   -0.13    0.25
   2  -8   2    0.03    0.33
  -2  -8  -2   -0.10    0.45
   2  -8   2    0.01    0.15
  -2  -8  -2    0.05    0.31
   2   8   2   -0.07    0.23
  -2   8  -2    0.27    0.37
   2   8   2    0.57    0.27
  -2   8  -2   -0.27    0.22
   2   8   2   -0.27    0.35
  -2   8  -2   -0.52    0.37
  -2   8  -2    0.12    0.26
  -3  -8  -2    5.25    0.63
  -3  -8  -2    4.94    0.59
  -3  -8  -2    5.48    0.72
   3  -8   2    5.55    0.29
  -3   8  -2    5.80    0.52
   3   8   2    5.05    0.57
   3   8   2    5.19    0.64
  -3   8  -2    5.96    0.75
  -3   8  -2    6.25    0.66
  -3   8  -2    5.18    0.48
   3   8   2    5.66    0.55
   4  -8   2    6.24    0.34
  -4  -8  -2    6.90    0.70
   4  -8   2    6.27    0.32
  -4  -8  -2    6.32    0.52
  -4  -8  -2    6.36    0.75
  -4   8  -2    6.69    0.57
  -4   8  -2    6.54    0.83
  -4   8  -2    5.98    0.61
   4   8   2    5.14    0.76
   4   8   2    5.31    0.66
   4   8   2    5.76    0.67
   5  -8   2    0.10    0.17
  -5  -8  -2   -0.13    0.53
   5  -8   2   -0.35    0.21
  -5  -8  -2    0.91    0.45
  -5   8  -2   -0.08    0.37
  -5   8  -2   -0.41    0.37
  -5   8  -2   -0.73    0.51
   5   8   2    0.87    0.47
   5   8   2    0.16    0.42
  -6  -8  -2    0.80    0.75
  -6  -8  -2    2.08    0.60
   6  -8   2    1.06    0.23
   6   8   2    0.97    0.58
   6   8   2    0.70    0.81
   6   8   2    1.58    0.79
  -6   8  -2    2.17    0.70
  -6   8  -2    1.36    0.77
  -6  -9   2    3.77    0.79
  -6  -9   2    2.78    0.95
  -6  -9   2    3.54    0.78
  -6   9   2    3.41    0.78
   6   9  -2    3.10    0.66
   6   9  -2    1.24    0.70
  -6   9   2    1.32    0.87
  -5  -9   2    7.53    0.92
  -5  -9   2    8.13    0.90
  -5  -9   2    8.07    0.88
   5   9  -2    8.87    0.81
  -5   9   2    6.32    0.81
  -5   9   2    5.30    0.69
   5   9  -2    7.21    0.79
  -5   9   2    6.03    0.72
  -4  -9   2    1.77    0.50
  -4  -9   2    2.81    0.52
  -4   9   2    2.54    0.50
  -4   9   2    3.59    0.59
  -4   9   2    2.66    0.43
  -4   9   2    2.36    0.55
   4   9  -2    2.85    0.45
  -3  -9   2    2.45    0.44
  -3  -9   2    1.80    0.64
  -3  -9   2    1.63    0.43
  -3  -9   2    1.36    0.41
  -3   9   2    1.90    0.45
   3   9  -2    2.93    0.64
  -3   9   2    2.16    0.41
   3   9  -2    1.74    0.88
   3   9  -2    1.44    0.38
  -3   9   2    2.24    0.47
   3   9  -2    2.19    0.45
  -2  -9   2   19.26    0.90
  -2  -9   2   18.19    1.00
  -2  -9   2   20.33    0.92
   2   9  -2   18.76    0.95
  -2   9   2   19.56    0.88
  -2   9   2   20.46    0.98
   2   9  -2   18.68    0.92
   2   9  -2   21.03    1.06
  -2   9   2   17.97    1.71
   2   9  -2   17.20    1.17
  -2   9   2   19.14    0.94
   1  -9  -2    0.70    0.20
  -1  -9   2    0.78    0.33
  -1  -9   2    0.87    0.38
  -1  -9   2    0.80    0.28
   1  -9  -2    0.79    0.35
   1  -9  -2    1.13    0.19
  -1  -9   2    1.17    0.38
   1   9  -2    0.63    0.32
  -1   9   2    1.15    0.32
  -1   9   2    1.18    0.38
   1   9  -2    1.06    0.60
   1   9  -2    0.91    0.31
   1   9  -2    1.34    0.43
  -1   9   2    1.23    0.36
   0  -9   2   -0.09    0.26
   0  -9  -2   -0.21    0.18
   0  -9   2    0.33    0.33
   0  -9   2   -0.31    0.28
   0  -9   2   -0.04    0.20
   0  -9  -2   -0.01    0.32
   0   9   2   -0.20    0.29
   0   9  -2    0.67    0.57
   0   9  -2   -0.46    0.32
   0   9  -2   -0.13    0.26
   0   9  -2   -0.20    0.26
   0   9   2    0.19    0.28
   0   9   2   -0.33    0.26
  -1  -9  -2    2.84    0.45
   1  -9   2    3.10    0.36
  -1  -9  -2    3.71    0.39
   1  -9   2    3.62    0.36
  -1  -9  -2    3.52    0.48
   1  -9   2    4.06    0.51
   1   9   2    3.33    0.42
  -1   9  -2    3.00    0.40
  -1   9  -2    3.57    0.38
  -1   9  -2    4.65    0.50
  -1   9  -2    3.67    0.43
   1   9   2    3.58    0.47
   1   9   2    3.83    0.48
  -2  -9  -2    0.01    0.53
  -2  -9  -2   -0.04    0.37
   2  -9   2    0.64    0.40
  -2  -9  -2    0.18    0.28
   2  -9   2    0.09    0.15
   2  -9   2    0.28    0.17
  -2  -9  -2   -0.13    0.55
  -2   9  -2    0.21    0.28
   2   9   2    0.32    0.42
  -2   9  -2    0.32    0.28
  -2   9  -2   -0.08    0.56
   2   9   2    0.58    0.30
   2   9   2    0.06    0.27
  -2   9  -2    0.33    0.45
   3  -9   2    1.34    0.17
  -3  -9  -2    1.74    0.44
  -3  -9  -2    1.20    0.42
   3   9   2    1.95    0.39
  -3   9  -2    0.56    0.97
  -3   9  -2    1.46    0.34
   3   9   2    1.24    0.54
   3   9   2    0.95    0.37
  -3   9  -2    1.61    0.49
  -3   9  -2    1.41    0.34
  -4  -9  -2    6.88    0.75
  -4  -9  -2    7.65    0.82
   4   9   2    6.25    0.76
  -4   9  -2    6.45    0.65
   4   9   2    5.59    0.74
  -4   9  -2    5.95    0.68
  -5  -9  -2    1.57    0.57
   5   9   2    0.87    0.57
   5   9   2    0.61    0.55
  -5   9  -2   -0.68    0.60
  -5   9  -2    1.27    0.49
  -6  -9  -2    0.52    0.66
  -6  -9  -2    0.28    0.86
   6   9   2    0.14    0.65
  -6   9  -2   -0.46    0.82
  -6   9  -2    1.82    0.82
  -6 -10   2    1.98    1.01
  -6 -10   2    4.57    0.91
   6  10  -2    2.36    0.68
  -6  10   2    4.83    0.93
  -6  10   2    3.32    0.95
  -6  10   2    3.43    0.86
  -6  10   2    2.59    0.97
  -5 -10   2    0.21    0.67
  -5 -10   2   -0.26    0.62
  -5 -10   2    0.69    0.70
  -5  10   2    0.29    0.45
  -5  10   2    0.32    0.66
  -5  10   2    0.72    0.61
  -5  10   2    0.68    0.64
   5  10  -2   -0.47    0.54
   5  10  -2    2.08    0.54
  -4 -10   2    7.04    1.03
  -4 -10   2    9.75    0.98
  -4 -10   2    8.02    0.85
   4  10  -2    9.08    1.09
  -4  10   2   10.69    1.00
  -4  10   2   10.82    1.03
  -4  10   2   10.27    0.93
  -4  10   2    8.53    0.77
  -4  10   2   11.14    0.90
   4  10  -2    9.75    0.86
  -3 -10   2   -0.57    0.38
  -3 -10   2   -0.04    0.42
  -3 -10   2   -0.34    0.40
  -3  10   2    0.20    0.45
  -3  10   2   -0.39    0.41
   3  10  -2    0.02    0.69
  -3  10   2   -0.24    0.38
   3  10  -2   -0.08    0.33
  -2 -10   2    4.57    0.65
  -2 -10   2    5.93    0.66
  -2 -10   2    6.72    0.73
  -2 -10   2    5.55    0.65
  -2  10   2    6.35    0.71
   2  10  -2    4.97    0.62
  -2  10   2    5.25    0.66
   2  10  -2    5.81    0.70
  -2  10   2    6.08    0.64
  -1 -10   2   12.64    0.89
   1 -10  -2   12.81    0.55
   1 -10  -2   13.18    0.83
  -1 -10   2   13.22    0.81
  -1 -10   2   13.56    0.91
  -1 -10   2   12.97    0.72
   1 -10  -2   12.92    0.59
  -1  10   2   11.42    1.11
  -1  10   2   11.18    0.74
   1  10  -2   13.47    0.81
  -1  10   2   12.12    0.92
   1  10  -2   13.60    1.01
   1  10  -2   13.42    0.82
  -1  10   2   15.03    0.87
   0 -10   2    4.86    0.66
   0 -10  -2    5.36    0.47
   0 -10  -2    4.91    0.68
   0 -10  -2    6.09    0.55
   0 -10   2    4.42    0.54
   0 -10   2    5.50    0.47
   0 -10   2    5.95    0.68
   0  10   2    6.81    0.58
   0  10  -2    5.04    0.60
   0  10  -2    5.26    0.59
   0  10   2    6.30    0.66
   0  10   2    6.16    0.73
   1 -10   2   11.13    0.80
  -1 -10  -2   10.88    0.84
   1 -10   2   10.26    0.54
   1 -10   2    9.55    0.57
  -1 -10  -2   10.66    0.67
  -1 -10  -2   10.17    0.87
  -1  10  -2   10.58    0.65
   1  10   2    9.50    0.76
  -1  10  -2   11.33    0.70
  -1  10  -2   10.61    0.74
  -1  10  -2    9.07    0.56
   1  10   2   11.77    0.68
   1  10   2   10.76    0.84
  -2 -10  -2    7.37    0.81
  -2 -10  -2    7.27    0.67
   2 -10   2    6.17    0.37
   2 -10   2    5.83    0.38
   2 -10   2    7.11    0.78
  -2 -10  -2    6.35    0.75
   2  10   2    5.65    0.69
  -2  10  -2    7.15    0.67
   2  10   2    7.96    0.62
  -2  10  -2    6.24    0.64
  -2  10  -2    6.47    0.57
  -3 -10  -2   -0.85    0.46
  -3 -10  -2   -0.09    0.54
  -3  10  -2    0.28    0.39
   3  10   2   -0.31    0.36
  -3  10  -2   -0.01    0.35
   3  10   2    0.00    0.37
  -4 -10  -2    4.82    0.66
  -4 -10  -2    4.84    0.75
  -4  10  -2    4.59    0.60
   4  10   2    4.67    0.59
  -4  10  -2    4.90    0.56
   4  10   2    4.38    0.63
  -4  10  -2    4.73    0.73
  -5 -10  -2    9.66    1.26
  -5 -10  -2   11.74    1.14
  -5  10  -2   10.30    1.16
   5  10   2    9.56    0.87
   5  10   2    8.60    0.95
  -5  10  -2   11.19    1.32
  -5 -11   2   -0.81    0.75
  -5 -11   2    0.30    0.75
  -5  11   2    0.18    0.73
   5  11  -2    0.95    0.65
  -5  11   2   -0.16    0.78
  -5  11   2    0.22    0.54
   5  11  -2   -0.54    0.64
  -5  11   2   -0.62    0.72
  -5  11   2    1.64    0.84
  -4 -11   2    1.35    0.59
  -4 -11   2    1.19    0.58
  -4  11   2    0.94    0.60
   4  11  -2    0.83    0.54
   4  11  -2    1.46    0.61
  -4  11   2    1.02    0.49
  -4  11   2   -0.62    0.86
  -4  11   2   -0.20    0.60
  -3 -11   2    2.90    0.56
  -3 -11   2    3.54    0.63
  -3 -11   2    4.65    0.61
  -3  11   2    4.38    0.69
   3  11  -2    4.83    0.68
   3  11  -2    3.98    0.58
  -3  11   2    3.50    0.51
  -3  11   2    3.83    0.64
  -2 -11   2    7.53    0.74
  -2 -11   2    8.94    0.87
  -2 -11   2    8.12    0.78
  -2  11   2    8.21    0.83
  -2  11   2    7.66    0.80
   2  11  -2    6.56    0.74
  -2  11   2    9.51    0.80
  -1 -11   2   43.47    1.78
  -1 -11   2   41.68    1.70
   1 -11  -2   44.39    1.37
  -1 -11   2   43.73    1.60
   1 -11  -2   45.25    1.75
  -1  11   2   42.62    1.56
  -1  11   2   44.31    1.48
   1  11  -2   42.37    1.70
  -1  11   2   44.31    1.70
   1  11  -2   45.84    1.68
   0 -11  -2    1.45    0.52
   0 -11  -2    1.86    0.36
   0 -11   2    1.33    0.32
   0 -11   2    1.74    0.88
   0 -11   2    1.89    0.47
   0 -11  -2    1.70    0.38
   0 -11   2    2.10    0.38
   0  11  -2    1.86    0.50
   0  11   2    2.04    0.55
   0  11   2    1.91    0.35
   0  11   2    1.78    0.43
   0  11  -2    1.00    0.41
   1 -11   2    6.55    0.80
   1 -11   2    6.55    0.53
  -1 -11  -2    5.91    0.59
  -1 -11  -2    6.48    0.85
   1 -11   2    4.91    0.48
   1  11   2    5.05    0.68
  -1  11  -2    6.36    0.74
  -1  11  -2    5.27    0.58
   1  11   2    6.27    0.76
  -2 -11  -2    4.12    0.60
   2 -11   2    2.88    0.33
  -2 -11  -2    3.95    0.53
   2  11   2    4.92    0.65
  -2  11  -2    4.56    0.63
  -2  11  -2    3.51    0.52
  -2  11  -2    4.40    0.52
   2  11   2    2.73    0.50
  -3 -11  -2   -0.09    0.57
  -3 -11  -2    0.19    0.45
  -3  11  -2    0.61    0.45
   3  11   2   -0.90    0.47
  -3  11  -2   -0.09    0.46
  -3  11  -2    0.47    0.56
  -3  11  -2    0.19    0.46
  -4 -11  -2    2.67    0.66
  -4 -11  -2    3.62    0.76
  -4  11  -2    3.25    0.81
   4  11   2    2.09    0.57
  -4  11  -2    2.18    0.59
  -5 -11  -2    0.69    0.85
  -5 -11  -2    1.63    0.81
   5  11   2   -0.30    0.68
  -5  11  -2    0.14    0.93
  -5  11  -2   -0.10    0.70
   5  11   2   -0.63    0.66
  -4 -12   2    4.70    0.83
  -4 -12   2    6.31    0.99
   4  12  -2    5.41    0.78
  -4  12   2    4.17    0.90
  -4  12   2    5.04    0.90
  -4  12   2    4.85    0.92
   4  12  -2    5.81    0.82
  -4  12   2    5.31    0.69
  -4  12   2    5.99    0.88
  -3 -12   2    1.75    0.66
  -3 -12   2   -0.30    0.55
   3  12  -2    0.90    0.63
   3  12  -2    1.35    0.57
  -3  12   2    0.49    0.65
  -3  12   2    0.38    0.64
  -3  12   2    0.11    0.50
  -3  12   2   -0.76    0.61
  -2 -12   2    1.44    0.62
  -2 -12   2    0.60    0.47
  -2 -12   2    0.16    0.52
  -2  12   2    0.45    0.53
  -2  12   2    0.01    0.52
  -2  12   2    0.37    0.53
   2  12  -2    0.42    0.55
   2  12  -2    0.59    0.50
   1 -12  -2    1.39    0.56
   1 -12  -2    0.12    0.28
  -1 -12   2    0.26    0.34
  -1 -12   2    0.95    0.54
   1 -12  -2    0.16    0.25
  -1 -12   2    0.55    0.51
   1  12  -2   -0.03    0.38
   1  12  -2    0.14    0.52
  -1  12   2   -0.14    0.48
  -1  12   2   -0.88    0.47
   0 -12   2    0.70    0.43
   0 -12   2    1.04    0.33
   0 -12  -2    0.71    0.33
   0 -12   2    1.77    0.55
   0 -12  -2    1.28    0.58
   0 -12   2    0.97    0.50
   0 -12  -2    0.82    0.45
   0  12   2    0.44    0.49
   0  12   2    1.04    0.46
   0  12  -2    0.45    0.46
   0  12  -2    0.74    0.60
  -1 -12  -2    3.48    0.63
   1 -12   2    3.05    0.39
   1 -12   2    4.18    0.67
  -1 -12  -2    3.70    0.50
  -1  12  -2    3.65    0.59
  -1  12  -2    4.34    0.59
   1  12   2    4.26    0.59
  -2 -12  -2    2.58    0.48
  -2 -12  -2    2.20    0.62
   2  12   2    2.61    0.56
  -2  12  -2    1.20    0.55
  -2  12  -2    2.58    0.57
  -3 -12  -2   -0.32    0.53
  -3 -12  -2    0.22    0.66
  -3  12  -2    0.59    0.75
  -3  12  -2    0.34    0.51
   3  12   2    0.77    0.56
  -3  12  -2    0.69    0.57
  -4 -12  -2    2.22    0.85
  -4 -12  -2    1.69    0.77
   4  12   2    3.30    0.74
   4  12   2    2.44    0.68
  -4  12  -2    2.06    0.95
  -4  12  -2    2.20    0.70
  -3 -13   2    9.33    1.19
  -3 -13   2    7.98    0.97
  -3  13   2    6.35    0.79
  -3  13   2    8.21    0.98
   3  13  -2    7.18    0.95
   3  13  -2    6.12    0.82
  -2 -13   2    5.82    0.86
  -2  13   2    5.60    0.87
   2  13  -2    7.99    1.02
  -2  13   2    5.27    0.73
   2  13  -2    5.43    0.84
   1 -13  -2    2.31    0.31
  -1 -13   2    1.94    0.43
  -1 -13   2    4.92    0.78
  -1  13   2    4.07    0.68
   1  13  -2    3.25    0.62
   1  13  -2    3.29    0.70
  -1  13   2    4.01    0.77
   0 -13   2   19.15    0.95
   0 -13  -2   19.34    0.97
   0 -13  -2   19.39    1.40
   0 -13   2   21.72    1.82
   0 -13   2   23.67    1.48
   0  13  -2   20.42    1.31
   0  13   2   21.02    1.35
   0  13  -2   22.34    1.25
  -1 -13  -2   -0.17    0.43
   1 -13   2   -0.47    0.30
  -1 -13  -2   -0.66    0.66
   1 -13   2   -0.44    0.35
   1  13   2   -0.67    0.57
  -1  13  -2   -0.16    0.60
  -1  13  -2   -0.20    0.50
  -2 -13  -2    1.14    0.52
  -2 -13  -2    1.50    0.78
   2  13   2    1.06    0.59
  -2  13  -2    1.15    0.68
  -2  13  -2    2.24    0.65
  -3 -13  -2   -0.67    0.67
  -3 -13  -2    0.34    0.83
   3  13   2   -0.05    0.69
  -3  13  -2    1.91    0.96
   3  13   2    0.28    0.70
  -3  13  -2    0.10    0.66
  -1 -14   2    0.33    0.47
   1 -14  -2    0.50    0.31
  -1 -14   2    2.31    0.91
   1  14  -2   -0.37    0.87
  -1  14   2   -1.06    0.68
  -1  14   2    0.38    0.79
   1  14  -2    1.58    0.68
   0 -14  -2    0.59    0.48
   0 -14  -2    1.14    0.92
   0 -14   2    0.72    0.47
   0  14   2   -0.43    0.66
   0  14   2   -0.24    0.70
   0  14  -2    1.10    0.71
   0  14  -2    1.43    0.84
  -1 -14  -2    0.27    0.88
   1  14   2    0.26    0.74
   1  14   2   -0.49    0.74
  -1  14  -2    0.76    0.81
  -1  14  -2    1.32    0.71
   8   0  -3    0.65    0.55
   8   0  -3   -0.42    0.62
  -8   0   3   -0.25    0.78
  -8   0   3   -1.45    0.72
  -7   0   3    0.23    0.50
  -7   0   3   -0.13    0.50
   7   0  -3   -0.63    0.42
   6   0  -3    0.01    0.29
   6   0  -3   -0.43    0.29
  -6   0   3   -0.14    0.34
   6   0  -3   -0.02    0.36
  -6   0   3   -0.18    0.41
  -6   0   3   -0.59    0.54
   6   0  -3    0.02    0.57
  -5   0   3    0.08    0.34
   5   0  -3    0.15    0.37
   5   0  -3   -0.34    0.26
   5   0  -3   -0.02    0.27
  -5   0   3   -0.04    0.29
   5   0  -3    0.15    0.27
  -5   0   3   -0.27    0.31
   5   0  -3    0.01    0.36
   4   0  -3   -0.13    0.18
   4   0  -3   -0.07    0.23
  -4   0   3   -0.12    0.26
  -4   0   3    0.00    0.09
   4   0  -3    0.02    0.21
  -4   0   3   -0.25    0.20
  -4   0   3   -0.13    0.23
   4   0  -3   -0.15    0.26
   4   0  -3   -0.07    0.10
   4   0  -3    0.43    0.21
   4   0  -3   -0.20    0.23
  -4   0   3   -0.03    0.20
  -4   0   3   -0.13    0.19
   3   0  -3   -0.03    0.17
  -3   0   3   -0.06    0.18
  -3   0   3   -0.01    0.11
  -3   0   3   -0.11    0.11
  -3   0   3   -0.18    0.14
   3   0  -3   -0.08    0.11
  -3   0   3   -0.07    0.10
  -3   0   3   -0.01    0.16
   3   0  -3   -0.03    0.16
   3   0  -3   -0.19    0.17
  -3   0   3   -0.17    0.24
   3   0  -3    0.03    0.19
   2   0  -3    0.06    0.14
   2   0  -3    0.01    0.12
   2   0  -3    0.05    0.11
  -2   0   3   -0.13    0.11
  -2   0   3    0.12    0.16
   2   0  -3   -0.07    0.15
   2   0  -3    0.08    0.13
  -2   0   3   -0.14    0.10
  -2   0   3    0.05    0.10
  -2   0   3    0.07    0.20
  -2   0   3    0.07    0.11
  -2   0   3   -0.18    0.12
   2   0  -3    0.05    0.13
  -1   0   3    0.07    0.16
   1   0  -3   -0.07    0.07
  -1   0   3   -0.08    0.11
   1   0  -3    0.05    0.13
  -1   0   3    0.18    0.15
  -1   0   3    0.20    0.12
   1   0  -3    0.05    0.15
   1   0  -3   -0.10    0.14
   1   0  -3    0.04    0.14
  -1   0   3   -0.21    0.16
   1   0  -3   -0.09    0.13
  -1   0   3   -0.01    0.11
   0   0  -3    0.00    0.13
   0   0  -3   -0.20    0.16
   0   0   3    0.03    0.15
   0   0   3   -0.07    0.15
   0   0  -3   -0.11    0.11
   0   0  -3   -0.13    0.12
   0   0   3    0.03    0.13
   0   0   3   -0.13    0.10
   0   0  -3   -0.05    0.14
   0   0  -3    0.02    0.14
   0   0   3   -0.07    0.14
   0   0  -3    0.05    0.10
   0   0   3   -0.02    0.15
  -1   0  -3    0.19    0.14
  -1   0  -3    0.13    0.15
  -1   0  -3   -0.14    0.13
   1   0   3   -0.01    0.15
   1   0   3    0.22    0.16
  -1   0  -3    0.09    0.11
   1   0   3   -0.08    0.08
  -1   0  -3   -0.02    0.13
  -1   0  -3   -0.03    0.12
   1   0   3   -0.30    0.12
   1   0   3   -0.12    0.14
   1   0   3    0.01    0.09
  -2   0  -3    0.03    0.10
   2   0   3   -0.07    0.13
  -2   0  -3    0.09    0.15
  -2   0  -3    0.05    0.21
  -2   0  -3   -0.11    0.14
   2   0   3    0.06    0.13
   2   0   3   -0.22    0.10
   2   0   3   -0.01    0.18
   2   0   3   -0.01    0.13
  -2   0  -3   -0.12    0.11
  -2   0  -3   -0.01    0.12
   2   0   3    0.11    0.17
   2   0   3   -0.09    0.10
  -2   0  -3   -0.11    0.17
  -3   0  -3   -0.16    0.21
   3   0   3   -0.01    0.15
   3   0   3    0.01    0.19
   3   0   3    0.09    0.20
  -3   0  -3    0.15    0.24
  -3   0  -3    0.02    0.13
  -3   0  -3   -0.41    0.17
   3   0   3    0.01    0.13
  -3   0  -3    0.21    0.19
   3   0   3   -0.03    0.17
  -3   0  -3    0.13    0.21
   3   0   3    0.15    0.22
   4   0   3    0.03    0.24
   4   0   3    0.07    0.19
  -4   0  -3   -0.15    0.28
   4   0   3    0.26    0.32
  -4   0  -3    0.48    0.31
  -4   0  -3    0.13    0.22
  -4   0  -3   -0.11    0.17
  -4   0  -3   -0.06    0.36
  -4   0  -3    0.62    0.30
   4   0   3    0.18    0.25
   5   0   3    0.05    0.30
   5   0   3   -0.06    0.22
  -5   0  -3   -0.42    0.35
  -5   0  -3    0.46    0.43
  -5   0  -3    0.26    0.38
   5   0   3   -0.14    0.18
  -5   0  -3    0.12    0.33
   5   0   3   -0.21    0.44
   5   0   3    0.03    0.29
  -5   0  -3    0.10    0.18
   6   0   3   -0.24    0.31
  -6   0  -3    0.45    0.59
  -6   0  -3    0.24    0.41
  -6   0  -3   -0.37    0.43
   6   0   3   -0.15    0.37
   6   0   3    0.03    0.38
   7   0   3   -0.07    0.50
  -7   0  -3   -0.37    0.57
   7   0   3    0.84    0.53
  -7   0  -3    0.73    0.52
   7   0   3   -0.76    0.41
  -8   0  -3   -0.01    0.77
   8   0   3   -1.01    0.71
  -8   0  -3   -1.13    0.85
   8   0   3    0.87    0.71
  -8  -1   3    1.74    0.78
   8  -1  -3    2.40    0.67
  -8  -1   3    1.66    0.69
   8   1  -3    2.47    0.71
  -8   1   3    0.75    0.68
   8   1  -3    0.79    0.67
   8   1  -3    1.20    0.59
  -7  -1   3    8.60    0.97
   7  -1  -3    8.79    0.86
  -7  -1   3    8.18    0.91
   7  -1  -3    9.71    0.90
   7  -1  -3    9.63    0.79
  -7   1   3    8.64    0.93
   7   1  -3    8.85    0.87
   7   1  -3    8.21    1.10
  -7   1   3    8.76    0.92
   7   1  -3    9.06    1.02
   6  -1  -3    6.79    0.68
  -6  -1   3    7.99    0.95
   6  -1  -3    6.88    0.61
  -6  -1   3    7.13    0.79
   6  -1  -3    5.82    0.66
  -6  -1   3    7.20    0.72
   6  -1  -3    7.91    0.71
  -6   1   3    5.63    0.67
   6   1  -3    7.06    0.65
  -6   1   3    7.50    0.66
  -6   1   3    7.25    0.71
   6   1  -3    7.79    0.83
   6   1  -3    7.62    0.71
   6   1  -3    8.07    0.71
  -5  -1   3   62.42    1.98
   5  -1  -3   57.94    1.92
   5  -1  -3   53.49    1.92
  -5  -1   3   61.42    2.06
   5  -1  -3   62.36    1.92
   5  -1  -3   63.52    2.06
  -5  -1   3   62.16    1.94
   5  -1  -3   62.91    1.97
   5   1  -3   61.99    2.04
   5   1  -3   55.12    1.95
   5   1  -3   61.77    1.98
  -5   1   3   63.98    2.08
  -5   1   3   61.72    1.93
   5   1  -3   62.19    1.97
  -5   1   3   60.88    1.89
   5   1  -3   63.13    2.02
  -4  -1   3    4.90    0.49
  -4  -1   3    5.40    0.50
  -4  -1   3    5.20    0.43
   4  -1  -3    4.20    0.44
   4  -1  -3    4.93    0.24
  -4  -1   3    5.40    0.50
  -4  -1   3    4.44    0.47
   4  -1  -3    4.65    0.42
   4  -1  -3    5.18    0.48
  -4  -1   3    4.49    0.39
   4  -1  -3    3.96    0.43
   4  -1  -3    4.84    0.39
  -4   1   3    5.25    0.49
   4   1  -3    4.46    0.27
   4   1  -3    4.94    0.45
   4   1  -3    4.52    0.44
   4   1  -3    4.92    0.53
   4   1  -3    4.72    0.45
  -4   1   3    4.44    0.44
   4   1  -3    5.23    0.38
  -4   1   3    4.78    0.24
  -4   1   3    5.20    0.30
   4   1  -3    4.46    0.50
   3  -1  -3    6.49    0.39
  -3  -1   3    7.89    0.44
   3  -1  -3    7.67    0.46
   3  -1  -3    7.46    0.33
  -3  -1   3    8.01    0.43
  -3  -1   3    7.52    0.41
  -3  -1   3    8.19    0.38
  -3  -1   3    7.75    0.48
  -3  -1   3    8.44    0.35
  -3  -1   3    8.50    0.51
   3  -1  -3    8.27    0.41
   3  -1  -3    7.88    0.37
   3   1  -3    7.21    0.38
   3   1  -3    7.84    0.46
  -3   1   3    8.50    0.38
   3   1  -3    8.70    0.48
   3   1  -3    7.92    0.49
  -3   1   3    7.68    0.41
  -3   1   3    7.77    0.34
   3   1  -3    7.36    0.44
   3   1  -3    7.93    0.43
   3   1  -3    8.23    0.35
  -3   1   3    7.67    0.34
  -3   1   3    7.66    0.52
  -3   1   3    7.80    0.37
  -3   1   3    8.06    0.44
  -2  -1   3   14.60    0.53
   2  -1  -3   15.05    0.58
  -2  -1   3   15.32    0.60
  -2  -1   3   15.34    0.52
   2  -1  -3   14.33    0.59
   2  -1  -3   15.11    0.46
  -2  -1   3   14.89    0.56
   2  -1  -3   14.92    0.53
  -2  -1   3   15.15    0.58
  -2   1   3   15.62    0.59
   2   1  -3   15.47    0.60
  -2   1   3   15.38    0.53
   2   1  -3   15.01    0.53
  -2   1   3   15.53    0.62
   2   1  -3   15.47    0.59
   2   1  -3   16.33    0.61
  -2   1   3   15.20    0.52
  -2   1   3   14.95    0.56
  -2   1   3   16.57    0.47
   2   1  -3   14.73    0.53
  -2   1   3   15.21    0.56
   1  -1  -3   82.57    2.31
   1  -1  -3   84.78    2.33
   1  -1  -3   84.15    2.33
  -1  -1   3   84.89    2.31
  -1  -1   3   81.99    2.36
   1  -1  -3   85.24    2.33
  -1  -1   3   84.83    2.34
  -1  -1   3   82.22    2.31
  -1  -1   3   82.94    2.32
  -1  -1   3   87.11    2.35
  -1  -1   3   85.21    2.29
   1   1  -3   83.01    2.33
   1   1  -3   83.18    2.32
   1   1  -3   86.82    2.35
  -1   1   3   82.51    2.36
   1   1  -3   83.19    2.32
  -1   1   3   87.40    2.32
  -1   1   3   85.29    2.34
   1   1  -3   85.25    2.37
   1   1  -3   84.28    2.28
  -1   1   3   88.69    2.32
   0  -1   3   23.54    0.77
   0  -1  -3   24.71    0.78
   0  -1  -3   24.41    0.73
   0  -1  -3   23.57    0.77
   0  -1  -3   23.80    0.78
   0  -1   3   24.26    0.80
   0  -1   3   24.74    0.71
   0  -1  -3   24.16    0.76
   0  -1   3   24.20    0.78
   0  -1   3   24.25    0.76
   0  -1  -3   24.05    0.74
   0   1  -3   24.45    0.71
   0   1   3   23.74    0.78
   0   1   3   25.28    0.72
   0   1   3   23.64    0.74
   0   1  -3   24.62    0.77
   0   1  -3   24.40    0.75
   0   1  -3   25.22    0.76
   0   1  -3   24.13    0.80
   0   1   3   23.74    0.75
   0   1   3   24.68    0.77
   0   1  -3   24.39    0.79
   0   1  -3   24.82    0.79
  -1  -1  -3    7.87    0.40
   1  -1   3    7.75    0.39
  -1  -1  -3    7.69    0.39
   1  -1   3    6.86    0.36
  -1  -1  -3    7.14    0.37
  -1  -1  -3    7.16    0.36
   1  -1   3    7.60    0.38
   1  -1   3    7.19    0.37
  -1  -1  -3    7.39    0.33
   1  -1   3    7.39    0.36
  -1  -1  -3    7.49    0.40
  -1   1  -3    6.79    0.34
   1   1   3    7.62    0.41
   1   1   3    7.54    0.38
   1   1   3    7.60    0.34
  -1   1  -3    7.83    0.39
   1   1   3    7.23    0.34
  -1   1  -3    7.51    0.38
  -1   1  -3    7.25    0.36
   1   1   3    7.10    0.32
   1   1   3    7.46    0.39
  -1   1  -3    7.72    0.36
  -1   1  -3    7.14    0.35
   2  -1   3    1.92    0.23
  -2  -1  -3    2.58    0.23
  -2  -1  -3    2.34    0.25
  -2  -1  -3    2.43    0.29
  -2  -1  -3    2.21    0.23
  -2  -1  -3    2.49    0.32
  -2  -1  -3    2.15    0.24
   2  -1   3    2.54    0.30
   2  -1   3    2.36    0.23
   2  -1   3    2.47    0.31
   2  -1   3    2.56    0.25
   2  -1   3    2.39    0.32
  -2  -1  -3    2.37    0.30
   2  -1   3    2.12    0.14
  -2   1  -3    2.30    0.23
  -2   1  -3    2.39    0.24
   2   1   3    2.70    0.31
   2   1   3    2.20    0.30
   2   1   3    2.23    0.25
  -2   1  -3    1.96    0.27
  -2   1  -3    2.35    0.14
  -2   1  -3    2.32    0.26
  -2   1  -3    2.04    0.25
   2   1   3    1.92    0.23
   2   1   3    2.50    0.24
   2   1   3    2.73    0.33
  -2   1  -3    2.38    0.25
   3  -1   3    1.06    0.23
   3  -1   3    1.61    0.29
  -3  -1  -3    1.31    0.19
   3  -1   3    1.27    0.18
  -3  -1  -3    1.20    0.19
  -3  -1  -3    1.22    0.27
  -3  -1  -3    1.31    0.27
  -3  -1  -3    1.34    0.30
  -3  -1  -3    1.46    0.22
   3  -1   3    1.19    0.16
   3  -1   3    1.17    0.28
  -3  -1  -3    1.46    0.28
   3   1   3    1.25    0.24
  -3   1  -3    1.17    0.17
  -3   1  -3    1.42    0.16
   3   1   3    1.61    0.22
  -3   1  -3    0.98    0.28
  -3   1  -3    1.16    0.24
  -3   1  -3    1.40    0.23
   3   1   3    1.21    0.21
   3   1   3    1.81    0.29
   3   1   3    1.65    0.20
   3   1   3    1.33    0.27
  -3   1  -3    1.49    0.20
  -4  -1  -3    3.36    0.43
  -4  -1  -3    2.40    0.38
  -4  -1  -3    2.90    0.34
   4  -1   3    2.81    0.32
   4  -1   3    3.21    0.41
   4  -1   3    3.05    0.34
  -4  -1  -3    2.83    0.38
   4  -1   3    3.48    0.44
  -4  -1  -3    3.58    0.47
  -4  -1  -3    3.47    0.57
   4  -1   3    3.28    0.33
  -4  -1  -3    3.98    0.56
  -4   1  -3    3.35    0.35
  -4   1  -3    3.72    0.33
   4   1   3    2.94    0.43
   4   1   3    2.96    0.40
   4   1   3    3.02    0.37
   4   1   3    2.87    0.36
   4   1   3    3.01    0.41
  -4   1  -3    2.55    0.38
  -4   1  -3    3.63    0.45
  -4   1  -3    2.55    0.39
  -5  -1  -3    1.63    0.43
   5  -1   3    1.10    0.25
   5  -1   3    1.15    0.35
   5  -1   3    1.31    0.48
  -5  -1  -3    1.06    0.39
   5  -1   3    1.12    0.33
  -5  -1  -3    1.31    0.23
  -5  -1  -3    0.96    0.38
  -5  -1  -3    1.95    0.50
  -5   1  -3    1.35    0.43
  -5   1  -3    1.41    0.35
  -5   1  -3    1.12    0.39
  -5   1  -3    1.41    0.21
   5   1   3    1.57    0.40
   5   1   3    1.06    0.65
   5   1   3    1.53    0.36
   5   1   3    1.28    0.28
  -6  -1  -3    1.10    0.60
   6  -1   3    0.68    0.40
   6  -1   3    0.62    0.38
   6  -1   3    0.90    0.80
  -6  -1  -3    0.80    0.43
   6  -1   3    0.62    0.32
  -6  -1  -3    0.61    0.44
   6   1   3    0.57    0.34
  -6   1  -3    0.01    0.42
   6   1   3    1.04    0.42
  -6   1  -3    1.31    0.52
   6   1   3    0.91    0.40
  -7  -1  -3   -0.72    0.54
   7  -1   3    0.41    0.48
  -7  -1  -3    0.64    0.56
   7  -1   3    0.54    0.45
   7  -1   3    0.10    0.43
   7   1   3   -0.16    0.50
   7   1   3    0.12    0.52
   7   1   3   -0.50    0.45
  -7   1  -3    0.52    0.56
  -7   1  -3   -1.07    0.57
   8  -1   3    0.70    0.76
  -8  -1  -3    0.43    0.74
  -8  -1  -3   -0.16    0.87
   8  -1   3    1.27    0.67
   8   1   3   -0.28    0.77
   8   1   3    1.61    0.80
  -8   1  -3    0.62    0.82
  -8   1  -3    1.18    0.89
  -8  -2   3    0.00    0.73
   8  -2  -3   -0.18    0.65
  -8  -2   3   -1.17    0.71
   8   2  -3    0.42    0.61
   8   2  -3    0.27    0.65
  -8   2   3   -1.14    0.90
  -8   2   3   -1.46    0.61
   8   2  -3   -0.34    0.66
   7  -2  -3    4.66    0.54
  -7  -2   3    5.62    0.78
  -7  -2   3    5.25    0.68
   7  -2  -3    5.76    0.66
   7   2  -3    4.88    0.72
  -7   2   3    5.24    0.63
  -7   2   3    4.58    0.70
   7   2  -3    4.40    0.67
   7   2  -3    3.54    0.58
   6  -2  -3    0.41    0.27
   6  -2  -3    0.47    0.51
  -6  -2   3    0.32    0.36
  -6  -2   3    0.71    0.56
   6  -2  -3    1.02    0.37
  -6  -2   3    0.86    0.42
  -6   2   3    0.47    0.51
  -6   2   3   -0.21    0.38
  -6   2   3    0.56    0.36
   6   2  -3    0.44    0.41
   6   2  -3    0.32    0.36
   6   2  -3   -0.02    0.71
   6   2  -3    0.19    0.36
   5  -2  -3    0.08    0.32
  -5  -2   3    0.07    0.32
  -5  -2   3   -0.17    0.28
   5  -2  -3   -0.11    0.24
   5  -2  -3   -0.05    0.21
  -5  -2   3   -0.02    0.39
   5   2  -3    0.14    0.28
   5   2  -3    0.05    0.49
  -5   2   3    0.05    0.34
   5   2  -3   -0.17    0.29
   5   2  -3   -0.98    0.44
   5   2  -3   -0.04    0.25
   5   2  -3    0.01    0.13
  -5   2   3    0.06    0.27
   5   2  -3   -0.08    0.14
  -4  -2   3   58.72    1.88
  -4  -2   3   59.84    1.86
  -4  -2   3   57.67    1.81
  -4  -2   3   61.80    1.84
  -4  -2   3   59.55    1.93
   4  -2  -3   60.87    1.79
   4  -2  -3   60.48    1.64
   4  -2  -3   62.17    1.87
  -4  -2   3   60.74    1.88
   4   2  -3   61.88    1.88
  -4   2   3   59.66    1.93
   4   2  -3   56.08    1.86
   4   2  -3   63.44    1.98
   4   2  -3   61.52    1.88
   4   2  -3   59.45    1.85
   4   2  -3   55.84    1.84
  -4   2   3   56.31    1.71
  -4   2   3   56.64    1.86
   4   2  -3   60.46    1.68
  -4   2   3   58.27    1.64
  -3  -2   3    1.96    0.31
  -3  -2   3    1.83    0.32
  -3  -2   3    2.39    0.23
  -3  -2   3    2.06    0.25
  -3  -2   3    2.33    0.24
  -3  -2   3    1.91    0.28
   3  -2  -3    2.34    0.24
   3  -2  -3    1.61    0.25
   3  -2  -3    2.07    0.26
   3  -2  -3    2.31    0.29
  -3  -2   3    2.51    0.32
   3   2  -3    1.78    0.27
  -3   2   3    2.16    0.27
  -3   2   3    2.07    0.22
  -3   2   3    2.02    0.24
  -3   2   3    2.69    0.24
   3   2  -3    1.57    0.24
  -3   2   3    1.55    0.28
   3   2  -3    2.61    0.26
   3   2  -3    2.02    0.23
  -3   2   3    1.83    0.17
  -3   2   3    2.25    0.25
   3   2  -3    2.41    0.33
   2  -2  -3   42.02    1.25
  -2  -2   3   41.82    1.28
  -2  -2   3   43.31    1.33
  -2  -2   3   41.75    1.29
  -2  -2   3   43.78    1.37
   2  -2  -3   41.91    1.25
   2  -2  -3   42.89    1.33
   2  -2  -3   44.93    1.26
   2  -2  -3   42.84    1.31
  -2  -2   3   46.15    1.27
  -2  -2   3   44.82    1.33
  -2  -2   3   44.23    1.26
   2   2  -3   42.04    1.33
   2   2  -3   41.65    1.28
   2   2  -3   43.83    1.34
  -2   2   3   42.44    1.22
  -2   2   3   40.73    1.33
  -2   2   3   44.95    1.19
   2   2  -3   42.54    1.32
  -2   2   3   41.54    1.18
  -2   2   3   45.06    1.24
   2   2  -3   40.86    1.31
  -2   2   3   42.70    1.30
   2   2  -3   43.75    1.27
  -2   2   3   43.80    1.34
  -1  -2   3   14.00    0.55
   1  -2  -3   14.23    0.51
   1  -2  -3   14.44    0.55
   1  -2  -3   14.10    0.42
   1  -2  -3   14.52    0.50
  -1  -2   3   14.36    0.47
   1  -2  -3   13.46    0.52
  -1  -2   3   13.97    0.58
  -1  -2   3   14.36    0.51
  -1  -2   3   13.78    0.52
  -1  -2   3   13.24    0.54
   1  -2  -3   14.15    0.50
   1   2  -3   14.66    0.56
   1   2  -3   13.70    0.53
  -1   2   3   13.65    0.47
   1   2  -3   14.31    0.56
  -1   2   3   14.60    0.50
  -1   2   3   14.64    0.59
   1   2  -3   13.76    0.53
  -1   2   3   14.12    0.52
   1   2  -3   13.52    0.51
  -1   2   3   13.33    0.50
  -1   2   3   14.25    0.51
  -1   2   3   13.92    0.42
   1   2  -3   14.02    0.51
   0  -2  -3   -0.11    0.12
   0  -2   3    0.03    0.17
   0  -2   3   -0.02    0.09
   0  -2   3    0.00    0.14
   0  -2  -3   -0.02    0.12
   0  -2   3    0.14    0.11
   0  -2  -3    0.06    0.11
   0  -2   3    0.08    0.10
   0  -2   3    0.04    0.15
   0  -2  -3   -0.10    0.14
   0  -2  -3    0.01    0.10
   0   2  -3    0.04    0.13
   0   2   3    0.05    0.10
   0   2  -3   -0.03    0.15
   0   2  -3   -0.13    0.13
   0   2  -3    0.00    0.09
   0   2  -3    0.07    0.15
   0   2   3   -0.09    0.14
   0   2   3   -0.01    0.11
   0   2  -3    0.04    0.10
   0   2   3   -0.06    0.09
   0   2   3    0.01    0.14
   0   2   3   -0.19    0.11
   0   2   3   -0.02    0.11
   1  -2   3   -0.03    0.13
  -1  -2  -3   -0.17    0.13
  -1  -2  -3    0.11    0.13
   1  -2   3   -0.14    0.15
  -1  -2  -3   -0.03    0.10
   1  -2   3   -0.10    0.09
  -1  -2  -3    0.42    0.18
   1  -2   3    0.29    0.13
  -1  -2  -3    0.15    0.17
  -1  -2  -3   -0.05    0.12
  -1   2  -3    0.12    0.14
   1   2   3    0.15    0.12
  -1   2  -3    0.08    0.12
   1   2   3   -0.09    0.11
  -1   2  -3    0.14    0.13
  -1   2  -3    0.07    0.09
   1   2   3    0.10    0.10
   1   2   3    0.22    0.14
  -1   2  -3    0.08    0.14
   1   2   3    0.11    0.15
   1   2   3    0.03    0.15
   1   2   3    0.00    0.17
  -2  -2  -3   92.96    2.52
  -2  -2  -3   93.14    2.61
   2  -2   3   90.39    2.53
   2  -2   3   93.02    2.57
  -2  -2  -3   92.90    2.54
  -2  -2  -3   89.46    2.61
  -2  -2  -3   85.07    2.55
   2  -2   3   91.07    2.62
   2  -2   3   92.08    2.64
  -2  -2  -3   92.62    2.63
  -2   2  -3   90.09    2.54
  -2   2  -3   89.51    2.53
  -2   2  -3   90.08    2.61
   2   2   3   92.34    2.54
   2   2   3   91.78    2.61
  -2   2  -3   94.28    2.55
  -2   2  -3   92.35    2.61
   2   2   3   91.80    2.64
   2   2   3   93.23    2.63
  -2   2  -3   97.74    2.65
   2   2   3   88.67    2.54
   2   2   3   91.60    2.60
  -3  -2  -3    1.58    0.25
   3  -2   3    1.81    0.33
  -3  -2  -3    2.26    0.37
  -3  -2  -3    1.65    0.30
  -3  -2  -3    1.39    0.32
  -3  -2  -3    1.74    0.23
  -3  -2  -3    1.45    0.30
  -3  -2  -3    1.91    0.28
   3  -2   3    2.08    0.27
   3  -2   3    1.66    0.29
   3  -2   3    1.71    0.21
   3  -2   3    1.71    0.27
   3  -2   3    1.72    0.18
   3   2   3    1.96    0.24
  -3   2  -3    1.99    0.26
   3   2   3    1.30    0.28
   3   2   3    2.08    0.34
  -3   2  -3    1.91    0.19
  -3   2  -3    2.01    0.23
   3   2   3    1.38    0.23
  -3   2  -3    1.88    0.27
  -3   2  -3    1.76    0.25
   3   2   3    1.64    0.21
   3   2   3    2.26    0.33
  -3   2  -3    1.62    0.16
  -3   2  -3    1.58    0.30
  -4  -2  -3    0.71    0.39
  -4  -2  -3    0.05    0.40
  -4  -2  -3    0.10    0.29
  -4  -2  -3    0.74    0.37
   4  -2   3    0.19    0.30
   4  -2   3    0.57    0.19
   4  -2   3    0.35    0.23
  -4  -2  -3    0.15    0.25
   4  -2   3    0.28    0.17
   4  -2   3    0.64    0.27
  -4  -2  -3    0.44    0.34
   4   2   3    0.73    0.38
   4   2   3    0.41    0.29
  -4   2  -3    0.26    0.28
  -4   2  -3    0.42    0.20
   4   2   3    0.17    0.29
   4   2   3    0.04    0.22
   4   2   3    0.40    0.24
  -4   2  -3    0.25    0.28
  -5  -2  -3    6.68    0.63
  -5  -2  -3    6.44    0.46
   5  -2   3    6.41    0.78
  -5  -2  -3    7.92    0.79
   5  -2   3    7.47    0.60
   5  -2   3    7.03    0.49
  -5  -2  -3    6.96    0.73
  -5  -2  -3    6.43    0.78
   5  -2   3    7.37    0.69
  -5   2  -3    7.36    0.41
   5   2   3    7.31    0.79
  -5   2  -3    7.16    0.73
   5   2   3    6.99    0.56
   5   2   3    7.18    0.52
  -5   2  -3    6.89    0.69
   5   2   3    7.83    0.70
  -5   2  -3    6.76    0.55
   5   2   3    6.43    0.68
   6  -2   3    0.13    0.32
  -6  -2  -3    0.67    0.44
  -6  -2  -3    0.25    0.64
   6  -2   3    0.36    0.29
  -6  -2  -3    0.54    0.46
   6  -2   3    0.27    0.64
   6  -2   3    1.05    0.42
   6   2   3    0.62    0.44
  -6   2  -3    0.60    0.49
   6   2   3    0.82    0.36
   6   2   3    1.30    0.53
  -6   2  -3    0.74    0.43
   7  -2   3    1.39    0.59
  -7  -2  -3    0.33    0.93
   7  -2   3    1.48    0.49
  -7  -2  -3    1.21    0.56
   7   2   3    1.91    0.53
  -7   2  -3    0.62    0.59
   7   2   3    0.82    0.61
   7   2   3    0.68    0.57
  -7   2  -3    1.34    0.61
   8  -2   3    3.93    0.69
  -8  -2  -3    3.59    1.04
  -8  -2  -3    1.70    0.79
   8  -2   3    3.84    0.93
   8   2   3    1.78    0.89
  -8   2  -3    0.22    0.91
   8   2   3    2.36    0.90
  -8   2  -3    3.60    0.91
   8  -3  -3   -0.56    0.70
   8  -3  -3   -0.22    0.47
  -8  -3   3    0.37    0.77
  -8  -3   3   -1.36    0.72
   8   3  -3   -0.39    0.68
  -8   3   3   -0.66    0.76
   8   3  -3    0.53    0.69
   8   3  -3    0.98    0.70
  -7  -3   3    0.04    0.55
  -7  -3   3    1.72    0.56
   7  -3  -3    1.32    0.54
  -7   3   3    0.86    0.53
  -7   3   3    0.91    0.53
   7   3  -3    0.55    0.56
   7   3  -3    0.45    0.53
   7   3  -3    1.17    0.49
   6  -3  -3   33.54    1.34
  -6  -3   3   33.33    1.45
  -6  -3   3   34.87    1.40
  -6  -3   3   32.41    1.50
   6  -3  -3   32.38    1.37
   6   3  -3   33.95    1.43
  -6   3   3   33.26    1.43
   6   3  -3   29.67    1.75
  -6   3   3   31.59    1.27
   6   3  -3   32.39    1.36
  -6   3   3   31.38    1.27
   6   3  -3   33.65    1.36
  -5  -3   3    0.29    0.41
  -5  -3   3    0.26    0.35
   5  -3  -3    0.69    0.33
  -5  -3   3    0.28    0.47
   5  -3  -3    0.56    0.29
  -5  -3   3    0.24    0.34
   5   3  -3    0.41    0.29
   5   3  -3    0.52    0.21
  -5   3   3    0.65    0.15
  -5   3   3    0.80    0.14
   5   3  -3    0.60    0.30
  -5   3   3    0.60    0.37
  -5   3   3    0.43    0.29
  -5   3   3    0.44    0.29
   5   3  -3    0.14    0.36
   5   3  -3    0.85    0.37
   5   3  -3    0.85    0.56
  -4  -3   3   94.93    2.86
  -4  -3   3   96.13    2.81
  -4  -3   3   99.39    2.85
   4  -3  -3   98.49    2.70
  -4  -3   3   91.34    2.78
   4  -3  -3  100.88    2.83
  -4  -3   3   94.09    2.88
   4  -3  -3  101.42    2.71
   4  -3  -3   95.34    2.62
   4   3  -3   94.58    2.84
   4   3  -3   96.13    2.84
  -4   3   3   98.07    2.90
   4   3  -3   98.05    2.78
  -4   3   3   98.94    2.65
  -4   3   3   89.14    2.78
   4   3  -3   98.33    2.87
  -4   3   3   90.49    2.77
   4   3  -3   98.90    2.85
   4   3  -3   95.10    2.66
   4   3  -3   90.05    2.84
   4   3  -3   97.01    2.66
  -3  -3   3    0.13    0.19
  -3  -3   3    0.27    0.25
  -3  -3   3   -0.05    0.27
   3  -3  -3    0.15    0.15
  -3  -3   3   -0.06    0.17
   3  -3  -3    0.14    0.15
  -3  -3   3    0.17    0.25
  -3  -3   3    0.01    0.15
   3  -3  -3    0.14    0.13
   3  -3  -3    0.18    0.21
   3   3  -3   -0.01    0.26
  -3   3   3    0.10    0.22
   3   3  -3    0.00    0.18
   3   3  -3    0.17    0.18
  -3   3   3   -0.01    0.18
   3   3  -3    0.02    0.22
  -3   3   3    0.15    0.16
  -3   3   3    0.26    0.13
   3   3  -3    0.33    0.21
  -3   3   3    0.12    0.08
  -3   3   3    0.18    0.16
   3   3  -3   -0.13    0.16
  -3   3   3   -0.05    0.14
   3   3  -3   -0.01    0.24
  -3   3   3    0.44    0.15
  -2  -3   3   44.88    1.27
   2  -3  -3   42.72    1.38
  -2  -3   3   44.61    1.33
  -2  -3   3   43.98    1.37
  -2  -3   3   44.10    1.42
  -2  -3   3   45.96    1.35
   2  -3  -3   46.05    1.33
   2  -3  -3   42.90    1.27
   2  -3  -3   44.42    1.27
  -2  -3   3   44.66    1.38
  -2   3   3   43.86    1.35
  -2   3   3   44.75    1.39
   2   3  -3   43.10    1.38
  -2   3   3   43.32    1.32
  -2   3   3   44.49    1.25
  -2   3   3   47.11    1.25
   2   3  -3   45.57    1.38
   2   3  -3   44.69    1.38
   2   3  -3   44.65    1.39
  -2   3   3   44.17    1.24
   2   3  -3   44.48    1.36
  -2   3   3   43.66    1.25
  -1  -3   3   17.96    0.64
  -1  -3   3   18.49    0.55
   1  -3  -3   19.11    0.61
  -1  -3   3   18.56    0.64
   1  -3  -3   19.92    0.71
  -1  -3   3   18.96    0.55
  -1  -3   3   17.98    0.68
  -1  -3   3   18.60    0.67
   1  -3  -3   18.65    0.59
  -1  -3   3   19.09    0.67
   1  -3  -3   17.82    0.77
   1  -3  -3   18.03    0.66
  -1   3   3   18.64    0.59
  -1   3   3   19.05    0.60
   1   3  -3   18.72    0.65
   1   3  -3   18.57    0.68
  -1   3   3   18.44    0.66
  -1   3   3   18.48    0.62
  -1   3   3   19.00    0.58
  -1   3   3   18.81    0.65
   1   3  -3   19.33    0.66
   1   3  -3   18.15    0.66
   1   3  -3   18.33    0.68
   0  -3  -3    8.81    0.42
   0  -3   3    8.34    0.41
   0  -3  -3    7.96    0.38
   0  -3   3    8.21    0.32
   0  -3  -3    7.34    0.41
   0  -3   3    9.04    0.35
   0  -3   3    8.78    0.40
   0  -3   3    8.97    0.39
   0   3  -3    8.08    0.35
   0   3   3    8.66    0.40
   0   3   3    8.88    0.35
   0   3   3    8.21    0.43
   0   3  -3    9.11    0.43
   0   3  -3    8.91    0.35
   0   3  -3    9.04    0.33
   0   3   3    8.61    0.39
   0   3  -3    8.71    0.39
   0   3   3    8.95    0.29
   0   3   3    8.62    0.39
   0   3   3    8.33    0.39
   0   3  -3    8.63    0.41
  -1  -3  -3    0.97    0.21
  -1  -3  -3    0.77    0.10
   1  -3   3    0.98    0.14
  -1  -3  -3    0.71    0.17
  -1  -3  -3    0.68    0.17
   1  -3   3    0.88    0.16
   1  -3   3    0.82    0.24
  -1  -3  -3    0.80    0.08
  -1  -3  -3    0.72    0.21
  -1  -3  -3    0.80    0.21
   1  -3   3    0.59    0.18
   1  -3   3    0.81    0.16
  -1   3  -3    0.80    0.17
   1   3   3    0.61    0.13
   1   3   3    1.16    0.22
   1   3   3    0.72    0.16
  -1   3  -3    0.66    0.14
  -1   3  -3    0.93    0.12
   1   3   3    1.07    0.18
  -1   3  -3    1.20    0.12
  -1   3  -3    0.86    0.17
  -2  -3  -3   11.70    0.50
  -2  -3  -3   11.28    0.43
  -2  -3  -3   11.30    0.44
  -2  -3  -3   10.83    0.53
   2  -3   3   11.67    0.55
  -2  -3  -3   11.91    0.59
   2  -3   3   12.33    0.50
   2  -3   3   11.16    0.49
  -2  -3  -3   11.16    0.60
  -2  -3  -3   11.40    0.52
  -2  -3  -3   11.11    0.57
   2  -3   3   11.19    0.50
   2   3   3   11.66    0.58
  -2   3  -3   10.83    0.50
   2   3   3   11.53    0.53
   2   3   3   11.15    0.50
  -2   3  -3   11.40    0.43
   2   3   3   11.09    0.57
   2   3   3   11.83    0.51
  -2   3  -3   10.62    0.56
   2   3   3   11.26    0.56
  -2   3  -3   11.13    0.48
  -2   3  -3   11.07    0.52
  -2   3  -3   11.34    0.58
  -3  -3  -3    0.16    0.22
  -3  -3  -3   -0.02    0.19
   3  -3   3   -0.16    0.19
   3  -3   3    0.13    0.25
  -3  -3  -3    0.22    0.21
   3  -3   3    0.19    0.17
   3  -3   3    0.13    0.17
   3  -3   3    0.03    0.19
  -3  -3  -3   -0.04    0.16
  -3  -3  -3    0.30    0.24
  -3  -3  -3    0.01    0.25
  -3  -3  -3   -0.33    0.29
  -3   3  -3   -0.19    0.16
   3   3   3    0.00    0.22
   3   3   3    0.00    0.26
  -3   3  -3   -0.04    0.23
   3   3   3   -0.06    0.21
  -3   3  -3    0.12    0.15
   3   3   3    0.14    0.19
   3   3   3    0.06    0.32
  -3   3  -3    0.21    0.21
  -3   3  -3    0.27    0.25
  -3   3  -3    0.06    0.10
  -3   3  -3    0.02    0.19
   4  -3   3    0.65    0.34
   4  -3   3    0.51    0.31
   4  -3   3    0.48    0.22
  -4  -3  -3    0.27    0.21
   4  -3   3    0.47    0.17
  -4  -3  -3    0.35    0.43
  -4  -3  -3    0.61    0.33
  -4  -3  -3    0.40    0.37
  -4  -3  -3    0.26    0.26
  -4   3  -3    0.64    0.19
   4   3   3    0.60    0.28
   4   3   3    0.69    0.31
   4   3   3    0.56    0.34
  -4   3  -3    0.46    0.30
  -4   3  -3    0.42    0.29
  -4   3  -3    0.82    0.24
   4   3   3    0.83    0.29
   4   3   3    0.26    0.42
   5  -3   3    4.77    0.51
   5  -3   3    3.95    0.49
  -5  -3  -3    4.73    0.41
   5  -3   3    5.85    0.66
  -5  -3  -3    4.41    0.71
  -5  -3  -3    5.67    0.67
   5  -3   3    4.24    0.53
  -5  -3  -3    5.14    0.60
   5   3   3    5.15    0.78
  -5   3  -3    5.08    0.51
  -5   3  -3    5.36    0.51
  -5   3  -3    5.12    0.44
   5   3   3    4.70    0.64
   5   3   3    5.71    0.63
   5   3   3    4.66    0.52
  -5   3  -3    4.84    0.67
   5   3   3    5.02    0.60
   6  -3   3    2.40    0.66
  -6  -3  -3    3.15    0.70
   6  -3   3    3.48    0.57
  -6  -3  -3    2.96    0.54
   6  -3   3    3.47    0.37
   6   3   3    2.14    0.54
   6   3   3    2.88    0.55
   6   3   3    2.97    0.49
  -6   3  -3    3.13    0.63
  -6   3  -3    3.54    0.62
  -7  -3  -3    2.22    0.59
   7  -3   3    1.66    0.61
   7  -3   3    1.56    0.44
  -7  -3  -3    1.07    0.74
  -7   3  -3    1.21    0.65
   7   3   3    0.40    0.64
   7   3   3    1.64    0.57
  -8  -3  -3   -0.31    0.80
   8  -3   3    2.11    0.62
   8  -3   3    1.09    0.89
  -8  -3  -3    0.56    1.03
   8   3   3   -0.73    0.90
   8   3   3    0.90    0.90
  -8   3  -3   -1.31    0.92
  -8   3  -3    0.17    0.88
   8  -4  -3    2.76    0.76
  -8  -4   3    1.70    0.89
  -8  -4   3    2.65    0.84
   8  -4  -3    1.57    0.48
   8   4  -3    2.63    0.77
  -8   4   3    1.37    0.89
   8   4  -3    0.05    0.82
   7  -4  -3    0.28    0.32
  -7  -4   3   -0.76    0.57
   7   4  -3    0.09    0.54
   7   4  -3    0.30    0.59
  -7   4   3    0.10    0.54
   7   4  -3    0.65    0.47
  -7   4   3    1.50    0.59
   6  -4  -3    0.59    0.26
  -6  -4   3    0.65    0.41
   6  -4  -3    1.02    0.38
   6  -4  -3    0.26    0.37
  -6  -4   3    0.13    0.49
  -6  -4   3    0.34    0.45
   6   4  -3    0.36    0.38
   6   4  -3    1.31    0.40
  -6   4   3    0.74    0.43
   6   4  -3    0.58    0.26
   6   4  -3    0.00    0.44
  -6   4   3    0.43    0.47
   5  -4  -3    1.98    0.41
  -5  -4   3    1.93    0.44
  -5  -4   3    1.62    0.39
   5  -4  -3    2.83    0.35
  -5  -4   3    2.63    0.44
  -5  -4   3    2.21    0.54
   5  -4  -3    2.53    0.33
   5   4  -3    1.89    0.36
   5   4  -3    2.46    0.36
   5   4  -3    1.96    0.66
   5   4  -3    2.50    0.46
   5   4  -3    2.31    0.39
  -5   4   3    1.92    0.44
   5   4  -3    2.39    0.28
  -5   4   3    2.20    0.36
  -4  -4   3    0.80    0.34
   4  -4  -3    1.17    0.30
  -4  -4   3    1.30    0.36
   4  -4  -3    0.84    0.29
  -4  -4   3    1.00    0.31
  -4  -4   3    0.92    0.32
  -4  -4   3    0.61    0.43
   4  -4  -3    1.00    0.18
   4   4  -3    0.93    0.32
   4   4  -3    1.05    0.30
   4   4  -3    1.03    0.21
   4   4  -3    1.39    0.28
  -4   4   3    1.24    0.16
  -4   4   3    0.95    0.42
   4   4  -3    0.80    0.44
  -4   4   3    1.11    0.25
   4   4  -3    1.07    0.39
  -4   4   3    0.93    0.33
  -4   4   3    0.50    0.30
   4   4  -3    0.74    0.24
  -4   4   3    0.82    0.24
   4   4  -3    1.55    0.47
  -3  -4   3   11.12    0.51
   3  -4  -3   11.64    0.47
  -3  -4   3   11.86    0.62
   3  -4  -3   11.61    0.52
   3  -4  -3   11.66    0.45
  -3  -4   3   10.97    0.64
  -3  -4   3   11.56    0.71
  -3  -4   3   11.92    0.64
   3  -4  -3   12.13    0.60
  -3   4   3   12.37    0.53
  -3   4   3   12.40    0.64
  -3   4   3   11.54    0.55
   3   4  -3   12.06    0.54
  -3   4   3   12.00    0.36
  -3   4   3   10.68    0.51
   3   4  -3   11.84    0.65
   3   4  -3   11.36    0.61
   3   4  -3   12.19    0.69
   3   4  -3   11.46    0.65
  -3   4   3   13.07    0.59
   3   4  -3   12.02    0.65
  -3   4   3   12.36    0.36
  -2  -4   3    5.38    0.25
  -2  -4   3    5.43    0.45
   2  -4  -3    5.09    0.37
   2  -4  -3    5.57    0.30
  -2  -4   3    5.49    0.43
  -2  -4   3    5.84    0.43
  -2  -4   3    5.43    0.44
   2  -4  -3    5.06    0.28
   2  -4  -3    5.68    0.42
  -2  -4   3    4.91    0.34
   2   4  -3    5.99    0.45
   2   4  -3    5.78    0.39
  -2   4   3    5.63    0.35
  -2   4   3    4.78    0.36
   2   4  -3    5.07    0.40
  -2   4   3    5.67    0.22
   2   4  -3    6.10    0.42
   2   4  -3    5.20    0.39
  -2   4   3    5.60    0.33
  -2   4   3    5.53    0.20
   2   4  -3    6.06    0.38
  -2   4   3    5.90    0.34
  -2   4   3    5.40    0.45
   1  -4  -3    5.26    0.30
   1  -4  -3    4.96    0.28
   1  -4  -3    4.71    0.30
  -1  -4   3    4.79    0.42
  -1  -4   3    5.04    0.32
  -1  -4   3    4.99    0.37
  -1  -4   3    5.01    0.38
  -1  -4   3    4.98    0.39
   1  -4  -3    5.15    0.38
   1   4  -3    5.07    0.33
  -1   4   3    4.40    0.30
  -1   4   3    4.74    0.31
  -1   4   3    5.19    0.26
  -1   4   3    4.51    0.37
   1   4  -3    4.53    0.36
  -1   4   3    4.30    0.30
  -1   4   3    5.16    0.30
   1   4  -3    4.45    0.29
  -1   4   3    4.67    0.21
   1   4  -3    4.90    0.38
   1   4  -3    4.71    0.33
   0  -4   3   17.74    0.64
   0  -4  -3   16.56    0.61
   0  -4  -3   18.17    0.67
   0  -4   3   16.93    0.52
   0  -4   3   16.74    0.62
   0  -4  -3   16.84    0.67
   0  -4   3   17.02    0.68
   0  -4  -3   17.37    0.64
   0  -4  -3   17.03    0.63
   0  -4   3   17.17    0.71
   0  -4   3   15.76    0.62
   0   4  -3   17.65    0.65
   0   4   3   17.25    0.68
   0   4  -3   17.16    0.53
   0   4   3   17.35    0.48
   0   4   3   16.67    0.64
   0   4  -3   16.77    0.65
   0   4   3   16.64    0.61
   0   4   3   17.26    0.64
   0   4   3   16.80    0.48
   0   4  -3   17.15    0.68
   0   4   3   15.66    0.76
   0   4   3   16.82    0.57
   0   4  -3   17.59    0.59
   0   4   3   16.58    0.63
   0   4  -3   16.70    0.63
   0   4  -3   17.62    0.58
  -1  -4  -3    1.55    0.22
  -1  -4  -3    1.51    0.24
   1  -4   3    2.01    0.21
  -1  -4  -3    1.61    0.25
   1  -4   3    1.54    0.21
   1  -4   3    1.26    0.18
  -1  -4  -3    1.52    0.26
   1  -4   3    1.81    0.29
  -1  -4  -3    1.22    0.23
   1  -4   3    1.55    0.21
   1   4   3    1.53    0.24
  -1   4  -3    1.83    0.25
   1   4   3    1.58    0.24
  -1   4  -3    2.08    0.25
  -1   4  -3    1.44    0.18
   1   4   3    1.32    0.25
   1   4   3    1.06    0.22
  -1   4  -3    1.68    0.21
   1   4   3    1.61    0.18
   1   4   3    1.27    0.17
  -1   4  -3    1.64    0.19
   2  -4   3   40.06    1.21
   2  -4   3   40.10    1.29
  -2  -4  -3   39.76    1.32
  -2  -4  -3   40.46    1.34
  -2  -4  -3   40.11    1.12
  -2  -4  -3   40.24    1.29
   2  -4   3   39.86    1.37
   2  -4   3   39.79    1.23
  -2  -4  -3   39.12    1.34
  -2  -4  -3   39.13    1.12
  -2  -4  -3   40.27    1.31
  -2  -4  -3   38.12    1.26
  -2   4  -3   39.96    1.16
   2   4   3   41.51    1.30
   2   4   3   38.10    1.30
   2   4   3   40.45    1.33
   2   4   3   41.41    1.32
  -2   4  -3   39.23    1.30
  -2   4  -3   41.42    1.27
  -2   4  -3   40.44    1.10
   2   4   3   39.97    1.28
  -2   4  -3   40.02    1.29
   2   4   3   41.05    1.33
  -2   4  -3   41.02    1.11
  -2   4  -3   39.48    1.30
  -2   4  -3   39.13    1.19
  -2   4  -3   39.81    1.35
  -3  -4  -3   10.02    0.49
  -3  -4  -3    9.16    0.74
  -3  -4  -3   11.29    0.68
  -3  -4  -3   10.16    0.64
  -3  -4  -3    9.84    0.61
   3  -4   3   10.44    0.67
  -3  -4  -3    9.79    0.76
   3  -4   3    9.91    0.59
  -3  -4  -3   10.51    0.55
  -3  -4  -3   10.74    0.50
   3  -4   3   10.39    0.54
   3  -4   3   10.75    0.49
  -3   4  -3    9.96    0.65
  -3   4  -3    9.51    0.62
  -3   4  -3   12.00    0.67
   3   4   3    9.76    0.70
  -3   4  -3   10.81    0.51
   3   4   3   10.28    0.61
  -3   4  -3    8.85    0.40
   3   4   3    9.52    0.57
  -3   4  -3   10.80    0.38
   3   4   3   10.36    0.61
  -3   4  -3   10.04    0.37
   3   4   3   10.06    0.66
  -3   4  -3   10.63    0.50
   3   4   3   10.60    0.58
  -4  -4  -3   22.05    0.96
  -4  -4  -3   22.71    1.05
  -4  -4  -3   23.68    0.86
   4  -4   3   22.05    0.91
  -4  -4  -3   21.83    1.01
  -4  -4  -3   21.15    1.20
   4  -4   3   21.42    0.84
   4  -4   3   23.46    1.03
  -4  -4  -3   22.15    0.88
  -4   4  -3   22.16    0.73
  -4   4  -3   22.36    1.03
   4   4   3   22.41    1.17
   4   4   3   22.77    0.95
   4   4   3   22.16    1.02
  -4   4  -3   23.21    0.87
   4   4   3   22.54    0.97
   4   4   3   22.40    1.01
  -4   4  -3   22.46    0.83
  -5  -4  -3    0.59    0.26
   5  -4   3    0.31    0.25
   5  -4   3    0.58    0.36
  -5  -4  -3    0.55    0.36
   5  -4   3    0.23    0.40
  -5  -4  -3    0.51    0.42
  -5  -4  -3    0.31    0.35
  -5  -4  -3    0.55    0.60
  -5   4  -3    0.81    0.31
   5   4   3    1.09    0.41
   5   4   3    1.22    1.02
  -5   4  -3    0.57    0.43
  -5   4  -3    0.78    0.40
   5   4   3    0.19    0.37
   5   4   3   -0.06    0.33
  -5   4  -3    0.29    0.23
   5   4   3    0.07    0.43
  -5   4  -3    0.06    0.34
  -6  -4  -3    1.97    0.67
   6  -4   3    2.03    0.36
  -6  -4  -3    2.97    0.54
  -6  -4  -3    1.89    0.53
   6  -4   3    2.33    0.67
   6  -4   3    2.07    0.70
  -6   4  -3    2.43    0.53
   6   4   3    1.86    0.57
   6   4   3    2.93    0.60
   6   4   3    2.44    0.47
  -7  -4  -3    0.32    0.61
   7  -4   3    0.06    0.58
   7  -4   3    0.43    0.39
  -7  -4  -3   -0.38    0.69
   7   4   3    0.55    0.86
   7   4   3   -0.10    0.64
  -7   4  -3   -0.76    0.65
  -7   4  -3    0.33    0.68
   7   4   3    1.14    0.57
  -8  -5   3    1.21    0.85
   8  -5  -3    0.07    0.88
  -8  -5   3    1.34    0.93
   8  -5  -3    0.25    0.46
  -8   5   3    0.68    0.87
   8   5  -3    0.89    0.72
   7  -5  -3   -0.88    0.31
   7  -5  -3   -0.03    0.62
  -7  -5   3   -0.36    0.55
  -7  -5   3   -0.25    0.65
   7  -5  -3   -0.40    0.79
   7   5  -3   -0.43    0.54
   7   5  -3   -0.06    0.54
  -7   5   3   -0.59    0.55
   7   5  -3    0.04    0.69
  -7   5   3   -0.32    0.57
  -6  -5   3    0.34    0.43
   6  -5  -3   -0.03    0.36
  -6  -5   3   -0.21    0.51
  -6  -5   3    0.17    0.48
   6  -5  -3    0.52    0.44
   6   5  -3   -0.14    0.27
  -6   5   3    0.42    0.43
   6   5  -3   -0.24    0.48
   6   5  -3    0.28    0.38
  -6   5   3    0.30    0.50
  -5  -5   3   21.25    1.03
   5  -5  -3   21.66    0.81
  -5  -5   3   20.58    1.05
  -5  -5   3   20.75    1.06
   5  -5  -3   20.49    1.00
   5  -5  -3   21.01    0.76
  -5  -5   3   19.46    1.57
  -5   5   3   21.75    1.11
  -5   5   3   19.66    0.84
   5   5  -3   18.97    0.81
   5   5  -3   18.47    1.43
   5   5  -3   20.95    1.00
   5   5  -3   20.40    0.91
   5   5  -3   19.06    0.96
  -5   5   3   21.05    1.31
   5   5  -3   20.63    1.08
  -5   5   3   19.35    0.89
  -4  -5   3    3.33    0.43
   4  -5  -3    2.33    0.27
   4  -5  -3    3.04    0.30
   4  -5  -3    3.04    0.40
  -4  -5   3    3.08    0.45
  -4  -5   3    2.62    0.56
  -4  -5   3    3.09    0.39
  -4  -5   3    2.49    0.42
   4   5  -3    2.32    0.40
  -4   5   3    2.83    0.37
  -4   5   3    3.29    0.40
   4   5  -3    2.62    0.30
   4   5  -3    1.57    0.52
  -4   5   3    2.56    0.40
   4   5  -3    3.05    0.41
   4   5  -3    2.93    0.43
   4   5  -3    2.46    0.32
  -4   5   3    3.08    0.45
   3  -5  -3   50.54    1.39
   3  -5  -3   49.70    1.61
  -3  -5   3   50.47    1.63
  -3  -5   3   49.60    1.63
  -3  -5   3   51.51    1.44
   3  -5  -3   47.72    1.39
  -3  -5   3   49.63    1.66
  -3  -5   3   49.92    1.66
  -3  -5   3   50.99    1.63
   3  -5  -3   49.99    1.53
  -3   5   3   47.71    1.60
  -3   5   3   48.44    1.50
  -3   5   3   47.30    1.54
  -3   5   3   46.01    1.57
  -3   5   3   49.88    1.62
   3   5  -3   50.55    1.67
  -3   5   3   47.70    1.63
  -3   5   3   48.52    1.63
   3   5  -3   49.90    1.54
   3   5  -3   49.20    1.66
   3   5  -3   50.06    1.65
   3   5  -3   49.45    1.61
  -2  -5   3    0.08    0.22
   2  -5  -3    0.21    0.18
   2  -5  -3    0.32    0.11
  -2  -5   3    0.35    0.23
  -2  -5   3    0.22    0.25
   2  -5  -3    0.45    0.14
  -2  -5   3    0.58    0.21
  -2  -5   3    0.36    0.21
   2   5  -3    0.57    0.26
  -2   5   3    0.37    0.17
  -2   5   3    0.52    0.25
  -2   5   3    0.17    0.21
   2   5  -3    0.82    0.22
   2   5  -3    0.66    0.20
   2   5  -3    0.39    0.21
   2   5  -3    0.53    0.23
  -2   5   3    0.23    0.21
  -2   5   3    0.46    0.21
   2   5  -3    0.24    0.27
  -2   5   3    0.06    0.22
  -2   5   3    0.26    0.21
  -1  -5   3   28.05    1.00
   1  -5  -3   29.10    1.02
  -1  -5   3   28.87    1.04
  -1  -5   3   29.67    0.99
   1  -5  -3   29.94    0.96
  -1  -5   3   28.56    1.04
   1  -5  -3   28.74    0.88
  -1  -5   3   28.62    0.98
   1  -5  -3   29.95    0.90
   1   5  -3   29.51    0.99
   1   5  -3   28.56    0.98
  -1   5   3   28.43    0.97
  -1   5   3   29.45    0.83
  -1   5   3   28.20    0.95
  -1   5   3   28.78    0.85
  -1   5   3   29.13    0.91
  -1   5   3   27.49    0.97
  -1   5   3   29.57    0.91
   1   5  -3   27.76    0.98
   1   5  -3   28.57    1.00
   1   5  -3   29.32    0.95
   1   5  -3   29.93    1.03
  -1   5   3   29.61    1.04
   0  -5  -3    5.17    0.37
   0  -5  -3    5.00    0.33
   0  -5  -3    5.01    0.38
   0  -5   3    4.81    0.34
   0  -5  -3    4.40    0.40
   0  -5   3    4.88    0.43
   0  -5   3    4.17    0.39
   0  -5  -3    4.53    0.40
   0  -5   3    4.68    0.34
   0   5  -3    5.58    0.27
   0   5   3    4.82    0.31
   0   5  -3    5.37    0.39
   0   5  -3    4.87    0.34
   0   5  -3    4.98    0.32
   0   5   3    4.33    0.31
   0   5  -3    4.82    0.22
   0   5   3    4.22    0.32
   0   5   3    4.98    0.39
   0   5   3    5.30    0.40
   0   5  -3    5.45    0.38
   0   5   3    5.01    0.25
   0   5  -3    5.04    0.32
   0   5   3    5.09    0.39
   1  -5   3    1.36    0.20
   1  -5   3    1.01    0.26
   1  -5   3    1.31    0.22
  -1  -5  -3    1.67    0.28
  -1  -5  -3    1.01    0.25
   1  -5   3    1.22    0.19
  -1  -5  -3    1.22    0.27
  -1  -5  -3    0.78    0.20
   1   5   3    1.47    0.26
   1   5   3    1.55    0.26
  -1   5  -3    1.18    0.23
   1   5   3    1.22    0.25
  -1   5  -3    0.93    0.21
  -1   5  -3    1.38    0.19
  -1   5  -3    1.44    0.18
   1   5   3    1.29    0.16
   1   5   3    1.46    0.25
  -1   5  -3    1.31    0.13
   1   5   3    1.31    0.18
  -1   5  -3    1.32    0.19
   2  -5   3    0.96    0.22
  -2  -5  -3    0.98    0.33
   2  -5   3    0.69    0.28
  -2  -5  -3    0.96    0.26
  -2  -5  -3    0.90    0.25
  -2  -5  -3    1.01    0.30
   2  -5   3    0.72    0.17
   2  -5   3    0.90    0.20
  -2  -5  -3    0.95    0.32
   2   5   3    1.30    0.28
  -2   5  -3    0.63    0.21
   2   5   3    0.50    0.23
   2   5   3    0.80    0.26
  -2   5  -3    0.72    0.26
   2   5   3    0.73    0.26
   2   5   3    0.75    0.27
  -2   5  -3    1.02    0.15
  -2   5  -3    0.74    0.18
  -2   5  -3    0.51    0.37
  -2   5  -3    1.11    0.17
   2   5   3    0.58    0.26
  -2   5  -3    0.31    0.20
  -3  -5  -3   16.54    0.95
   3  -5   3   17.43    0.85
   3  -5   3   16.48    0.69
  -3  -5  -3   16.54    0.62
  -3  -5  -3   16.33    0.73
  -3  -5  -3   16.50    0.61
  -3  -5  -3   17.14    0.84
   3  -5   3   16.24    0.79
  -3  -5  -3   15.96    1.00
   3  -5   3   16.06    0.64
  -3  -5  -3   16.38    0.85
  -3   5  -3   17.39    0.72
   3   5   3   16.97    0.82
  -3   5  -3   16.09    0.56
  -3   5  -3   17.32    0.62
   3   5   3   17.07    0.88
  -3   5  -3   16.96    0.56
  -3   5  -3   15.52    0.82
   3   5   3   16.10    0.76
   3   5   3   16.83    0.79
   3   5   3   14.22    1.06
  -4  -5  -3   -0.36    0.58
   4  -5   3    0.41    0.42
   4  -5   3   -0.09    0.17
  -4  -5  -3    0.29    0.36
  -4  -5  -3    0.51    0.26
  -4  -5  -3    0.24    0.32
   4  -5   3    0.15    0.34
  -4  -5  -3    0.51    0.34
  -4  -5  -3    0.44    0.24
  -4   5  -3    0.23    0.32
  -4   5  -3    0.61    0.23
   4   5   3    0.06    0.52
   4   5   3    1.06    0.84
   4   5   3    0.39    0.30
  -4   5  -3    0.32    0.25
  -4   5  -3    0.39    0.21
   4   5   3    0.60    0.30
   4   5   3    0.57    0.37
  -5  -5  -3    0.17    0.44
  -5  -5  -3   -0.21    0.38
   5  -5   3    0.34    0.35
   5  -5   3   -0.04    0.38
   5  -5   3    0.06    0.23
  -5  -5  -3    0.31    0.38
   5   5   3   -0.07    0.63
   5   5   3    0.23    0.33
  -5   5  -3    0.20    0.44
  -5   5  -3    0.17    0.30
  -5   5  -3    0.60    0.24
   5   5   3   -0.04    0.37
  -5   5  -3    0.28    0.40
   5   5   3   -0.19    0.44
  -6  -5  -3    0.21    0.50
   6  -5   3   -0.11    0.47
   6  -5   3    0.44    0.28
  -6  -5  -3    0.53    0.48
  -6  -5  -3    0.85    0.64
   6  -5   3    0.50    0.49
   6   5   3   -0.52    0.62
  -6   5  -3   -0.67    0.53
   6   5   3    0.20    0.55
   6   5   3   -0.09    0.42
   7  -5   3    0.01    0.35
  -7  -5  -3    0.75    0.68
   7  -5   3   -0.49    0.65
  -7  -5  -3   -0.15    0.71
  -7   5  -3   -0.07    0.73
   7   5   3    0.17    0.67
   7   5   3   -0.56    0.58
  -7   5  -3   -0.08    0.67
   7   5   3   -0.28    0.79
   7  -6  -3    5.85    0.79
  -7  -6   3    5.79    0.88
   7  -6  -3    5.57    0.58
   7  -6  -3    5.46    0.58
  -7  -6   3    5.67    0.79
   7   6  -3    6.19    0.76
   7   6  -3    7.88    0.96
   7   6  -3    3.74    0.85
  -7   6   3    6.04    0.81
  -7   6   3    4.59    0.83
  -6  -6   3    1.25    0.56
   6  -6  -3    1.52    0.35
   6  -6  -3    1.45    0.54
  -6  -6   3    1.33    0.53
   6  -6  -3    1.06    0.26
  -6  -6   3    0.77    0.60
  -6   6   3    1.58    0.55
  -6   6   3    1.37    0.49
   6   6  -3    1.15    0.60
   6   6  -3    0.82    0.44
   6   6  -3    0.89    0.44
   6   6  -3    1.76    0.36
  -5  -6   3    1.18    0.58
  -5  -6   3    0.14    0.46
   5  -6  -3    0.32    0.17
   5  -6  -3    0.70    0.37
  -5  -6   3    0.39    0.87
   5  -6  -3    0.59    0.23
  -5  -6   3    1.08    0.43
  -5  -6   3    0.91    0.40
  -5   6   3    0.87    0.46
  -5   6   3    1.45    0.45
   5   6  -3    0.74    0.55
   5   6  -3    0.53    0.28
   5   6  -3    0.72    0.35
  -5   6   3    0.18    0.33
  -5   6   3    0.10    0.61
   5   6  -3    0.41    0.43
   5   6  -3    0.59    0.31
  -4  -6   3    1.70    0.40
  -4  -6   3    1.73    0.41
   4  -6  -3    1.39    0.16
   4  -6  -3    1.60    0.19
  -4  -6   3    1.87    0.36
   4  -6  -3    2.01    0.42
  -4  -6   3    2.26    0.41
  -4  -6   3    1.46    0.59
  -4   6   3    2.10    0.43
   4   6  -3    1.56    0.30
   4   6  -3    1.06    0.46
  -4   6   3    1.40    0.43
  -4   6   3    1.88    0.31
  -4   6   3    1.82    0.45
   4   6  -3    1.26    0.36
  -3  -6   3    1.12    0.30
  -3  -6   3    0.91    0.47
  -3  -6   3    0.70    0.19
   3  -6  -3    0.82    0.24
   3  -6  -3    1.36    0.17
   3  -6  -3    1.02    0.13
  -3  -6   3    0.74    0.32
  -3  -6   3    0.93    0.36
  -3   6   3    1.30    0.33
  -3   6   3    1.29    0.48
  -3   6   3    0.68    0.36
   3   6  -3    1.14    0.25
  -3   6   3    0.80    0.24
   3   6  -3    0.90    0.54
  -3   6   3    1.16    0.35
   3   6  -3    0.99    0.32
   3   6  -3    0.95    0.43
  -3   6   3    0.83    0.29
   3   6  -3    0.68    0.36
   3   6  -3    0.99    0.36
   2  -6  -3   45.74    1.28
  -2  -6   3   46.16    1.53
  -2  -6   3   45.40    1.52
   2  -6  -3   44.93    1.48
  -2  -6   3   46.29    1.49
  -2  -6   3   45.01    1.54
   2  -6  -3   45.52    1.28
  -2  -6   3   46.00    1.51
  -2   6   3   44.41    1.46
  -2   6   3   46.13    1.50
  -2   6   3   46.61    1.45
  -2   6   3   49.47    1.68
   2   6  -3   45.59    1.50
   2   6  -3   44.75    1.51
   2   6  -3   48.05    1.53
   2   6  -3   45.10    1.51
  -2   6   3   45.85    1.44
   2   6  -3   44.92    1.48
  -2   6   3   42.30    1.47
  -2   6   3   46.18    1.54
   2   6  -3   45.97    1.56
  -1  -6   3   51.82    1.63
   1  -6  -3   53.91    1.63
   1  -6  -3   53.96    1.53
   1  -6  -3   54.25    1.52
  -1  -6   3   52.87    1.69
  -1  -6   3   51.80    1.71
  -1  -6   3   53.92    1.64
   1  -6  -3   52.43    1.67
  -1   6   3   52.99    1.76
  -1   6   3   52.08    1.63
  -1   6   3   52.47    1.45
  -1   6   3   53.67    1.55
  -1   6   3   52.69    1.45
   1   6  -3   52.34    1.63
   1   6  -3   53.87    1.68
   1   6  -3   53.67    1.63
   1   6  -3   54.01    1.70
  -1   6   3   52.70    1.69
   0  -6   3    0.11    0.21
   0  -6  -3   -0.05    0.19
   0  -6  -3   -0.02    0.27
   0  -6   3    0.11    0.19
   0  -6  -3    0.05    0.14
   0  -6  -3    0.03    0.21
   0  -6   3    0.01    0.16
   0  -6   3    0.23    0.22
   0  -6  -3    0.21    0.20
   0  -6   3    0.08    0.22
   0   6   3   -0.16    0.18
   0   6  -3   -0.17    0.20
   0   6   3    0.29    0.24
   0   6  -3   -0.25    0.16
   0   6  -3    0.09    0.07
   0   6   3    0.14    0.08
   0   6   3    0.13    0.20
   0   6  -3   -0.01    0.24
   0   6   3   -0.15    0.19
   0   6  -3    0.20    0.18
   1  -6   3   48.80    1.43
  -1  -6  -3   49.20    1.51
   1  -6   3   46.69    1.41
  -1  -6  -3   48.44    1.56
  -1  -6  -3   48.89    1.56
  -1  -6  -3   46.95    1.55
   1  -6   3   49.16    1.44
   1  -6   3   46.07    1.58
  -1   6  -3   47.05    1.44
  -1   6  -3   47.42    1.57
  -1   6  -3   46.82    1.38
   1   6   3   46.10    1.55
  -1   6  -3   46.21    1.45
   1   6   3   46.49    1.44
  -1   6  -3   46.48    1.35
   1   6   3   48.35    1.55
   1   6   3   47.80    1.50
   1   6   3   50.00    1.54
  -1   6  -3   49.18    1.54
   1   6   3   46.79    1.51
  -1   6  -3   45.39    1.52
  -2  -6  -3   -0.53    0.33
  -2  -6  -3    0.03    0.21
   2  -6   3    0.04    0.29
   2  -6   3    0.25    0.21
  -2  -6  -3    0.20    0.34
  -2  -6  -3    0.10    0.28
  -2  -6  -3    0.08    0.25
   2  -6   3    0.00    0.20
   2  -6   3    0.00    0.15
  -2   6  -3   -0.17    0.26
  -2   6  -3    0.13    0.20
   2   6   3    0.25    0.29
   2   6   3   -0.21    0.29
  -2   6  -3   -0.23    0.20
  -2   6  -3   -0.02    0.11
   2   6   3   -0.34    0.20
  -2   6  -3   -0.07    0.16
   2   6   3   -0.06    0.23
   2   6   3    0.34    0.31
  -2   6  -3    0.05    0.16
   2   6   3   -0.03    0.24
  -3  -6  -3    4.92    0.31
   3  -6   3    5.38    0.37
  -3  -6  -3    4.65    0.61
   3  -6   3    4.95    0.39
  -3  -6  -3    5.13    0.31
  -3  -6  -3    5.58    0.61
  -3  -6  -3    4.88    0.62
  -3  -6  -3    4.57    0.49
   3  -6   3    4.75    0.61
   3  -6   3    5.42    0.51
  -3  -6  -3    4.52    0.60
   3   6   3    5.36    0.57
  -3   6  -3    4.10    0.54
   3   6   3    5.86    0.54
  -3   6  -3    4.87    0.36
   3   6   3    4.97    0.52
  -3   6  -3    5.05    0.56
  -3   6  -3    5.30    0.48
  -4  -6  -3    0.26    0.35
   4  -6   3    0.77    0.34
  -4  -6  -3    0.75    0.32
   4  -6   3    0.06    0.26
  -4  -6  -3    1.11    0.35
  -4  -6  -3    0.69    0.76
  -4  -6  -3    0.55    0.35
   4  -6   3    0.59    0.20
  -4   6  -3    1.07    0.42
  -4   6  -3    0.41    0.26
  -4   6  -3    0.58    0.23
   4   6   3    0.25    0.36
   4   6   3    0.52    0.34
  -4   6  -3    0.13    0.48
  -5  -6  -3    1.73    0.43
   5  -6   3    1.91    0.49
   5  -6   3    1.97    0.30
   5  -6   3    1.40    0.36
  -5  -6  -3    3.09    0.62
  -5  -6  -3    2.78    0.54
  -5   6  -3    1.29    0.48
   5   6   3    1.62    0.43
  -5   6  -3    2.63    0.38
   5   6   3    2.31    0.61
  -5   6  -3    2.48    0.32
   5   6   3    1.77    0.52
  -6  -6  -3    7.71    0.87
  -6  -6  -3    5.75    0.86
  -6  -6  -3    5.80    0.68
   6  -6   3    5.34    0.74
   6  -6   3    6.27    0.56
   6  -6   3    5.24    0.61
  -6   6  -3    5.14    0.79
   6   6   3    5.65    0.70
   6   6   3    6.40    0.82
  -7  -6  -3    2.75    0.76
   7  -6   3    1.94    0.82
   7  -6   3    2.37    0.44
  -7   6  -3    2.23    0.89
   7   6   3    3.12    0.77
   7   6   3    2.43    0.83
  -7   6  -3    2.38    0.79
   7  -7  -3    0.95    0.30
  -7  -7   3    2.66    0.90
  -7  -7   3    1.23    0.73
   7  -7  -3    1.71    0.37
   7   7  -3    1.96    0.64
  -7   7   3    2.32    1.01
  -7   7   3    0.87    0.80
   6  -7  -3    0.41    0.20
  -6  -7   3    1.66    0.58
  -6  -7   3    0.52    0.66
   6  -7  -3    0.92    0.24
  -6  -7   3    0.91    0.59
  -6   7   3    2.23    0.70
  -6   7   3    0.43    0.52
   6   7  -3    0.67    0.42
   6   7  -3    0.53    0.47
  -5  -7   3    0.99    0.52
  -5  -7   3    0.87    0.45
  -5  -7   3    1.25    0.46
  -5   7   3    0.52    0.40
  -5   7   3    1.12    0.30
  -5   7   3    1.99    0.51
   5   7  -3    0.95    0.36
   5   7  -3    1.25    0.39
  -4  -7   3    0.45    0.37
  -4  -7   3    1.21    0.70
  -4  -7   3    0.97    0.41
  -4  -7   3    0.93    0.43
  -4   7   3    0.88    0.33
   4   7  -3    0.95    0.35
  -4   7   3    0.95    0.39
  -4   7   3    0.83    0.55
   4   7  -3    1.46    0.31
  -3  -7   3   30.39    1.22
  -3  -7   3   28.88    1.35
  -3  -7   3   30.91    1.21
  -3  -7   3   32.10    1.27
  -3   7   3   29.55    1.21
  -3   7   3   31.66    1.26
  -3   7   3   31.50    1.19
  -3   7   3   30.10    1.28
   3   7  -3   31.66    1.21
   3   7  -3   30.79    1.28
   3   7  -3   30.70    1.15
   3   7  -3   28.44    1.32
   2  -7  -3    4.76    0.48
  -2  -7   3    3.44    0.40
   2  -7  -3    4.13    0.25
  -2  -7   3    3.81    0.48
  -2  -7   3    3.97    0.52
   2  -7  -3    4.00    0.24
  -2  -7   3    4.91    0.51
  -2   7   3    3.77    0.54
   2   7  -3    4.18    0.50
   2   7  -3    4.97    0.95
  -2   7   3    3.79    0.43
  -2   7   3    4.06    0.50
  -2   7   3    3.90    0.43
   2   7  -3    3.95    0.44
   2   7  -3    3.04    0.40
  -2   7   3    4.30    0.54
  -1  -7   3    3.69    0.48
  -1  -7   3    3.50    0.41
  -1  -7   3    4.04    0.49
   1  -7  -3    3.86    0.29
  -1  -7   3    3.88    0.48
   1  -7  -3    3.94    0.43
   1  -7  -3    3.57    0.41
  -1   7   3    3.17    0.44
   1   7  -3    3.19    0.37
   1   7  -3    3.74    0.50
  -1   7   3    3.70    0.43
  -1   7   3    3.10    0.42
   1   7  -3    3.94    0.41
  -1   7   3    3.86    0.39
  -1   7   3    3.53    0.36
   1   7  -3    4.60    0.45
   0  -7  -3    4.51    0.47
   0  -7  -3    3.78    0.46
   0  -7   3    4.02    0.37
   0  -7   3    3.83    0.42
   0  -7  -3    4.48    0.44
   0  -7   3    4.00    0.49
   0  -7   3    3.91    0.51
   0  -7  -3    4.12    0.36
   0  -7   3    4.37    0.49
   0   7  -3    6.48    0.85
   0   7  -3    5.95    0.72
   0   7  -3    4.45    0.41
   0   7   3    4.99    0.22
   0   7   3    4.19    0.45
   0   7  -3    4.92    0.46
   0   7   3    4.79    0.60
   0   7   3    4.81    0.45
   0   7   3    4.00    0.38
   1  -7   3   17.12    0.85
  -1  -7  -3   18.50    0.90
  -1  -7  -3   17.48    0.83
  -1  -7  -3   18.68    0.78
   1  -7   3   18.49    0.71
  -1  -7  -3   18.30    0.83
   1  -7   3   18.60    0.69
  -1  -7  -3   17.25    0.82
  -1   7  -3   17.43    0.69
  -1   7  -3   17.86    0.68
  -1   7  -3   17.97    0.80
  -1   7  -3   16.45    0.89
   1   7   3   18.19    0.82
   1   7   3   17.50    0.78
   1   7   3   17.92    0.80
  -1   7  -3   17.89    0.65
   1   7   3   16.35    0.92
  -2  -7  -3    8.76    0.77
   2  -7   3    9.73    0.68
  -2  -7  -3    9.44    0.68
  -2  -7  -3    9.11    0.77
   2  -7   3    8.81    0.45
  -2  -7  -3    8.33    0.59
   2  -7   3    8.54    0.53
  -2  -7  -3    8.54    0.61
   2  -7   3    9.21    0.45
   2   7   3    8.54    0.68
  -2   7  -3    7.62    0.63
   2   7   3    9.55    0.59
  -2   7  -3    8.13    0.52
   2   7   3    8.40    0.59
  -2   7  -3    8.89    0.57
  -2   7  -3    9.04    0.58
   3  -7   3   25.49    1.06
   3  -7   3   24.55    0.88
  -3  -7  -3   26.31    1.07
   3  -7   3   26.15    1.19
  -3  -7  -3   26.45    1.13
  -3  -7  -3   26.38    1.16
   3  -7   3   26.12    0.87
   3   7   3   25.92    1.07
   3   7   3   26.99    1.12
  -3   7  -3   23.77    1.13
  -3   7  -3   23.06    1.20
   3   7   3   25.22    1.18
  -3   7  -3   25.23    1.03
  -3   7  -3   26.40    0.93
   4  -7   3    3.19    0.32
  -4  -7  -3    3.19    0.52
   4  -7   3    3.00    0.52
  -4  -7  -3    3.04    0.91
   4  -7   3    2.93    0.35
  -4  -7  -3    3.33    0.58
  -4  -7  -3    3.81    0.43
  -4   7  -3    4.42    0.54
  -4   7  -3    3.50    0.40
   4   7   3    3.50    0.65
   4   7   3    3.45    0.51
   4   7   3    3.84    0.54
  -4   7  -3    3.30    0.35
  -4   7  -3    3.07    0.52
   5  -7   3    0.55    0.46
  -5  -7  -3    0.00    0.53
  -5  -7  -3    0.64    0.37
   5  -7   3    0.85    0.32
  -5  -7  -3    0.47    0.48
   5  -7   3    0.40    0.22
  -5   7  -3    0.16    0.35
   5   7   3    0.02    0.50
   5   7   3    0.52    0.45
   5   7   3    0.35    0.57
   6  -7   3    5.99    0.84
   6  -7   3    6.26    0.77
  -6  -7  -3    9.36    1.06
  -6  -7  -3    5.38    0.92
   6  -7   3    5.86    0.53
  -6   7  -3    5.35    0.87
   6   7   3    6.62    0.85
   6   7   3    4.98    0.68
   7  -7   3   -0.79    0.81
   7  -7   3   -0.44    0.38
  -7  -7  -3    1.79    0.78
   7   7   3   -0.18    0.88
  -7   7  -3    0.76    0.82
   7   7   3    1.92    0.78
  -7   7  -3   -0.66    0.93
  -7  -8   3    0.41    0.97
  -7  -8   3    2.19    0.88
  -7   8   3   -0.57    0.88
   7   8  -3    2.34    0.70
  -6  -8   3    3.23    0.91
  -6  -8   3    2.73    0.81
  -6  -8   3    4.83    0.76
  -6   8   3    4.87    0.85
  -6   8   3    3.75    0.71
   6   8  -3    4.38    0.64
   6   8  -3    3.02    0.53
  -5  -8   3    4.61    0.71
  -5  -8   3    4.15    0.63
  -5  -8   3    4.42    0.64
  -5   8   3    4.36    0.57
   5   8  -3    5.22    0.64
  -5   8   3    4.35    0.57
   5   8  -3    4.38    0.51
  -5   8   3    5.67    0.70
  -4  -8   3    1.44    0.50
  -4  -8   3    1.68    0.50
  -4  -8   3    1.46    0.43
  -4   8   3    1.72    0.47
  -4   8   3    1.32    0.40
  -4   8   3    1.01    0.45
   4   8  -3    0.37    0.57
   4   8  -3    1.54    0.36
   4   8  -3    1.12    0.41
  -3  -8   3   12.79    0.82
  -3  -8   3   12.59    0.83
  -3  -8   3   12.91    0.84
  -3  -8   3   11.95    1.06
   3   8  -3   14.39    0.75
  -3   8   3   10.99    1.00
  -3   8   3   13.23    0.81
  -3   8   3   14.26    0.79
   3   8  -3   13.33    0.99
   3   8  -3   13.32    0.80
  -2  -8   3    4.10    0.54
   2  -8  -3    4.08    0.26
  -2  -8   3    3.62    0.48
  -2  -8   3    4.00    0.53
  -2  -8   3    4.54    0.50
   2  -8  -3    3.83    0.24
  -2   8   3    4.44    0.48
  -2   8   3    4.42    0.55
   2   8  -3    4.92    0.54
  -2   8   3    3.61    0.55
  -2   8   3    4.42    0.52
   2   8  -3    3.75    0.46
   2   8  -3    4.00    0.69
   2   8  -3    3.89    0.50
  -2   8   3    3.85    0.48
  -1  -8   3   11.93    0.65
  -1  -8   3   11.68    0.72
  -1  -8   3   11.27    0.76
   1  -8  -3   12.00    0.69
   1  -8  -3   11.25    0.51
  -1  -8   3   11.31    0.69
   1  -8  -3   11.88    0.52
   1  -8  -3   12.09    0.70
   1   8  -3   11.37    0.67
   1   8  -3   11.37    0.90
   1   8  -3   11.67    0.76
  -1   8   3   10.48    0.88
  -1   8   3   11.82    0.61
   1   8  -3   12.20    0.67
  -1   8   3   10.73    0.86
  -1   8   3   12.45    0.69
  -1   8   3   11.93    0.57
  -1   8   3   11.78    0.70
   0  -8   3   60.32    1.86
   0  -8  -3   63.40    1.99
   0  -8   3   62.58    1.89
   0  -8  -3   60.79    1.85
   0  -8  -3   61.26    2.00
   0  -8   3   64.17    2.06
   0  -8  -3   60.65    1.87
   0  -8   3   61.53    2.00
   0   8   3   59.48    1.98
   0   8   3   60.42    1.93
   0   8  -3   59.02    1.97
   0   8  -3   60.82    1.90
   0   8   3   62.24    1.80
   0   8  -3   66.44    2.24
  -1  -8  -3    4.89    0.60
  -1  -8  -3    5.84    0.49
  -1  -8  -3    5.69    0.54
  -1  -8  -3    5.01    0.62
   1  -8   3    5.30    0.59
   1  -8   3    5.78    0.41
  -1  -8  -3    5.58    0.73
   1   8   3    4.94    0.57
   1   8   3    4.41    0.54
  -1   8  -3    5.31    0.45
  -1   8  -3    5.37    0.41
  -1   8  -3    5.53    0.50
   1   8   3    6.07    0.53
  -1   8  -3    5.07    0.50
   2  -8   3    5.73    0.39
  -2  -8  -3    6.43    0.59
  -2  -8  -3    6.50    0.57
  -2  -8  -3    6.79    0.72
  -2  -8  -3    7.05    0.67
   2  -8   3    7.15    0.66
  -2  -8  -3    6.38    0.82
   2  -8   3    6.11    0.40
   2   8   3    6.94    0.74
   2   8   3    5.48    0.58
  -2   8  -3    5.52    0.66
   2   8   3    6.66    0.57
  -2   8  -3    6.69    0.56
  -2   8  -3    5.67    0.66
  -2   8  -3    6.04    0.46
  -3  -8  -3    2.18    0.75
   3  -8   3    1.67    0.47
  -3  -8  -3    2.39    0.47
   3  -8   3    2.77    0.31
   3  -8   3    2.13    0.27
  -3  -8  -3    2.89    0.51
   3  -8   3    2.85    0.44
   3   8   3    1.96    0.38
   3   8   3    2.20    0.42
  -3   8  -3    2.83    0.46
   3   8   3    1.59    0.52
  -3   8  -3    1.76    0.36
  -3   8  -3    2.03    0.48
  -3   8  -3    2.07    0.30
   4  -8   3   -0.21    0.42
   4  -8   3    0.35    0.19
  -4  -8  -3    0.32    0.46
   4  -8   3   -0.04    0.24
  -4  -8  -3    1.19    0.50
   4   8   3    0.62    0.43
   4   8   3    0.38    0.67
   4   8   3    0.33    0.37
  -4   8  -3    0.32    0.29
  -4   8  -3   -0.09    0.47
  -4   8  -3    0.24    0.34
   5  -8   3    2.25    0.28
   5  -8   3    1.61    0.33
   5  -8   3    2.23    0.67
  -5  -8  -3    2.82    0.57
  -5  -8  -3    2.71    0.73
  -5   8  -3    2.54    0.46
   5   8   3    1.61    0.50
  -5   8  -3    2.27    0.61
   5   8   3    2.57    0.59
  -6  -8  -3    2.98    0.66
   6  -8   3    1.76    0.32
   6  -8   3    1.67    0.74
   6  -8   3    1.62    0.46
  -6   8  -3    1.94    0.78
   6   8   3    1.25    0.65
   6   8   3    2.62    0.75
  -6  -9   3    0.49    0.75
  -6  -9   3    1.78    0.76
  -6  -9   3    1.16    0.81
   6   9  -3    0.19    0.75
   6   9  -3    0.89    0.58
  -6   9   3    1.31    0.75
  -6   9   3    0.78    0.80
  -6   9   3   -0.68    0.71
  -5  -9   3    0.86    0.64
  -5  -9   3    0.98    0.58
  -5  -9   3    1.05    0.57
  -5   9   3    1.15    0.57
  -5   9   3    1.09    0.56
   5   9  -3    0.59    0.46
  -5   9   3    0.95    0.41
   5   9  -3    1.09    0.50
  -4  -9   3   -0.60    0.74
  -4  -9   3   -0.98    0.43
  -4  -9   3   -0.34    0.45
  -4   9   3    0.11    0.44
  -4   9   3   -0.24    0.43
  -4   9   3    0.69    0.43
   4   9  -3    0.38    0.36
   4   9  -3    0.25    0.47
  -3  -9   3   -0.35    0.34
  -3  -9   3    0.31    0.77
  -3  -9   3    0.11    0.38
  -3  -9   3    0.20    0.37
   3   9  -3   -0.23    0.31
  -3   9   3   -0.21    0.33
  -3   9   3    0.02    0.37
  -3   9   3    0.20    0.36
   3   9  -3    0.62    0.54
   3   9  -3    0.28    0.37
  -2  -9   3   13.47    0.79
   2  -9  -3   12.89    0.45
  -2  -9   3   12.34    0.84
   2  -9  -3   12.16    0.44
  -2  -9   3   12.71    0.80
  -2   9   3   13.45    0.79
  -2   9   3   13.17    0.70
   2   9  -3   12.45    0.82
   2   9  -3   13.82    0.77
  -2   9   3   12.92    0.96
   2   9  -3   11.36    0.98
  -2   9   3   13.26    0.80
   1  -9  -3    3.32    0.47
   1  -9  -3    3.21    0.34
  -1  -9   3    3.37    0.51
  -1  -9   3    2.88    0.46
   1  -9  -3    3.68    0.38
  -1  -9   3    4.08    0.50
  -1  -9   3    4.02    0.51
   1   9  -3    3.53    0.43
  -1   9   3    3.34    0.43
  -1   9   3    3.41    0.43
  -1   9   3    4.39    0.56
   1   9  -3    4.31    0.47
   1   9  -3    4.80    0.55
   0  -9  -3   11.25    0.76
   0  -9   3   11.60    0.62
   0  -9   3   13.47    0.84
   0  -9   3   12.93    0.79
   0  -9   3   12.38    0.72
   0  -9  -3    9.84    0.82
   0  -9  -3   12.11    0.61
   0   9  -3   12.91    0.76
   0   9   3   11.88    0.63
   0   9   3   12.03    0.77
   0   9   3   12.69    0.72
   0   9  -3   12.17    0.70
  -1  -9  -3    3.87    0.48
  -1  -9  -3    5.50    0.62
   1  -9   3    5.02    0.45
  -1  -9  -3    4.55    0.54
   1  -9   3    5.03    0.65
   1  -9   3    5.18    0.42
   1   9   3    4.08    0.48
   1   9   3    3.89    0.48
   1   9   3    4.59    0.54
  -1   9  -3    4.11    0.51
  -1   9  -3    4.50    0.41
  -1   9  -3    4.64    0.50
   2  -9   3   28.68    1.25
  -2  -9  -3   25.33    1.12
  -2  -9  -3   28.82    1.26
  -2  -9  -3   29.06    1.58
   2  -9   3   26.49    0.92
   2  -9   3   26.76    0.92
   2   9   3   28.53    1.20
  -2   9  -3   25.17    1.23
  -2   9  -3   26.61    1.00
  -2   9  -3   29.18    1.16
   2   9   3   26.53    1.27
   2   9   3   26.57    1.12
  -2   9  -3   24.65    1.17
  -3  -9  -3    3.29    0.50
  -3  -9  -3    3.93    0.57
   3  -9   3    3.62    0.34
   3  -9   3    4.38    0.62
   3  -9   3    3.73    0.36
  -3   9  -3    3.75    0.55
  -3   9  -3    3.07    0.45
   3   9   3    4.37    0.52
   3   9   3    3.37    0.48
  -3   9  -3    3.62    0.41
  -4  -9  -3   18.95    1.16
  -4  -9  -3   16.98    1.17
   4  -9   3   17.41    0.64
  -4   9  -3   17.20    0.82
   4   9   3   18.14    1.07
  -4   9  -3   19.90    1.27
  -4   9  -3   18.78    1.01
   4   9   3   18.73    1.09
  -5  -9  -3    8.02    1.04
  -5  -9  -3    5.59    0.84
   5  -9   3    5.33    0.36
   5   9   3    5.14    0.74
  -5   9  -3    6.01    0.67
  -5   9  -3    4.46    0.84
   5   9   3    6.19    0.79
  -6  -9  -3    0.38    0.98
  -6  -9  -3    2.99    0.79
  -6   9  -3    2.09    0.89
   6   9   3    1.73    0.87
   6   9   3   -0.19    0.74
  -6 -10   3    1.47    0.85
  -6 -10   3    0.43    0.92
   6  10  -3    2.49    0.74
  -6  10   3    0.61    0.86
  -6  10   3    1.41    0.96
  -5 -10   3   -0.22    0.64
  -5 -10   3   -0.20    0.65
  -5 -10   3    1.06    0.68
   5  10  -3   -1.45    0.52
  -5  10   3   -1.42    0.61
  -5  10   3    0.01    0.68
   5  10  -3    0.51    0.54
  -5  10   3   -0.12    0.61
  -5  10   3    0.38    0.46
  -4 -10   3    0.86    0.56
  -4 -10   3   -0.26    0.53
  -4 -10   3    1.12    0.55
   4  10  -3   -0.38    0.47
   4  10  -3    0.71    0.67
  -4  10   3   -1.45    0.86
  -4  10   3    0.46    0.77
  -4  10   3    0.25    0.51
  -4  10   3    0.86    0.52
  -3 -10   3    4.05    0.61
  -3 -10   3    4.12    0.62
  -3 -10   3    4.91    0.61
   3  10  -3    4.30    0.54
  -3  10   3    4.59    0.63
  -3  10   3    5.01    0.59
  -3  10   3    4.07    0.58
  -2 -10   3    0.80    0.35
  -2 -10   3    0.99    0.43
  -2 -10   3    0.10    0.68
   2 -10  -3    0.70    0.13
  -2 -10   3    0.63    0.40
   2  10  -3    1.21    0.45
   2  10  -3    1.19    0.40
  -2  10   3    0.49    0.40
  -2  10   3    0.34    0.36
  -2  10   3    0.67    0.42
   1 -10  -3    0.87    0.25
  -1 -10   3    0.53    0.29
  -1 -10   3    0.29    0.46
   1 -10  -3    1.49    0.24
  -1 -10   3    0.34    0.40
   1 -10  -3    1.00    0.39
  -1 -10   3    1.04    0.41
   1  10  -3    1.48    0.42
  -1  10   3    1.46    0.38
  -1  10   3    1.54    0.41
   1  10  -3    1.29    0.34
   0 -10  -3    3.21    0.41
   0 -10   3    3.70    0.46
   0 -10  -3    3.76    0.50
   0 -10  -3    3.60    0.36
   0 -10   3    3.72    0.44
   0 -10   3    2.85    0.49
   0 -10   3    3.13    0.51
   0  10   3    4.16    0.49
   0  10  -3    3.28    0.44
   0  10   3    3.31    0.50
   0  10  -3    3.46    0.46
  -1 -10  -3    5.49    0.64
   1 -10   3    6.52    0.48
   1 -10   3    4.62    0.50
  -1 -10  -3    5.43    0.54
  -1 -10  -3    5.96    0.72
   1 -10   3    5.70    0.75
  -1  10  -3    5.88    0.60
  -1  10  -3    4.97    0.39
   1  10   3    5.31    0.65
   1  10   3    5.94    0.64
  -1  10  -3    6.23    0.66
  -2 -10  -3   -0.18    0.33
   2 -10   3   -0.28    0.20
   2 -10   3    0.51    0.45
  -2 -10  -3   -0.26    0.40
   2 -10   3    0.11    0.21
   2  10   3   -0.48    0.36
  -2  10  -3   -0.34    0.32
  -2  10  -3   -0.23    0.35
  -2  10  -3    0.22    0.31
  -3 -10  -3    0.88    0.45
   3 -10   3    0.80    0.18
  -3 -10  -3    0.90    0.50
   3 -10   3    0.58    0.18
  -3  10  -3    0.72    0.44
  -3  10  -3    0.42    0.35
   3  10   3    0.25    0.38
  -3  10  -3    0.86    0.53
   3  10   3    0.81    0.45
  -4 -10  -3   10.91    1.02
  -4 -10  -3    9.49    1.09
   4  10   3    9.41    0.99
   4  10   3    8.59    0.92
  -4  10  -3   11.34    1.18
  -5 -10  -3    1.81    0.69
  -5 -10  -3    1.90    0.82
  -5  10  -3    1.05    0.85
  -5  10  -3    2.19    0.61
   5  10   3    1.71    0.72
   5  10   3    3.00    1.03
  -5 -11   3    1.05    0.76
  -5 -11   3   -0.31    0.84
   5  11  -3    0.56    0.67
  -5  11   3    1.31    0.58
   5  11  -3   -0.85    0.64
  -5  11   3    1.71    0.72
  -5  11   3    0.25    0.92
  -5  11   3    0.20    0.83
  -5  11   3   -0.33    0.74
  -4 -11   3   -0.03    0.55
  -4 -11   3    0.37    0.58
  -4 -11   3    0.70    0.63
   4  11  -3    0.41    0.53
  -4  11   3   -0.65    0.46
  -4  11   3   -0.22    0.62
  -4  11   3    0.61    0.64
  -4  11   3    0.83    0.65
  -4  11   3    0.86    0.63
   4  11  -3   -1.43    0.54
  -3 -11   3    3.19    0.63
  -3 -11   3    4.68    0.64
  -3 -11   3    3.26    0.63
  -3  11   3    4.26    0.60
  -3  11   3    3.19    0.61
  -3  11   3    3.82    0.66
   3  11  -3    3.88    0.55
   3  11  -3    3.98    0.64
  -2 -11   3    0.81    0.47
  -2 -11   3    1.09    0.51
  -2 -11   3    1.20    0.41
   2  11  -3    1.40    0.41
  -2  11   3    1.28    0.48
  -2  11   3    1.06    0.55
  -2  11   3    1.42    0.42
   1 -11  -3    4.85    0.63
   1 -11  -3    3.53    0.41
  -1 -11   3    4.25    0.57
  -1 -11   3    3.08    0.42
   1 -11  -3    3.01    0.36
  -1 -11   3    4.19    0.61
  -1  11   3    3.45    0.81
  -1  11   3    5.72    0.71
   1  11  -3    3.72    0.60
   1  11  -3    4.14    0.55
   0 -11  -3    8.98    0.59
   0 -11   3    6.66    0.72
   0 -11  -3    6.79    0.72
   0 -11   3    8.78    0.85
   0 -11   3    7.87    0.86
   0 -11  -3    9.17    0.86
   0 -11   3    8.55    0.60
   0  11  -3    8.14    0.79
   0  11  -3    8.40    0.75
   0  11   3    7.28    0.80
   0  11   3    8.78    0.80
   1 -11   3    6.22    0.60
   1 -11   3    8.24    0.87
  -1 -11  -3    5.13    0.75
  -1 -11  -3    5.82    0.62
   1  11   3    5.78    0.75
  -1  11  -3    5.94    0.73
  -1  11  -3    7.00    0.72
   1  11   3    6.69    0.70
   2 -11   3    0.28    0.21
  -2 -11  -3    0.13    0.36
   2 -11   3    0.20    0.25
  -2 -11  -3    0.06    0.52
   2 -11   3   -0.25    0.53
   2  11   3   -0.78    0.39
   2  11   3    0.18    0.45
  -2  11  -3    0.52    0.42
  -2  11  -3    0.70    0.43
  -3 -11  -3    2.40    0.65
  -3 -11  -3    2.18    0.59
  -3  11  -3    1.84    0.51
   3  11   3    3.03    0.57
  -3  11  -3    2.98    0.66
  -3  11  -3    2.57    0.54
  -3  11  -3    2.21    0.65
   3  11   3    0.99    0.47
  -4 -11  -3    5.89    0.82
  -4 -11  -3   11.53    1.28
   4  11   3    7.35    0.83
  -4  11  -3    7.96    1.03
  -5 -11  -3    0.06    0.92
   5  11   3    0.25    0.72
  -5  11  -3   -0.28    0.96
  -5  11  -3    1.41    0.96
  -4 -12   3    2.71    0.80
  -4 -12   3    0.97    0.78
   4  12  -3    0.78    0.72
   4  12  -3    1.61    0.67
  -4  12   3    2.31    0.81
  -4  12   3    2.59    0.67
  -4  12   3    1.80    0.78
  -4  12   3    2.27    0.85
  -3 -12   3    1.45    0.64
  -3 -12   3    1.60    0.56
   3  12  -3    2.64    0.61
  -3  12   3    1.79    0.64
   3  12  -3    1.51    0.69
  -3  12   3    1.86    0.83
  -2 -12   3    1.89    0.67
  -2 -12   3    2.29    0.62
  -2 -12   3    1.47    0.50
  -2  12   3    1.60    0.65
   2  12  -3    1.74    0.61
  -2  12   3    2.33    0.60
   2  12  -3    2.24    0.54
  -1 -12   3    2.10    0.57
  -1 -12   3    2.22    0.60
  -1 -12   3    1.45    0.41
   1 -12  -3    2.07    0.36
   1 -12  -3    3.51    0.68
   1 -12  -3    3.14    0.34
   1  12  -3    3.26    0.65
  -1  12   3    2.61    0.62
  -1  12   3    3.41    0.63
   1  12  -3    3.29    0.56
   0 -12  -3    3.40    0.67
   0 -12   3    3.76    0.68
   0 -12   3    3.85    0.67
   0 -12   3    3.80    0.47
   0 -12  -3    3.73    0.44
   0  12  -3    4.88    0.67
   0  12   3    4.64    0.70
   0  12   3    4.26    0.61
   0  12  -3    3.67    0.53
   1 -12   3    0.84    0.36
  -1 -12  -3    0.76    0.37
  -1 -12  -3    0.43    0.56
   1 -12   3    0.19    0.30
   1 -12   3    0.99    0.59
   1  12   3    1.42    0.52
   1  12   3    1.10    0.49
  -1  12  -3    1.03    0.52
  -1  12  -3    1.44    0.47
  -2 -12  -3    1.38    0.63
   2 -12   3    1.36    0.67
   2 -12   3    0.76    0.37
  -2 -12  -3    0.45    0.44
   2 -12   3    0.21    0.23
  -2  12  -3    1.08    0.53
  -2  12  -3    0.50    0.53
   2  12   3   -0.08    0.52
  -3 -12  -3    0.38    0.66
  -3 -12  -3    0.01    0.58
  -3  12  -3   -0.26    0.54
   3  12   3   -0.45    0.53
  -3  12  -3    1.68    0.80
  -4 -12  -3    0.76    0.79
  -4 -12  -3    0.58    0.89
  -4  12  -3    2.45    1.00
   4  12   3   -0.54    0.73
  -4  12  -3    1.72    0.75
  -3 -13   3    4.39    0.86
   3  13  -3    5.33    0.85
   3  13  -3    4.92    0.90
  -3  13   3    4.32    0.71
  -3  13   3    5.90    0.92
  -2 -13   3    3.20    0.58
  -2 -13   3    3.16    0.79
   2  13  -3    4.46    0.73
  -2  13   3    3.42    0.78
   2  13  -3    3.76    0.80
   1 -13  -3    1.48    0.34
  -1 -13   3    2.47    0.47
   1 -13  -3    1.50    0.74
   1 -13  -3    1.49    0.64
  -1 -13   3    3.25    0.73
   1  13  -3    1.59    0.71
   1  13  -3    2.84    0.57
  -1  13   3    2.02    0.73
   0 -13   3    3.25    0.48
   0 -13  -3    3.15    0.75
   0 -13  -3    3.26    0.48
   0  13  -3    3.43    0.74
   0  13  -3    3.93    0.65
   0  13   3    3.04    0.72
  -1 -13  -3    2.36    0.51
  -1 -13  -3    3.24    0.78
   1 -13   3    1.59    0.35
   1 -13   3    2.16    0.77
  -1  13  -3    2.08    0.62
   1  13   3    2.24    0.65
  -1  13  -3    2.84    0.72
  -2 -13  -3    1.60    0.86
  -2 -13  -3    2.43    0.58
   2  13   3    2.58    0.68
  -2  13  -3    0.66    0.66
   8   0  -4   -0.01    0.67
  -8   0   4    0.06    0.68
   8   0  -4    1.02    0.57
  -8   0   4    1.50    0.70
  -7   0   4    1.82    0.52
   7   0  -4    2.36    0.58
  -7   0   4    2.04    0.60
   6   0  -4   29.72    1.43
  -6   0   4   29.01    1.39
   6   0  -4   27.65    1.46
  -6   0   4   32.24    1.41
   6   0  -4   30.57    1.28
  -6   0   4   31.35    1.20
  -5   0   4   12.08    0.64
   5   0  -4   11.07    0.70
   5   0  -4   12.15    0.86
   5   0  -4   11.38    0.76
  -5   0   4   12.43    0.78
  -5   0   4   11.63    0.79
   4   0  -4   10.10    0.54
  -4   0   4    9.80    0.59
   4   0  -4    9.25    0.62
  -4   0   4   10.56    0.63
   4   0  -4    9.99    0.43
  -4   0   4    9.98    0.67
   4   0  -4    9.74    0.56
  -4   0   4    9.83    0.42
   4   0  -4    8.95    0.51
  -4   0   4    8.86    0.47
   4   0  -4    9.27    0.58
  -4   0   4    9.62    0.53
  -3   0   4  334.07    8.97
   3   0  -4  335.28    8.97
   3   0  -4  322.85    8.86
   3   0  -4  333.16    9.04
  -3   0   4  355.47    8.89
  -3   0   4  336.40    9.02
  -3   0   4  343.18    9.00
   3   0  -4  330.10    9.00
   3   0  -4  349.09    8.90
  -3   0   4  340.98    9.06
  -3   0   4  323.76    8.87
  -3   0   4  331.60    8.96
   3   0  -4  346.74    9.00
  -2   0   4    3.33    0.26
   2   0  -4    3.14    0.28
   2   0  -4    2.90    0.28
  -2   0   4    3.22    0.19
  -2   0   4    3.09    0.26
   2   0  -4    2.82    0.32
   2   0  -4    2.83    0.33
   2   0  -4    3.34    0.20
   2   0  -4    2.98    0.33
  -2   0   4    2.67    0.23
  -2   0   4    3.11    0.35
  -2   0   4    2.98    0.42
   1   0  -4   36.92    1.13
   1   0  -4   38.70    1.04
   1   0  -4   37.95    1.04
  -1   0   4   35.71    1.12
  -1   0   4   37.69    1.12
   1   0  -4   36.49    1.15
   1   0  -4   38.30    1.17
  -1   0   4   36.24    1.16
  -1   0   4   38.43    1.17
   1   0  -4   35.17    1.14
  -1   0   4   40.36    1.17
   1   0  -4   37.08    1.15
  -1   0   4   33.01    1.20
   1   0  -4   37.44    1.14
   0   0  -4  184.48    4.90
   0   0  -4  179.63    4.84
   0   0  -4  181.34    4.89
   0   0  -4  173.27    4.94
   0   0   4  180.55    4.89
   0   0   4  188.35    4.90
   0   0  -4  183.78    4.90
   0   0  -4  187.33    4.85
   0   0   4  180.24    4.83
   0   0   4  178.27    4.88
   0   0   4  185.73    4.92
   0   0   4  183.25    4.90
   0   0  -4  182.52    4.91
  -1   0  -4  148.06    4.01
  -1   0  -4  138.24    4.05
   1   0   4  145.82    3.98
  -1   0  -4  146.17    3.98
   1   0   4  145.35    4.00
   1   0   4  148.44    3.89
  -1   0  -4  143.44    3.99
   1   0   4  150.95    3.89
  -1   0  -4  146.56    4.01
   1   0   4  151.45    3.98
  -1   0  -4  150.58    4.00
   1   0   4  142.48    3.98
   1   0   4  147.61    4.00
   2   0   4    3.29    0.28
   2   0   4    3.21    0.37
   2   0   4    3.60    0.23
  -2   0  -4    3.34    0.31
   2   0   4    2.99    0.30
  -2   0  -4    3.05    0.38
  -2   0  -4    3.49    0.39
  -2   0  -4    3.28    0.27
   2   0   4    3.08    0.34
  -2   0  -4    3.51    0.36
   2   0   4    3.25    0.38
   3   0   4   14.30    0.62
   3   0   4   14.12    0.53
  -3   0  -4   14.04    0.55
  -3   0  -4   14.47    0.71
   3   0   4   14.75    0.74
  -3   0  -4   14.69    0.60
  -3   0  -4   14.43    0.70
  -3   0  -4   15.45    0.72
   3   0   4   14.45    0.71
   3   0   4   14.16    0.68
  -3   0  -4   14.44    0.74
  -4   0  -4    0.76    0.24
   4   0   4    1.17    0.34
   4   0   4    1.24    0.28
   4   0   4    0.87    0.26
  -4   0  -4    1.26    0.42
  -4   0  -4    0.92    0.22
   4   0   4    1.15    0.44
  -4   0  -4    0.71    0.44
   4   0   4    1.25    0.32
  -4   0  -4    1.73    0.41
   5   0   4   19.19    1.20
  -5   0  -4   19.62    0.99
   5   0   4   20.00    1.04
  -5   0  -4   19.79    1.08
  -5   0  -4   18.85    0.88
   5   0   4   20.21    1.01
   5   0   4   19.73    0.78
  -5   0  -4   21.94    1.15
   5   0   4   18.92    0.78
   6   0   4    6.26    0.68
   6   0   4    5.07    0.59
  -6   0  -4    5.07    0.41
  -6   0  -4    5.15    0.68
   7   0   4    2.08    0.58
   7   0   4    3.20    0.68
  -7   0  -4    1.71    0.68
  -7   0  -4    1.21    0.65
  -8   0  -4    2.85    1.03
   8   0   4    0.98    0.80
  -8   0  -4    2.03    0.89
   8   0   4    0.62    0.84
   8  -1  -4    2.19    0.73
   8  -1  -4    0.46    0.52
  -8  -1   4   -0.34    0.77
  -8   1   4   -0.90    0.73
   8   1  -4    0.15    0.60
  -8   1   4    0.06    0.70
  -7  -1   4    0.11    0.51
   7  -1  -4    0.35    0.40
  -7  -1   4    0.62    0.49
   7   1  -4    0.40    0.47
  -7   1   4    0.55    0.56
  -7   1   4   -0.70    0.48
  -6  -1   4    2.00    0.50
   6  -1  -4    1.74    0.44
   6  -1  -4    2.68    0.62
  -6  -1   4    2.29    0.64
  -6  -1   4    2.24    0.43
   6   1  -4    2.54    0.74
   6   1  -4    1.71    0.41
  -6   1   4    2.26    0.60
  -6   1   4    2.73    0.42
  -6   1   4    2.83    0.53
  -5  -1   4    1.57    0.43
  -5  -1   4    2.98    0.50
   5  -1  -4    2.59    0.41
  -5  -1   4    2.32    0.35
   5  -1  -4    2.12    0.33
   5  -1  -4    2.49    0.40
   5   1  -4    2.68    0.50
  -5   1   4    2.04    0.43
   5   1  -4    2.36    0.39
   5   1  -4    1.97    0.25
  -5   1   4    2.48    0.20
   5   1  -4    2.87    0.46
  -5   1   4    2.84    0.47
  -5   1   4    2.31    0.33
   4  -1  -4   27.01    0.98
   4  -1  -4   26.66    0.83
  -4  -1   4   26.14    1.08
   4  -1  -4   26.57    1.03
  -4  -1   4   26.31    1.05
  -4  -1   4   27.34    1.16
  -4  -1   4   25.67    0.94
  -4  -1   4   26.01    0.93
  -4  -1   4   26.32    0.93
   4  -1  -4   25.38    0.97
  -4  -1   4   26.88    1.05
   4  -1  -4   27.82    0.90
   4   1  -4   27.44    0.85
   4   1  -4   25.15    0.96
   4   1  -4   27.19    0.98
  -4   1   4   26.85    0.90
  -4   1   4   26.59    1.08
   4   1  -4   26.65    1.07
   4   1  -4   26.73    1.03
   4   1  -4   28.36    1.02
  -4   1   4   25.46    0.95
  -4   1   4   27.11    0.90
  -4   1   4   26.51    0.85
  -4   1   4   23.59    0.98
   3  -1  -4    0.05    0.16
  -3  -1   4    0.04    0.24
  -3  -1   4    0.32    0.20
  -3  -1   4    0.37    0.21
  -3  -1   4   -0.11    0.22
   3  -1  -4   -0.04    0.12
  -3  -1   4    0.07    0.16
  -3  -1   4    0.14    0.14
   3  -1  -4   -0.05    0.14
   3  -1  -4    0.04    0.18
   3  -1  -4   -0.06    0.21
   3   1  -4    0.03    0.19
   3   1  -4    0.15    0.23
   3   1  -4    0.11    0.19
  -3   1   4    0.41    0.17
  -3   1   4    0.12    0.13
   3   1  -4    0.24    0.20
   3   1  -4    0.39    0.17
  -3   1   4   -0.15    0.14
   3   1  -4    0.08    0.15
  -3   1   4   -0.05    0.20
  -3   1   4    0.48    0.25
  -3   1   4    0.02    0.11
  -3   1   4    0.07    0.15
   2  -1  -4    5.15    0.36
  -2  -1   4    4.81    0.30
   2  -1  -4    4.79    0.31
  -2  -1   4    4.88    0.30
   2  -1  -4    5.02    0.33
  -2  -1   4    5.08    0.33
  -2  -1   4    5.03    0.42
  -2  -1   4    5.32    0.37
  -2  -1   4    5.64    0.40
   2  -1  -4    4.42    0.34
  -2  -1   4    4.35    0.33
  -2  -1   4    4.97    0.28
   2   1  -4    4.83    0.36
  -2   1   4    4.97    0.40
  -2   1   4    4.99    0.43
   2   1  -4    4.68    0.37
  -2   1   4    4.98    0.36
   2   1  -4    4.91    0.29
  -2   1   4    4.71    0.30
  -2   1   4    4.88    0.30
   2   1  -4    5.32    0.32
   2   1  -4    5.26    0.39
   2   1  -4    5.11    0.34
   1  -1  -4    4.68    0.34
   1  -1  -4    4.53    0.30
  -1  -1   4    5.06    0.35
   1  -1  -4    4.39    0.31
  -1  -1   4    4.19    0.39
  -1  -1   4    4.79    0.28
   1  -1  -4    4.37    0.30
  -1  -1   4    4.90    0.26
   1  -1  -4    4.08    0.31
  -1  -1   4    4.85    0.36
   1  -1  -4    4.86    0.29
  -1  -1   4    4.29    0.30
  -1   1   4    4.39    0.34
  -1   1   4    5.03    0.35
   1   1  -4    4.80    0.27
   1   1  -4    5.09    0.34
  -1   1   4    4.64    0.27
  -1   1   4    4.44    0.32
   1   1  -4    4.37    0.29
   1   1  -4    4.49    0.35
  -1   1   4    4.41    0.28
   1   1  -4    4.92    0.32
   1   1  -4    4.90    0.36
  -1   1   4    4.76    0.27
   0  -1  -4    1.89    0.21
   0  -1   4    1.67    0.21
   0  -1  -4    1.72    0.24
   0  -1  -4    2.17    0.23
   0  -1   4    1.94    0.23
   0  -1   4    1.71    0.22
   0  -1   4    1.67    0.18
   0  -1   4    1.31    0.20
   0  -1   4    1.77    0.24
   0  -1  -4    1.57    0.21
   0  -1  -4    2.08    0.23
   0  -1  -4    1.76    0.21
   0  -1  -4    1.72    0.22
   0   1   4    1.81    0.24
   0   1  -4    1.64    0.18
   0   1  -4    1.96    0.22
   0   1   4    1.84    0.24
   0   1  -4    1.83    0.23
   0   1   4    1.80    0.21
   0   1   4    1.74    0.22
   0   1  -4    1.73    0.23
   0   1  -4    2.23    0.28
   0   1  -4    1.84    0.25
   0   1   4    1.92    0.25
   0   1  -4    1.61    0.23
   0   1   4    1.79    0.20
   1  -1   4   13.16    0.39
   1  -1   4   12.93    0.51
   1  -1   4   12.31    0.55
   1  -1   4   13.69    0.40
  -1  -1  -4   13.53    0.56
   1  -1   4   13.49    0.54
  -1  -1  -4   13.79    0.55
  -1  -1  -4   13.39    0.58
   1  -1   4   13.37    0.57
  -1  -1  -4   12.66    0.54
  -1  -1  -4   13.67    0.51
   1   1   4   13.12    0.49
   1   1   4   12.97    0.51
  -1   1  -4   13.07    0.53
   1   1   4   13.94    0.59
   1   1   4   13.34    0.53
   1   1   4   13.69    0.52
  -1   1  -4   13.29    0.56
  -1   1  -4   12.83    0.53
  -1   1  -4   11.83    0.61
  -1   1  -4   13.35    0.53
   1   1   4   13.29    0.48
   1   1   4   13.46    0.58
   1   1   4   13.41    0.60
  -2  -1  -4   11.86    0.59
   2  -1   4   11.67    0.49
   2  -1   4   11.17    0.49
   2  -1   4   10.66    0.55
   2  -1   4   11.09    0.57
   2  -1   4   11.03    0.33
  -2  -1  -4   10.69    0.57
   2  -1   4   10.75    0.54
  -2  -1  -4   10.67    0.50
  -2  -1  -4   11.23    0.52
   2  -1   4   10.86    0.57
  -2  -1  -4   10.59    0.50
   2  -1   4   10.97    0.33
  -2  -1  -4   11.39    0.58
   2   1   4   10.67    0.44
  -2   1  -4   10.73    0.54
  -2   1  -4   10.66    0.56
   2   1   4   10.09    0.49
  -2   1  -4   10.48    0.51
  -2   1  -4   10.48    0.58
   2   1   4   11.44    0.57
   2   1   4   11.07    0.56
   2   1   4   10.68    0.55
  -2   1  -4   10.55    0.49
   2   1   4   10.41    0.49
   2   1   4   11.12    0.49
  -2   1  -4   10.84    0.49
   3  -1   4    1.07    0.27
   3  -1   4    0.64    0.25
  -3  -1  -4    0.73    0.31
   3  -1   4    0.83    0.24
  -3  -1  -4    0.78    0.30
  -3  -1  -4    0.58    0.19
  -3  -1  -4    0.64    0.22
   3  -1   4    0.88    0.29
   3  -1   4    0.85    0.13
   3  -1   4    0.52    0.22
  -3  -1  -4    0.68    0.20
  -3  -1  -4    0.71    0.31
   3  -1   4    0.78    0.28
  -3  -1  -4    0.83    0.28
   3   1   4    0.79    0.23
  -3   1  -4    0.90    0.21
  -3   1  -4    1.08    0.32
  -3   1  -4    0.72    0.13
  -3   1  -4    0.86    0.25
  -3   1  -4    0.78    0.29
   3   1   4    0.54    0.19
   3   1   4    1.11    0.28
   3   1   4    0.80    0.40
  -3   1  -4    0.38    0.26
   3   1   4    0.56    0.24
  -4  -1  -4    1.45    0.41
  -4  -1  -4    1.77    0.46
  -4  -1  -4    2.11    0.33
   4  -1   4    1.61    0.27
   4  -1   4    1.44    0.38
   4  -1   4    1.40    0.30
  -4  -1  -4    1.91    0.25
   4  -1   4    1.82    0.22
  -4  -1  -4    1.63    0.40
   4  -1   4    1.99    0.38
   4   1   4    1.80    0.48
   4   1   4    1.69    0.31
  -4   1  -4    1.26    0.23
   4   1   4    2.01    0.26
   4   1   4    1.94    0.36
   4   1   4    1.34    0.32
  -4   1  -4    1.62    0.38
  -4   1  -4    1.75    0.37
  -5  -1  -4    2.29    0.44
  -5  -1  -4    1.96    0.27
   5  -1   4    2.07    0.32
  -5  -1  -4    1.92    0.45
  -5  -1  -4    1.91    0.47
   5  -1   4    1.84    0.37
   5  -1   4    2.12    0.46
   5  -1   4    2.02    0.54
  -5  -1  -4    2.34    0.56
  -5   1  -4    2.27    0.52
   5   1   4    2.49    0.36
  -5   1  -4    1.86    0.34
   5   1   4    1.98    0.33
   5   1   4    2.21    0.67
   5   1   4    1.93    0.44
  -5   1  -4    1.65    0.47
   5   1   4    1.66    0.42
  -6  -1  -4    2.38    0.29
  -6  -1  -4    1.95    0.52
   6  -1   4    2.12    0.36
  -6  -1  -4    2.38    0.85
   6  -1   4    1.47    0.47
   6   1   4    2.51    0.40
   6   1   4    2.00    0.57
  -6   1  -4    2.21    0.53
  -7  -1  -4    2.55    0.70
   7  -1   4    3.44    0.68
  -7  -1  -4    2.18    0.65
   7  -1   4    2.15    0.58
   7   1   4    1.67    0.66
  -7   1  -4    1.48    0.68
   7   1   4    2.67    0.54
   7   1   4    2.53    0.66
  -7   1  -4    3.17    0.68
   8  -1   4    0.13    0.69
  -8  -1  -4    0.34    0.77
   8  -1   4   -0.99    0.84
  -8  -1  -4   -0.17    0.93
   8   1   4    0.96    0.86
  -8   1  -4   -1.34    0.90
  -8   1  -4    0.33    0.93
   8   1   4   -0.72    0.82
  -8  -2   4   -1.37    0.71
  -8  -2   4    1.02    0.73
   8  -2  -4    0.29    0.63
   8  -2  -4    0.06    0.51
   8   2  -4   -0.22    0.63
  -8   2   4   -0.03    0.78
  -8   2   4   -1.33    0.72
   7  -2  -4    3.17    0.46
  -7  -2   4    2.02    0.64
   7  -2  -4    2.38    0.93
  -7  -2   4    3.19    0.58
   7   2  -4    2.91    0.53
  -7   2   4    2.39    0.56
  -7   2   4    3.15    0.57
  -6  -2   4    1.71    0.53
   6  -2  -4    0.70    0.29
   6  -2  -4    1.94    0.41
  -6  -2   4    2.63    0.48
  -6  -2   4    1.49    0.65
   6  -2  -4    1.49    0.56
  -6   2   4    1.68    0.49
   6   2  -4    2.78    0.85
  -6   2   4    1.69    0.52
  -6   2   4    1.69    0.38
   6   2  -4    1.66    0.43
  -5  -2   4    9.14    0.80
  -5  -2   4    9.22    0.79
   5  -2  -4    9.97    0.65
   5  -2  -4    9.81    0.57
  -5  -2   4    8.97    0.64
   5  -2  -4    8.63    0.71
  -5   2   4    9.03    0.39
  -5   2   4    8.99    0.74
   5   2  -4    9.72    0.45
   5   2  -4    8.85    0.66
   5   2  -4    9.74    0.94
  -5   2   4    9.74    0.57
  -4  -2   4   41.24    1.48
   4  -2  -4   41.75    1.37
  -4  -2   4   41.63    1.43
  -4  -2   4   43.30    1.52
   4  -2  -4   42.71    1.36
   4  -2  -4   42.30    1.25
   4  -2  -4   42.42    1.44
  -4  -2   4   42.85    1.46
  -4  -2   4   42.72    1.37
   4   2  -4   43.45    1.42
   4   2  -4   42.67    1.27
  -4   2   4   37.75    1.36
   4   2  -4   45.46    1.78
  -4   2   4   42.93    1.28
   4   2  -4   41.97    1.43
   4   2  -4   37.45    1.64
  -4   2   4   42.77    1.51
  -4   2   4   42.53    1.25
  -4   2   4   41.12    1.34
   3  -2  -4   14.58    0.62
  -3  -2   4   14.84    0.58
  -3  -2   4   14.53    0.71
   3  -2  -4   15.74    0.67
   3  -2  -4   15.50    0.60
  -3  -2   4   14.73    0.61
  -3  -2   4   14.67    0.70
   3  -2  -4   14.32    0.65
   3  -2  -4   15.02    0.57
  -3  -2   4   15.85    0.72
  -3  -2   4   14.07    0.63
  -3   2   4   15.32    0.58
   3   2  -4   15.56    0.68
  -3   2   4   15.09    0.50
  -3   2   4   14.61    0.58
   3   2  -4   13.49    0.65
  -3   2   4   15.82    0.61
   3   2  -4   14.13    0.62
   3   2  -4   14.34    0.64
  -3   2   4   15.18    0.54
   3   2  -4   14.10    1.01
  -3   2   4   14.77    0.71
   3   2  -4   15.65    0.69
  -3   2   4   15.63    0.64
  -2  -2   4  119.29    3.41
   2  -2  -4  118.67    3.40
   2  -2  -4  122.45    3.33
  -2  -2   4  127.74    3.34
  -2  -2   4  121.67    3.33
   2  -2  -4  114.53    3.35
  -2  -2   4  125.04    3.34
  -2  -2   4  121.37    3.39
  -2  -2   4  124.69    3.40
   2  -2  -4  125.95    3.39
  -2  -2   4  122.91    3.37
  -2  -2   4  122.62    3.45
   2  -2  -4  126.61    3.35
   2   2  -4  120.95    3.40
  -2   2   4  122.22    3.33
  -2   2   4  121.95    3.50
  -2   2   4  121.72    3.38
   2   2  -4  111.04    3.62
   2   2  -4  118.96    3.33
   2   2  -4  123.78    3.43
  -2   2   4  128.11    3.33
   2   2  -4  119.42    3.38
  -2   2   4  125.18    3.45
  -1  -2   4    5.24    0.36
   1  -2  -4    5.52    0.20
  -1  -2   4    5.47    0.32
   1  -2  -4    5.15    0.43
  -1  -2   4    5.32    0.40
   1  -2  -4    5.79    0.34
  -1  -2   4    5.78    0.31
  -1  -2   4    5.78    0.40
  -1  -2   4    5.66    0.31
  -1  -2   4    5.65    0.30
  -1   2   4    5.81    0.32
  -1   2   4    6.04    0.34
  -1   2   4    5.53    0.30
   1   2  -4    5.33    0.40
  -1   2   4    5.12    0.28
  -1   2   4    5.77    0.36
   1   2  -4    5.48    0.35
  -1   2   4    5.63    0.21
  -1   2   4    4.80    0.38
   1   2  -4    4.99    0.37
   1   2  -4    5.63    0.31
   1   2  -4    5.25    0.36
   1   2  -4    5.00    0.30
   0  -2   4  114.74    3.17
   0  -2  -4  114.02    3.16
   0  -2  -4  119.54    3.10
   0  -2   4  119.38    3.08
   0  -2   4  119.24    3.18
   0  -2  -4  100.56    3.24
   0  -2  -4  120.59    3.17
   0  -2   4  116.58    3.17
   0  -2   4  110.81    3.13
   0  -2   4  105.54    3.30
   0  -2  -4  119.06    3.22
   0  -2  -4  117.32    3.11
   0   2  -4  115.74    3.14
   0   2  -4  115.88    3.18
   0   2  -4  116.79    3.16
   0   2   4  118.95    3.11
   0   2   4  114.68    3.15
   0   2   4  115.49    3.10
   0   2  -4  115.92    3.20
   0   2   4  116.93    3.17
   0   2  -4  120.77    3.09
   0   2  -4  104.75    3.24
   0   2   4  113.57    3.17
   0   2   4  116.83    3.16
   0   2  -4  114.29    3.16
  -1  -2  -4    4.14    0.39
  -1  -2  -4    4.00    0.34
   1  -2   4    4.00    0.25
  -1  -2  -4    3.80    0.28
   1  -2   4    3.88    0.30
   1  -2   4    3.57    0.36
  -1  -2  -4    3.39    0.30
   1  -2   4    3.94    0.37
  -1  -2  -4    3.88    0.33
  -1  -2  -4    3.63    0.25
   1  -2   4    4.10    0.34
   1   2   4    3.96    0.33
  -1   2  -4    3.43    0.27
   1   2   4    3.91    0.38
   1   2   4    3.78    0.28
  -1   2  -4    4.46    0.37
   1   2   4    3.93    0.27
  -1   2  -4    3.60    0.34
  -1   2  -4    3.35    0.30
   1   2   4    3.80    0.31
   1   2   4    3.76    0.38
  -1   2  -4    4.03    0.27
  -1   2  -4    3.75    0.36
   1   2   4    4.14    0.26
   2  -2   4   18.61    0.72
  -2  -2  -4   18.45    0.73
  -2  -2  -4   18.60    0.78
  -2  -2  -4   18.17    0.66
   2  -2   4   18.59    0.69
  -2  -2  -4   19.08    0.72
  -2  -2  -4   17.91    0.77
   2  -2   4   18.63    0.76
   2  -2   4   19.06    0.80
  -2  -2  -4   18.47    0.77
   2   2   4   19.17    0.79
  -2   2  -4   18.27    0.73
  -2   2  -4   18.84    0.72
   2   2   4   19.79    0.78
  -2   2  -4   18.28    0.69
   2   2   4   17.69    0.70
  -2   2  -4   17.89    0.72
   2   2   4   18.45    0.69
   2   2   4   18.49    0.78
  -2   2  -4   18.61    0.78
  -2   2  -4   18.06    0.66
  -3  -2  -4    6.00    0.63
  -3  -2  -4    5.51    0.43
  -3  -2  -4    5.36    0.54
  -3  -2  -4    5.92    0.39
   3  -2   4    6.06    0.52
  -3  -2  -4    6.30    0.41
   3  -2   4    5.80    0.45
   3  -2   4    5.31    0.50
   3  -2   4    4.87    0.41
  -3  -2  -4    5.62    0.47
  -3  -2  -4    5.81    0.55
   3   2   4    6.10    0.47
   3   2   4    5.84    0.41
   3   2   4    5.88    0.51
  -3   2  -4    6.20    0.52
   3   2   4    6.36    0.53
  -3   2  -4    5.78    0.37
  -3   2  -4    6.04    0.42
   3   2   4    5.52    0.43
   3   2   4    5.96    0.57
  -3   2  -4    5.66    0.48
   4  -2   4   13.69    0.79
   4  -2   4   13.46    0.63
  -4  -2  -4   12.50    0.76
  -4  -2  -4   13.50    0.97
   4  -2   4   12.62    0.46
  -4  -2  -4   11.80    0.67
  -4  -2  -4   12.01    0.78
  -4  -2  -4   12.90    0.60
   4  -2   4   13.21    0.69
  -4  -2  -4   13.64    0.86
  -4  -2  -4   13.21    0.71
  -4   2  -4   12.85    0.47
   4   2   4   13.47    0.79
   4   2   4   12.21    0.67
  -4   2  -4   12.78    0.58
   4   2   4   13.01    0.62
  -4   2  -4   13.41    0.77
  -4   2  -4   12.64    0.78
   4   2   4   13.64    0.80
   4   2   4   11.44    0.89
   5  -2   4   -0.10    0.22
   5  -2   4    0.32    0.33
   5  -2   4   -0.06    0.27
  -5  -2  -4   -0.15    0.49
  -5  -2  -4    0.27    0.38
  -5  -2  -4    0.19    0.33
  -5  -2  -4    0.56    0.51
  -5  -2  -4    0.01    0.23
  -5   2  -4   -0.39    0.26
   5   2   4    0.39    0.37
   5   2   4    0.00    0.37
   5   2   4    0.21    0.38
  -5   2  -4   -0.27    0.44
  -5   2  -4   -0.18    0.36
   5   2   4    0.60    0.30
  -5   2  -4    0.13    0.21
   5   2   4    0.18    0.67
   6  -2   4    1.08    0.50
  -6  -2  -4    2.14    0.54
  -6  -2  -4    1.69    0.51
  -6  -2  -4    2.54    0.74
   6  -2   4    1.64    0.36
   6  -2   4    2.22    0.61
  -6   2  -4    2.02    0.86
  -6   2  -4    1.91    0.54
   6   2   4    1.52    0.54
   6   2   4    1.90    0.43
   7  -2   4    1.75    0.65
  -7  -2  -4    1.16    0.67
  -7  -2  -4    0.72    0.60
   7  -2   4    0.68    0.46
  -7   2  -4   -0.30    0.67
   7   2   4    1.03    0.53
  -7   2  -4    0.95    0.64
   7   2   4    1.18    0.68
   7   2   4   -0.24    0.65
  -8  -3   4   -1.50    0.73
   8  -3  -4    0.61    0.72
  -8  -3   4    0.40    0.73
   8   3  -4    0.13    0.63
  -8   3   4   -0.83    0.68
   7  -3  -4    5.21    0.68
  -7  -3   4    6.61    0.77
  -7  -3   4    6.02    0.81
   7  -3  -4    5.15    0.67
  -7   3   4    5.60    0.79
   7   3  -4    4.27    0.63
  -7   3   4    6.08    0.65
   6  -3  -4   14.30    0.89
  -6  -3   4   13.59    0.89
  -6  -3   4   12.22    0.96
  -6  -3   4   13.10    1.22
   6  -3  -4   14.30    1.03
   6  -3  -4   13.23    0.75
   6   3  -4   13.16    0.51
  -6   3   4   13.32    1.01
  -6   3   4   13.11    0.78
   6   3  -4   14.76    0.89
   6   3  -4   13.14    0.53
   5  -3  -4    5.45    0.62
  -5  -3   4    5.47    0.67
  -5  -3   4    5.24    0.57
   5  -3  -4    5.05    0.46
   5  -3  -4    5.79    0.56
  -5  -3   4    4.85    0.64
  -5  -3   4    6.62    0.66
   5   3  -4    5.11    0.54
   5   3  -4    5.13    0.69
  -5   3   4    5.20    0.66
  -5   3   4    4.54    0.48
  -5   3   4    5.84    0.55
   5   3  -4    5.34    0.49
  -4  -3   4   13.14    0.84
   4  -3  -4   12.41    0.63
  -4  -3   4   12.96    0.72
   4  -3  -4   13.93    0.71
   4  -3  -4   14.04    0.60
  -4  -3   4   12.77    0.77
  -4  -3   4   14.08    0.69
  -4  -3   4   13.25    0.81
   4  -3  -4   13.61    0.64
  -4   3   4   12.79    0.59
   4   3  -4   12.58    0.82
   4   3  -4   14.01    0.58
   4   3  -4   13.97    0.72
  -4   3   4   13.22    0.59
  -4   3   4   14.67    0.58
  -4   3   4   14.23    0.79
   4   3  -4   12.35    0.83
  -3  -3   4   17.88    0.82
   3  -3  -4   19.30    0.69
  -3  -3   4   18.50    0.81
   3  -3  -4   18.89    0.70
  -3  -3   4   18.12    0.84
  -3  -3   4   19.95    0.72
  -3  -3   4   18.56    0.74
  -3  -3   4   18.33    0.74
   3  -3  -4   18.49    0.71
   3  -3  -4   18.73    0.79
  -3  -3   4   18.73    0.72
  -3   3   4   19.59    0.83
   3   3  -4   16.70    0.89
   3   3  -4   18.01    0.77
  -3   3   4   19.59    0.72
  -3   3   4   19.93    0.63
  -3   3   4   19.67    0.87
   3   3  -4   18.86    0.80
   3   3  -4   18.76    0.71
  -3   3   4   18.90    0.61
  -3   3   4   19.48    0.71
   3   3  -4   19.48    0.86
  -3   3   4   19.24    0.61
   3   3  -4   19.05    0.77
  -2  -3   4    0.18    0.13
  -2  -3   4   -0.08    0.24
  -2  -3   4    0.11    0.18
   2  -3  -4    0.38    0.14
   2  -3  -4    0.03    0.16
   2  -3  -4    0.22    0.18
  -2  -3   4    0.32    0.22
   2  -3  -4   -0.08    0.16
   2  -3  -4   -0.01    0.19
  -2  -3   4    0.06    0.14
  -2  -3   4   -0.03    0.21
  -2  -3   4    0.07    0.14
  -2  -3   4    0.11    0.14
  -2   3   4    0.34    0.15
  -2   3   4   -0.05    0.21
   2   3  -4    0.25    0.22
  -2   3   4    0.03    0.19
  -2   3   4    0.09    0.09
   2   3  -4    0.29    0.16
   2   3  -4    0.15    0.21
   2   3  -4    0.18    0.17
   2   3  -4    0.19    0.18
  -2   3   4    0.15    0.14
  -2   3   4    0.18    0.10
  -2   3   4    0.08    0.15
   2   3  -4   -0.05    0.20
  -1  -3   4  146.38    4.07
   1  -3  -4  150.42    4.10
   1  -3  -4  152.95    4.04
  -1  -3   4  149.15    4.14
   1  -3  -4  152.20    3.96
  -1  -3   4  151.93    3.98
  -1  -3   4  147.98    4.09
   1  -3  -4  149.60    4.03
  -1  -3   4  146.82    4.03
   1  -3  -4  153.20    4.02
  -1  -3   4  130.77    4.11
   1  -3  -4  149.16    4.09
   1   3  -4  149.94    4.09
  -1   3   4  152.08    4.15
  -1   3   4  150.86    4.08
   1   3  -4  147.57    4.04
  -1   3   4  152.84    4.02
   1   3  -4  145.26    4.07
  -1   3   4  152.19    4.02
  -1   3   4  152.10    4.08
   1   3  -4  150.03    4.07
  -1   3   4  150.63    3.96
   1   3  -4  146.40    4.11
   1   3  -4  150.49    4.09
  -1   3   4  149.33    4.02
   0  -3  -4    3.06    0.34
   0  -3   4    3.03    0.23
   0  -3  -4    2.87    0.27
   0  -3  -4    2.76    0.21
   0  -3  -4    2.53    0.30
   0  -3   4    2.88    0.38
   0  -3   4    2.87    0.33
   0  -3   4    2.79    0.23
   0  -3   4    2.74    0.32
   0  -3  -4    2.63    0.27
   0  -3   4    3.05    0.24
   0   3  -4    2.02    0.27
   0   3   4    2.36    0.32
   0   3  -4    2.85    0.24
   0   3   4    2.78    0.22
   0   3  -4    2.75    0.23
   0   3   4    2.48    0.29
   0   3   4    2.97    0.31
   0   3   4    2.63    0.25
   0   3  -4    2.41    0.26
   0   3  -4    2.74    0.31
   0   3   4    2.63    0.20
   0   3  -4    2.98    0.26
   0   3  -4    2.74    0.26
  -1  -3  -4   12.74    0.54
   1  -3   4   12.05    0.60
   1  -3   4   12.26    0.51
  -1  -3  -4   12.51    0.42
  -1  -3  -4   13.44    0.60
  -1  -3  -4   11.53    0.64
  -1  -3  -4   11.86    0.56
   1  -3   4   12.76    0.53
  -1  -3  -4   13.15    0.59
   1  -3   4   12.92    0.54
  -1   3  -4   12.38    0.53
  -1   3  -4   12.89    0.54
   1   3   4   12.70    0.41
  -1   3  -4   11.77    0.53
  -1   3  -4   13.17    0.58
   1   3   4   11.84    0.54
   1   3   4   13.13    0.53
  -1   3  -4   12.37    0.59
  -1   3  -4   13.29    0.37
  -1   3  -4   12.29    0.54
   1   3   4   12.72    0.54
   1   3   4   12.58    0.60
  -1   3  -4   12.57    0.49
   1   3   4   12.86    0.55
   1   3   4   12.71    0.59
  -2  -3  -4   19.04    0.79
  -2  -3  -4   18.86    0.75
   2  -3   4   18.42    0.82
   2  -3   4   18.42    0.73
   2  -3   4   18.61    0.76
   2  -3   4   18.47    0.71
   2  -3   4   18.15    0.71
  -2  -3  -4   18.45    0.63
  -2  -3  -4   18.22    0.79
  -2  -3  -4   18.38    0.74
   2   3   4   18.62    0.79
   2   3   4   18.92    0.80
   2   3   4   19.78    0.82
  -2   3  -4   18.63    0.71
  -2   3  -4   18.23    0.77
   2   3   4   18.83    0.72
   2   3   4   18.63    0.73
   2   3   4   18.27    0.75
  -2   3  -4   18.66    0.72
  -2   3  -4   18.07    0.64
  -2   3  -4   18.48    0.73
  -2   3  -4   17.89    0.77
  -3  -3  -4    3.34    0.41
  -3  -3  -4    3.40    0.42
   3  -3   4    3.35    0.38
  -3  -3  -4    3.47    0.47
   3  -3   4    3.28    0.40
  -3  -3  -4    3.00    0.36
  -3  -3  -4    2.61    0.30
  -3  -3  -4    3.34    0.40
   3  -3   4    3.56    0.42
   3  -3   4    3.32    0.46
  -3  -3  -4    2.75    0.34
   3  -3   4    3.36    0.37
  -3  -3  -4    3.58    0.51
  -3   3  -4    3.61    0.39
   3   3   4    3.11    0.44
   3   3   4    2.60    0.31
   3   3   4    3.25    0.36
  -3   3  -4    3.51    0.37
  -3   3  -4    3.45    0.38
   3   3   4    3.50    0.39
   3   3   4    3.63    0.43
  -3   3  -4    3.11    0.34
  -3   3  -4    3.82    0.47
  -4  -3  -4    5.84    0.84
   4  -3   4    4.22    0.46
  -4  -3  -4    4.88    0.62
  -4  -3  -4    4.33    0.45
  -4  -3  -4    3.46    0.54
   4  -3   4    3.83    0.45
  -4  -3  -4    4.44    0.62
  -4  -3  -4    5.05    0.45
   4  -3   4    3.81    0.53
   4  -3   4    5.35    0.51
  -4  -3  -4    4.58    0.59
   4   3   4    4.34    0.63
   4   3   4    3.87    0.51
   4   3   4    4.80    0.59
   4   3   4    3.94    0.46
   4   3   4    5.28    0.60
  -4   3  -4    4.48    0.47
  -4   3  -4    4.73    0.42
  -4   3  -4    5.31    0.59
   5  -3   4    6.72    0.58
  -5  -3  -4    6.96    0.71
   5  -3   4    5.43    0.63
   5  -3   4    6.22    0.63
  -5  -3  -4    6.01    0.66
  -5  -3  -4    7.14    0.52
  -5  -3  -4    7.46    0.82
   5   3   4    6.85    0.61
   5   3   4    7.99    0.97
   5   3   4    6.31    0.71
  -5   3  -4    6.63    0.87
   5   3   4    7.21    0.81
  -5   3  -4    6.01    0.71
   5   3   4    6.42    0.58
  -5   3  -4    7.05    0.46
  -5   3  -4    6.78    0.40
   6  -3   4    2.07    0.54
  -6  -3  -4    1.63    0.66
  -6  -3  -4    1.76    0.52
   6  -3   4    1.37    0.39
  -6  -3  -4    1.94    0.53
  -6   3  -4    1.90    0.58
   6   3   4    1.75    0.43
   6   3   4    2.00    0.56
   6   3   4    1.39    0.58
   7  -3   4    0.92    0.45
  -7  -3  -4    0.41    0.61
   7  -3   4   -1.13    0.62
   7   3   4    0.86    0.63
   7   3   4    1.01    0.68
   7   3   4    0.65    0.58
  -7   3  -4   -0.50    0.66
  -8  -4   4    1.19    0.80
  -8  -4   4   -0.80    0.85
   8  -4  -4    0.26    0.47
   8  -4  -4    1.95    0.76
  -8   4   4   -0.82    0.71
   8   4  -4    0.43    0.82
   8   4  -4   -1.01    0.67
   7  -4  -4    2.66    0.63
  -7  -4   4    2.61    0.64
   7  -4  -4    2.30    0.41
  -7  -4   4    2.52    0.67
  -7   4   4    2.16    0.63
   7   4  -4    4.12    0.67
  -7   4   4    3.20    0.60
  -6  -4   4   -0.59    0.48
  -6  -4   4   -0.82    0.52
   6  -4  -4   -0.40    0.26
   6  -4  -4   -0.20    0.41
   6  -4  -4    0.27    0.40
  -6  -4   4   -0.10    0.39
   6   4  -4    0.09    0.39
  -6   4   4   -0.34    0.37
  -6   4   4   -0.03    0.46
  -5  -4   4    0.93    0.53
   5  -4  -4    1.42    0.26
   5  -4  -4    1.24    0.35
  -5  -4   4    0.66    0.41
  -5  -4   4    0.99    0.43
  -5  -4   4    1.57    0.39
  -5   4   4    1.35    0.46
   5   4  -4    1.37    0.37
   5   4  -4    1.14    0.26
   5   4  -4    1.00    0.68
  -5   4   4    1.11    0.42
  -5   4   4    1.33    0.30
   5   4  -4    1.25    0.34
  -5   4   4    1.27    0.32
   4  -4  -4   16.89    0.81
  -4  -4   4   14.57    0.77
   4  -4  -4   14.67    0.62
  -4  -4   4   14.70    0.82
  -4  -4   4   15.50    0.99
  -4  -4   4   15.81    0.87
   4  -4  -4   16.04    0.68
   4  -4  -4   15.86    0.64
  -4  -4   4   14.68    0.75
  -4   4   4   15.26    0.59
  -4   4   4   15.96    0.67
   4   4  -4   16.16    0.84
   4   4  -4   15.13    0.80
  -4   4   4   16.06    0.69
  -4   4   4   15.27    0.65
   4   4  -4   16.10    0.66
   4   4  -4   13.91    0.95
  -4   4   4   15.94    0.85
   4   4  -4   14.94    0.94
  -3  -4   4    1.72    0.22
  -3  -4   4    2.18    0.32
   3  -4  -4    2.77    0.32
   3  -4  -4    2.45    0.36
   3  -4  -4    2.12    0.25
  -3  -4   4    2.66    0.43
  -3  -4   4    2.39    0.33
   3  -4  -4    2.37    0.27
  -3  -4   4    2.21    0.34
  -3  -4   4    2.28    0.39
  -3   4   4    2.10    0.28
  -3   4   4    1.99    0.30
  -3   4   4    2.28    0.19
  -3   4   4    2.54    0.27
  -3   4   4    2.41    0.29
  -3   4   4    1.88    0.34
   3   4  -4    2.58    0.29
  -3   4   4    3.51    0.34
   3   4  -4    2.61    0.43
  -3   4   4    2.22    0.31
   3   4  -4    2.12    0.36
  -3   4   4    3.04    0.42
   3   4  -4    1.96    0.30
   3   4  -4    1.75    0.37
   2  -4  -4    0.21    0.20
  -2  -4   4    0.92    0.18
  -2  -4   4    0.44    0.13
  -2  -4   4    0.40    0.21
   2  -4  -4    0.34    0.17
   2  -4  -4    0.38    0.15
  -2  -4   4    0.20    0.23
  -2  -4   4    0.16    0.20
  -2  -4   4    0.15    0.25
   2  -4  -4    0.60    0.24
  -2  -4   4    0.58    0.23
  -2  -4   4    0.51    0.13
  -2   4   4    0.37    0.24
   2   4  -4    0.18    0.24
   2   4  -4    0.15    0.18
  -2   4   4   -0.18    0.16
  -2   4   4    0.24    0.19
   2   4  -4    0.11    0.18
  -2   4   4    0.35    0.19
   2   4  -4    0.67    0.24
  -2   4   4    0.56    0.14
  -2   4   4    0.42    0.14
   2   4  -4    0.35    0.19
   2   4  -4    0.35    0.25
  -1  -4   4   21.41    0.82
   1  -4  -4   21.63    0.74
   1  -4  -4   22.54    0.83
   1  -4  -4   21.71    0.71
  -1  -4   4   21.53    0.62
  -1  -4   4   21.71    0.81
  -1  -4   4   22.09    0.76
   1  -4  -4   21.72    0.73
  -1  -4   4   21.08    0.86
  -1  -4   4   21.85    0.76
   1   4  -4   19.83    0.81
  -1   4   4   22.18    0.72
  -1   4   4   21.19    0.85
   1   4  -4   21.85    0.78
   1   4  -4   21.60    0.80
  -1   4   4   22.02    0.77
  -1   4   4   22.18    0.78
   1   4  -4   22.29    0.82
   1   4  -4   21.37    0.80
  -1   4   4   20.68    0.71
  -1   4   4   20.93    0.68
  -1   4   4   20.60    0.71
   1   4  -4   22.05    0.80
   0  -4   4   59.13    1.78
   0  -4   4   60.93    1.67
   0  -4  -4   60.71    1.82
   0  -4   4   60.77    1.85
   0  -4  -4   57.53    1.75
   0  -4   4   59.53    1.77
   0  -4  -4   60.14    1.74
   0  -4  -4   61.49    1.82
   0   4  -4   57.06    1.72
   0   4  -4   59.81    1.76
   0   4  -4   60.67    1.81
   0   4  -4   61.50    1.69
   0   4   4   58.63    1.78
   0   4   4   59.39    1.84
   0   4   4   60.19    1.75
   0   4   4   59.34    1.78
   0   4  -4   64.02    1.68
   0   4  -4   58.16    1.79
   0   4   4   58.72    1.72
   0   4  -4   60.11    1.82
   0   4   4   59.91    1.61
   0   4   4   60.47    1.74
   1  -4   4   17.11    0.65
   1  -4   4   16.77    0.69
   1  -4   4   17.06    0.76
  -1  -4  -4   17.43    0.71
  -1  -4  -4   17.52    0.71
  -1  -4  -4   16.76    0.71
  -1  -4  -4   17.13    0.74
   1  -4   4   16.47    0.66
  -1  -4  -4   17.56    0.73
   1  -4   4   17.08    0.65
   1   4   4   18.20    0.76
   1   4   4   17.96    0.67
  -1   4  -4   16.00    0.70
  -1   4  -4   17.22    0.69
   1   4   4   16.55    0.71
   1   4   4   16.95    0.66
  -1   4  -4   17.37    0.66
  -1   4  -4   18.24    0.54
  -1   4  -4   16.86    0.60
  -1   4  -4   17.76    0.66
  -1   4  -4   16.92    0.68
   1   4   4   17.54    0.73
   1   4   4   17.16    0.70
   2  -4   4   80.57    2.32
  -2  -4  -4   79.71    2.15
   2  -4   4   80.06    2.29
   2  -4   4   79.78    2.34
  -2  -4  -4   76.03    2.38
   2  -4   4   79.02    2.29
   2  -4   4   82.15    2.45
  -2  -4  -4   81.10    2.37
  -2  -4  -4   80.62    2.39
  -2  -4  -4   81.78    2.35
  -2  -4  -4   79.24    2.14
  -2  -4  -4   81.58    2.40
   2   4   4   78.07    2.36
  -2   4  -4   79.60    2.35
   2   4   4   83.46    2.39
  -2   4  -4   79.16    2.32
  -2   4  -4   81.17    2.48
  -2   4  -4   75.33    2.50
  -2   4  -4   77.57    2.40
   2   4   4   81.27    2.34
  -2   4  -4   81.15    2.27
   2   4   4   81.13    2.41
   2   4   4   77.70    2.37
   2   4   4   79.44    2.34
  -2   4  -4   73.99    2.30
   3  -4   4   19.76    0.78
   3  -4   4   19.28    0.81
  -3  -4  -4   19.72    0.91
   3  -4   4   20.19    0.92
  -3  -4  -4   19.36    1.31
  -3  -4  -4   19.06    0.72
  -3  -4  -4   19.00    0.72
   3  -4   4   18.42    0.81
  -3  -4  -4   18.29    1.00
   3  -4   4   19.25    0.87
  -3  -4  -4   19.71    0.93
  -3  -4  -4   19.87    0.81
  -3   4  -4   19.08    0.95
  -3   4  -4   19.81    0.78
   3   4   4   18.94    0.88
   3   4   4   18.73    1.00
  -3   4  -4   19.90    0.92
   3   4   4   19.53    0.94
   3   4   4   20.49    0.84
  -3   4  -4   19.67    1.07
   3   4   4   20.41    0.90
   4  -4   4   10.21    0.74
   4  -4   4   10.60    0.60
  -4  -4  -4   10.18    1.08
   4  -4   4   11.13    0.75
  -4  -4  -4   10.63    0.72
  -4  -4  -4   10.95    0.62
  -4  -4  -4   13.08    0.85
  -4  -4  -4   11.71    0.64
  -4  -4  -4   12.22    0.81
   4   4   4   11.39    0.90
  -4   4  -4   11.43    0.71
   4   4   4   11.54    0.80
  -4   4  -4   12.20    0.60
  -4   4  -4   12.23    0.78
   4   4   4   11.54    0.67
   4   4   4   10.84    1.04
   4   4   4   11.65    0.73
   5  -4   4    1.07    0.43
   5  -4   4    0.13    0.26
  -5  -4  -4    0.73    0.38
  -5  -4  -4    0.35    0.28
   5  -4   4    0.48    0.48
  -5  -4  -4    0.80    0.42
  -5  -4  -4   -0.03    0.44
  -5  -4  -4    0.91    0.64
   5   4   4    0.83    0.45
  -5   4  -4    0.66    0.27
   5   4   4    0.76    0.51
   5   4   4    0.69    0.35
  -5   4  -4    0.71    0.48
  -5   4  -4    0.05    0.39
   5   4   4    0.92    0.87
  -6  -4  -4    0.58    0.47
  -6  -4  -4    0.12    0.50
   6  -4   4    0.12    0.47
   6  -4   4    0.34    0.33
  -6  -4  -4   -0.04    0.60
   6   4   4    0.35    0.50
   6   4   4   -0.46    0.54
   6   4   4    0.33    0.42
  -6   4  -4   -0.23    0.49
  -7  -4  -4   -0.42    0.64
   7  -4   4    0.98    0.70
  -7  -4  -4   -0.64    0.73
   7  -4   4    0.99    0.46
   7   4   4    0.58    0.67
  -7   4  -4   -0.90    0.70
   7   4   4    0.68    0.58
   7   4   4   -0.37    0.84
  -7   4  -4    0.54    0.64
  -8  -5   4    1.20    0.88
   8  -5  -4    0.72    0.48
  -8  -5   4    2.32    0.92
   8  -5  -4   -0.15    0.89
   8   5  -4    1.61    0.97
  -8   5   4   -1.79    0.93
   8   5  -4    1.02    0.78
   7  -5  -4    0.21    0.34
   7  -5  -4    0.12    0.61
  -7  -5   4    0.04    0.62
  -7  -5   4    0.87    0.67
  -7   5   4   -0.19    0.70
   7   5  -4    0.74    0.51
  -7   5   4   -0.40    0.53
   6  -5  -4   -0.19    0.25
   6  -5  -4    0.83    0.45
  -6  -5   4   -0.31    0.58
   6  -5  -4    0.90    0.39
  -6  -5   4    0.89    0.54
  -6  -5   4    0.03    0.44
   6   5  -4    0.29    0.42
  -6   5   4    0.40    0.25
   6   5  -4    0.43    0.31
  -6   5   4    0.52    0.55
  -6   5   4    0.73    0.41
   5  -5  -4   11.98    0.62
  -5  -5   4   11.23    0.82
   5  -5  -4   11.31    0.79
   5  -5  -4   10.85    0.55
  -5  -5   4   11.02    0.84
  -5  -5   4   11.59    0.91
  -5  -5   4   10.60    0.94
  -5   5   4   11.09    0.85
  -5   5   4   10.59    0.74
   5   5  -4   12.12    0.78
  -5   5   4   11.28    0.65
   5   5  -4    9.21    1.01
  -5   5   4   11.19    0.84
   5   5  -4   11.57    0.63
   5   5  -4    9.42    0.85
  -4  -5   4    0.65    0.55
   4  -5  -4   -0.20    0.27
   4  -5  -4    0.22    0.21
   4  -5  -4    0.52    0.19
   4  -5  -4    0.22    0.17
   4  -5  -4    0.23    0.17
  -4  -5   4    0.73    0.40
  -4  -5   4   -0.04    0.30
  -4  -5   4    0.35    0.32
  -4  -5   4    0.33    0.32
   4   5  -4    0.64    0.34
   4   5  -4    0.84    0.80
   4   5  -4    0.11    0.23
  -4   5   4    0.48    0.35
   4   5  -4    0.35    0.27
  -4   5   4    0.48    0.23
  -4   5   4    0.43    0.30
  -4   5   4    0.29    0.35
   3  -5  -4    7.29    0.38
   3  -5  -4    7.97    0.49
  -3  -5   4    6.47    0.55
   3  -5  -4    7.89    0.45
   3  -5  -4    7.36    0.56
  -3  -5   4    7.72    0.60
  -3  -5   4    6.89    0.60
  -3  -5   4    7.34    0.38
  -3  -5   4    7.46    0.75
  -3  -5   4    7.45    0.40
   3   5  -4    6.31    0.66
  -3   5   4    7.02    0.54
   3   5  -4    6.94    0.55
   3   5  -4    6.67    0.68
   3   5  -4    7.42    0.67
   3   5  -4    6.91    0.50
   3   5  -4    7.89    0.69
  -3   5   4    6.66    0.56
  -3   5   4    7.90    0.44
  -3   5   4    7.26    0.60
  -3   5   4    7.65    0.47
  -2  -5   4   28.68    1.10
  -2  -5   4   29.36    1.05
  -2  -5   4   29.31    1.10
   2  -5  -4   30.98    0.94
  -2  -5   4   29.06    1.08
   2  -5  -4   30.67    0.93
   2  -5  -4   29.85    1.05
  -2  -5   4   29.83    1.08
   2   5  -4   29.71    1.10
  -2   5   4   29.16    0.94
   2   5  -4   28.66    1.05
  -2   5   4   29.14    1.11
   2   5  -4   28.30    1.08
  -2   5   4   29.38    1.05
   2   5  -4   27.84    1.08
   2   5  -4   29.22    1.05
  -2   5   4   30.30    0.86
  -2   5   4   29.78    1.04
   2   5  -4   31.00    1.12
  -2   5   4   29.43    0.85
  -2   5   4   30.44    1.03
   1  -5  -4   36.84    1.17
  -1  -5   4   39.15    1.23
   1  -5  -4   37.98    1.18
  -1  -5   4   37.77    1.30
  -1  -5   4   37.19    1.31
  -1  -5   4   39.27    1.27
   1  -5  -4   37.89    1.19
   1  -5  -4   38.89    1.29
  -1  -5   4   38.98    1.28
   1   5  -4   37.16    1.22
  -1   5   4   37.29    1.25
   1   5  -4   38.49    1.27
   1   5  -4   40.01    1.29
  -1   5   4   38.27    1.15
  -1   5   4   41.65    1.31
   1   5  -4   36.67    1.27
  -1   5   4   37.93    1.32
  -1   5   4   39.98    1.16
   1   5  -4   39.34    1.23
  -1   5   4   38.41    1.24
   1   5  -4   39.58    1.30
  -1   5   4   38.09    1.12
  -1   5   4   37.75    1.19
   0  -5   4   25.62    1.01
   0  -5   4   27.57    0.89
   0  -5   4   27.73    0.94
   0  -5  -4   26.46    0.94
   0  -5  -4   27.53    0.93
   0  -5   4   26.63    0.80
   0  -5  -4   27.52    1.00
   0  -5  -4   27.23    0.94
   0  -5   4   27.85    0.95
   0  -5  -4   27.44    1.01
   0  -5   4   26.33    1.01
   0   5  -4   27.20    0.89
   0   5   4   26.03    0.95
   0   5   4   28.54    0.93
   0   5   4   27.01    0.99
   0   5   4   27.41    0.88
   0   5  -4   28.13    0.95
   0   5  -4   27.42    0.97
   0   5   4   26.56    0.94
   0   5  -4   26.75    0.88
   0   5  -4   26.92    0.98
   0   5  -4   28.50    1.00
   0   5   4   27.04    0.95
   0   5   4   25.94    1.00
   0   5  -4   27.89    0.81
  -1  -5  -4   10.65    0.61
  -1  -5  -4   10.39    0.55
   1  -5   4   10.67    0.49
   1  -5   4   11.11    0.63
  -1  -5  -4   10.91    0.62
  -1  -5  -4   10.23    0.58
   1  -5   4   11.20    0.51
   1  -5   4    9.93    0.54
   1  -5   4   10.09    0.50
  -1  -5  -4   10.17    0.58
  -1   5  -4    9.62    0.50
   1   5   4   11.01    0.55
   1   5   4   10.43    0.55
   1   5   4    9.96    0.59
  -1   5  -4   10.90    0.42
   1   5   4   10.72    0.59
  -1   5  -4   10.32    0.50
  -1   5  -4   11.40    0.58
   1   5   4    9.92    0.49
  -1   5  -4   10.39    0.55
   1   5   4    9.76    0.59
   2  -5   4    7.34    0.50
   2  -5   4    7.45    0.44
   2  -5   4    8.31    0.63
  -2  -5  -4    7.95    0.56
  -2  -5  -4    7.94    0.58
  -2  -5  -4    7.88    0.56
  -2  -5  -4    7.40    0.67
   2  -5   4    8.29    0.50
  -2   5  -4    7.91    0.50
   2   5   4    8.11    0.62
   2   5   4    8.63    0.55
   2   5   4    7.29    0.64
  -2   5  -4    8.07    0.29
   2   5   4    7.14    0.68
  -2   5  -4    8.37    0.30
   2   5   4    5.10    0.83
   2   5   4    7.55    0.55
  -2   5  -4    8.50    0.58
  -2   5  -4    7.50    0.51
  -2   5  -4    7.91    0.59
   3  -5   4   18.06    0.74
  -3  -5  -4   18.36    1.05
  -3  -5  -4   17.88    0.91
   3  -5   4   18.73    0.85
   3  -5   4   18.44    0.91
  -3  -5  -4   18.11    0.83
  -3  -5  -4   18.27    0.90
  -3  -5  -4   17.64    0.63
  -3  -5  -4   17.96    0.64
   3  -5   4   18.15    0.80
   3   5   4   17.49    0.94
   3   5   4   18.20    1.05
   3   5   4   18.69    0.88
  -3   5  -4   17.20    0.98
  -3   5  -4   18.24    0.90
   3   5   4   18.49    0.83
  -3   5  -4   18.66    0.80
   3   5   4   18.62    0.94
  -3   5  -4   18.48    0.76
  -4  -5  -4    2.36    0.36
   4  -5   4    2.03    0.42
  -4  -5  -4    1.08    0.48
  -4  -5  -4    1.51    0.43
  -4  -5  -4    2.03    0.36
  -4  -5  -4    1.79    0.39
  -4  -5  -4    1.20    0.68
   4  -5   4    1.77    0.28
   4  -5   4    2.05    0.40
   4   5   4    1.80    0.43
  -4   5  -4    2.13    0.34
  -4   5  -4    2.10    0.46
   4   5   4    1.86    0.38
  -4   5  -4    1.68    0.37
   4   5   4    1.33    0.44
  -5  -5  -4   -0.27    0.50
  -5  -5  -4    0.14    0.37
  -5  -5  -4   -0.09    0.32
   5  -5   4   -0.17    0.24
   5  -5   4   -0.29    0.41
  -5  -5  -4   -0.29    0.40
   5   5   4    0.60    0.57
  -5   5  -4    0.70    0.44
  -5   5  -4    0.09    0.29
   5   5   4    0.07    0.36
   5   5   4   -0.44    0.41
  -6  -5  -4   -0.71    0.64
   6  -5   4    0.56    0.48
  -6  -5  -4    0.12    0.48
   6  -5   4   -0.18    0.31
  -6  -5  -4   -0.18    0.54
   6   5   4    0.07    0.48
   6   5   4    0.93    0.56
   6   5   4    0.74    0.68
  -6   5  -4    0.12    0.57
   7  -5   4    2.48    0.47
   7  -5   4    2.51    0.82
  -7  -5  -4    2.10    0.65
   7   5   4    4.23    1.42
   7   5   4    3.42    0.86
   7   5   4    1.89    0.69
  -7   5  -4    3.10    0.78
  -7   5  -4    0.29    0.79
   7  -6  -4   -0.03    0.34
  -7  -6   4    0.55    0.71
   7  -6  -4    0.02    0.66
  -7  -6   4    1.20    0.72
   7  -6  -4    0.43    0.52
   7   6  -4   -1.02    0.55
  -7   6   4    0.52    0.75
   7   6  -4    1.04    0.78
  -6  -6   4    1.48    0.56
   6  -6  -4    0.68    0.35
   6  -6  -4    0.31    0.25
  -6  -6   4    0.90    0.56
   6  -6  -4    1.10    0.53
  -6  -6   4   -0.04    0.67
  -6   6   4    0.62    0.47
   6   6  -4    0.71    0.55
   6   6  -4    0.90    0.38
  -6   6   4    0.79    0.29
  -6   6   4    0.77    0.60
   6   6  -4    1.04    0.41
  -5  -6   4    0.41    0.42
   5  -6  -4    0.09    0.18
   5  -6  -4    0.36    0.41
   5  -6  -4    0.42    0.26
  -5  -6   4    0.77    0.46
  -5  -6   4    0.44    0.48
  -5   6   4    0.28    0.63
  -5   6   4   -0.28    0.42
  -5   6   4   -0.34    0.31
   5   6  -4    0.73    0.44
  -5   6   4    0.39    0.51
   5   6  -4    0.09    0.34
   5   6  -4    0.17    0.29
  -4  -6   4    0.35    0.38
   4  -6  -4    0.98    0.18
  -4  -6   4    1.17    0.41
  -4  -6   4    1.52    0.42
   4  -6  -4    1.12    0.37
   4  -6  -4    1.36    0.21
  -4  -6   4    0.67    0.59
  -4  -6   4    1.32    0.34
   4   6  -4    1.24    0.36
   4   6  -4    0.97    0.29
  -4   6   4    0.95    0.37
  -4   6   4    1.27    0.42
  -4   6   4    1.24    0.29
  -4   6   4    1.53    0.41
  -3  -6   4    9.64    0.34
   3  -6  -4   10.68    0.42
  -3  -6   4    9.69    0.66
   3  -6  -4    9.85    0.60
  -3  -6   4   10.04    0.71
   3  -6  -4   10.37    0.44
  -3  -6   4   10.74    0.69
  -3  -6   4   10.24    0.85
  -3   6   4   10.45    0.71
  -3   6   4    8.54    0.71
   3   6  -4   10.16    0.61
  -3   6   4    9.95    0.89
   3   6  -4    9.46    0.65
   3   6  -4   11.35    1.25
   3   6  -4   10.82    0.79
  -3   6   4    9.53    0.59
  -3   6   4   11.23    0.55
  -3   6   4    9.86    0.64
  -2  -6   4    9.12    0.68
   2  -6  -4    9.11    0.40
  -2  -6   4   10.08    0.63
  -2  -6   4    8.89    0.64
   2  -6  -4    9.29    0.58
  -2  -6   4    9.82    0.62
  -2  -6   4    8.14    0.62
   2  -6  -4    8.81    0.44
   2   6  -4    9.68    0.74
  -2   6   4    8.92    0.61
  -2   6   4    8.81    0.53
   2   6  -4    8.34    0.64
  -2   6   4    9.00    0.63
   2   6  -4    8.95    0.67
   2   6  -4    9.16    0.57
  -2   6   4    9.46    0.53
   2   6  -4   10.44    0.75
  -2   6   4    8.42    0.63
   2   6  -4    9.61    0.58
  -2   6   4    8.86    0.57
  -1  -6   4    2.58    0.35
   1  -6  -4    2.15    0.27
  -1  -6   4    2.18    0.38
   1  -6  -4    2.33    0.24
  -1  -6   4    2.61    0.38
  -1  -6   4    2.85    0.34
  -1  -6   4    2.81    0.38
   1  -6  -4    2.46    0.28
   1  -6  -4    2.00    0.32
   1   6  -4    2.56    0.31
  -1   6   4    2.50    0.32
   1   6  -4    4.09    0.70
  -1   6   4    2.26    0.23
  -1   6   4    2.19    0.33
  -1   6   4    2.66    0.31
  -1   6   4    2.22    0.20
   1   6  -4    2.58    0.31
   1   6  -4    2.36    0.33
   1   6  -4    2.95    0.38
  -1   6   4    1.81    0.24
  -1   6   4    2.59    0.31
   1   6  -4    2.32    0.35
   0  -6   4    1.96    0.35
   0  -6   4    1.83    0.26
   0  -6  -4    1.25    0.30
   0  -6  -4    2.41    0.40
   0  -6  -4    1.59    0.24
   0  -6   4    1.70    0.28
   0  -6  -4    1.90    0.28
   0  -6   4    1.83    0.30
   0  -6  -4    1.79    0.29
   0   6  -4    1.50    0.28
   0   6  -4    2.00    0.24
   0   6  -4    1.66    0.16
   0   6   4    2.04    0.36
   0   6   4    1.29    0.21
   0   6   4    1.42    0.23
   0   6  -4    1.64    0.28
   0   6  -4    1.60    0.17
   0   6   4    2.02    0.27
   0   6   4    1.88    0.31
   0   6   4    1.08    0.27
   1  -6   4   61.87    1.88
  -1  -6  -4   62.83    1.94
   1  -6   4   63.34    1.84
   1  -6   4   65.28    1.90
  -1  -6  -4   65.06    2.01
   1  -6   4   65.91    2.06
  -1  -6  -4   63.43    2.04
  -1  -6  -4   65.34    1.99
  -1   6  -4   66.17    2.00
   1   6   4   61.04    2.00
  -1   6  -4   59.84    2.00
   1   6   4   62.07    1.93
  -1   6  -4   65.51    1.85
   1   6   4   61.77    1.98
  -1   6  -4   64.49    1.82
   1   6   4   65.78    2.02
  -1   6  -4   64.18    2.11
  -2  -6  -4    7.36    0.58
   2  -6   4    8.20    0.68
  -2  -6  -4    7.51    0.64
  -2  -6  -4    7.76    0.73
   2  -6   4    8.08    0.54
   2  -6   4    7.64    0.45
   2  -6   4    7.13    0.50
  -2  -6  -4    7.68    0.57
  -2  -6  -4    5.47    0.71
  -2   6  -4    7.51    0.36
   2   6   4    8.06    0.65
   2   6   4    7.69    0.58
  -2   6  -4    7.33    0.47
  -2   6  -4    8.45    0.57
   2   6   4    7.37    0.58
  -2   6  -4    8.08    0.63
  -2   6  -4    7.78    0.39
   3  -6   4    9.59    0.52
  -3  -6  -4   10.09    0.75
  -3  -6  -4   10.37    0.66
   3  -6   4   11.00    0.76
   3  -6   4    9.87    0.67
   3  -6   4    9.47    0.64
  -3  -6  -4   10.77    0.98
  -3  -6  -4   10.21    0.75
  -3   6  -4   10.05    0.73
   3   6   4   10.40    0.70
  -3   6  -4   10.03    0.62
  -3   6  -4    9.80    0.92
   3   6   4    9.83    0.66
   3   6   4   10.28    0.82
  -3   6  -4    9.61    0.56
  -4  -6  -4    4.41    0.47
  -4  -6  -4    4.00    0.45
  -4  -6  -4    3.72    0.84
  -4  -6  -4    4.03    0.47
   4  -6   4    4.41    0.54
  -4  -6  -4    4.73    0.58
   4  -6   4    4.43    0.42
   4  -6   4    4.35    0.61
  -4  -6  -4    4.12    0.57
   4   6   4    3.74    0.50
   4   6   4    4.91    0.63
  -4   6  -4    3.66    0.55
   4   6   4    3.85    0.57
  -4   6  -4    3.56    0.43
   5  -6   4    2.12    0.45
  -5  -6  -4    1.81    0.42
   5  -6   4    3.28    0.61
  -5  -6  -4    1.98    0.61
  -5  -6  -4    2.62    0.43
   5  -6   4    1.59    0.31
  -5  -6  -4    3.29    0.57
  -5   6  -4    2.97    0.42
  -5   6  -4    2.64    0.92
   5   6   4    1.80    0.46
   5   6   4    2.35    0.55
   5   6   4    2.53    0.63
   6  -6   4   -0.08    0.32
  -6  -6  -4    0.91    0.56
   6  -6   4   -0.60    0.56
  -6  -6  -4   -0.74    0.70
   6   6   4    0.33    0.58
   6   6   4   -1.71    0.67
   6   6   4   -0.31    0.46
  -6   6  -4   -1.06    0.60
   7  -6   4    0.27    0.43
   7  -6   4   -1.42    0.85
  -7  -6  -4    1.89    0.72
   7   6   4    1.63    0.88
   7   6   4    0.54    0.70
  -7   6  -4    1.47    0.79
  -7   6  -4    0.44    0.89
  -7  -7   4    1.92    0.79
   7  -7  -4    0.71    0.41
   7  -7  -4    1.42    0.32
  -7  -7   4    2.49    0.84
   7   7  -4    2.09    0.64
  -7   7   4    2.13    0.89
  -6  -7   4   -0.64    0.65
   6  -7  -4    0.36    0.28
  -6  -7   4    0.71    0.55
   6  -7  -4   -0.25    0.21
   6   7  -4    0.26    0.41
  -6   7   4    0.19    0.51
   6   7  -4    0.83    0.48
  -6   7   4   -0.13    0.58
   6   7  -4    0.09    0.68
  -5  -7   4    1.06    0.52
   5  -7  -4    0.42    0.17
  -5  -7   4    0.43    0.53
   5  -7  -4    0.54    0.21
  -5  -7   4    0.19    0.44
  -5   7   4    1.45    0.44
   5   7  -4    0.85    0.37
  -5   7   4    0.69    0.39
  -5   7   4    1.27    0.50
   5   7  -4    0.20    0.55
   4  -7  -4    8.09    0.36
  -4  -7   4    6.33    0.74
  -4  -7   4    6.84    0.45
   4  -7  -4    7.60    0.33
  -4  -7   4    7.68    0.97
  -4  -7   4    7.79    0.41
  -4  -7   4    6.34    0.76
  -4  -7   4    7.36    0.74
   4   7  -4    7.60    0.68
  -4   7   4    7.42    0.85
  -4   7   4    8.47    0.73
   4   7  -4    7.21    0.62
   4   7  -4    8.70    0.98
  -4   7   4    8.04    0.75
  -4   7   4    6.67    0.57
  -3  -7   4    0.45    0.32
   3  -7  -4    0.04    0.15
  -3  -7   4    0.02    0.33
  -3  -7   4    0.55    0.61
   3  -7  -4    0.07    0.12
  -3  -7   4   -0.31    0.32
   3  -7  -4    0.30    0.28
   3   7  -4   -0.05    0.38
  -3   7   4   -0.48    0.28
  -3   7   4   -0.13    0.50
   3   7  -4    0.07    0.31
   3   7  -4    0.11    0.25
  -3   7   4    0.14    0.30
  -3   7   4    0.23    0.37
   2  -7  -4    0.69    0.18
  -2  -7   4    1.02    0.29
   2  -7  -4    1.07    0.30
  -2  -7   4    0.72    0.34
  -2  -7   4    0.39    0.30
   2  -7  -4    0.85    0.17
  -2  -7   4    0.55    0.38
  -2   7   4    0.76    0.27
   2   7  -4    0.64    0.30
  -2   7   4    1.12    0.34
   2   7  -4    0.59    0.35
   2   7  -4    1.21    0.29
  -2   7   4    1.25    0.36
  -2   7   4    0.94    0.35
  -1  -7   4    2.23    0.38
  -1  -7   4    2.61    0.34
  -1  -7   4    2.02    0.37
   1  -7  -4    2.11    0.24
   1  -7  -4    2.71    0.30
   1  -7  -4    2.41    0.32
   1  -7  -4    2.67    0.38
   1   7  -4    2.58    0.33
  -1   7   4    2.56    0.24
  -1   7   4    2.55    0.37
   1   7  -4    2.41    0.39
  -1   7   4    2.43    0.34
   1   7  -4    2.46    0.53
   1   7  -4    2.11    0.35
  -1   7   4    3.55    0.50
  -1   7   4    2.79    0.38
  -1   7   4    2.83    0.42
   0  -7  -4    0.57    0.26
   0  -7  -4    0.75    0.21
   0  -7   4    0.57    0.27
   0  -7  -4    0.74    0.31
   0  -7   4    0.59    0.30
   0  -7   4    0.82    0.25
   0  -7   4    0.65    0.34
   0  -7   4    0.83    0.32
   0  -7  -4    0.40    0.27
   0   7   4    0.29    0.25
   0   7   4    0.77    0.42
   0   7   4    0.26    0.27
   0   7   4    0.83    0.27
   0   7  -4    0.47    0.29
   0   7  -4    0.83    0.26
   0   7  -4    0.80    0.24
  -1  -7  -4    4.05    0.50
  -1  -7  -4    5.58    0.50
  -1  -7  -4    4.17    0.53
   1  -7   4    4.53    0.47
   1  -7   4    3.70    0.38
   1  -7   4    5.02    0.38
   1  -7   4    4.40    0.57
  -1  -7  -4    4.49    0.56
   1   7   4    4.96    0.63
  -1   7  -4    3.99    0.46
   1   7   4    4.81    0.57
   1   7   4    4.71    0.52
  -1   7  -4    5.02    0.50
   1   7   4    4.89    0.51
  -1   7  -4    5.19    0.39
  -1   7  -4    4.27    0.41
   2  -7   4    9.81    0.57
   2  -7   4   10.70    0.77
  -2  -7  -4   11.01    0.69
  -2  -7  -4    9.25    0.67
  -2  -7  -4   10.06    0.86
  -2  -7  -4   11.25    0.75
   2  -7   4    9.87    0.51
  -2   7  -4    9.75    0.49
  -2   7  -4   10.31    0.55
   2   7   4   10.63    0.80
   2   7   4    9.86    0.68
  -2   7  -4   10.10    0.74
   2   7   4    9.85    0.67
  -2   7  -4    9.46    0.52
  -2   7  -4   10.08    0.64
  -3  -7  -4    5.30    0.57
   3  -7   4    5.06    0.49
  -3  -7  -4    5.70    0.68
   3  -7   4    5.03    0.56
   3  -7   4    4.58    0.40
   3  -7   4    6.06    0.68
  -3  -7  -4    5.70    0.68
  -3  -7  -4    4.58    0.73
  -3   7  -4    5.00    0.39
   3   7   4    4.60    0.59
   3   7   4    5.49    0.60
  -3   7  -4    5.09    0.64
  -3   7  -4    4.68    0.34
  -3   7  -4    6.08    0.54
   3   7   4    3.83    0.48
   4  -7   4    1.05    0.31
  -4  -7  -4    0.81    0.38
   4  -7   4    0.68    0.23
  -4  -7  -4    1.25    0.45
  -4  -7  -4    0.04    0.46
   4  -7   4   -0.09    0.38
  -4   7  -4    0.78    0.46
  -4   7  -4    1.39    0.37
   4   7   4    1.50    0.46
   4   7   4    1.30    0.42
   4   7   4    0.44    0.60
  -5  -7  -4    1.57    0.61
   5  -7   4    1.43    0.44
   5  -7   4    1.50    0.55
  -5  -7  -4    1.48    0.53
   5  -7   4    0.82    0.27
   5   7   4    1.42    0.57
   5   7   4    1.18    0.74
  -5   7  -4    1.28    0.52
   5   7   4    0.32    0.56
  -5   7  -4    1.14    0.42
   6  -7   4    0.63    0.66
  -6  -7  -4    1.89    0.90
   6  -7   4    0.68    0.35
  -6  -7  -4    1.72    0.65
   6   7   4    0.86    0.61
   6   7   4    2.35    0.73
  -6   7  -4    0.35    0.72
  -7  -8   4    1.70    1.05
  -7  -8   4    1.70    0.96
   7   8  -4    3.18    0.76
  -7   8   4    3.80    0.94
  -7   8   4    3.99    1.11
  -6  -8   4   -0.41    0.67
  -6  -8   4    0.54    0.78
  -6  -8   4    0.23    0.65
  -6   8   4    0.70    0.61
   6   8  -4   -0.36    0.49
   6   8  -4   -0.41    0.52
  -6   8   4    0.51    0.72
  -5  -8   4    0.46    0.52
  -5  -8   4   -0.68    0.60
  -5  -8   4   -0.51    0.51
   5   8  -4    0.15    0.41
  -5   8   4    0.22    0.55
  -5   8   4   -0.78    0.43
   5   8  -4    0.15    0.62
   5   8  -4    0.40    0.40
  -5   8   4   -0.58    0.52
  -4  -8   4    0.43    0.42
  -4  -8   4    0.72    0.45
  -4  -8   4    1.09    0.46
  -4   8   4    0.54    0.36
  -4   8   4    0.57    0.41
   4   8  -4    1.06    0.64
  -4   8   4    0.93    0.46
   4   8  -4    0.24    0.35
   4   8  -4    0.46    0.40
  -3  -8   4    4.47    0.54
  -3  -8   4    4.81    0.57
  -3  -8   4    5.34    0.81
   3  -8  -4    4.11    0.22
  -3  -8   4    4.43    0.56
   3  -8  -4    4.28    0.25
   3   8  -4    5.33    0.64
   3   8  -4    4.87    0.58
  -3   8   4    4.83    0.72
   3   8  -4    4.98    0.62
  -3   8   4    4.84    0.64
  -3   8   4    5.29    0.60
  -2  -8   4   11.58    0.72
  -2  -8   4   10.49    0.77
  -2  -8   4   11.85    0.79
  -2  -8   4    9.85    0.88
   2  -8  -4   10.76    0.72
   2  -8  -4   10.96    0.46
   2  -8  -4   12.23    0.49
  -2   8   4   10.74    0.89
   2   8  -4   10.97    0.71
  -2   8   4   11.23    0.63
   2   8  -4   11.46    0.70
  -2   8   4   12.23    0.76
   2   8  -4   11.92    0.89
  -2   8   4   10.35    0.77
   1  -8  -4    0.56    0.19
  -1  -8   4    1.01    0.28
   1  -8  -4    0.50    0.29
  -1  -8   4    0.44    0.35
  -1  -8   4    0.89    0.38
   1  -8  -4    0.65    0.24
   1  -8  -4    0.34    0.30
  -1  -8   4    0.65    0.37
  -1   8   4    0.64    0.29
   1   8  -4    0.32    0.27
  -1   8   4    1.08    0.24
   1   8  -4    0.44    0.39
  -1   8   4    0.53    0.17
  -1   8   4    0.86    0.32
   1   8  -4    1.31    0.32
  -1   8   4    1.45    0.57
   0  -8   4    5.49    0.57
   0  -8  -4    5.83    0.46
   0  -8  -4    6.93    0.58
   0  -8   4    7.46    0.67
   0  -8  -4    5.70    0.55
   0  -8  -4    6.04    0.58
   0  -8   4    6.35    0.58
   0  -8   4    6.60    0.50
   0   8  -4    6.48    0.56
   0   8  -4    5.98    0.51
   0   8   4    6.07    0.58
   0   8   4    6.66    0.59
   0   8   4    5.77    0.53
   1  -8   4    2.30    0.28
  -1  -8  -4    3.13    0.39
   1  -8   4    3.40    0.38
  -1  -8  -4    3.35    0.47
  -1  -8  -4    2.41    0.37
  -1  -8  -4    2.56    0.45
   1  -8   4    2.13    0.45
  -1   8  -4    3.18    0.43
   1   8   4    2.84    0.42
   1   8   4    2.45    0.42
  -1   8  -4    3.50    0.41
   1   8   4    2.67    0.42
  -1   8  -4    2.74    0.34
   2  -8   4    0.32    0.24
  -2  -8  -4    0.28    0.30
  -2  -8  -4    0.32    0.35
  -2  -8  -4    0.10    0.34
  -2  -8  -4    0.28    0.49
   2  -8   4    0.34    0.36
   2  -8   4    0.23    0.20
   2   8   4    0.28    0.33
   2   8   4    0.08    0.40
  -2   8  -4    0.27    0.29
  -2   8  -4   -0.13    0.21
  -2   8  -4    0.38    0.36
   2   8   4   -0.02    0.29
  -2   8  -4   -0.20    0.46
  -3  -8  -4    0.05    0.35
   3  -8   4    0.14    0.35
   3  -8   4   -0.01    0.26
  -3  -8  -4    0.02    0.36
   3  -8   4   -0.24    0.39
  -3  -8  -4    0.08    0.38
   3  -8   4   -0.22    0.19
  -3   8  -4    0.24    0.31
  -3   8  -4   -0.11    0.24
   3   8   4    0.46    0.38
  -3   8  -4    0.12    0.43
   3   8   4    0.01    0.53
  -3   8  -4    0.04    0.35
   3   8   4   -0.25    0.36
  -4  -8  -4    1.59    0.50
   4  -8   4    0.94    0.24
   4  -8   4    0.67    0.45
   4  -8   4    1.13    0.33
  -4  -8  -4    1.14    0.57
   4   8   4    2.07    0.52
  -4   8  -4    0.90    0.51
  -4   8  -4    0.69    0.38
   4   8   4    1.56    0.81
  -5  -8  -4    3.45    0.62
   5  -8   4    2.19    0.44
   5  -8   4    2.61    1.02
   5  -8   4    2.49    0.32
  -5  -8  -4    1.87    0.69
  -5   8  -4    2.75    0.52
  -5   8  -4    2.93    0.73
   5   8   4    2.79    0.74
   5   8   4    1.71    0.57
   6  -8   4    0.38    0.32
  -6  -8  -4    1.14    0.72
   6  -8   4    0.60    0.79
  -6  -8  -4    0.54    0.86
  -6   8  -4    0.44    0.80
   6   8   4    1.31    0.82
   6   8   4   -0.92    0.64
  -6  -9   4    4.38    0.85
  -6  -9   4    4.36    1.02
  -6  -9   4    3.06    0.81
   6   9  -4    3.00    0.66
   6   9  -4    3.57    1.04
  -6   9   4    2.67    0.78
  -6   9   4    2.41    0.86
  -5  -9   4    0.65    0.64
  -5  -9   4    0.44    0.56
  -5  -9   4   -0.67    0.62
  -5   9   4   -0.28    0.52
   5   9  -4    1.64    0.53
  -5   9   4    1.35    0.60
   5   9  -4    0.28    0.49
  -4  -9   4    0.23    0.47
  -4  -9   4   -0.32    0.49
  -4  -9   4    0.25    0.48
  -4   9   4    0.59    0.45
   4   9  -4   -0.26    0.38
  -4   9   4    0.51    0.49
   4   9  -4    0.51    0.43
  -4   9   4   -0.56    0.45
  -3  -9   4    0.11    0.42
  -3  -9   4    0.12    0.43
  -3  -9   4   -0.17    0.42
   3   9  -4   -0.55    0.36
   3   9  -4   -0.29    0.34
  -3   9   4   -0.26    0.37
  -3   9   4   -0.09    0.41
   3   9  -4   -0.28    0.63
  -2  -9   4    9.69    0.74
  -2  -9   4    8.72    0.75
   2  -9  -4    8.10    0.40
  -2  -9   4    8.42    0.95
   2  -9  -4    8.48    0.43
  -2  -9   4    8.95    0.76
  -2   9   4    8.18    0.69
   2   9  -4    8.62    0.71
  -2   9   4    8.30    0.75
  -2   9   4    7.16    0.85
   2   9  -4    7.77    0.97
   2   9  -4    8.88    0.68
  -2   9   4    8.52    0.60
   1  -9  -4   28.22    1.19
  -1  -9   4   28.31    1.12
  -1  -9   4   28.21    1.27
  -1  -9   4   25.06    1.20
  -1  -9   4   30.19    1.34
   1  -9  -4   26.68    0.96
   1  -9  -4   28.87    1.17
   1  -9  -4   27.77    0.99
   1   9  -4   27.94    1.14
   1   9  -4   27.93    1.17
  -1   9   4   28.85    0.94
  -1   9   4   27.06    1.21
  -1   9   4   28.88    1.19
   0  -9  -4    1.56    0.28
   0  -9   4    2.12    0.40
   0  -9  -4    1.91    0.43
   0  -9  -4    1.26    0.40
   0  -9   4    2.21    0.49
   0  -9  -4    1.46    0.37
   0  -9   4    1.46    0.40
   0  -9   4    1.58    0.32
   0   9  -4    1.43    0.44
   0   9   4    1.71    0.37
   0   9  -4    1.95    0.37
   0   9   4    2.18    0.42
   0   9   4    1.66    0.42
   0   9  -4    1.55    0.34
  -1  -9  -4   -0.33    0.35
   1  -9   4   -0.28    0.20
   1  -9   4   -0.49    0.34
  -1  -9  -4   -0.03    0.24
  -1  -9  -4    0.39    0.46
  -1  -9  -4    0.11    0.30
   1  -9   4    0.26    0.26
   1   9   4   -0.61    0.32
  -1   9  -4    0.09    0.21
   1   9   4    0.32    0.45
  -1   9  -4    0.25    0.27
  -1   9  -4   -0.05    0.26
   1   9   4    0.69    0.37
  -1   9  -4   -0.09    0.46
  -1   9  -4   -0.24    0.29
   2  -9   4    0.06    0.40
   2  -9   4    0.13    0.24
  -2  -9  -4   -0.28    0.38
  -2  -9  -4   -0.04    0.36
  -2  -9  -4   -0.06    0.33
   2  -9   4   -0.09    0.19
  -2   9  -4   -0.20    0.33
   2   9   4    0.11    0.38
  -2   9  -4    0.23    0.27
   2   9   4    0.55    0.34
   2   9   4   -0.02    0.53
   3  -9   4    0.17    0.47
  -3  -9  -4    0.06    0.44
  -3  -9  -4   -0.57    0.39
   3   9   4    0.39    0.41
  -3   9  -4    0.53    0.40
  -3   9  -4   -0.49    0.75
  -3   9  -4    0.08    0.28
  -4  -9  -4    1.86    0.60
   4  -9   4    0.76    0.23
   4  -9   4    0.82    0.33
   4   9   4    0.62    0.48
  -4   9  -4    0.69    0.46
   4   9   4    1.52    0.54
  -4   9  -4    0.87    0.57
  -5  -9  -4    4.41    0.85
  -5  -9  -4    4.35    0.78
   5  -9   4    3.84    0.45
   5  -9   4    3.44    0.34
   5  -9   4    3.63    0.72
  -5   9  -4    5.19    0.90
   5   9   4    3.35    0.79
  -5   9  -4    3.61    0.68
   5   9   4    3.09    0.69
   6  -9   4    8.43    0.63
  -6  -9  -4    5.92    1.12
  -6  -9  -4   11.45    1.41
  -6   9  -4    8.25    1.18
   6   9   4    8.43    1.01
   6   9   4    8.90    1.15
  -6 -10   4    4.52    1.20
  -6 -10   4    4.73    0.98
   6  10  -4    4.41    0.80
  -6  10   4    3.27    0.96
  -6  10   4    4.40    1.13
  -5 -10   4    2.19    0.76
  -5 -10   4    2.54    0.70
  -5 -10   4    2.35    0.90
  -5  10   4    1.00    0.71
   5  10  -4    4.16    0.67
   5  10  -4    3.12    0.64
  -5  10   4    2.06    0.78
  -4 -10   4    7.76    1.04
  -4 -10   4    5.39    0.73
  -4 -10   4    7.30    0.99
  -4  10   4    7.35    0.96
   4  10  -4    7.60    0.89
  -4  10   4    8.52    0.95
  -4  10   4    6.68    0.80
  -4  10   4    6.18    0.73
   4  10  -4    7.55    0.87
  -3 -10   4    0.16    0.45
  -3 -10   4    1.20    0.52
  -3  10   4    0.21    0.46
  -3  10   4    0.75    0.48
   2 -10  -4    0.47    0.21
  -2 -10   4    0.44    0.47
   2 -10  -4    0.37    0.18
  -2 -10   4    0.39    0.37
   2  10  -4    0.17    0.37
   2  10  -4    0.20    0.40
  -2  10   4    0.20    0.36
  -2  10   4    0.25    0.41
  -2  10   4    0.86    0.42
   1 -10  -4   -0.10    0.21
  -1 -10   4    0.42    0.44
  -1 -10   4   -0.25    0.30
   1 -10  -4   -0.10    0.37
   1 -10  -4    0.01    0.28
  -1 -10   4    0.46    0.53
  -1 -10   4   -0.01    0.41
  -1  10   4   -0.19    0.26
   1  10  -4   -0.57    0.30
   1  10  -4   -0.24    0.36
  -1  10   4    0.09    0.37
  -1  10   4    0.46    0.40
   0 -10   4    5.85    0.76
   0 -10  -4    4.97    0.48
   0 -10  -4    5.19    0.64
   0 -10   4    5.31    0.56
   0 -10  -4    5.63    0.73
   0 -10   4    6.42    0.76
   0  10  -4    6.87    0.65
   0  10   4    7.10    0.73
   0  10  -4    5.06    0.66
   0  10   4    5.17    0.66
  -1 -10  -4    6.28    0.70
   1 -10   4    7.04    0.84
  -1 -10  -4    5.05    0.62
   1 -10   4    5.79    0.57
   1 -10   4    7.16    0.60
  -1 -10  -4    8.09    0.80
  -1  10  -4    6.11    0.69
   1  10   4    6.44    0.72
   1  10   4    6.49    0.76
  -1  10  -4    6.25    0.65
   2 -10   4    1.30    0.30
  -2 -10  -4    0.82    0.48
  -2 -10  -4    1.47    0.49
   2 -10   4    1.54    0.51
   2 -10   4    0.66    0.25
  -2  10  -4    0.95    0.43
   2  10   4    1.65    0.48
  -2  10  -4    1.74    0.38
   2  10   4    1.17    0.47
   3 -10   4    0.91    0.26
   3 -10   4    0.62    0.23
  -3 -10  -4    0.81    0.53
  -3 -10  -4    0.83    0.47
   3 -10   4    1.05    0.57
  -3  10  -4    0.12    0.56
   3  10   4    0.43    0.50
   3  10   4    0.50    0.44
  -3  10  -4    0.91    0.54
   4 -10   4    7.38    0.47
  -4 -10  -4    9.95    1.14
   4 -10   4    8.48    0.76
  -4 -10  -4    7.04    0.80
   4  10   4    7.79    0.93
  -4  10  -4   10.39    1.21
   4  10   4    9.58    1.11
  -4  10  -4    8.00    0.98
  -5 -10  -4    9.31    1.13
  -5 -10  -4   10.92    1.33
   5  10   4    6.04    0.87
  -5  10  -4    6.27    1.06
  -5  10  -4    7.61    0.86
   5  10   4    9.25    1.05
  -5 -11   4    1.80    0.91
  -5 -11   4    1.87    0.88
  -5  11   4    1.25    0.82
   5  11  -4    1.58    0.76
  -5  11   4    2.24    0.85
  -5  11   4    1.22    0.93
  -5  11   4    0.03    0.61
   5  11  -4    3.02    0.78
  -4 -11   4    0.95    0.67
  -4 -11   4    2.16    0.75
  -4 -11   4    1.74    0.73
  -4  11   4    0.81    0.71
  -4  11   4    1.35    0.62
   4  11  -4    1.00    0.58
  -4  11   4    1.92    0.66
  -4  11   4    0.67    0.71
   4  11  -4    1.08    0.61
  -3 -11   4    1.10    0.63
  -3 -11   4   -0.04    0.54
  -3 -11   4    0.83    0.53
  -3  11   4    0.35    0.56
   3  11  -4    0.19    0.50
  -3  11   4    0.09    0.56
   3  11  -4   -0.64    0.49
  -2 -11   4    7.59    0.93
  -2 -11   4    6.09    0.74
   2 -11  -4    6.87    0.34
   2 -11  -4    7.44    0.37
  -2 -11   4    7.56    0.80
  -2  11   4    8.30    1.08
  -2  11   4    6.31    0.87
  -2  11   4    7.27    0.87
   2  11  -4    7.48    0.81
  -1 -11   4   25.74    1.12
   1 -11  -4   25.68    0.95
  -1 -11   4   25.81    1.32
  -1 -11   4   25.55    1.31
   1 -11  -4   27.19    1.28
   1  11  -4   25.52    1.21
   1  11  -4   24.58    1.24
  -1  11   4   26.23    1.29
  -1  11   4   27.53    1.29
   0 -11   4    2.38    0.39
   0 -11  -4    2.64    0.55
   0 -11   4    1.53    0.54
   0 -11  -4    2.39    0.35
   0 -11   4    2.58    0.48
   0 -11  -4    2.74    0.46
   0  11   4    2.29    0.55
   0  11   4    2.17    0.49
   0  11  -4    3.16    0.54
   0  11  -4    1.63    0.43
  -1 -11  -4   -0.39    0.29
   1 -11   4    0.35    0.27
   1 -11   4   -0.20    0.53
   1 -11   4   -0.24    0.36
  -1  11  -4   -0.40    0.41
   1  11   4   -0.14    0.41
   1  11   4   -0.40    0.45
  -1  11  -4   -0.67    0.41
  -2 -11  -4    1.30    0.55
   2 -11   4    2.36    0.62
   2 -11   4    1.66    0.36
  -2 -11  -4    1.65    0.43
   2 -11   4    1.52    0.28
  -2  11  -4    2.03    0.47
   2  11   4    1.90    0.43
   2  11   4    1.26    0.56
  -2  11  -4    0.24    0.45
   3 -11   4    0.05    0.31
  -3 -11  -4    0.38    0.63
  -3 -11  -4    0.33    0.54
   3 -11   4    0.58    0.24
  -3  11  -4    0.10    0.64
   3  11   4    0.03    0.49
  -3  11  -4    0.59    0.53
   3  11   4    1.05    0.62
  -4 -11  -4    0.34    0.69
  -4 -11  -4    2.82    0.78
  -4  11  -4    1.65    0.85
  -4  11  -4    0.05    0.65
   4  11   4    0.89    0.62
  -4 -12   4    1.86    0.85
  -4 -12   4    1.25    0.81
  -4  12   4   -1.77    0.87
  -4  12   4   -1.42    0.81
   4  12  -4   -0.13    0.68
   4  12  -4   -1.12    0.67
  -3 -12   4   -0.71    0.89
  -3 -12   4   -1.00    0.65
  -3 -12   4    0.50    0.64
  -3  12   4    2.01    0.73
  -3  12   4   -0.49    0.67
   3  12  -4   -1.06    0.65
   3  12  -4    0.53    0.66
  -2 -12   4   -0.56    0.62
  -2 -12   4    0.00    0.64
  -2 -12   4    0.29    0.43
  -2  12   4    0.02    0.60
  -2  12   4    0.60    0.59
   2  12  -4    0.63    0.59
   2  12  -4    0.24    0.53
   1 -12  -4   -0.06    0.28
  -1 -12   4   -0.99    0.60
  -1 -12   4    0.08    0.39
   1 -12  -4    0.13    0.38
  -1 -12   4    1.27    0.64
   1 -12  -4    0.43    0.69
   1  12  -4    0.83    0.50
  -1  12   4   -0.18    0.53
   1  12  -4   -0.25    0.53
  -1  12   4    0.07    0.59
   0 -12   4    0.23    0.38
   0 -12  -4    1.20    0.62
   0 -12  -4    1.20    0.35
   0  12   4    0.93    0.60
   0  12   4    1.38    0.53
   0  12  -4    0.36    0.55
   0  12  -4    0.06    0.44
  -1 -12  -4    1.58    0.67
   1 -12   4    0.87    0.33
   1 -12   4    0.60    0.62
  -1 -12  -4    0.70    0.38
  -1  12  -4    1.13    0.56
   1  12   4   -0.14    0.52
  -1  12  -4    0.53    0.51
   1  12   4    0.38    0.60
   2 -12   4    0.45    0.74
   2 -12   4    0.22    0.36
  -2 -12  -4    0.17    0.49
  -2 -12  -4    0.26    0.68
   2 -12   4   -0.34    0.26
   2  12   4   -1.26    0.54
  -2  12  -4   -0.15    0.54
  -3 -12  -4    5.02    0.90
  -3 -12  -4    4.99    0.72
   3  12   4    2.87    0.67
  -3  12  -4    4.32    0.91
  -3  12  -4    2.96    0.73
  -3 -13   4    0.69    0.67
  -3 -13   4    2.13    0.88
   3  13  -4   -1.09    0.77
  -3  13   4    1.30    0.85
   3  13  -4    1.61    0.77
  -3  13   4   -1.90    1.23
  -2 -13   4    2.20    0.80
  -2 -13   4    2.32    0.57
  -2  13   4    2.15    0.77
  -2  13   4    5.75    1.50
   2  13  -4    2.12    0.75
   2  13  -4    1.73    0.72
   1 -13  -4    0.53    0.36
   1 -13  -4    1.10    0.54
   1 -13  -4    2.28    0.79
  -1 -13   4    0.26    0.77
  -1 -13   4    0.25    0.45
  -1 -13   4    2.21    0.75
   1 -13  -4    1.12    0.55
   1  13  -4   -0.45    0.58
   1  13  -4    0.85    0.70
  -1  13   4   -0.14    0.67
   0 -13  -4    3.09    0.79
   0 -13   4    2.29    0.81
   0 -13  -4    2.28    0.45
   0 -13   4    2.85    0.48
   0  13   4    2.97    0.71
   0  13  -4    2.11    0.69
   0  13  -4    2.68    0.77
  -1 -13  -4    0.65    0.45
  -1 -13  -4   -0.01    0.77
   1 -13   4    1.12    0.38
   1 -13   4    1.60    0.79
   1  13   4    0.75    0.59
  -1  13  -4    0.85    0.69
  -2 -13  -4   -0.50    0.81
   2 -13   4    0.06    0.30
  -2 -13  -4   -0.15    0.58
   2 -13   4   -0.23    0.36
  -2  13  -4   -0.57    0.70
   2  13   4   -0.18    0.66
   8   0  -5    0.03    0.67
   8   0  -5   -0.72    0.60
   7   0  -5   -0.13    0.48
  -7   0   5   -0.71    0.52
   7   0  -5   -0.29    0.40
  -7   0   5    0.25    0.48
   6   0  -5    0.03    0.32
  -6   0   5    0.16    0.55
  -6   0   5    0.13    0.34
   6   0  -5   -0.61    0.33
   6   0  -5    0.68    0.93
   6   0  -5   -0.35    0.62
  -6   0   5    0.62    0.45
   5   0  -5    0.07    0.30
  -5   0   5    0.23    0.25
   5   0  -5    0.07    0.20
  -5   0   5    0.75    0.41
   5   0  -5    0.21    0.30
  -5   0   5    0.22    0.36
   5   0  -5   -0.05    0.43
  -5   0   5    0.51    0.31
   5   0  -5    0.23    0.35
  -4   0   5    0.01    0.25
  -4   0   5   -0.18    0.33
  -4   0   5   -0.42    0.28
  -4   0   5    0.02    0.20
   4   0  -5    0.07    0.26
  -4   0   5    0.19    0.30
   4   0  -5    0.26    0.21
   4   0  -5   -0.05    0.22
   4   0  -5    0.21    0.25
   4   0  -5   -0.17    0.31
  -4   0   5   -0.27    0.18
   3   0  -5    0.47    0.22
   3   0  -5    0.22    0.19
  -3   0   5    0.02    0.23
  -3   0   5   -0.09    0.26
  -3   0   5   -0.11    0.18
  -3   0   5    0.19    0.19
  -3   0   5    0.13    0.26
   3   0  -5   -0.32    0.21
   3   0  -5    0.10    0.14
  -3   0   5    0.22    0.17
   3   0  -5   -0.14    0.17
  -3   0   5    0.07    0.13
  -3   0   5    0.20    0.22
   3   0  -5    0.05    0.22
  -2   0   5    0.03    0.23
   2   0  -5   -0.07    0.19
   2   0  -5   -0.16    0.16
   2   0  -5   -0.04    0.18
   2   0  -5   -0.04    0.19
  -2   0   5    0.13    0.14
   2   0  -5    0.04    0.16
  -2   0   5   -0.08    0.19
  -2   0   5    0.20    0.13
  -2   0   5   -0.12    0.15
   2   0  -5   -0.03    0.10
  -2   0   5   -0.01    0.19
   1   0  -5   -0.04    0.10
   1   0  -5   -0.03    0.16
  -1   0   5   -0.13    0.12
  -1   0   5   -0.17    0.20
  -1   0   5    0.11    0.16
   1   0  -5    0.12    0.21
  -1   0   5   -0.32    0.19
   1   0  -5   -0.11    0.16
  -1   0   5    0.12    0.10
   1   0  -5   -0.03    0.10
   1   0  -5   -0.07    0.13
   1   0  -5   -0.27    0.19
   0   0   5   -0.01    0.16
   0   0  -5    0.02    0.12
   0   0   5    0.02    0.21
   0   0  -5    0.01    0.18
   0   0   5    0.16    0.20
   0   0  -5    0.10    0.13
   0   0   5    0.29    0.24
   0   0  -5    0.07    0.12
   0   0   5   -0.25    0.11
   0   0  -5   -0.23    0.18
   0   0  -5   -0.07    0.16
   0   0  -5   -0.17    0.18
   1   0   5   -0.09    0.18
   1   0   5    0.20    0.17
  -1   0  -5    0.03    0.22
   1   0   5   -0.10    0.12
  -1   0  -5   -0.15    0.13
   1   0   5    0.00    0.12
   1   0   5    0.00    0.19
   1   0   5   -0.10    0.21
  -1   0  -5   -0.10    0.18
  -1   0  -5   -0.14    0.19
  -1   0  -5    0.10    0.16
  -1   0  -5    0.19    0.19
  -2   0  -5    0.04    0.22
   2   0   5   -0.13    0.19
  -2   0  -5    0.17    0.23
   2   0   5    0.02    0.13
  -2   0  -5   -0.29    0.21
   2   0   5   -0.03    0.26
   2   0   5   -0.46    0.17
   2   0   5    0.02    0.18
  -2   0  -5   -0.24    0.17
   2   0   5   -0.15    0.19
  -2   0  -5    0.26    0.26
   2   0   5    0.05    0.12
   2   0   5   -0.05    0.22
  -2   0  -5    0.00    0.16
  -3   0  -5   -0.08    0.31
  -3   0  -5    0.09    0.37
  -3   0  -5    0.13    0.29
   3   0   5   -0.12    0.32
   3   0   5   -0.27    0.23
  -3   0  -5   -0.38    0.18
   3   0   5    0.42    0.26
   3   0   5    0.21    0.16
  -3   0  -5   -0.14    0.29
   3   0   5   -0.15    0.24
   3   0   5   -0.05    0.22
   3   0   5    0.15    0.27
   4   0   5   -0.29    0.33
   4   0   5   -0.05    0.30
   4   0   5    0.26    0.32
  -4   0  -5    0.58    0.38
   4   0   5   -0.01    0.20
   4   0   5    0.02    0.42
  -4   0  -5    0.03    0.36
  -4   0  -5   -0.03    0.20
   5   0   5    0.20    0.24
  -5   0  -5   -0.12    0.37
  -5   0  -5    0.19    0.46
  -5   0  -5    0.09    0.24
  -5   0  -5    0.02    0.55
   5   0   5   -0.19    0.36
   5   0   5   -0.14    0.40
   5   0   5    0.41    0.38
   5   0   5   -0.07    0.78
  -6   0  -5   -0.96    0.49
   6   0   5    0.06    0.42
  -6   0  -5   -0.34    0.49
   6   0   5   -0.30    0.31
  -6   0  -5    0.27    0.32
   6   0   5    0.15    0.48
  -7   0  -5   -0.21    0.67
  -7   0  -5    0.62    0.69
   7   0   5    0.72    0.60
   7   0   5    0.01    0.57
   8  -1  -5   -0.21    0.64
  -8  -1   5    0.38    0.68
   8  -1  -5   -0.65    0.57
  -8  -1   5   -1.43    0.72
   8   1  -5    0.12    0.66
   8   1  -5    0.26    0.63
  -8   1   5   -0.03    0.69
   7  -1  -5    0.77    0.47
  -7  -1   5    1.22    0.49
   7  -1  -5    0.64    0.49
  -7   1   5    1.27    0.49
   7   1  -5   -0.20    0.50
  -7   1   5    0.52    0.57
   7   1  -5    0.35    0.60
   6  -1  -5    6.17    0.69
  -6  -1   5    5.70    0.81
  -6  -1   5    6.81    0.67
  -6  -1   5    7.08    0.80
   6  -1  -5    7.22    0.80
   6  -1  -5    6.35    0.67
  -6   1   5    7.35    0.60
  -6   1   5    6.70    0.78
   6   1  -5    4.41    0.75
  -6   1   5    6.47    0.70
   6   1  -5    7.28    0.71
   6   1  -5    7.47    0.75
   6   1  -5    6.36    0.86
   5  -1  -5   15.01    0.75
   5  -1  -5   15.97    0.80
  -5  -1   5   17.14    0.93
   5  -1  -5   16.09    0.86
  -5  -1   5   16.49    0.74
  -5  -1   5   14.48    0.93
   5  -1  -5   15.91    0.61
   5   1  -5   16.98    0.88
   5   1  -5   17.07    0.86
  -5   1   5   15.32    0.89
   5   1  -5   15.96    0.84
   5   1  -5   15.59    1.01
  -5   1   5   15.10    0.69
   5   1  -5   17.60    0.64
  -5   1   5   16.36    0.96
  -4  -1   5    3.07    0.38
  -4  -1   5    3.85    0.49
   4  -1  -5    3.41    0.33
  -4  -1   5    3.58    0.44
  -4  -1   5    3.48    0.45
   4  -1  -5    3.16    0.35
  -4  -1   5    3.39    0.53
   4  -1  -5    3.51    0.43
  -4   1   5    3.16    0.40
   4   1  -5    3.29    0.46
  -4   1   5    3.06    0.33
   4   1  -5    3.80    0.42
  -4   1   5    3.97    0.55
   4   1  -5    3.25    0.36
  -4   1   5    3.28    0.38
   4   1  -5    3.24    0.39
  -3  -1   5    1.84    0.33
  -3  -1   5    1.74    0.21
   3  -1  -5    1.43    0.25
  -3  -1   5    1.77    0.30
  -3  -1   5    1.69    0.21
  -3  -1   5    1.46    0.30
   3  -1  -5    1.49    0.28
   3  -1  -5    1.72    0.37
  -3  -1   5    1.65    0.23
  -3  -1   5    1.54    0.29
   3  -1  -5    1.54    0.23
   3  -1  -5    1.46    0.26
  -3  -1   5    1.47    0.34
  -3   1   5    1.02    0.23
  -3   1   5    1.14    0.18
  -3   1   5    1.75    0.22
  -3   1   5    1.33    0.26
   3   1  -5    1.26    0.30
  -3   1   5    1.57    0.14
   3   1  -5    1.65    0.23
  -3   1   5    1.37    0.31
   3   1  -5    1.21    0.22
   3   1  -5    1.26    0.25
  -3   1   5    2.01    0.32
  -3   1   5    1.63    0.28
   3   1  -5    1.49    0.28
   2  -1  -5    1.01    0.24
  -2  -1   5    0.79    0.15
   2  -1  -5    0.51    0.19
   2  -1  -5    1.04    0.22
  -2  -1   5    0.53    0.26
   2  -1  -5    0.55    0.19
  -2  -1   5    0.66    0.17
   2  -1  -5    0.71    0.23
  -2  -1   5    0.98    0.27
  -2  -1   5    0.91    0.18
   2   1  -5    0.82    0.17
  -2   1   5    0.68    0.17
  -2   1   5    0.71    0.15
  -2   1   5    0.75    0.24
   2   1  -5    1.00    0.24
  -2   1   5    0.86    0.26
   2   1  -5    0.82    0.18
  -2   1   5    0.94    0.15
   2   1  -5    0.56    0.20
   2   1  -5    0.50    0.20
  -2   1   5    0.80    0.22
  -1  -1   5    8.25    0.48
   1  -1  -5    7.44    0.42
   1  -1  -5    6.99    0.42
  -1  -1   5    7.00    0.48
  -1  -1   5    8.29    0.37
  -1  -1   5    7.73    0.41
   1  -1  -5    7.49    0.27
  -1  -1   5    7.87    0.39
   1  -1  -5    7.29    0.45
   1  -1  -5    7.17    0.44
  -1  -1   5    7.50    0.46
   1  -1  -5    7.80    0.28
   1  -1  -5    7.90    0.41
  -1   1   5    7.87    0.48
   1   1  -5    7.34    0.48
   1   1  -5    7.82    0.49
  -1   1   5    8.27    0.41
   1   1  -5    7.82    0.39
   1   1  -5    7.73    0.42
  -1   1   5    7.47    0.39
  -1   1   5    7.43    0.45
   1   1  -5    7.72    0.40
   1   1  -5    7.70    0.35
  -1   1   5    8.10    0.37
   1   1  -5    8.33    0.46
  -1   1   5    6.76    0.49
   0  -1  -5   86.87    2.28
   0  -1  -5   82.26    2.37
   0  -1  -5   83.41    2.31
   0  -1   5   79.42    2.33
   0  -1  -5   81.84    2.38
   0  -1   5   80.78    2.38
   0  -1  -5   84.44    2.32
   0  -1  -5   83.02    2.36
   0  -1   5   83.78    2.26
   0  -1   5   72.39    2.41
   0  -1   5   80.71    2.35
   0  -1  -5   83.97    2.36
   0  -1   5   84.77    2.36
   0   1   5   80.30    2.39
   0   1  -5   82.26    2.36
   0   1  -5   79.82    2.36
   0   1  -5   82.75    2.26
   0   1   5   83.37    2.36
   0   1  -5   81.78    2.30
   0   1   5   80.94    2.34
   0   1   5   83.52    2.35
   0   1  -5   84.71    2.37
   0   1  -5   80.37    2.34
   0   1  -5   81.83    2.31
   0   1   5   83.95    2.30
   0   1   5   83.82    2.32
   0   1  -5   80.90    2.35
   0   1   5   89.24    2.28
   1  -1   5   65.75    2.02
   1  -1   5   71.12    2.05
  -1  -1  -5   66.71    1.96
   1  -1   5   67.77    1.98
  -1  -1  -5   67.47    2.03
   1  -1   5   68.48    2.03
  -1  -1  -5   65.79    2.04
   1  -1   5   69.77    1.85
  -1  -1  -5   70.15    2.02
  -1  -1  -5   67.22    2.02
  -1   1  -5   70.10    2.01
   1   1   5   66.40    1.96
   1   1   5   68.07    1.98
   1   1   5   69.97    1.99
  -1   1  -5   68.54    2.01
   1   1   5   68.53    1.92
  -1   1  -5   69.25    2.02
   1   1   5   70.57    2.04
  -1   1  -5   65.68    2.01
  -1   1  -5   68.55    2.02
   1   1   5   68.76    1.92
  -1   1  -5   67.94    2.00
   1   1   5   69.76    2.04
   1   1   5   69.53    2.07
  -2  -1  -5   34.62    1.21
   2  -1   5   32.86    1.11
   2  -1   5   34.22    1.18
  -2  -1  -5   34.76    1.19
  -2  -1  -5   33.69    1.12
  -2  -1  -5   33.57    1.12
   2  -1   5   34.19    1.18
   2  -1   5   33.54    1.19
  -2  -1  -5   34.06    1.18
   2  -1   5   32.60    1.13
   2  -1   5   34.31    1.16
  -2  -1  -5   32.84    1.14
  -2   1  -5   34.19    1.12
   2   1   5   33.45    1.18
   2   1   5   32.68    1.11
  -2   1  -5   34.39    1.19
  -2   1  -5   34.00    1.14
  -2   1  -5   33.06    1.16
   2   1   5   34.46    1.03
   2   1   5   33.29    1.20
   2   1   5   33.95    1.11
   2   1   5   32.67    1.15
  -2   1  -5   34.47    1.16
  -2   1  -5   33.03    1.15
  -3  -1  -5   97.45    2.98
  -3  -1  -5  104.93    2.89
   3  -1   5  102.42    3.03
   3  -1   5   99.60    2.87
   3  -1   5  101.21    2.96
  -3  -1  -5  103.63    2.99
   3  -1   5  102.84    2.68
  -3  -1  -5   99.24    2.92
   3  -1   5  104.68    2.68
   3  -1   5   98.94    2.98
   3  -1   5   97.31    2.95
  -3  -1  -5  102.46    3.02
  -3   1  -5  100.89    3.00
   3   1   5   98.68    2.88
  -3   1  -5  106.00    3.16
   3   1   5  102.78    3.04
  -3   1  -5  104.73    2.88
   3   1   5   97.60    2.98
   3   1   5  103.22    2.81
  -3   1  -5   96.39    2.93
   3   1   5  102.44    3.01
   3   1   5  102.86    2.98
  -3   1  -5  102.18    2.94
  -3   1  -5   96.88    3.11
   4  -1   5   17.32    0.90
   4  -1   5   16.20    0.96
   4  -1   5   16.26    0.81
  -4  -1  -5   17.63    0.74
  -4  -1  -5   17.10    0.95
   4  -1   5   17.64    0.85
  -4  -1  -5   17.62    0.98
   4  -1   5   17.61    0.58
  -4  -1  -5   16.19    0.99
  -4   1  -5   17.61    0.92
   4   1   5   17.59    0.91
   4   1   5   17.03    0.69
   4   1   5   17.81    0.93
  -4   1  -5   18.48    0.94
  -4   1  -5   17.13    0.73
   4   1   5   16.63    1.06
   4   1   5   16.71    0.85
  -5  -1  -5   15.96    1.15
  -5  -1  -5   15.50    0.99
   5  -1   5   16.00    0.93
  -5  -1  -5   14.65    0.89
   5  -1   5   14.52    0.84
  -5  -1  -5   15.99    0.72
  -5  -1  -5   16.07    0.90
   5  -1   5   15.82    0.64
   5  -1   5   15.17    1.18
   5  -1   5   15.76    0.90
  -5   1  -5   15.67    0.99
   5   1   5   15.01    1.33
  -5   1  -5   16.06    1.11
   5   1   5   15.54    0.72
   5   1   5   15.68    0.92
   5   1   5   16.20    0.93
   5   1   5   15.15    0.98
  -5   1  -5   16.11    0.70
   6  -1   5    2.34    0.53
  -6  -1  -5    1.05    0.54
  -6  -1  -5    1.81    0.35
  -6  -1  -5    1.45    0.55
  -6   1  -5    0.78    0.56
   6   1   5    1.72    0.40
   6   1   5    1.71    0.52
  -6   1  -5    1.78    0.65
   6   1   5    2.06    0.56
   7  -1   5   -0.23    0.59
  -7  -1  -5   -0.21    0.63
   7  -1   5    0.02    0.61
  -7  -1  -5    0.73    0.66
   7   1   5   -0.06    0.72
  -7   1  -5   -0.63    0.66
   7   1   5    0.33    0.64
   8  -2  -5   -0.34    0.52
   8  -2  -5    1.52    0.71
  -8  -2   5   -1.25    0.74
  -8  -2   5    1.23    0.91
  -8   2   5    0.53    0.74
   8   2  -5    1.02    0.70
   8   2  -5   -0.42    0.64
  -7  -2   5    0.33    0.48
  -7  -2   5   -0.94    0.50
   7  -2  -5   -0.57    0.46
  -7   2   5   -0.48    0.46
  -7   2   5   -0.48    0.55
   7   2  -5    0.37    0.44
   7   2  -5    0.01    0.64
   6  -2  -5   -0.30    0.30
  -6  -2   5   -0.50    0.58
   6  -2  -5   -0.11    0.56
  -6  -2   5    0.66    0.38
   6  -2  -5    0.06    0.38
  -6  -2   5   -0.47    0.45
  -6   2   5    0.61    0.47
   6   2  -5   -0.01    0.35
  -6   2   5    0.02    0.33
   6   2  -5   -0.04    0.37
  -5  -2   5    3.92    0.49
   5  -2  -5    4.55    0.49
   5  -2  -5    4.36    0.52
  -5  -2   5    3.43    0.55
   5  -2  -5    3.45    0.46
  -5  -2   5    4.12    0.59
   5  -2  -5    3.53    0.37
   5   2  -5    4.04    0.60
  -5   2   5    4.57    0.59
   5   2  -5    3.22    0.44
   5   2  -5    4.12    0.62
  -5   2   5    3.96    0.41
   5   2  -5    2.99    0.42
  -4  -2   5    5.37    0.61
   4  -2  -5    5.91    0.54
  -4  -2   5    5.64    0.45
   4  -2  -5    6.02    0.46
   4  -2  -5    4.81    0.40
   4  -2  -5    4.49    0.46
  -4  -2   5    4.80    0.60
  -4  -2   5    4.83    0.63
  -4  -2   5    4.94    0.43
   4   2  -5    5.18    0.47
   4   2  -5    5.44    0.56
  -4   2   5    4.82    0.43
   4   2  -5    5.74    0.61
  -4   2   5    5.95    0.60
  -4   2   5    5.91    0.35
   4   2  -5    5.51    0.41
   4   2  -5    5.52    0.56
  -4   2   5    4.54    0.49
  -3  -2   5   -0.16    0.26
  -3  -2   5   -0.30    0.18
   3  -2  -5    0.64    0.27
   3  -2  -5    0.23    0.19
   3  -2  -5    0.05    0.22
  -3  -2   5    0.08    0.20
  -3  -2   5    0.14    0.19
  -3  -2   5    0.41    0.29
  -3  -2   5   -0.02    0.26
   3  -2  -5    0.00    0.18
  -3  -2   5    0.16    0.23
   3  -2  -5   -0.01    0.16
  -3   2   5    0.09    0.21
   3   2  -5   -0.10    0.23
   3   2  -5    0.37    0.23
  -3   2   5    0.13    0.20
   3   2  -5   -0.10    0.28
   3   2  -5   -0.07    0.20
  -3   2   5    0.21    0.26
  -3   2   5    0.18    0.25
   3   2  -5    0.39    0.19
   2  -2  -5   63.00    1.94
  -2  -2   5   64.44    1.91
  -2  -2   5   64.11    1.95
  -2  -2   5   65.83    1.89
  -2  -2   5   66.29    2.01
  -2  -2   5   66.24    1.86
   2  -2  -5   64.52    1.90
  -2  -2   5   65.23    1.90
  -2  -2   5   67.14    1.96
  -2  -2   5   63.82    1.88
   2  -2  -5   63.09    1.90
   2  -2  -5   63.55    1.93
  -2   2   5   67.83    1.89
   2   2  -5   64.40    1.95
  -2   2   5   62.45    1.90
  -2   2   5   63.88    1.89
   2   2  -5   61.00    1.85
   2   2  -5   65.80    1.97
  -2   2   5   65.06    1.86
  -2   2   5   64.55    1.99
  -2   2   5   66.43    1.95
   2   2  -5   65.43    1.92
   2   2  -5   68.93    1.92
   2   2  -5   64.29    1.95
   1  -2  -5   13.19    0.56
   1  -2  -5   12.81    0.55
  -1  -2   5   12.65    0.60
   1  -2  -5   11.39    0.55
   1  -2  -5   13.09    0.56
  -1  -2   5   12.06    0.51
   1  -2  -5   12.03    0.56
  -1  -2   5   12.60    0.60
  -1  -2   5   12.77    0.51
   1  -2  -5   12.02    0.38
  -1  -2   5   12.01    0.62
   1  -2  -5   12.99    0.54
  -1  -2   5   12.11    0.49
   1   2  -5   11.80    0.58
  -1   2   5   12.33    0.54
   1   2  -5   12.86    0.58
  -1   2   5   12.15    0.60
   1   2  -5   12.17    0.52
  -1   2   5   12.72    0.53
  -1   2   5   12.91    0.50
  -1   2   5   13.46    0.39
  -1   2   5   12.00    0.50
  -1   2   5   13.05    0.57
   1   2  -5   11.95    0.51
   1   2  -5   12.45    0.54
   1   2  -5   12.75    0.52
   1   2  -5   12.66    0.60
   0  -2  -5    3.48    0.31
   0  -2  -5    3.40    0.29
   0  -2  -5    3.48    0.39
   0  -2   5    3.43    0.26
   0  -2   5    3.61    0.26
   0  -2   5    3.07    0.40
   0  -2  -5    3.00    0.28
   0  -2  -5    3.47    0.35
   0  -2  -5    3.22    0.36
   0  -2   5    3.58    0.31
   0  -2   5    3.15    0.40
   0   2  -5    3.43    0.32
   0   2  -5    3.04    0.34
   0   2   5    3.52    0.25
   0   2   5    3.42    0.28
   0   2  -5    3.41    0.34
   0   2  -5    3.10    0.25
   0   2  -5    3.62    0.30
   0   2   5    3.69    0.37
   0   2   5    3.31    0.30
   0   2   5    2.93    0.29
   0   2  -5    3.72    0.28
   0   2  -5    3.57    0.38
   0   2   5    3.28    0.38
   0   2   5    3.17    0.31
  -1  -2  -5   35.61    1.21
   1  -2   5   38.07    1.29
   1  -2   5   38.45    1.24
  -1  -2  -5   38.71    1.27
   1  -2   5   37.85    1.24
  -1  -2  -5   39.34    1.28
   1  -2   5   37.83    1.25
   1  -2   5   39.22    1.03
  -1  -2  -5   39.06    1.26
  -1  -2  -5   37.56    1.24
   1  -2   5   38.52    1.21
   1   2   5   39.24    1.27
   1   2   5   37.30    1.20
   1   2   5   39.58    1.20
  -1   2  -5   40.13    1.27
   1   2   5   39.09    1.27
  -1   2  -5   38.52    1.25
  -1   2  -5   37.79    1.24
  -1   2  -5   38.97    1.25
   1   2   5   39.06    1.22
   1   2   5   38.82    1.16
  -1   2  -5   38.98    1.24
  -1   2  -5   37.86    1.21
   1   2   5   38.02    1.29
  -2  -2  -5   23.98    0.98
   2  -2   5   24.21    0.93
   2  -2   5   23.86    0.96
   2  -2   5   24.40    0.91
  -2  -2  -5   24.50    0.89
   2  -2   5   23.12    0.92
  -2  -2  -5   25.74    0.99
  -2  -2  -5   24.81    0.96
  -2  -2  -5   21.00    1.04
  -2  -2  -5   24.19    0.84
   2  -2   5   23.13    0.87
  -2   2  -5   25.20    0.92
  -2   2  -5   23.87    0.89
  -2   2  -5   23.64    0.90
   2   2   5   24.63    0.84
   2   2   5   23.84    0.96
   2   2   5   23.85    0.96
   2   2   5   23.53    0.95
  -2   2  -5   23.75    0.87
   2   2   5   24.21    0.89
  -2   2  -5   24.61    0.93
   2   2   5   24.65    0.92
  -2   2  -5   24.61    0.96
   2   2   5   23.89    0.84
   3  -2   5   29.64    1.17
  -3  -2  -5   29.96    1.20
  -3  -2  -5   29.95    1.20
  -3  -2  -5   30.71    1.07
   3  -2   5   29.55    1.08
  -3  -2  -5   29.51    1.25
   3  -2   5   30.58    1.16
   3  -2   5   30.50    1.11
  -3  -2  -5   29.42    1.08
   3  -2   5   30.27    1.18
   3   2   5   30.87    1.02
   3   2   5   30.31    1.17
  -3   2  -5   31.53    1.33
  -3   2  -5   29.36    1.23
   3   2   5   30.04    1.22
  -3   2  -5   30.23    1.07
  -3   2  -5   31.82    1.13
   3   2   5   30.95    1.20
  -3   2  -5   30.80    1.19
   3   2   5   30.07    1.10
  -4  -2  -5   10.01    0.58
   4  -2   5   10.70    0.67
  -4  -2  -5   10.19    0.95
  -4  -2  -5    9.14    0.93
   4  -2   5   10.21    0.72
  -4  -2  -5   10.35    0.76
   4  -2   5    9.09    0.80
   4  -2   5    8.53    0.66
  -4   2  -5   10.50    0.75
   4   2   5    8.46    0.74
   4   2   5   10.27    0.74
   4   2   5    9.29    0.73
   4   2   5   11.05    0.58
  -4   2  -5   10.37    0.77
   4   2   5   10.04    0.99
  -4   2  -5   10.34    0.57
  -5  -2  -5    0.83    0.61
   5  -2   5    1.17    0.41
   5  -2   5    1.18    0.61
   5  -2   5    1.25    0.45
  -5  -2  -5    1.50    0.47
  -5  -2  -5    1.14    0.29
   5  -2   5    1.40    0.42
  -5  -2  -5    0.77    0.57
  -5  -2  -5    0.49    0.39
  -5   2  -5    1.17    0.28
   5   2   5    0.85    0.43
   5   2   5    1.07    0.33
  -5   2  -5    1.18    0.46
   5   2   5    0.99    0.52
   5   2   5    1.36    0.47
   5   2   5    0.98    0.79
  -5   2  -5    1.84    0.60
   6  -2   5    4.75    0.68
   6  -2   5    4.92    0.58
  -6  -2  -5    4.11    0.68
  -6  -2  -5    5.61    0.68
  -6  -2  -5    4.97    0.58
   6   2   5    5.02    0.53
   6   2   5    5.26    0.74
  -6   2  -5    5.22    0.71
   6   2   5    4.62    0.66
  -7  -2  -5    0.50    0.72
   7  -2   5    0.83    0.61
  -7  -2  -5   -0.08    0.61
   7  -2   5    0.30    0.55
   7   2   5    0.11    0.69
   7   2   5    2.52    0.84
  -7   2  -5   -1.50    0.68
  -7   2  -5   -0.90    0.69
  -8  -3   5   -0.54    0.79
  -8  -3   5   -0.35    0.75
   8  -3  -5    0.43    0.76
   8  -3  -5    0.86    0.51
   8   3  -5    1.42    0.84
   8   3  -5    2.07    0.75
  -8   3   5   -0.52    0.74
   7  -3  -5    0.24    0.50
  -7  -3   5    0.16    0.53
   7  -3  -5    0.68    0.39
  -7  -3   5    0.19    0.53
   7   3  -5    0.14    0.54
   7   3  -5    0.64    0.49
  -7   3   5    0.40    0.49
  -7   3   5   -0.30    0.58
   6  -3  -5    1.23    0.56
  -6  -3   5   -0.21    0.67
  -6  -3   5    0.55    0.39
  -6  -3   5    0.85    0.49
   6  -3  -5    0.21    0.41
   6  -3  -5    0.68    0.32
  -6   3   5   -0.31    0.46
   6   3  -5    0.56    0.29
   6   3  -5    0.64    0.44
  -6   3   5    0.59    0.35
   6   3  -5    0.30    0.36
   5  -3  -5    8.46    0.67
   5  -3  -5    8.50    0.56
  -5  -3   5    9.17    1.17
  -5  -3   5    7.27    0.88
  -5  -3   5    8.81    0.64
  -5  -3   5    7.35    0.75
   5  -3  -5    7.87    0.72
  -5   3   5    7.64    0.56
  -5   3   5    7.36    0.66
  -5   3   5    7.63    0.58
   5   3  -5    7.57    1.04
   5   3  -5    9.10    0.52
   5   3  -5    8.88    0.73
   5   3  -5    9.04    1.05
  -5   3   5    8.46    0.61
  -5   3   5    9.37    0.78
   5   3  -5    8.36    0.64
   4  -3  -5    0.37    0.26
  -4  -3   5    0.15    0.34
  -4  -3   5    0.19    0.48
  -4  -3   5    0.38    0.23
  -4  -3   5    0.16    0.33
  -4  -3   5   -0.08    0.39
   4  -3  -5    0.23    0.22
   4  -3  -5    0.21    0.20
   4  -3  -5   -0.10    0.26
  -4   3   5    0.50    0.28
   4   3  -5    0.34    0.22
   4   3  -5    0.24    0.29
   4   3  -5    0.32    0.44
  -4   3   5    0.41    0.18
   4   3  -5    0.83    0.41
  -4   3   5    0.10    0.18
   4   3  -5    0.43    0.32
  -4   3   5    0.26    0.25
  -4   3   5    0.49    0.34
   3  -3  -5    2.24    0.34
  -3  -3   5    2.16    0.38
  -3  -3   5    1.84    0.41
  -3  -3   5    2.05    0.28
  -3  -3   5    2.13    0.29
  -3  -3   5    1.45    0.24
   3  -3  -5    1.94    0.25
   3  -3  -5    2.46    0.29
   3  -3  -5    2.73    0.38
  -3  -3   5    2.24    0.38
   3  -3  -5    2.49    0.30
  -3  -3   5    2.33    0.31
  -3   3   5    2.29    0.22
   3   3  -5    2.32    0.36
  -3   3   5    2.68    0.32
   3   3  -5    2.25    0.27
  -3   3   5    1.99    0.33
  -3   3   5    2.38    0.38
  -3   3   5    3.02    0.31
   3   3  -5    2.20    0.34
   3   3  -5    1.80    0.29
  -3   3   5    2.80    0.28
   3   3  -5    1.99    0.35
  -3   3   5    2.81    0.36
   3   3  -5    1.87    0.36
  -2  -3   5   21.39    0.81
  -2  -3   5   19.72    0.80
   2  -3  -5   21.42    0.79
  -2  -3   5   21.75    0.75
  -2  -3   5   21.65    0.79
   2  -3  -5   22.15    0.79
  -2  -3   5   21.15    0.90
  -2  -3   5   21.83    0.89
  -2  -3   5   21.94    0.79
   2  -3  -5   22.29    0.84
   2  -3  -5   22.01    0.86
   2  -3  -5   22.48    0.82
  -2   3   5   20.70    0.79
   2   3  -5   21.94    0.81
   2   3  -5   21.59    0.82
  -2   3   5   21.90    0.79
   2   3  -5   21.39    0.81
   2   3  -5   21.19    0.87
  -2   3   5   20.90    0.88
  -2   3   5   21.89    0.78
  -2   3   5   22.17    0.72
  -2   3   5   22.53    0.84
   2   3  -5   22.06    0.83
   2   3  -5   21.00    0.87
   1  -3  -5    1.18    0.21
  -1  -3   5    1.48    0.26
   1  -3  -5    1.13    0.19
  -1  -3   5    1.05    0.14
  -1  -3   5    1.66    0.29
   1  -3  -5    1.66    0.27
  -1  -3   5    1.55    0.19
  -1  -3   5    1.31    0.23
  -1  -3   5    1.38    0.23
   1  -3  -5    1.54    0.28
   1  -3  -5    1.58    0.24
  -1  -3   5    1.06    0.28
   1  -3  -5    1.34    0.18
   1   3  -5    1.04    0.22
  -1   3   5    1.46    0.27
  -1   3   5    1.26    0.17
  -1   3   5    1.56    0.25
  -1   3   5    1.48    0.22
   1   3  -5    1.43    0.28
   1   3  -5    1.46    0.24
   1   3  -5    1.27    0.22
   1   3  -5    1.26    0.19
  -1   3   5    1.02    0.14
  -1   3   5    1.66    0.20
   1   3  -5    1.13    0.24
  -1   3   5    1.43    0.20
   0  -3  -5   83.13    2.24
   0  -3  -5   79.28    2.37
   0  -3   5   82.93    2.43
   0  -3   5   83.88    2.35
   0  -3  -5   82.97    2.35
   0  -3   5   83.62    2.36
   0  -3  -5   81.95    2.28
   0  -3   5   82.18    2.23
   0  -3   5   81.42    2.29
   0  -3  -5   80.06    2.34
   0  -3  -5   82.10    2.40
   0  -3   5   80.57    2.35
   0   3   5   80.63    2.32
   0   3  -5   77.31    2.34
   0   3  -5   84.70    2.24
   0   3  -5   82.55    2.36
   0   3   5   82.44    2.35
   0   3   5   79.71    2.33
   0   3  -5   82.43    2.29
   0   3  -5   83.85    2.38
   0   3  -5   80.66    2.33
   0   3   5   82.97    2.24
   0   3   5   79.13    2.41
   0   3  -5   82.09    2.39
   0   3   5   74.04    2.31
   0   3   5   82.51    2.35
  -1  -3  -5    5.13    0.37
  -1  -3  -5    5.46    0.32
  -1  -3  -5    5.99    0.44
   1  -3   5    6.14    0.35
  -1  -3  -5    5.65    0.43
  -1  -3  -5    5.93    0.52
   1  -3   5    5.82    0.40
   1  -3   5    6.01    0.42
   1  -3   5    6.46    0.48
   1  -3   5    5.49    0.48
  -1  -3  -5    5.78    0.43
  -1   3  -5    6.07    0.38
   1   3   5    5.99    0.49
   1   3   5    6.20    0.44
   1   3   5    5.71    0.34
   1   3   5    5.80    0.44
  -1   3  -5    5.84    0.35
   1   3   5    6.29    0.47
   1   3   5    5.93    0.30
  -1   3  -5    5.86    0.40
   1   3   5    5.70    0.47
  -1   3  -5    5.50    0.43
  -1   3  -5    5.62    0.43
   1   3   5    5.67    0.40
  -1   3  -5    6.23    0.43
  -1   3  -5    5.25    0.43
  -2  -3  -5   88.53    2.66
   2  -3   5   89.52    2.65
  -2  -3  -5   90.69    2.63
  -2  -3  -5   92.80    2.67
   2  -3   5   91.84    2.62
  -2  -3  -5   88.24    2.74
   2  -3   5   89.13    2.60
   2  -3   5   94.67    2.73
  -2  -3  -5   91.23    2.69
  -2   3  -5   88.71    2.68
  -2   3  -5   87.26    2.64
   2   3   5   89.00    2.67
   2   3   5   92.31    2.66
  -2   3  -5   92.21    2.62
  -2   3  -5   93.10    2.61
  -2   3  -5   86.26    2.65
  -2   3  -5   91.75    2.70
   2   3   5   93.98    2.59
   2   3   5   88.77    2.61
   2   3   5   86.39    2.70
   2   3   5   91.11    2.67
   3  -3   5    0.06    0.26
   3  -3   5   -0.28    0.26
  -3  -3  -5    0.46    0.29
   3  -3   5    0.04    0.21
  -3  -3  -5    0.15    0.29
   3  -3   5    0.21    0.32
  -3  -3  -5    0.02    0.41
  -3  -3  -5    0.35    0.25
   3  -3   5    0.41    0.29
  -3  -3  -5    0.30    0.26
   3   3   5    0.00    0.29
  -3   3  -5   -0.04    0.30
  -3   3  -5    0.65    0.46
  -3   3  -5   -0.02    0.26
   3   3   5    0.10    0.31
   3   3   5    0.13    0.22
  -3   3  -5    0.07    0.22
   3   3   5    0.04    0.41
   3   3   5    0.08    0.33
  -4  -3  -5   31.79    1.32
   4  -3   5   32.21    1.30
  -4  -3  -5   29.78    1.24
  -4  -3  -5   32.77    1.32
   4  -3   5   30.46    1.19
  -4  -3  -5   32.74    1.16
  -4  -3  -5   31.23    1.15
  -4  -3  -5   30.01    1.55
   4  -3   5   32.41    1.20
   4   3   5   32.47    1.33
  -4   3  -5   31.84    1.12
   4   3   5   31.08    1.15
   4   3   5   31.54    1.32
   4   3   5   29.49    1.48
  -4   3  -5   32.66    1.27
  -4   3  -5   33.85    1.32
  -5  -3  -5    0.27    0.36
   5  -3   5    0.23    0.39
   5  -3   5    0.10    0.32
   5  -3   5    0.42    0.54
  -5  -3  -5    0.07    0.49
  -5  -3  -5   -0.03    0.29
  -5  -3  -5    0.64    0.41
  -5   3  -5   -0.16    0.40
   5   3   5   -0.22    0.35
   5   3   5   -0.28    0.31
   5   3   5    0.38    0.49
  -6  -3  -5   -0.51    0.43
   6  -3   5   -0.36    0.46
  -6  -3  -5    0.20    0.35
  -6  -3  -5    0.37    0.52
   6  -3   5   -0.08    0.37
   6   3   5    0.06    0.47
   6   3   5    0.46    0.58
  -6   3  -5   -0.44    0.52
   6   3   5    0.60    0.43
   7  -3   5    1.07    0.74
  -7  -3  -5    0.95    0.78
  -7  -3  -5    0.49    0.64
   7  -3   5    0.15    0.55
   7   3   5    1.34    0.70
  -7   3  -5    0.01    0.72
   7   3   5    0.13    0.79
  -7   3  -5    1.15    0.76
  -8  -4   5    1.04    0.82
   8  -4  -5    1.41    0.77
   8  -4  -5    0.24    0.49
  -8  -4   5   -0.28    0.86
   8   4  -5    0.33    0.78
   8   4  -5    0.29    0.85
  -8   4   5   -0.68    0.82
   7  -4  -5    0.41    0.36
  -7  -4   5   -0.58    0.57
   7  -4  -5   -0.13    0.54
  -7  -4   5    0.31    0.61
   7   4  -5    0.99    0.50
  -7   4   5   -0.70    0.60
   7   4  -5   -0.32    0.66
  -6  -4   5    1.62    0.52
  -6  -4   5    1.75    0.50
   6  -4  -5    1.83    0.52
   6  -4  -5    1.04    0.50
  -6  -4   5    1.10    0.59
   6  -4  -5    1.47    0.45
  -6   4   5    1.63    0.40
   6   4  -5    1.41    0.52
   6   4  -5    1.24    0.31
  -6   4   5    1.64    0.57
  -5  -4   5    1.83    0.48
   5  -4  -5    2.58    0.30
  -5  -4   5    2.83    0.51
  -5  -4   5    2.02    0.59
   5  -4  -5    2.10    0.42
   5  -4  -5    2.70    0.35
  -5  -4   5    3.17    0.44
  -5   4   5    2.71    0.39
  -5   4   5    2.21    0.49
   5   4  -5    2.39    0.35
  -5   4   5    3.20    0.55
   5   4  -5    3.19    0.52
  -5   4   5    3.10    0.41
   5   4  -5    1.80    0.39
   5   4  -5    2.08    0.76
  -4  -4   5   35.83    1.33
  -4  -4   5   38.59    1.43
  -4  -4   5   36.99    1.30
   4  -4  -5   37.51    1.23
  -4  -4   5   36.83    1.44
   4  -4  -5   37.12    1.37
   4  -4  -5   37.16    1.25
  -4  -4   5   36.43    1.54
   4  -4  -5   37.81    1.23
  -4   4   5   40.14    1.13
   4   4  -5   38.78    1.39
   4   4  -5   37.64    1.27
  -4   4   5   37.88    1.20
  -4   4   5   39.78    1.48
   4   4  -5   34.63    1.46
  -4   4   5   39.07    1.44
  -4   4   5   36.78    1.28
   4   4  -5   34.67    1.56
   4   4  -5   38.67    1.42
  -4   4   5   37.44    1.13
  -3  -4   5   15.90    0.74
  -3  -4   5   17.29    0.66
   3  -4  -5   16.60    0.70
  -3  -4   5   15.39    0.85
   3  -4  -5   17.38    0.72
  -3  -4   5   16.92    0.88
  -3  -4   5   16.33    0.81
  -3  -4   5   17.44    0.75
   3  -4  -5   17.08    0.66
  -3  -4   5   16.75    0.67
  -3  -4   5   15.82    0.84
   3  -4  -5   16.41    0.80
  -3   4   5   17.07    0.53
   3   4  -5   16.07    0.77
  -3   4   5   16.43    0.83
   3   4  -5   16.34    0.86
  -3   4   5   16.23    0.79
  -3   4   5   15.60    0.74
  -3   4   5   16.92    0.53
   3   4  -5   15.73    0.72
  -3   4   5   16.97    0.65
   3   4  -5   16.88    0.92
   3   4  -5   15.50    0.83
   2  -4  -5    8.32    0.50
  -2  -4   5    8.73    0.59
   2  -4  -5    9.43    0.57
  -2  -4   5    8.57    0.40
  -2  -4   5    8.90    0.51
  -2  -4   5    8.11    0.53
  -2  -4   5    8.44    0.56
  -2  -4   5    9.51    0.41
   2  -4  -5    8.92    0.53
   2  -4  -5    9.73    0.46
  -2  -4   5    9.42    0.50
   2   4  -5    9.90    0.63
   2   4  -5    8.57    0.62
   2   4  -5    9.20    0.53
  -2   4   5    8.76    0.35
  -2   4   5    8.34    0.54
  -2   4   5    9.38    0.52
   2   4  -5    9.81    0.52
  -2   4   5    8.64    0.41
   2   4  -5    8.27    0.56
  -2   4   5    9.47    0.53
  -2   4   5   10.58    0.64
  -2   4   5    8.49    0.55
  -1  -4   5    6.08    0.44
  -1  -4   5    6.08    0.41
   1  -4  -5    6.48    0.44
  -1  -4   5    5.69    0.49
  -1  -4   5    6.59    0.34
   1  -4  -5    5.79    0.32
   1  -4  -5    4.76    0.44
  -1  -4   5    6.40    0.52
  -1  -4   5    5.79    0.30
   1  -4  -5    5.70    0.45
   1  -4  -5    5.68    0.39
  -1  -4   5    6.98    0.50
  -1   4   5    5.88    0.34
   1   4  -5    6.33    0.51
  -1   4   5    6.23    0.49
  -1   4   5    5.74    0.42
   1   4  -5    5.17    0.40
   1   4  -5    5.23    0.42
   1   4  -5    6.24    0.45
   1   4  -5    5.31    0.39
  -1   4   5    5.98    0.37
  -1   4   5    6.00    0.31
  -1   4   5    6.06    0.36
   1   4  -5    6.43    0.48
  -1   4   5    6.15    0.35
   0  -4   5    0.40    0.15
   0  -4   5    0.04    0.23
   0  -4   5    0.59    0.19
   0  -4  -5    0.44    0.13
   0  -4  -5   -0.05    0.15
   0  -4   5    0.11    0.22
   0  -4  -5    0.57    0.23
   0  -4   5    0.35    0.25
   0  -4   5    0.28    0.15
   0  -4  -5    0.30    0.19
   0  -4  -5    0.20    0.19
   0   4  -5    0.49    0.25
   0   4   5    0.73    0.18
   0   4   5    0.48    0.25
   0   4   5    0.46    0.21
   0   4   5    0.42    0.20
   0   4  -5    0.49    0.24
   0   4  -5    0.18    0.17
   0   4  -5    0.45    0.21
   0   4  -5    0.69    0.18
   0   4  -5    0.33    0.15
   0   4  -5    0.30    0.21
   0   4   5    0.24    0.20
   0   4   5    0.31    0.13
   0   4   5    0.36    0.14
  -1  -4  -5    1.17    0.26
  -1  -4  -5    1.17    0.26
   1  -4   5    0.90    0.22
  -1  -4  -5    1.27    0.32
   1  -4   5    1.58    0.21
  -1  -4  -5    1.02    0.27
   1  -4   5    1.16    0.29
  -1  -4  -5    0.83    0.25
   1   4   5    1.19    0.26
   1   4   5    1.02    0.19
   1   4   5    1.48    0.31
   1   4   5    0.65    0.26
  -1   4  -5    1.38    0.16
  -1   4  -5    1.07    0.26
  -1   4  -5    1.52    0.27
   1   4   5    1.22    0.26
  -1   4  -5    1.06    0.21
  -1   4  -5    0.67    0.18
  -1   4  -5    1.28    0.26
   1   4   5    1.39    0.27
   1   4   5    1.64    0.32
   2  -4   5   43.18    1.46
   2  -4   5   43.55    1.46
   2  -4   5   45.83    1.58
  -2  -4  -5   44.62    1.26
  -2  -4  -5   45.58    1.52
   2  -4   5   46.04    1.44
   2  -4   5   45.78    1.58
  -2  -4  -5   45.99    1.52
  -2  -4  -5   45.61    1.49
  -2  -4  -5   44.24    1.26
  -2  -4  -5   41.73    1.49
  -2   4  -5   45.03    1.54
   2   4   5   48.69    1.96
   2   4   5   45.83    1.46
  -2   4  -5   43.93    1.49
   2   4   5   43.37    1.54
   2   4   5   44.81    1.52
  -2   4  -5   45.64    1.47
   2   4   5   42.00    1.51
  -2   4  -5   46.00    1.43
   2   4   5   41.98    1.58
   3  -4   5   -0.22    0.27
  -3  -4  -5   -0.29    0.33
  -3  -4  -5   -0.11    0.22
  -3  -4  -5    0.42    0.25
   3  -4   5    0.12    0.22
  -3  -4  -5    0.02    0.25
  -3  -4  -5    0.32    0.53
   3  -4   5    0.15    0.29
   3  -4   5    0.09    0.39
  -3  -4  -5    0.02    0.29
   3  -4   5    0.34    0.33
   3   4   5   -0.08    0.25
  -3   4  -5    0.07    0.31
  -3   4  -5    0.21    0.24
  -3   4  -5    0.00    0.28
   3   4   5    0.39    0.36
   3   4   5    0.35    0.31
   3   4   5   -0.09    0.51
  -4  -4  -5    2.23    0.46
  -4  -4  -5    2.91    0.77
   4  -4   5    3.00    0.49
  -4  -4  -5    2.60    0.40
  -4  -4  -5    2.55    0.47
  -4  -4  -5    2.29    0.46
  -4  -4  -5    3.23    0.38
   4  -4   5    3.15    0.52
   4  -4   5    2.43    0.48
   4  -4   5    2.70    0.34
   4   4   5    0.97    0.71
   4   4   5    3.07    0.49
   4   4   5    2.71    0.39
   4   4   5    3.03    0.45
  -4   4  -5    2.10    0.47
  -4   4  -5    2.41    0.37
  -4   4  -5    2.66    0.49
   5  -4   5    4.98    0.69
  -5  -4  -5    5.50    0.62
   5  -4   5    5.26    0.58
  -5  -4  -5    4.21    0.61
  -5  -4  -5    4.35    0.69
   5  -4   5    4.75    0.65
  -5  -4  -5    4.80    0.65
   5   4   5    4.57    0.53
  -5   4  -5    5.01    0.56
   5   4   5    6.29    0.79
  -5   4  -5    4.92    0.64
   5   4   5    5.87    0.73
   6  -4   5    0.42    0.38
  -6  -4  -5    0.80    0.55
  -6  -4  -5   -0.02    0.39
  -6  -4  -5    0.47    0.86
  -6  -4  -5    0.14    0.52
   6  -4   5    1.13    0.56
  -6   4  -5   -0.20    0.55
   6   4   5    0.04    0.45
   6   4   5    0.29    0.69
   6   4   5    1.28    0.55
  -7  -4  -5    8.94    1.15
   7  -4   5    9.68    1.31
   7  -4   5    7.84    0.97
   7   4   5    9.84    1.15
   7   4   5    9.83    1.26
  -7   4  -5    7.53    0.99
   7   4   5    9.93    1.30
  -7   4  -5    9.42    1.29
   8  -5  -5    0.72    0.95
  -8  -5   5    2.72    0.96
  -8  -5   5    2.66    0.99
   8   5  -5    2.07    1.09
  -8   5   5   -0.26    1.02
   8   5  -5    2.17    0.85
   7  -5  -5    2.55    0.74
   7  -5  -5    0.84    0.40
  -7  -5   5    1.87    0.69
  -7  -5   5    2.72    0.70
  -7   5   5    1.46    0.73
   7   5  -5    2.01    0.56
   7   5  -5    1.68    0.76
   6  -5  -5    6.77    1.15
  -6  -5   5    9.57    0.88
   6  -5  -5    7.82    0.78
   6  -5  -5    7.73    0.59
  -6  -5   5   10.00    1.18
   6   5  -5    8.50    1.01
   6   5  -5    8.05    0.81
  -6   5   5    7.05    0.68
   6   5  -5    8.21    0.65
   5  -5  -5    0.24    0.24
  -5  -5   5    0.27    0.36
   5  -5  -5   -0.17    0.27
   5  -5  -5    0.21    0.38
  -5  -5   5    0.08    0.43
  -5  -5   5   -0.04    0.43
  -5  -5   5    0.24    0.54
   5   5  -5    0.49    0.35
  -5   5   5   -0.08    0.45
   5   5  -5    0.18    0.47
  -5   5   5    0.19    0.37
   5   5  -5   -0.04    0.28
  -5   5   5    0.37    0.41
   5   5  -5    0.50    0.54
  -5   5   5   -0.10    0.30
  -4  -5   5    3.68    0.71
   4  -5  -5    3.63    0.36
  -4  -5   5    3.52    0.52
  -4  -5   5    2.83    0.39
  -4  -5   5    3.17    0.49
   4  -5  -5    2.93    0.35
   4  -5  -5    3.98    0.53
   4  -5  -5    3.71    0.35
  -4  -5   5    2.75    0.43
  -4  -5   5    3.00    0.41
  -4   5   5    3.85    0.48
  -4   5   5    3.71    0.40
  -4   5   5    3.57    0.53
   4   5  -5    2.51    0.62
  -4   5   5    3.06    0.32
  -4   5   5    3.25    0.47
   4   5  -5    3.58    0.47
   4   5  -5    3.04    0.46
   4   5  -5    3.57    0.48
  -3  -5   5   27.99    1.07
  -3  -5   5   27.26    1.15
   3  -5  -5   25.85    0.94
  -3  -5   5   27.11    0.87
  -3  -5   5   24.73    1.17
  -3  -5   5   27.47    1.12
   3  -5  -5   27.44    0.92
   3  -5  -5   26.56    1.09
  -3  -5   5   27.83    0.88
   3  -5  -5   27.15    1.02
   3   5  -5   27.35    1.16
   3   5  -5   27.16    1.08
   3   5  -5   28.14    1.19
  -3   5   5   24.38    1.30
  -3   5   5   28.28    1.08
  -3   5   5   27.43    1.15
  -3   5   5   29.70    0.87
   3   5  -5   26.86    1.04
  -3   5   5   28.11    0.87
  -2  -5   5   35.82    1.25
  -2  -5   5   34.92    1.29
  -2  -5   5   34.92    1.26
   2  -5  -5   37.20    1.13
   2  -5  -5   34.80    1.23
   2  -5  -5   36.69    1.15
  -2  -5   5   35.11    1.25
  -2  -5   5   36.39    0.98
  -2  -5   5   35.13    1.31
  -2  -5   5   35.61    0.98
   2   5  -5   35.20    1.30
  -2   5   5   36.07    1.33
  -2   5   5   35.48    1.08
   2   5  -5   34.89    1.22
   2   5  -5   34.65    1.23
  -2   5   5   35.31    1.08
   2   5  -5   31.84    1.25
  -2   5   5   35.47    1.18
   2   5  -5   35.04    1.34
   2   5  -5   36.07    1.29
  -2   5   5   37.26    1.11
   1  -5  -5   62.72    1.83
  -1  -5   5   65.59    1.98
   1  -5  -5   64.15    1.88
  -1  -5   5   64.91    1.70
  -1  -5   5   63.53    1.70
  -1  -5   5   60.93    1.90
   1  -5  -5   64.82    1.89
   1  -5  -5   62.17    1.97
  -1  -5   5   63.40    1.90
  -1  -5   5   66.07    2.04
  -1  -5   5   65.75    1.96
  -1  -5   5   64.29    1.97
   1   5  -5   64.19    1.97
   1   5  -5   64.48    1.89
  -1   5   5   59.67    1.81
  -1   5   5   62.73    1.95
   1   5  -5   62.19    1.97
  -1   5   5   63.46    1.84
   1   5  -5   66.22    2.03
  -1   5   5   63.29    1.81
  -1   5   5   63.89    1.85
   1   5  -5   61.18    1.99
   1   5  -5   69.07    1.98
  -1   5   5   60.88    1.92
  -1   5   5   64.26    2.02
   0  -5  -5   30.28    1.03
   0  -5  -5   31.05    1.05
   0  -5   5   30.03    0.93
   0  -5   5   30.99    1.08
   0  -5   5   29.31    1.03
   0  -5   5   29.80    0.97
   0  -5   5   30.06    1.16
   0  -5  -5   30.12    1.12
   0   5   5   30.15    1.05
   0   5   5   30.30    1.10
   0   5   5   28.70    1.04
   0   5   5   29.82    0.98
   0   5  -5   32.58    1.13
   0   5  -5   30.42    1.09
   0   5  -5   30.69    0.94
   0   5   5   28.75    1.07
   0   5  -5   31.20    0.98
   0   5  -5   29.82    1.01
   0   5  -5   31.12    1.09
   0   5   5   30.97    1.06
  -1  -5  -5   17.82    0.87
   1  -5   5   18.50    0.74
  -1  -5  -5   18.98    0.82
  -1  -5  -5   18.14    0.79
   1  -5   5   19.08    0.81
  -1  -5  -5   17.89    0.85
  -1  -5  -5   18.05    0.79
   1  -5   5   17.61    0.73
   1  -5   5   18.51    0.88
  -1   5  -5   18.25    0.76
   1   5   5   17.83    0.84
   1   5   5   18.40    0.79
   1   5   5   17.59    0.82
  -1   5  -5   18.99    0.60
   1   5   5   17.70    0.76
  -1   5  -5   18.18    0.81
   1   5   5   17.50    0.80
  -1   5  -5   16.69    0.73
   1   5   5   18.46    0.85
  -1   5  -5   19.19    0.81
  -1   5  -5   17.97    0.74
  -2  -5  -5   10.47    0.65
   2  -5   5   10.79    0.72
   2  -5   5   11.01    0.68
  -2  -5  -5   10.85    0.80
  -2  -5  -5   11.09    0.65
   2  -5   5   11.15    0.60
   2  -5   5   10.72    0.65
   2  -5   5   10.64    0.57
  -2  -5  -5   10.45    0.67
  -2   5  -5   10.44    0.69
  -2   5  -5   10.76    0.61
   2   5   5   10.99    0.74
   2   5   5   10.53    0.63
   2   5   5    8.71    0.73
  -2   5  -5   10.49    0.63
   2   5   5    9.32    0.79
   2   5   5   10.63    0.69
  -2   5  -5   10.35    0.68
  -3  -5  -5    9.61    0.76
   3  -5   5    8.75    0.63
  -3  -5  -5    8.09    0.41
  -3  -5  -5    8.35    0.41
   3  -5   5    8.10    0.68
   3  -5   5    8.23    0.54
  -3  -5  -5    7.89    0.68
  -3  -5  -5   10.42    1.04
   3  -5   5    8.82    0.66
  -3  -5  -5    7.87    0.63
  -3   5  -5    8.74    0.58
   3   5   5    8.53    0.65
  -3   5  -5    7.98    0.64
   3   5   5    7.48    0.77
   3   5   5    7.16    0.60
  -3   5  -5    7.75    0.66
  -4  -5  -5    2.97    1.32
  -4  -5  -5    0.88    0.40
  -4  -5  -5    1.00    0.36
  -4  -5  -5    1.09    0.45
   4  -5   5    1.37    0.42
   4  -5   5    1.04    0.39
  -4  -5  -5    0.81    0.40
   4  -5   5    1.76    0.47
   4  -5   5    1.18    0.27
  -4   5  -5    1.31    0.47
   4   5   5    0.64    0.41
   4   5   5    1.61    0.49
  -4   5  -5    1.12    0.45
   4   5   5    1.09    0.41
  -4   5  -5    1.08    0.32
   5  -5   5    1.06    0.50
  -5  -5  -5    0.61    0.56
   5  -5   5    0.64    0.55
  -5  -5  -5   -0.45    0.49
   5  -5   5    0.40    0.30
  -5  -5  -5    0.22    0.36
  -5  -5  -5    0.30    0.39
   5   5   5    0.80    0.49
   5   5   5   -0.29    0.58
  -5   5  -5   -0.05    0.48
   5   5   5    0.07    0.41
  -5   5  -5    0.51    0.35
  -6  -5  -5   -0.81    0.79
   6  -5   5    0.13    0.35
  -6  -5  -5    0.50    0.56
   6  -5   5   -0.38    0.60
   6   5   5   -0.20    0.70
   6   5   5    0.19    0.55
   6   5   5    0.34    0.55
  -6   5  -5   -1.17    0.61
  -7  -5  -5   -0.12    0.72
   7  -5   5   -0.10    0.50
   7  -5   5    1.58    0.79
   7   5   5    0.53    0.85
   7   5   5    0.53    0.75
  -7   5  -5    1.74    0.87
   7  -6  -5    0.74    0.39
  -7  -6   5    2.75    0.78
  -7  -6   5    1.96    0.82
   7  -6  -5    0.34    0.72
  -7   6   5   -0.06    0.78
   7   6  -5    1.46    0.57
   7   6  -5    0.94    0.88
   6  -6  -5   -1.10    0.49
  -6  -6   5   -0.21    0.53
  -6  -6   5    0.47    0.66
   6  -6  -5   -0.12    0.26
   6  -6  -5   -0.31    0.39
  -6  -6   5    0.29    0.60
  -6   6   5   -0.11    0.59
   6   6  -5   -0.14    0.45
   6   6  -5    0.04    0.41
   6   6  -5    0.36    0.70
  -6   6   5   -0.07    0.42
   5  -6  -5    8.98    0.82
   5  -6  -5    8.86    0.59
  -5  -6   5   10.17    0.98
   5  -6  -5    8.93    0.50
  -5  -6   5   10.00    0.87
  -5  -6   5    8.38    0.82
   5   6  -5    9.41    0.99
   5   6  -5    9.19    0.75
  -5   6   5   10.15    0.89
  -5   6   5    8.19    0.61
  -5   6   5    8.70    0.77
   5   6  -5    8.17    0.67
   4  -6  -5   -0.20    0.17
  -4  -6   5    0.37    0.26
   4  -6  -5    0.29    0.36
   4  -6  -5   -0.22    0.26
  -4  -6   5   -0.35    0.35
  -4  -6   5    0.07    0.31
  -4  -6   5    0.45    0.67
  -4  -6   5    0.47    0.32
  -4  -6   5   -0.13    0.38
   4  -6  -5    0.03    0.21
   4   6  -5   -0.40    0.31
  -4   6   5    0.29    0.36
   4   6  -5   -0.12    0.26
  -4   6   5    0.00    0.34
   4   6  -5   -0.20    0.40
  -4   6   5    0.16    0.33
  -4   6   5    0.21    0.63
  -3  -6   5   23.21    1.03
  -3  -6   5   22.34    1.16
  -3  -6   5   23.48    1.08
   3  -6  -5   23.32    0.82
   3  -6  -5   23.52    0.81
  -3  -6   5   23.40    1.05
   3  -6  -5   23.97    0.97
  -3   6   5   22.78    1.07
  -3   6   5   23.70    0.99
   3   6  -5   25.27    1.01
  -3   6   5   21.73    0.82
  -3   6   5   23.20    0.85
   3   6  -5   22.12    1.12
   3   6  -5   23.46    0.97
   2  -6  -5    0.40    0.24
  -2  -6   5    0.25    0.33
   2  -6  -5    0.53    0.17
  -2  -6   5    0.74    0.30
  -2  -6   5    0.58    0.40
  -2  -6   5    0.55    0.29
   2  -6  -5   -0.01    0.25
  -2  -6   5    0.96    0.39
  -2   6   5    0.34    0.24
  -2   6   5    0.64    0.27
   2   6  -5    0.60    0.29
  -2   6   5    0.49    0.31
   2   6  -5    0.50    0.28
  -2   6   5    0.34    0.32
  -2   6   5    0.95    0.19
   2   6  -5    0.96    0.38
   1  -6  -5    5.80    0.40
  -1  -6   5    5.46    0.58
  -1  -6   5    5.32    0.58
   1  -6  -5    5.30    0.48
  -1  -6   5    5.33    0.54
  -1  -6   5    5.05    0.49
   1  -6  -5    5.42    0.40
   1  -6  -5    5.19    0.46
  -1  -6   5    6.00    0.54
  -1   6   5    6.65    0.56
  -1   6   5    5.59    0.38
   1   6  -5    5.52    0.49
   1   6  -5    5.43    0.45
  -1   6   5    5.57    0.38
  -1   6   5    6.54    0.45
  -1   6   5    5.84    0.52
   0  -6  -5   17.54    0.90
   0  -6   5   16.55    0.75
   0  -6   5   17.43    0.86
   0  -6  -5   16.59    0.72
   0  -6  -5   16.30    0.77
   0  -6  -5   17.40    0.73
   0  -6   5   16.20    0.55
   0  -6  -5   16.33    0.81
   0  -6   5   17.14    0.71
   0   6   5   17.13    0.81
   0   6   5   15.62    0.75
   0   6  -5   16.60    0.80
   0   6   5   17.16    0.75
   0   6  -5   16.91    0.81
   0   6   5   16.28    0.81
   0   6  -5   17.20    0.57
   0   6  -5   17.52    0.66
  -1  -6  -5    1.89    0.35
   1  -6   5    1.88    0.36
  -1  -6  -5    1.93    0.34
   1  -6   5    1.53    0.29
  -1  -6  -5    2.21    0.34
  -1  -6  -5    1.88    0.39
   1  -6   5    1.93    0.27
   1  -6   5    1.88    0.40
   1   6   5    1.65    0.31
  -1   6  -5    2.03    0.33
  -1   6  -5    2.11    0.23
   1   6   5    2.27    0.38
  -1   6  -5    1.67    0.31
   1   6   5    2.27    0.40
  -1   6  -5    2.27    0.32
   1   6   5    1.85    0.56
  -2  -6  -5    0.73    0.32
  -2  -6  -5    1.20    0.49
   2  -6   5    0.45    0.24
   2  -6   5    0.68    0.34
   2  -6   5    0.86    0.23
  -2  -6  -5    0.97    0.29
  -2  -6  -5    0.72    0.32
   2  -6   5    0.16    0.31
  -2   6  -5    0.63    0.41
   2   6   5    0.77    0.35
   2   6   5    0.58    0.27
  -2   6  -5    0.23    0.29
  -2   6  -5    0.87    0.30
   2   6   5    0.33    0.38
  -2   6  -5    1.21    0.29
  -3  -6  -5    1.04    0.39
   3  -6   5    0.81    0.25
   3  -6   5    0.78    0.38
   3  -6   5    1.07    0.34
  -3  -6  -5    0.82    0.36
  -3  -6  -5    0.92    0.63
   3  -6   5    1.02    0.39
  -3  -6  -5    0.98    0.33
   3   6   5    1.03    0.36
   3   6   5    1.06    0.40
  -3   6  -5    1.00    0.38
  -3   6  -5    0.84    0.36
   3   6   5    0.43    0.45
  -3   6  -5    1.59    0.35
  -4  -6  -5    0.20    0.35
   4  -6   5   -0.15    0.24
  -4  -6  -5   -0.21    0.48
   4  -6   5   -0.43    0.37
  -4  -6  -5    0.14    0.33
   4  -6   5    0.48    0.44
  -4  -6  -5    0.13    0.26
  -4   6  -5    0.18    0.48
   4   6   5   -0.16    0.35
  -4   6  -5   -0.85    0.40
   4   6   5   -0.51    0.49
   4   6   5   -0.02    0.41
  -4   6  -5   -0.46    0.32
  -5  -6  -5    1.43    0.43
   5  -6   5    0.71    0.32
   5  -6   5    0.89    0.46
  -5  -6  -5    0.70    0.49
  -5  -6  -5    1.70    0.65
   5  -6   5    1.20    0.52
  -5   6  -5    0.93    0.55
   5   6   5    2.11    0.65
   5   6   5    1.19    0.50
  -5   6  -5    1.21    0.42
   6  -6   5    8.89    1.12
   6  -6   5    7.71    0.73
  -6  -6  -5    9.35    1.21
  -6  -6  -5    9.28    1.07
   6   6   5    9.46    1.10
  -6   6  -5    7.84    0.93
   6   6   5    6.79    0.78
   7  -7  -5    1.45    0.81
   7  -7  -5    1.17    0.47
  -7  -7   5    1.65    0.87
  -7  -7   5    1.30    0.87
  -7   7   5   -0.27    0.89
   7   7  -5    1.91    0.68
  -7   7   5    0.38    0.74
  -6  -7   5    3.55    0.88
   6  -7  -5    2.20    0.38
  -6  -7   5    2.66    0.69
   6  -7  -5    1.72    0.62
  -6  -7   5    3.08    0.77
  -6   7   5    3.17    0.81
   6   7  -5    1.92    0.50
   6   7  -5    2.36    0.90
   6   7  -5    3.01    0.61
  -6   7   5    2.53    0.65
  -5  -7   5    4.69    0.66
   5  -7  -5    4.45    0.47
   5  -7  -5    3.27    0.46
  -5  -7   5    4.10    0.63
  -5  -7   5    4.18    0.68
   5   7  -5    3.96    0.56
   5   7  -5    3.58    0.47
   5   7  -5    2.85    0.68
  -5   7   5    4.70    0.70
  -5   7   5    4.72    0.49
  -5   7   5    4.56    0.66
   4  -7  -5    9.47    0.44
  -4  -7   5   10.02    0.82
   4  -7  -5    8.81    0.67
  -4  -7   5    8.64    0.89
   4  -7  -5    8.28    0.46
  -4  -7   5    7.38    1.01
  -4  -7   5    8.53    0.76
  -4   7   5    9.25    0.59
   4   7  -5    8.45    0.69
   4   7  -5   10.42    1.32
   4   7  -5    8.91    0.75
  -4   7   5    9.64    0.80
  -4   7   5    8.44    0.79
  -4   7   5    9.78    0.81
   3  -7  -5    6.87    0.39
   3  -7  -5    7.01    0.61
  -3  -7   5    7.11    0.80
   3  -7  -5    7.29    0.44
  -3  -7   5    5.79    0.67
  -3  -7   5    6.90    0.68
  -3  -7   5    6.99    0.67
  -3   7   5    6.32    0.88
  -3   7   5    7.62    0.50
   3   7  -5    7.25    0.60
  -3   7   5    6.76    0.66
  -3   7   5    6.64    0.63
  -3   7   5    6.94    0.68
   3   7  -5    7.09    0.65
   3   7  -5    7.52    0.74
   2  -7  -5    4.50    0.54
   2  -7  -5    4.96    0.40
   2  -7  -5    4.93    0.36
  -2  -7   5    4.95    0.60
  -2  -7   5    4.63    0.55
  -2  -7   5    4.53    0.59
  -2  -7   5    4.94    0.55
  -2   7   5    4.17    0.47
  -2   7   5    5.02    0.50
   2   7  -5    4.94    0.54
   2   7  -5    4.25    0.52
  -2   7   5    4.94    0.60
  -2   7   5    4.14    0.56
   2   7  -5    5.03    0.53
   1  -7  -5    7.03    0.54
   1  -7  -5    7.39    0.50
  -1  -7   5    7.65    0.62
   1  -7  -5    6.97    0.45
   1  -7  -5    6.94    0.61
  -1  -7   5    7.71    0.65
  -1  -7   5    7.12    0.56
  -1  -7   5    6.99    0.77
   1   7  -5    7.26    0.54
  -1   7   5    7.06    0.58
   1   7  -5    7.59    0.69
  -1   7   5    6.90    0.50
  -1   7   5    7.09    0.41
  -1   7   5    6.81    0.62
   1   7  -5    7.08    0.57
  -1   7   5    7.29    0.43
  -1   7   5    7.65    0.70
   0  -7  -5   17.55    0.84
   0  -7   5   18.20    0.81
   0  -7  -5   17.28    0.85
   0  -7   5   17.66    0.84
   0  -7  -5   18.01    0.77
   0  -7   5   17.19    0.80
   0  -7   5   17.41    0.90
   0  -7  -5   17.77    0.81
   0   7   5   17.39    0.89
   0   7  -5   17.98    0.73
   0   7  -5   18.51    0.87
   0   7   5   18.19    0.98
   0   7  -5   17.51    0.87
   0   7   5   17.69    0.86
   0   7   5   16.53    0.87
  -1  -7  -5   26.66    1.05
  -1  -7  -5   28.72    1.14
   1  -7   5   28.61    1.21
   1  -7   5   26.81    0.93
   1  -7   5   26.83    1.07
  -1  -7  -5   28.11    1.10
   1  -7   5   26.64    0.99
  -1   7  -5   25.95    1.02
   1   7   5   27.10    1.11
   1   7   5   26.29    1.14
  -1   7  -5   27.11    1.11
   1   7   5   26.57    1.11
  -1   7  -5   27.41    0.97
   2  -7   5    0.98    0.24
   2  -7   5    1.69    0.42
  -2  -7  -5    1.07    0.34
  -2  -7  -5    1.59    0.58
  -2  -7  -5    0.95    0.37
  -2  -7  -5    1.00    0.34
   2  -7   5    0.80    0.36
   2  -7   5    1.16    0.29
  -2   7  -5    1.43    0.46
   2   7   5    0.84    0.36
   2   7   5    0.99    0.44
  -2   7  -5    1.21    0.35
  -2   7  -5    1.09    0.36
  -2   7  -5    0.65    0.35
  -2   7  -5    1.37    0.23
  -2   7  -5    1.31    0.20
   2   7   5    0.95    0.32
  -3  -7  -5    1.01    0.74
  -3  -7  -5    0.65    0.36
   3  -7   5    0.49    0.41
  -3  -7  -5    0.42    0.41
   3  -7   5    0.26    0.33
  -3  -7  -5    0.41    0.38
   3  -7   5    0.39    0.34
   3  -7   5    0.18    0.23
   3   7   5    0.11    0.51
   3   7   5    0.00    0.33
   3   7   5   -0.14    0.31
  -3   7  -5    0.56    0.40
  -3   7  -5    0.62    0.39
  -3   7  -5    0.46    0.33
   4  -7   5    1.21    0.44
  -4  -7  -5    1.40    0.57
  -4  -7  -5    0.62    0.40
   4  -7   5    0.73    0.31
   4  -7   5    0.83    0.39
  -4  -7  -5    1.47    0.55
  -4   7  -5    1.06    0.36
   4   7   5    1.21    0.47
   4   7   5    0.67    0.47
  -5  -7  -5    4.04    0.75
   5  -7   5    3.80    1.03
   5  -7   5    4.08    0.44
  -5  -7  -5    4.82    0.61
  -5  -7  -5    3.88    0.68
  -5   7  -5    5.06    0.71
   5   7   5    4.77    0.64
   5   7   5    5.12    0.71
  -5   7  -5    4.19    0.57
   6  -7   5    0.91    0.38
   6  -7   5    0.82    0.75
  -6  -7  -5    0.52    0.73
  -6  -7  -5    0.11    1.06
   6   7   5    2.01    0.76
   6   7   5    0.43    0.65
  -6   7  -5    0.16    0.78
  -7  -8   5   -0.92    0.97
  -7  -8   5    0.83    0.95
  -7   8   5   -1.22    1.04
   7   8  -5    1.10    0.75
  -6  -8   5   -0.32    0.69
  -6  -8   5   -0.05    0.73
  -6  -8   5    0.34    0.66
   6   8  -5    0.05    0.55
   6   8  -5    0.27    0.57
  -6   8   5    0.40    0.79
  -6   8   5    0.13    0.68
  -5  -8   5    2.27    0.65
  -5  -8   5    1.37    0.61
  -5  -8   5    2.05    0.61
  -5   8   5    1.52    0.60
  -5   8   5    1.91    0.48
   5   8  -5    1.72    0.50
   5   8  -5    1.69    0.51
  -5   8   5    2.60    0.67
   4  -8  -5    3.69    0.26
  -4  -8   5    3.39    0.60
   4  -8  -5    2.90    0.29
  -4  -8   5    4.17    0.59
  -4  -8   5    2.29    0.55
  -4   8   5    3.22    0.54
   4   8  -5    3.36    0.56
  -4   8   5    3.30    0.60
  -4   8   5    3.22    0.43
   4   8  -5    2.49    0.71
   4   8  -5    4.00    0.51
  -3  -8   5   -0.72    0.36
  -3  -8   5    0.72    0.69
  -3  -8   5   -0.38    0.36
   3  -8  -5   -0.02    0.33
   3  -8  -5    0.12    0.20
   3  -8  -5    0.10    0.16
  -3  -8   5    0.15    0.35
   3   8  -5   -0.25    0.32
   3   8  -5   -0.08    0.32
  -3   8   5   -0.15    0.34
  -3   8   5    0.30    0.39
  -3   8   5    0.25    0.53
  -3   8   5    0.80    0.64
   3   8  -5   -0.29    0.56
  -2  -8   5   27.92    1.34
   2  -8  -5   29.90    0.98
   2  -8  -5   28.88    1.00
  -2  -8   5   31.24    1.24
  -2  -8   5   29.57    1.29
  -2  -8   5   29.33    1.28
   2  -8  -5   29.06    1.21
   2   8  -5   29.98    1.34
  -2   8   5   30.11    1.07
  -2   8   5   28.88    1.26
   2   8  -5   30.39    1.23
  -2   8   5   31.40    1.31
  -2   8   5   28.31    1.15
   2   8  -5   29.36    1.18
  -1  -8   5    5.47    0.64
   1  -8  -5    5.49    0.66
  -1  -8   5    5.01    0.63
   1  -8  -5    5.18    0.53
  -1  -8   5    5.51    0.54
   1  -8  -5    5.42    0.43
   1  -8  -5    5.04    0.57
  -1   8   5    4.86    0.36
  -1   8   5    6.26    0.60
   1   8  -5    4.91    0.54
   1   8  -5    4.81    0.57
   1   8  -5    7.45    0.79
  -1   8   5    4.70    0.60
  -1   8   5    5.02    0.38
   0  -8   5    9.02    0.62
   0  -8  -5    8.86    0.56
   0  -8  -5    8.93    0.72
   0  -8   5    8.09    0.72
   0  -8  -5    9.77    0.67
   0  -8  -5    9.93    0.70
   0  -8   5   10.30    0.78
   0   8   5    8.79    0.68
   0   8   5    8.12    0.69
   0   8   5   10.39    0.71
   0   8  -5   10.18    0.58
   0   8  -5    9.17    0.70
  -1  -8  -5    0.70    0.28
   1  -8   5    0.32    0.39
  -1  -8  -5    0.46    0.32
  -1  -8  -5    0.72    0.32
  -1  -8  -5    1.15    0.47
   1  -8   5    0.69    0.24
  -1   8  -5    0.72    0.25
   1   8   5    0.28    0.42
  -1   8  -5    0.16    0.30
   1   8   5    0.23    0.32
  -1   8  -5    0.14    0.36
   1   8   5    0.69    0.35
  -2  -8  -5    8.62    0.70
  -2  -8  -5    7.15    0.72
  -2  -8  -5    9.28    1.09
   2  -8   5    7.88    0.80
   2  -8   5    7.51    0.51
   2  -8   5    7.86    0.62
   2  -8   5    7.14    0.56
  -2  -8  -5    7.34    0.66
  -2   8  -5    8.57    0.84
  -2   8  -5    7.12    0.57
   2   8   5    7.30    0.74
  -2   8  -5    7.96    0.48
  -2   8  -5    8.59    0.68
  -2   8  -5    6.30    0.65
   2   8   5    7.35    0.66
   2   8   5    5.41    0.65
   3  -8   5    0.69    0.25
   3  -8   5    1.43    0.42
  -3  -8  -5    1.64    0.48
  -3  -8  -5    2.06    0.46
  -3  -8  -5    1.05    0.47
   3  -8   5    1.83    0.37
   3  -8   5    1.19    0.49
   3   8   5    1.58    0.46
  -3   8  -5    1.33    0.48
   3   8   5    2.15    0.66
  -3   8  -5    1.28    0.40
   3   8   5    1.23    0.47
  -4  -8  -5    1.22    0.48
   4  -8   5    1.80    0.52
  -4  -8  -5    1.53    0.61
   4  -8   5    1.13    0.42
   4  -8   5    1.81    0.30
  -4  -8  -5    1.80    0.56
  -4   8  -5    0.88    0.51
   4   8   5    1.77    0.56
   4   8   5    1.39    0.49
  -4   8  -5    1.28    0.46
  -5  -8  -5    0.94    0.63
   5  -8   5   -0.15    0.31
   5  -8   5   -0.33    0.59
  -5   8  -5    0.99    0.67
  -5   8  -5    0.32    0.53
   5   8   5    0.09    0.55
   5   8   5    0.77    0.65
   6  -8   5    5.14    0.99
  -6  -8  -5    8.59    1.00
   6  -8   5    4.93    0.55
   6   8   5    6.07    0.96
  -6   8  -5    5.04    0.96
   6   8   5    3.77    0.86
  -6  -9   5    3.05    0.86
  -6  -9   5    3.51    0.94
  -6  -9   5    1.27    1.00
  -6   9   5    1.84    0.80
   6   9  -5    2.30    0.63
  -6   9   5    3.23    0.95
  -5  -9   5    0.04    0.61
  -5  -9   5    0.05    0.68
  -5   9   5   -1.13    0.54
   5   9  -5    0.40    0.52
  -4  -9   5    1.87    0.60
  -4  -9   5    2.05    0.61
  -4  -9   5    1.15    0.55
   4   9  -5    1.92    0.50
  -4   9   5    1.93    0.48
   4   9  -5    1.00    0.44
  -4   9   5    2.68    0.55
  -4   9   5    2.07    0.56
  -3  -9   5    0.29    0.47
   3  -9  -5   -0.07    0.15
  -3  -9   5   -0.09    0.41
   3  -9  -5    0.31    0.18
  -3  -9   5   -0.36    0.39
  -3   9   5    0.85    0.45
   3   9  -5    0.23    0.38
   3   9  -5   -0.21    0.36
  -3   9   5   -0.17    0.40
  -2  -9   5    0.16    0.41
  -2  -9   5    0.06    0.63
   2  -9  -5    0.01    0.36
   2  -9  -5    0.29    0.19
   2  -9  -5    0.44    0.26
  -2  -9   5   -0.30    0.34
  -2  -9   5    0.68    0.45
  -2   9   5    0.67    0.42
  -2   9   5    0.41    0.34
   2   9  -5    0.37    0.61
   2   9  -5   -0.62    0.28
   2   9  -5   -0.26    0.34
  -2   9   5    1.15    0.85
  -2   9   5   -0.15    0.30
   1  -9  -5    2.41    0.31
  -1  -9   5    2.18    0.50
  -1  -9   5    2.40    0.42
   1  -9  -5    3.40    0.48
   1  -9  -5    2.21    0.34
  -1  -9   5    1.68    0.49
  -1  -9   5    2.96    0.43
   1  -9  -5    2.47    0.43
   1   9  -5    1.94    0.44
  -1   9   5    2.11    0.43
   1   9  -5    2.29    0.42
  -1   9   5    1.93    0.44
   0  -9  -5    6.03    0.76
   0  -9  -5    6.55    0.61
   0  -9  -5    5.48    0.50
   0  -9   5    5.81    0.72
   0  -9   5    5.90    0.56
   0  -9  -5    6.08    0.66
   0  -9   5    6.10    0.70
   0   9   5    5.93    0.55
   0   9  -5    3.87    0.57
   0   9   5    7.20    0.67
   0   9  -5    5.83    0.63
   0   9  -5    6.38    0.58
   0   9   5    6.58    0.70
  -1  -9  -5    4.20    0.52
   1  -9   5    5.01    0.49
  -1  -9  -5    3.57    0.60
  -1  -9  -5    5.22    0.57
  -1  -9  -5    6.02    0.73
   1  -9   5    6.03    0.70
  -1   9  -5    4.78    0.54
  -1   9  -5    5.56    0.52
  -1   9  -5    5.63    0.82
   1   9   5    4.94    0.77
  -1   9  -5    4.95    0.36
   1   9   5    5.37    0.64
   1   9   5    5.87    0.67
  -1   9  -5    4.95    0.42
   2  -9   5    1.39    0.31
   2  -9   5    1.43    0.50
  -2  -9  -5    1.79    0.45
  -2  -9  -5    2.49    0.51
  -2  -9  -5    1.29    0.43
   2   9   5    1.73    0.49
  -2   9  -5    2.35    0.32
  -2   9  -5    2.52    0.49
   2   9   5    1.48    0.45
  -3  -9  -5    1.72    0.87
   3  -9   5    1.06    0.55
   3  -9   5    1.18    0.45
   3  -9   5    0.34    0.25
  -3  -9  -5    0.72    0.56
   3  -9   5    0.61    0.34
  -3   9  -5   -0.08    0.40
   3   9   5    1.79    0.53
   3   9   5   -0.54    0.41
  -3   9  -5    0.57    0.49
  -4  -9  -5    3.60    0.73
   4  -9   5    3.09    0.48
   4  -9   5    2.89    0.35
  -4  -9  -5    4.46    0.73
   4  -9   5    2.56    0.61
   4   9   5    3.28    0.60
  -4   9  -5    3.40    0.70
   4   9   5    4.52    0.81
  -5  -9  -5    0.34    0.76
   5  -9   5    0.89    0.71
  -5  -9  -5    1.43    0.71
   5  -9   5    1.27    0.35
   5   9   5    0.45    0.77
  -5   9  -5    2.11    0.81
   5   9   5    1.79    0.70
  -5   9  -5    1.21    0.64
  -5 -10   5    1.35    0.76
  -5 -10   5   -0.56    0.72
  -5 -10   5    0.25    0.81
   5  10  -5    0.10    0.62
  -5  10   5    0.52    0.73
  -5  10   5    0.47    0.81
   5  10  -5    2.14    0.67
  -4 -10   5    0.84    0.63
  -4 -10   5    1.04    0.67
  -4  10   5   -0.42    0.57
   4  10  -5    0.23    0.51
  -4  10   5    0.36    0.53
  -4  10   5    0.18    0.62
   4  10  -5    0.14    0.52
  -3 -10   5    7.09    0.88
  -3 -10   5    6.43    0.90
  -3 -10   5    5.94    0.72
  -3  10   5    8.27    0.86
   3  10  -5    5.89    0.73
  -3  10   5    6.10    0.81
  -3  10   5    5.95    0.82
   3  10  -5    7.52    0.85
  -2 -10   5    3.90    0.63
   2 -10  -5    1.70    0.40
   2 -10  -5    2.78    0.33
  -2 -10   5    2.98    0.58
  -2  10   5    2.99    0.54
  -2  10   5    2.75    0.42
   2  10  -5    2.60    0.54
   2  10  -5    2.67    0.52
  -2  10   5    2.52    0.52
   1 -10  -5    0.66    0.34
   1 -10  -5    0.15    0.42
  -1 -10   5    0.22    0.47
   1  10  -5    0.20    0.39
  -1  10   5    0.75    0.43
   1  10  -5   -0.38    0.59
   0 -10  -5    0.59    0.42
   0 -10   5    0.58    0.48
   0 -10  -5   -0.11    0.35
   0 -10   5    0.17    0.41
   0 -10  -5    0.30    0.53
   0 -10  -5    0.52    0.40
   0 -10   5   -0.01    0.46
   0  10   5   -0.26    0.45
   0  10  -5   -0.23    0.59
   0  10  -5    0.55    0.37
   0  10   5    0.59    0.61
   1 -10   5    1.58    0.39
   1 -10   5    1.57    0.60
   1 -10   5    1.77    0.31
  -1 -10  -5    2.41    0.53
  -1 -10  -5    2.17    0.39
  -1 -10  -5    1.30    0.44
  -1  10  -5    2.11    0.42
   1  10   5    1.25    0.42
   1  10   5    2.28    0.49
  -1  10  -5    2.16    0.53
   2 -10   5    0.68    0.27
   2 -10   5    1.85    0.58
  -2 -10  -5    1.89    0.50
   2 -10   5    1.58    0.36
  -2 -10  -5    1.00    0.45
  -2  10  -5    1.24    0.48
   2  10   5    0.88    0.48
   2  10   5    1.46    0.52
  -2  10  -5    1.22    0.36
   3 -10   5    0.03    0.27
   3 -10   5   -0.22    0.58
   3 -10   5    0.16    0.35
  -3 -10  -5    0.06    0.55
  -3 -10  -5    1.02    0.54
  -3  10  -5    0.64    0.52
   3  10   5    0.53    0.54
   3  10   5   -0.14    0.50
  -3  10  -5    0.07    0.55
  -4 -10  -5   -0.25    0.68
  -4 -10  -5   -0.37    0.61
   4  10   5    0.79    0.61
  -4  10  -5    0.61    0.56
   4  10   5    1.48    0.73
  -4  10  -5    0.43    0.74
   5 -10   5    0.16    0.32
  -5 -10  -5    1.34    0.86
  -5 -10  -5    0.20    0.90
   5  10   5   -0.54    0.88
  -5  10  -5    0.75    0.90
   5  10   5    0.97    0.79
  -5  10  -5    1.02    0.93
  -5 -11   5   -0.02    0.82
  -5 -11   5    0.34    0.86
  -5  11   5    0.61    0.92
   5  11  -5   -0.32    0.77
   5  11  -5    1.33    0.71
  -5  11   5    3.31    0.90
  -4 -11   5    0.73    0.67
  -4 -11   5    0.21    0.62
  -4 -11   5    1.16    0.76
  -4  11   5   -0.36    0.72
   4  11  -5    0.65    0.63
   4  11  -5    0.47    0.64
  -4  11   5    0.56    0.65
  -3 -11   5    0.12    0.53
  -3 -11   5    0.90    0.64
   3  11  -5    0.48    0.51
   3  11  -5    1.07    0.54
  -3  11   5    1.82    0.64
  -3  11   5   -0.15    0.56
  -2 -11   5    0.45    0.43
  -2 -11   5    2.01    0.54
   2 -11  -5    1.32    0.30
   2 -11  -5    1.64    0.25
  -2 -11   5    0.56    0.60
   2  11  -5    0.94    0.93
  -2  11   5    1.74    0.62
  -2  11   5    1.58    0.57
   2  11  -5    1.04    0.50
   1 -11  -5    0.91    0.38
  -1 -11   5    0.49    0.37
  -1 -11   5    0.91    0.55
  -1 -11   5    0.32    0.58
   1 -11  -5    0.40    0.28
   1 -11  -5    0.59    0.47
  -1  11   5    0.03    0.44
   1  11  -5    0.86    0.47
   1  11  -5   -0.74    0.45
  -1  11   5    0.84    0.56
   0 -11   5   -0.76    0.79
   0 -11  -5   -0.34    0.31
   0 -11   5    0.13    0.35
   0 -11  -5    0.51    0.50
   0  11  -5    0.29    0.44
   0  11  -5   -0.69    0.45
   0  11   5   -0.10    0.42
   0  11   5    0.22    0.52
  -1 -11  -5    3.30    0.97
  -1 -11  -5    4.88    0.54
   1 -11   5    3.39    0.42
   1 -11   5    5.26    0.77
  -1  11  -5    5.42    0.63
   1  11   5    4.88    0.71
  -1  11  -5    5.04    0.56
   1  11   5    6.36    0.80
   2 -11   5    0.71    0.40
  -2 -11  -5   -0.05    0.61
   2 -11   5    0.83    0.60
  -2 -11  -5    0.56    0.47
   2 -11   5   -0.14    0.29
  -2  11  -5    0.84    0.53
   2  11   5   -0.33    0.57
   2  11   5    0.01    0.46
  -3 -11  -5   -1.15    0.53
   3 -11   5   -0.30    0.34
   3 -11   5    0.58    0.31
  -3 -11  -5   -0.01    0.72
   3 -11   5    0.93    0.73
  -3  11  -5   -1.09    0.70
   3  11   5    0.21    0.76
   3  11   5    0.30    0.57
  -3  11  -5    0.04    0.54
  -4 -11  -5    3.61    0.88
  -4 -11  -5    3.63    0.88
   4 -11   5    3.07    0.34
   4 -11   5    3.25    0.38
  -4  11  -5    3.64    0.97
  -4  11  -5    3.61    0.76
   4  11   5    3.54    0.75
  -4 -12   5   -0.25    0.88
  -4 -12   5   -0.38    0.81
  -4  12   5    0.01    0.90
  -4  12   5   -0.76    0.83
   4  12  -5   -0.63    0.76
   4  12  -5    0.41    0.72
  -3 -12   5    0.28    0.77
  -3 -12   5    0.03    0.80
  -3 -12   5   -1.48    0.58
  -3  12   5   -0.27    0.75
   3  12  -5    0.55    0.65
  -3  12   5    0.04    0.71
   3  12  -5   -0.21    0.63
  -2 -12   5    2.32    0.75
  -2 -12   5    3.24    0.74
  -2 -12   5    2.43    0.55
   2 -12  -5    2.21    0.26
  -2  12   5    2.60    0.74
   2  12  -5    1.41    0.64
   2  12  -5    1.49    0.60
  -2  12   5    2.38    0.70
   1 -12  -5    2.20    0.36
  -1 -12   5    2.16    0.66
  -1 -12   5    1.70    0.47
  -1 -12   5    1.83    0.70
   1 -12  -5    2.12    0.49
   1  12  -5    0.93    0.65
  -1  12   5    1.45    1.01
  -1  12   5    1.42    0.61
   1  12  -5    0.74    0.53
   0 -12  -5    3.42    0.70
   0 -12   5    2.96    0.47
   0 -12   5    3.74    0.78
   0 -12  -5    3.11    0.45
   0  12   5    2.63    0.70
   0  12   5    2.42    0.63
   0  12  -5    2.99    0.59
   0  12  -5    3.59    0.65
   1 -12   5    0.49    0.73
  -1 -12  -5    0.09    0.66
   1 -12   5    0.79    0.37
  -1 -12  -5   -0.08    0.42
  -1  12  -5   -0.39    0.56
   1  12   5   -0.71    0.64
  -2 -12  -5    0.38    0.69
   2 -12   5    1.60    0.80
  -2 -12  -5    0.78    0.55
   2 -12   5   -0.43    0.31
  -2  12  -5    1.18    0.62
   2  12   5    0.05    0.84
   2  12   5   -0.15    0.52
   3 -12   5    4.77    0.53
   3 -12   5    3.64    0.42
  -3 -12  -5    4.56    0.84
  -3 -12  -5    4.31    0.98
  -3  12  -5    4.04    0.83
  -3  12  -5    3.87    0.92
   3  12   5    3.62    0.79
  -2 -13   5    0.63    1.36
  -2 -13   5    1.86    0.87
  -2 -13   5   -0.78    0.56
  -2  13   5    0.81    0.90
   2  13  -5   -1.14    0.77
  -2  13   5    0.22    0.77
   2  13  -5   -0.57    0.72
  -1 -13   5   -0.60    0.84
   1 -13  -5   -0.68    0.36
  -1 -13   5   -0.48    0.50
   1 -13  -5    1.43    0.82
   1  13  -5   -1.31    0.71
  -1  13   5    0.07    0.67
   1  13  -5    0.12    0.67
   0 -13  -5    4.34    0.95
   0 -13   5    2.51    0.52
   0 -13  -5    4.08    0.56
   0 -13   5    4.09    0.93
   0  13   5    4.80    0.85
   0  13  -5    3.29    0.73
   0  13  -5    3.93    1.22
   1 -13   5    8.53    0.78
  -1 -13  -5    8.96    0.96
  -1 -13  -5    7.82    1.01
   1 -13   5   11.45    1.51
  -1  13  -5    9.19    0.96
   1  13   5    8.82    1.00
   8   0  -6   -0.06    0.67
   8   0  -6    1.73    0.72
   7   0  -6    0.68    0.49
  -7   0   6    1.28    0.46
  -7   0   6   -0.37    0.61
   7   0  -6    0.11    0.51
  -6   0   6    0.43    0.47
  -6   0   6    0.74    0.32
   6   0  -6    0.54    0.22
   6   0  -6    0.28    0.39
  -6   0   6    0.75    0.63
   6   0  -6    0.96    0.38
  -5   0   6    4.57    0.41
  -5   0   6    5.69    0.74
   5   0  -6    6.05    0.61
  -5   0   6    5.54    0.62
   5   0  -6    4.75    0.61
   5   0  -6    5.74    0.61
   5   0  -6    5.21    0.57
   5   0  -6    5.21    0.41
   4   0  -6    8.06    0.61
   4   0  -6    7.97    0.62
   4   0  -6    7.81    0.71
  -4   0   6    8.05    0.71
   4   0  -6    7.19    0.41
  -4   0   6    8.28    0.61
  -4   0   6    8.67    0.69
  -4   0   6    7.57    0.54
   4   0  -6    7.95    0.49
  -4   0   6    8.42    0.42
  -3   0   6   27.63    1.07
   3   0  -6   26.80    0.81
   3   0  -6   28.19    1.05
  -3   0   6   28.89    0.81
  -3   0   6   27.85    1.12
  -3   0   6   28.21    1.09
   3   0  -6   29.42    0.99
   3   0  -6   28.23    1.05
   3   0  -6   29.00    1.09
  -3   0   6   26.56    0.98
  -3   0   6   27.94    0.99
  -3   0   6   27.96    1.06
  -3   0   6   29.75    1.07
   3   0  -6   28.08    1.05
  -2   0   6   34.00    1.18
   2   0  -6   34.17    0.95
   2   0  -6   34.89    1.14
   2   0  -6   34.26    1.19
  -2   0   6   34.86    1.18
  -2   0   6   33.63    1.18
  -2   0   6   33.68    1.13
  -2   0   6   33.43    1.13
   2   0  -6   34.52    0.95
   2   0  -6   34.62    1.17
  -2   0   6   34.37    1.21
   2   0  -6   33.61    1.15
   2   0  -6   33.87    1.18
   1   0  -6   -0.03    0.19
  -1   0   6    0.08    0.12
   1   0  -6   -0.16    0.19
   1   0  -6   -0.18    0.18
   1   0  -6   -0.09    0.25
  -1   0   6    0.21    0.22
   1   0  -6    0.17    0.17
  -1   0   6   -0.37    0.22
   1   0  -6    0.10    0.13
  -1   0   6   -0.16    0.17
  -1   0   6    0.13    0.18
   1   0  -6   -0.02    0.13
   1   0  -6   -0.31    0.31
  -1   0   6   -0.04    0.19
   0   0   6   19.52    0.76
   0   0  -6   19.06    0.73
   0   0  -6   18.56    0.75
   0   0   6   18.80    0.78
   0   0  -6   18.27    0.74
   0   0  -6   18.07    0.76
   0   0  -6   18.26    0.66
   0   0  -6   17.87    0.67
   0   0  -6   18.15    0.78
   0   0   6   17.93    0.77
   0   0   6   17.41    0.68
   0   0   6   18.94    0.66
   0   0   6   18.48    0.78
   1   0   6  106.78    3.24
  -1   0  -6  120.03    3.20
   1   0   6  116.50    3.24
  -1   0  -6  111.53    3.22
   1   0   6  110.01    3.17
   1   0   6  117.92    3.22
   1   0   6  111.07    3.18
  -1   0  -6  114.23    3.24
  -1   0  -6  111.60    3.21
  -1   0  -6  112.31    3.22
  -1   0  -6  113.07    3.20
   2   0   6    2.30    0.25
  -2   0  -6    1.69    0.27
  -2   0  -6    2.02    0.30
   2   0   6    2.04    0.34
   2   0   6    2.74    0.36
  -2   0  -6    2.94    0.39
   2   0   6    2.58    0.34
   2   0   6    2.75    0.34
   2   0   6    2.48    0.36
  -2   0  -6    2.31    0.42
   2   0   6    2.55    0.42
  -2   0  -6    2.55    0.38
   2   0   6    2.31    0.27
  -2   0  -6    2.03    0.36
   3   0   6    6.46    0.58
   3   0   6    6.16    0.58
  -3   0  -6    6.47    0.69
   3   0   6    7.03    0.57
  -3   0  -6    6.56    0.65
  -3   0  -6    6.79    0.70
   3   0   6    6.05    0.35
   3   0   6    6.82    0.40
   3   0   6    5.85    0.67
  -3   0  -6    6.41    0.51
   3   0   6    6.37    0.71
  -3   0  -6    7.41    0.84
   4   0   6   30.35    1.29
  -4   0  -6   30.85    1.11
  -4   0  -6   29.16    1.28
   4   0   6   30.49    0.94
  -4   0  -6   29.47    1.30
   4   0   6   28.31    1.40
   4   0   6   27.51    1.35
   4   0   6   29.17    1.22
  -5   0  -6   34.19    1.59
  -5   0  -6   32.96    1.17
   5   0   6   32.35    1.44
  -5   0  -6   30.27    1.42
   5   0   6   28.34    1.23
   5   0   6   31.07    1.37
   6   0   6    0.22    0.55
   6   0   6    0.07    0.52
  -6   0  -6    0.34    0.62
  -6   0  -6    0.31    0.56
  -7   0  -6    1.44    0.71
   7   0   6    0.41    0.74
   7   0   6    2.27    0.73
  -7   0  -6    3.04    0.81
   8  -1  -6    1.26    0.63
   8  -1  -6    1.42    0.72
  -8  -1   6   -0.52    0.80
  -8   1   6   -0.61    0.72
   8   1  -6    1.42    0.68
   8   1  -6    0.20    0.74
   7  -1  -6    1.05    0.47
   7  -1  -6    1.84    0.52
  -7  -1   6    0.58    0.58
  -7  -1   6    1.24    0.48
   7   1  -6    0.94    0.51
  -7   1   6   -0.12    0.55
  -7   1   6    1.01    0.49
   7   1  -6    0.81    0.53
   6  -1  -6    0.60    0.38
   6  -1  -6    0.34    0.39
   6  -1  -6    0.42    0.22
  -6  -1   6    1.43    0.62
  -6  -1   6    0.72    0.47
  -6  -1   6    0.79    0.34
  -6   1   6    0.34    0.51
  -6   1   6    0.79    0.31
   6   1  -6    0.70    0.27
   6   1  -6    0.65    0.42
   6   1  -6    0.59    0.39
   5  -1  -6   33.34    1.30
  -5  -1   6   32.66    1.11
  -5  -1   6   33.52    1.39
   5  -1  -6   34.27    1.26
  -5  -1   6   32.30    1.12
   5  -1  -6   31.09    1.06
  -5  -1   6   32.97    1.41
  -5   1   6   32.59    1.04
   5   1  -6   32.02    1.08
   5   1  -6   33.18    1.31
   5   1  -6   30.45    1.19
  -5   1   6   33.05    1.11
  -5   1   6   31.74    1.32
   5   1  -6   31.88    1.48
  -5   1   6   31.75    1.41
   5   1  -6   32.79    1.31
   4  -1  -6    2.46    0.36
   4  -1  -6    2.87    0.36
  -4  -1   6    3.46    0.47
  -4  -1   6    3.61    0.36
   4  -1  -6    3.74    0.48
  -4  -1   6    2.74    0.40
  -4  -1   6    3.65    0.51
  -4  -1   6    3.15    0.39
  -4  -1   6    3.63    0.50
   4  -1  -6    2.95    0.37
  -4   1   6    2.80    0.38
  -4   1   6    2.77    0.35
   4   1  -6    2.93    0.38
   4   1  -6    3.71    0.43
  -4   1   6    3.17    0.22
  -4   1   6    3.33    0.47
   4   1  -6    4.03    0.53
  -4   1   6    3.61    0.52
   4   1  -6    2.69    0.37
   4   1  -6    3.22    0.36
   3  -1  -6   15.40    0.67
  -3  -1   6   15.66    0.69
   3  -1  -6   17.10    0.77
  -3  -1   6   15.91    0.58
  -3  -1   6   15.22    0.72
   3  -1  -6   14.73    0.84
  -3  -1   6   16.30    0.81
  -3  -1   6   15.79    0.79
  -3  -1   6   15.03    0.77
   3  -1  -6   16.89    0.73
   3  -1  -6   15.59    0.73
  -3  -1   6   16.31    0.80
  -3  -1   6   14.51    0.68
  -3   1   6   15.73    0.69
   3   1  -6   15.52    0.72
  -3   1   6   15.08    0.78
  -3   1   6   15.67    0.77
  -3   1   6   14.55    0.83
   3   1  -6   13.51    0.68
   3   1  -6   15.91    0.69
  -3   1   6   14.94    0.65
  -3   1   6   14.55    0.66
   3   1  -6   16.46    0.76
  -3   1   6   16.09    0.73
   3   1  -6   15.68    0.83
   3   1  -6   16.01    0.60
   2  -1  -6    2.35    0.34
  -2  -1   6    1.62    0.35
  -2  -1   6    1.73    0.30
  -2  -1   6    1.92    0.28
   2  -1  -6    2.29    0.32
   2  -1  -6    1.85    0.27
  -2  -1   6    2.47    0.36
   2  -1  -6    1.51    0.29
   2  -1  -6    1.56    0.26
  -2  -1   6    2.24    0.28
  -2  -1   6    1.96    0.25
  -2   1   6    1.48    0.23
   2   1  -6    2.02    0.29
   2   1  -6    1.26    0.22
  -2   1   6    2.30    0.30
   2   1  -6    1.95    0.28
  -2   1   6    1.61    0.27
   2   1  -6    2.29    0.31
   2   1  -6    1.97    0.21
  -2   1   6    1.75    0.30
  -2   1   6    1.99    0.30
  -2   1   6    1.84    0.24
  -1  -1   6    6.87    0.42
   1  -1  -6    7.01    0.48
   1  -1  -6    7.56    0.47
  -1  -1   6    7.20    0.50
  -1  -1   6    7.63    0.52
   1  -1  -6    7.97    0.44
  -1  -1   6    7.97    0.46
  -1  -1   6    6.53    0.35
   1  -1  -6    7.18    0.49
   1  -1  -6    7.47    0.30
   1  -1  -6    7.34    0.40
  -1  -1   6    7.04    0.52
   1  -1  -6    6.71    0.52
   1  -1  -6    7.48    0.31
   1   1  -6    7.20    0.41
   1   1  -6    7.17    0.37
  -1   1   6    7.30    0.43
   1   1  -6    7.79    0.45
   1   1  -6    7.84    0.54
   1   1  -6    7.40    0.46
  -1   1   6    6.94    0.51
   1   1  -6    6.93    0.51
  -1   1   6    6.92    0.50
  -1   1   6    6.74    0.46
  -1   1   6    7.04    0.36
   1   1  -6    7.07    0.45
  -1   1   6    6.79    0.46
   0  -1  -6    4.84    0.35
   0  -1  -6    3.98    0.40
   0  -1  -6    5.73    0.35
   0  -1   6    4.56    0.43
   0  -1   6    4.57    0.40
   0  -1   6    4.03    0.31
   0  -1   6    4.86    0.45
   0  -1  -6    5.63    0.48
   0  -1   6    4.40    0.32
   0  -1  -6    4.35    0.41
   0  -1  -6    4.27    0.46
   0  -1   6    4.05    0.45
   0   1   6    4.59    0.44
   0   1  -6    4.29    0.36
   0   1   6    4.34    0.43
   0   1   6    5.26    0.32
   0   1  -6    4.17    0.47
   0   1  -6    3.89    0.37
   0   1  -6    5.33    0.45
   0   1   6    4.47    0.41
   0   1   6    5.39    0.39
   0   1  -6    4.77    0.31
   0   1   6    4.56    0.35
   0   1  -6    3.93    0.37
   0   1   6    4.39    0.42
   0   1  -6    4.19    0.41
   1  -1   6   50.91    1.62
   1  -1   6   49.75    1.60
  -1  -1  -6   50.75    1.57
  -1  -1  -6   48.86    1.64
  -1  -1  -6   51.77    1.61
   1  -1   6   51.60    1.41
  -1  -1  -6   50.29    1.60
   1  -1   6   49.42    1.61
   1  -1   6   48.67    1.55
   1  -1   6   51.28    1.63
  -1  -1  -6   49.99    1.55
  -1  -1  -6   51.91    1.63
   1   1   6   50.70    1.50
   1   1   6   53.65    1.64
   1   1   6   51.11    1.63
  -1   1  -6   51.43    1.60
   1   1   6   50.47    1.49
  -1   1  -6   52.86    1.59
   1   1   6   51.63    1.56
  -1   1  -6   50.52    1.60
   1   1   6   50.07    1.64
  -1   1  -6   49.54    1.60
  -1   1  -6   51.34    1.61
  -1   1  -6   51.38    1.61
   1   1   6   48.71    1.55
   1   1   6   50.21    1.56
   2  -1   6    2.90    0.37
  -2  -1  -6    4.09    0.49
  -2  -1  -6    3.95    0.49
   2  -1   6    3.23    0.43
   2  -1   6    3.75    0.45
  -2  -1  -6    3.34    0.40
  -2  -1  -6    4.04    0.52
   2  -1   6    2.95    0.36
  -2  -1  -6    2.74    0.36
  -2  -1  -6    3.34    0.46
   2  -1   6    3.57    0.45
  -2   1  -6    3.96    0.50
   2   1   6    3.25    0.45
   2   1   6    3.58    0.32
   2   1   6    2.79    0.34
  -2   1  -6    2.52    0.35
  -2   1  -6    3.65    0.45
   2   1   6    3.51    0.39
  -2   1  -6    3.13    0.35
  -2   1  -6    3.63    0.42
   2   1   6    3.68    0.46
   2   1   6    3.69    0.48
   2   1   6    3.42    0.38
   2   1   6    3.21    0.43
  -3  -1  -6   33.13    1.28
   3  -1   6   36.29    1.30
   3  -1   6   34.63    1.38
  -3  -1  -6   34.03    1.34
   3  -1   6   33.66    1.29
   3  -1   6   36.05    1.39
  -3  -1  -6   34.40    1.22
   3  -1   6   35.11    1.34
  -3  -1  -6   34.38    1.33
   3   1   6   36.11    1.25
   3   1   6   33.08    1.38
  -3   1  -6   35.80    1.33
  -3   1  -6   36.06    1.35
   3   1   6   34.34    1.13
  -3   1  -6   32.72    1.19
   3   1   6   35.91    1.32
   3   1   6   35.03    1.34
  -4  -1  -6   55.48    1.93
  -4  -1  -6   54.61    1.73
   4  -1   6   54.21    1.85
   4  -1   6   57.24    1.94
   4  -1   6   48.27    1.89
  -4  -1  -6   53.94    1.92
   4  -1   6   55.30    1.97
   4   1   6   50.30    1.81
   4   1   6   54.92    1.93
   4   1   6   55.54    1.62
  -4   1  -6   55.75    1.73
  -4   1  -6   54.81    1.93
   4   1   6   53.76    1.88
  -4   1  -6   55.51    1.89
   4   1   6   51.91    1.99
  -5  -1  -6    1.82    0.67
   5  -1   6    2.42    0.50
   5  -1   6    2.65    0.50
  -5  -1  -6    2.05    0.54
  -5  -1  -6    2.32    0.39
   5   1   6    2.01    0.33
  -5   1  -6    2.19    0.66
   5   1   6    1.99    0.50
  -5   1  -6    2.12    0.37
  -5   1  -6    1.93    0.55
   5   1   6    2.10    0.52
   6  -1   6   10.44    1.01
  -6  -1  -6    7.78    0.98
  -6  -1  -6    7.10    0.96
  -6  -1  -6   11.51    0.91
   6  -1   6    9.21    1.00
  -6   1  -6   10.07    1.00
   6   1   6   11.10    1.01
   6   1   6    9.42    1.07
  -7  -1  -6    0.43    0.76
  -7  -1  -6   -0.31    0.68
   7  -1   6   -1.31    0.69
   7   1   6    1.65    0.75
  -7   1  -6   -0.12    0.75
   7   1   6   -0.09    0.84
   8  -2  -6    0.60    0.57
   8  -2  -6    0.82    0.70
  -8  -2   6   -1.18    0.80
   8   2  -6   -1.03    0.63
  -8   2   6   -1.35    0.75
   8   2  -6   -1.93    0.71
  -7  -2   6    0.04    0.50
   7  -2  -6    0.96    0.46
   7  -2  -6    1.36    0.54
  -7  -2   6   -0.42    0.53
  -7   2   6    0.95    0.57
   7   2  -6   -0.71    0.48
   7   2  -6   -0.16    0.53
  -6  -2   6    2.35    0.55
   6  -2  -6    2.77    0.45
  -6  -2   6    2.22    0.42
   6  -2  -6    2.55    0.49
   6  -2  -6    2.08    0.27
   6  -2  -6    2.09    0.66
  -6  -2   6    2.41    0.77
   6   2  -6    2.63    0.50
  -6   2   6    2.42    0.44
  -6   2   6    2.45    0.55
   6   2  -6    1.98    0.53
   5  -2  -6    1.22    0.39
   5  -2  -6    0.91    0.32
   5  -2  -6    1.37    0.48
  -5  -2   6    1.56    0.57
  -5  -2   6    1.18    0.31
   5  -2  -6    0.68    0.24
  -5  -2   6    1.00    0.44
   5   2  -6    1.02    0.27
   5   2  -6    1.37    0.67
  -5   2   6    1.40    0.35
   5   2  -6    1.78    0.44
  -5   2   6    1.26    0.45
  -5   2   6    1.36    0.23
  -5   2   6    1.36    0.46
   5   2  -6    1.28    0.39
   5   2  -6    1.33    0.55
  -4  -2   6    1.17    0.37
   4  -2  -6    1.58    0.37
  -4  -2   6    1.23    0.45
   4  -2  -6    1.52    0.34
  -4  -2   6    1.12    0.32
  -4  -2   6    1.74    0.33
  -4  -2   6    1.57    0.27
  -4  -2   6    2.17    0.46
  -4  -2   6    0.99    0.46
   4  -2  -6    1.49    0.26
   4  -2  -6    1.28    0.30
  -4   2   6    1.45    0.34
   4   2  -6    1.74    0.36
   4   2  -6    1.59    0.29
  -4   2   6    1.47    0.36
   4   2  -6    1.33    0.44
   4   2  -6    1.65    0.40
  -4   2   6    1.56    0.36
  -4   2   6    1.73    0.44
   4   2  -6    1.40    0.33
  -3  -2   6   13.90    0.67
  -3  -2   6   13.29    0.66
   3  -2  -6   14.92    0.68
  -3  -2   6   14.07    0.73
  -3  -2   6   14.42    0.78
  -3  -2   6   14.80    0.81
   3  -2  -6   14.95    0.66
   3  -2  -6   14.72    0.73
  -3  -2   6   14.00    0.81
  -3  -2   6   14.24    0.68
   3   2  -6   14.02    0.83
  -3   2   6   15.69    0.70
  -3   2   6   13.82    0.74
   3   2  -6   14.84    0.66
  -3   2   6   15.22    0.66
  -3   2   6   14.79    0.78
   3   2  -6   14.71    0.67
   3   2  -6   14.65    0.75
  -3   2   6   14.61    0.67
   3   2  -6   14.50    0.71
  -3   2   6   13.16    0.68
  -2  -2   6   11.22    0.50
   2  -2  -6   10.79    0.61
  -2  -2   6   11.41    0.55
  -2  -2   6   11.16    0.53
   2  -2  -6   10.98    0.56
  -2  -2   6   10.49    0.56
   2  -2  -6    9.65    0.55
  -2  -2   6   10.50    0.65
   2  -2  -6   10.66    0.58
  -2  -2   6   10.55    0.63
   2  -2  -6   11.60    0.66
   2   2  -6   10.24    0.51
  -2   2   6   11.33    0.62
  -2   2   6   10.77    0.48
  -2   2   6   11.99    0.60
   2   2  -6   11.41    0.56
  -2   2   6    9.48    0.48
  -2   2   6   10.67    0.60
  -2   2   6   10.83    0.55
   2   2  -6   11.01    0.57
   2   2  -6   11.11    0.62
   2   2  -6   11.63    0.68
  -1  -2   6    4.22    0.48
   1  -2  -6    4.75    0.39
   1  -2  -6    4.72    0.42
  -1  -2   6    4.53    0.30
  -1  -2   6    3.89    0.45
   1  -2  -6    3.64    0.37
  -1  -2   6    3.94    0.37
   1  -2  -6    4.23    0.22
   1  -2  -6    4.24    0.40
   1  -2  -6    4.42    0.31
   1  -2  -6    4.04    0.45
  -1   2   6    4.06    0.38
   1   2  -6    4.30    0.47
   1   2  -6    4.00    0.33
  -1   2   6    4.38    0.37
   1   2  -6    4.07    0.37
  -1   2   6    4.39    0.44
   1   2  -6    4.65    0.35
   1   2  -6    4.37    0.40
  -1   2   6    4.50    0.36
  -1   2   6    4.10    0.42
  -1   2   6    4.40    0.31
   1   2  -6    4.25    0.46
   1   2  -6    4.45    0.40
   0  -2  -6   29.02    1.05
   0  -2   6   30.36    1.08
   0  -2  -6   31.41    1.10
   0  -2   6   31.24    1.13
   0  -2   6   30.90    1.11
   0  -2   6   30.36    1.03
   0  -2   6   31.57    1.05
   0  -2  -6   31.57    1.08
   0  -2  -6   31.58    1.10
   0  -2  -6   30.39    1.02
   0  -2  -6   30.97    0.98
   0   2  -6   29.61    1.04
   0   2   6   31.13    0.98
   0   2  -6   29.92    1.04
   0   2   6   32.32    1.10
   0   2  -6   30.90    1.11
   0   2   6   31.45    1.01
   0   2   6   30.13    1.03
   0   2  -6   30.25    1.05
   0   2   6   30.06    1.07
   0   2   6   30.55    1.03
   0   2  -6   30.93    1.07
   0   2  -6   31.73    0.95
   0   2   6   30.38    1.13
   0   2  -6   29.65    1.08
   0   2  -6   31.90    1.08
  -1  -2  -6   16.63    0.70
   1  -2   6   16.47    0.73
   1  -2   6   15.89    0.48
  -1  -2  -6   16.30    0.78
   1  -2   6   15.85    0.75
  -1  -2  -6   16.09    0.73
   1  -2   6   15.90    0.79
  -1  -2  -6   15.78    0.65
  -1  -2  -6   15.62    0.72
   1  -2   6   15.15    0.69
   1  -2   6   15.62    0.64
  -1  -2  -6   16.45    0.78
   1   2   6   16.46    0.63
   1   2   6   15.97    0.65
  -1   2  -6   15.43    0.73
  -1   2  -6   15.98    0.72
   1   2   6   15.86    0.67
   1   2   6   15.66    0.63
   1   2   6   17.10    0.72
  -1   2  -6   15.74    0.72
  -1   2  -6   15.74    0.71
  -1   2  -6   15.16    0.68
   1   2   6   15.69    0.79
  -1   2  -6   16.07    0.72
   1   2   6   15.69    0.76
   1   2   6   15.79    0.76
  -2  -2  -6    5.40    0.52
  -2  -2  -6    4.93    0.46
   2  -2   6    4.65    0.56
   2  -2   6    4.32    0.46
  -2  -2  -6    4.75    0.45
   2  -2   6    4.05    0.49
  -2  -2  -6    4.73    0.51
   2  -2   6    4.93    0.58
  -2  -2  -6    4.00    0.50
   2  -2   6    4.55    0.46
  -2   2  -6    5.08    0.46
   2   2   6    4.82    0.64
   2   2   6    4.32    0.47
  -2   2  -6    4.20    0.53
   2   2   6    4.24    0.38
  -2   2  -6    4.63    0.48
   2   2   6    5.78    0.55
   2   2   6    5.31    0.40
  -2   2  -6    3.92    0.49
  -2   2  -6    5.27    0.52
   2   2   6    4.87    0.47
   3  -2   6    3.69    0.51
  -3  -2  -6    3.72    0.63
   3  -2   6    3.04    0.52
   3  -2   6    3.88    0.48
   3  -2   6    3.97    0.49
  -3  -2  -6    2.86    0.43
  -3  -2  -6    3.59    0.51
  -3  -2  -6    4.25    0.59
  -3  -2  -6    3.24    0.38
   3  -2   6    3.80    0.50
   3   2   6    3.79    0.52
  -3   2  -6    3.34    0.47
   3   2   6    3.68    0.47
  -3   2  -6    3.95    0.46
   3   2   6    2.72    0.54
   3   2   6    3.23    0.38
  -3   2  -6    3.15    0.45
   3   2   6    2.92    0.44
  -4  -2  -6    9.52    0.94
  -4  -2  -6   11.13    0.84
   4  -2   6   10.84    0.74
   4  -2   6    9.83    0.97
  -4  -2  -6   10.73    0.65
  -4  -2  -6   10.76    0.80
   4  -2   6   11.75    0.79
   4  -2   6    8.15    0.82
   4   2   6   11.95    0.77
  -4   2  -6   10.72    0.88
   4   2   6   11.09    0.84
  -4   2  -6   10.67    0.63
   4   2   6    9.16    0.90
  -4   2  -6    9.85    0.78
   4   2   6   11.03    1.10
   4   2   6   10.97    0.61
  -5  -2  -6    5.74    0.71
  -5  -2  -6    5.36    0.69
   5  -2   6    5.50    0.69
  -5  -2  -6    4.72    0.60
   5  -2   6    5.80    0.70
  -5  -2  -6    5.66    0.63
  -5   2  -6    5.40    0.69
  -5   2  -6    4.73    0.57
   5   2   6    5.31    0.58
   5   2   6    5.79    0.72
   5   2   6    5.73    0.77
  -6  -2  -6    7.27    0.86
   6  -2   6   11.59    1.03
  -6  -2  -6    8.42    0.98
   6  -2   6    6.77    0.91
  -6  -2  -6    9.17    0.96
  -6   2  -6    9.09    0.98
   6   2   6   10.37    1.16
   6   2   6    8.96    0.79
   6   2   6   11.93    1.04
   7  -2   6    2.07    0.73
   7  -2   6    2.06    0.73
  -7  -2  -6    0.55    0.65
  -7  -2  -6    2.04    0.86
   7   2   6    2.24    0.79
   7   2   6    1.57    0.93
  -7   2  -6    1.76    0.89
  -7   2  -6    0.61    0.76
  -8  -3   6    1.32    0.79
   8  -3  -6   -0.54    0.75
   8  -3  -6   -0.39    0.56
   8   3  -6   -0.58    0.88
  -8   3   6   -0.74    0.77
   8   3  -6   -0.63    0.73
  -7  -3   6    0.14    0.62
  -7  -3   6    0.48    0.54
   7  -3  -6   -0.51    0.54
   7  -3  -6   -0.18    0.39
   7   3  -6    0.13    0.50
  -7   3   6    0.16    0.63
   7   3  -6   -1.37    1.00
  -6  -3   6    5.97    0.70
   6  -3  -6    5.04    0.69
   6  -3  -6    4.77    0.71
  -6  -3   6    6.06    1.10
   6   3  -6    4.18    0.63
   6   3  -6    4.46    0.98
  -6   3   6    4.38    0.78
   6   3  -6    5.04    0.51
   5  -3  -6    2.77    0.48
  -5  -3   6    2.26    0.50
  -5  -3   6    3.43    0.43
   5  -3  -6    2.40    0.45
   5  -3  -6    3.29    0.34
   5  -3  -6    2.67    0.37
  -5   3   6    3.08    0.51
  -5   3   6    3.30    0.45
  -5   3   6    3.17    0.49
   5   3  -6    2.69    0.47
   5   3  -6    3.00    0.82
  -5   3   6    3.10    0.33
  -5   3   6    2.90    0.33
   5   3  -6    2.92    0.36
   5   3  -6    3.03    0.43
   5   3  -6    2.21    0.69
  -5   3   6    4.22    0.63
  -4  -3   6    2.53    0.46
  -4  -3   6    2.51    0.55
   4  -3  -6    2.37    0.32
  -4  -3   6    2.49    0.33
   4  -3  -6    2.32    0.43
  -4  -3   6    2.78    0.41
  -4  -3   6    2.28    0.34
   4  -3  -6    2.04    0.39
   4  -3  -6    2.52    0.33
  -4  -3   6    2.31    0.44
   4   3  -6    3.06    0.50
   4   3  -6    2.27    0.56
   4   3  -6    2.32    0.41
  -4   3   6    2.53    0.40
  -4   3   6    2.20    0.43
   4   3  -6    2.11    0.39
   4   3  -6    2.61    0.34
  -4   3   6    2.39    0.38
  -4   3   6    2.33    0.42
  -3  -3   6    9.02    0.60
   3  -3  -6    9.58    0.63
  -3  -3   6    8.95    0.59
   3  -3  -6   10.47    0.56
   3  -3  -6   10.43    0.56
  -3  -3   6    9.95    0.52
  -3  -3   6    9.11    0.77
  -3  -3   6    9.74    0.73
  -3  -3   6   11.18    0.76
  -3  -3   6    9.67    0.53
   3  -3  -6   10.25    0.63
  -3  -3   6   10.03    0.70
   3   3  -6   10.83    0.78
  -3   3   6   10.04    0.64
   3   3  -6   10.14    0.66
  -3   3   6   10.04    0.67
   3   3  -6    9.55    0.57
  -3   3   6   10.25    0.59
   3   3  -6    9.98    0.68
   3   3  -6    9.27    0.60
  -3   3   6   10.09    0.64
   2  -3  -6    1.04    0.24
  -2  -3   6    1.21    0.35
  -2  -3   6    1.22    0.32
  -2  -3   6    0.94    0.25
  -2  -3   6    1.60    0.37
   2  -3  -6    1.65    0.35
   2  -3  -6    1.16    0.29
   2  -3  -6    1.45    0.32
  -2  -3   6    1.24    0.25
  -2  -3   6    1.31    0.25
   2  -3  -6    1.01    0.24
  -2  -3   6    1.14    0.28
  -2   3   6    2.03    0.22
   2   3  -6    1.45    0.34
   2   3  -6    1.19    0.29
  -2   3   6    1.38    0.27
  -2   3   6    1.26    0.28
   2   3  -6    1.20    0.25
   2   3  -6    1.51    0.29
  -2   3   6    0.89    0.27
  -2   3   6    1.17    0.21
   2   3  -6    1.27    0.35
   2   3  -6    1.12    0.25
  -2   3   6    1.26    0.25
  -1  -3   6    8.68    0.49
   1  -3  -6    8.58    0.49
  -1  -3   6    8.61    0.46
   1  -3  -6    9.26    0.62
  -1  -3   6    7.14    0.39
  -1  -3   6    8.61    0.58
   1  -3  -6    8.40    0.34
  -1  -3   6    8.81    0.55
   1  -3  -6    8.41    0.54
   1  -3  -6    8.37    0.50
   1  -3  -6    8.49    0.55
  -1  -3   6    8.42    0.60
   1  -3  -6    8.42    0.52
   1   3  -6    8.18    0.56
  -1   3   6    8.99    0.58
   1   3  -6    8.90    0.54
  -1   3   6    8.96    0.35
   1   3  -6    7.82    0.57
  -1   3   6    8.29    0.49
   1   3  -6    8.11    0.46
   1   3  -6    8.50    0.45
  -1   3   6    8.67    0.43
  -1   3   6    8.44    0.42
  -1   3   6    8.42    0.54
   1   3  -6    8.83    0.54
   1   3  -6    8.46    0.63
   0  -3  -6    0.22    0.31
   0  -3  -6    0.31    0.19
   0  -3   6    0.12    0.25
   0  -3   6    0.36    0.16
   0  -3  -6    0.39    0.30
   0  -3   6    0.24    0.24
   0  -3   6    0.30    0.28
   0  -3  -6    0.41    0.22
   0  -3  -6    0.36    0.22
   0  -3  -6    0.24    0.19
   0   3  -6    0.34    0.24
   0   3   6    0.24    0.19
   0   3   6    0.32    0.19
   0   3  -6    0.01    0.21
   0   3   6    0.38    0.24
   0   3   6    0.20    0.23
   0   3   6    0.21    0.18
   0   3   6    0.22    0.24
   0   3  -6    0.28    0.26
   0   3   6    0.13    0.24
   0   3  -6    0.37    0.27
   0   3  -6    0.36    0.27
   0   3  -6    0.46    0.16
   0   3  -6    0.99    0.21
  -1  -3  -6    5.44    0.59
  -1  -3  -6    4.64    0.41
   1  -3   6    4.87    0.54
  -1  -3  -6    4.14    0.43
  -1  -3  -6    4.77    0.45
   1  -3   6    4.25    0.50
  -1  -3  -6    4.49    0.44
   1  -3   6    5.08    0.40
   1  -3   6    4.51    0.45
   1   3   6    6.01    0.44
   1   3   6    4.77    0.53
   1   3   6    4.64    0.34
  -1   3  -6    4.94    0.48
   1   3   6    4.22    0.47
  -1   3  -6    4.86    0.38
  -1   3  -6    4.75    0.45
   1   3   6    4.75    0.48
  -1   3  -6    4.87    0.45
   1   3   6    4.58    0.39
  -1   3  -6    5.26    0.44
   1   3   6    4.99    0.54
  -1   3  -6    4.19    0.46
   1   3   6    5.05    0.51
  -1   3  -6    4.82    0.48
  -2  -3  -6    2.22    0.30
  -2  -3  -6    1.95    0.35
   2  -3   6    2.27    0.36
  -2  -3  -6    2.47    0.35
   2  -3   6    1.80    0.36
   2  -3   6    2.08    0.35
   2  -3   6    2.31    0.33
  -2  -3  -6    2.35    0.49
   2  -3   6    2.18    0.41
  -2  -3  -6    2.37    0.36
   2   3   6    2.22    0.38
   2   3   6    2.33    0.30
  -2   3  -6    2.72    0.40
  -2   3  -6    2.28    0.32
   2   3   6    2.16    0.39
  -2   3  -6    2.28    0.42
   2   3   6    2.32    0.47
  -2   3  -6    2.10    0.35
   2   3   6    2.48    0.38
   2   3   6    2.31    0.41
  -3  -3  -6   25.48    1.10
   3  -3   6   25.39    1.10
   3  -3   6   24.67    1.11
  -3  -3  -6   26.61    1.01
   3  -3   6   27.34    1.14
  -3  -3  -6   24.86    1.33
  -3  -3  -6   25.73    1.12
  -3  -3  -6   23.11    0.97
   3  -3   6   26.27    1.04
   3  -3   6   22.57    1.06
   3   3   6   24.68    1.10
  -3   3  -6   25.81    1.08
   3   3   6   23.45    1.21
  -3   3  -6   25.19    1.00
   3   3   6   26.23    0.96
  -3   3  -6   24.11    1.09
   3   3   6   24.06    1.10
  -4  -3  -6    2.00    0.56
   4  -3   6    3.24    0.45
  -4  -3  -6    3.64    0.57
  -4  -3  -6    2.81    0.41
  -4  -3  -6    2.97    0.47
  -4  -3  -6    2.12    0.37
   4  -3   6    2.76    0.48
   4  -3   6    3.61    0.51
  -4   3  -6    2.15    0.53
  -4   3  -6    2.71    0.48
   4   3   6    2.80    0.39
   4   3   6    2.75    0.48
   4   3   6    3.57    0.55
  -4   3  -6    3.03    0.41
  -5  -3  -6    8.52    0.77
  -5  -3  -6    8.79    0.88
   5  -3   6   10.09    0.86
  -5  -3  -6    9.07    0.71
   5  -3   6    8.47    0.75
  -5   3  -6    8.73    0.66
   5   3   6    6.89    0.70
   5   3   6    9.41    0.98
   5   3   6    9.50    1.32
   6  -3   6   -0.88    0.54
   6  -3   6    0.36    0.42
  -6  -3  -6    0.70    0.59
  -6  -3  -6   -0.48    0.52
  -6  -3  -6    0.38    0.50
   6   3   6    0.27    0.66
  -6   3  -6   -1.15    0.56
   6   3   6    1.11    0.47
   6   3   6    0.29    0.53
   7  -3   6    1.24    0.82
  -7  -3  -6   -1.10    0.72
   7  -3   6    0.39    0.61
  -7   3  -6   -2.11    0.77
   7   3   6    0.08    0.75
   7   3   6    1.12    0.95
  -7   3  -6   -0.08    0.77
  -8  -4   6    5.90    1.06
   8  -4  -6    5.65    0.99
   8   4  -6    5.05    0.90
  -8   4   6    3.77    0.96
   8   4  -6    4.48    1.12
  -7  -4   6    4.79    0.79
   7  -4  -6    2.10    0.48
  -7  -4   6    3.46    0.69
   7  -4  -6    4.41    0.72
  -7   4   6    1.84    0.80
   7   4  -6    2.96    0.64
  -6  -4   6    0.67    0.59
   6  -4  -6    0.18    0.48
  -6  -4   6    0.10    0.56
   6  -4  -6    0.29    0.32
  -6  -4   6   -0.21    0.44
   6  -4  -6    0.31    0.51
   6   4  -6    0.66    0.33
  -6   4   6    0.62    0.59
   6   4  -6   -0.30    0.49
   6   4  -6    0.32    0.37
   5  -4  -6    2.97    0.34
  -5  -4   6    2.87    0.42
  -5  -4   6    2.66    0.54
   5  -4  -6    2.46    0.35
  -5  -4   6    2.36    0.43
   5  -4  -6    2.62    0.48
   5  -4  -6    2.86    0.47
  -5  -4   6    2.72    0.67
  -5  -4   6    3.27    0.58
  -5   4   6    2.63    0.25
   5   4  -6    2.72    0.45
   5   4  -6    4.17    1.27
  -5   4   6    2.85    0.51
   5   4  -6    2.69    0.38
  -5   4   6    3.10    0.54
   5   4  -6    2.11    0.50
  -5   4   6    3.11    0.52
  -5   4   6    2.28    0.48
  -4  -4   6    0.49    0.29
  -4  -4   6    0.40    0.37
  -4  -4   6    0.26    0.37
   4  -4  -6    0.30    0.24
   4  -4  -6    0.65    0.26
   4  -4  -6    0.59    0.34
  -4  -4   6    0.45    0.38
  -4  -4   6    0.01    0.25
   4  -4  -6    0.42    0.33
   4   4  -6    0.72    0.37
   4   4  -6    0.48    0.59
  -4   4   6    0.32    0.34
   4   4  -6    0.31    0.30
   4   4  -6    0.31    0.54
   4   4  -6    0.53    0.29
  -4   4   6    0.37    0.37
  -4   4   6    0.35    0.40
  -4   4   6    0.90    0.33
  -3  -4   6    3.57    0.44
   3  -4  -6    3.02    0.34
  -3  -4   6    3.32    0.54
   3  -4  -6    2.67    0.40
  -3  -4   6    3.20    0.43
   3  -4  -6    3.05    0.37
  -3  -4   6    3.15    0.44
  -3  -4   6    2.75    0.44
  -3  -4   6    3.39    0.46
   3  -4  -6    3.12    0.38
   3   4  -6    2.77    0.51
   3   4  -6    3.80    0.49
  -3   4   6    4.02    0.48
  -3   4   6    3.40    0.43
  -3   4   6    3.43    0.47
   3   4  -6    3.57    0.42
   3   4  -6    3.47    0.44
   3   4  -6    2.74    0.44
   2  -4  -6    4.77    0.50
   2  -4  -6    4.44    0.40
  -2  -4   6    3.44    0.40
   2  -4  -6    4.85    0.51
  -2  -4   6    4.47    0.44
   2  -4  -6    4.55    0.47
  -2  -4   6    5.39    0.62
   2  -4  -6    4.42    0.44
  -2  -4   6    4.81    0.43
  -2  -4   6    4.47    0.49
  -2  -4   6    4.33    0.45
  -2  -4   6    4.32    0.53
  -2  -4   6    4.29    0.35
  -2   4   6    5.02    0.46
  -2   4   6    4.33    0.53
   2   4  -6    5.35    0.62
  -2   4   6    4.86    0.45
   2   4  -6    4.24    0.43
   2   4  -6    4.64    0.49
  -2   4   6    4.68    0.49
   2   4  -6    4.48    0.48
   2   4  -6    3.33    0.41
   1  -4  -6    9.84    0.58
  -1  -4   6    8.70    0.57
  -1  -4   6    9.11    0.54
   1  -4  -6    6.98    0.54
  -1  -4   6    9.59    0.44
  -1  -4   6    8.85    0.46
   1  -4  -6    9.51    0.52
   1  -4  -6    9.15    0.52
   1  -4  -6    9.34    0.40
  -1  -4   6    9.16    0.63
  -1  -4   6    9.41    0.62
   1  -4  -6    9.33    0.50
  -1   4   6    8.78    0.50
   1   4  -6    9.40    0.66
   1   4  -6    9.83    0.49
  -1   4   6    8.61    0.42
   1   4  -6    8.26    0.61
   1   4  -6    8.91    0.62
   1   4  -6    9.24    0.58
   1   4  -6    7.36    0.50
  -1   4   6    8.92    0.49
  -1   4   6    9.47    0.43
  -1   4   6   10.10    0.48
  -1   4   6    9.31    0.62
  -1   4   6    9.35    0.56
   0  -4  -6    5.91    0.54
   0  -4   6    5.87    0.38
   0  -4   6    6.07    0.49
   0  -4  -6    5.25    0.48
   0  -4  -6    6.31    0.42
   0  -4   6    5.82    0.40
   0  -4  -6    5.95    0.36
   0  -4   6    5.92    0.57
   0  -4  -6    5.47    0.45
   0  -4   6    5.36    0.49
   0  -4   6    5.95    0.38
   0   4  -6    6.90    0.43
   0   4   6    6.32    0.35
   0   4   6    5.46    0.52
   0   4   6    5.85    0.46
   0   4  -6    6.17    0.54
   0   4  -6    6.02    0.36
   0   4  -6    5.58    0.43
   0   4   6    5.45    0.57
   0   4  -6    5.71    0.50
   0   4   6    5.51    0.49
   0   4   6    5.40    0.35
   0   4   6    5.99    0.49
   0   4  -6    6.16    0.56
  -1  -4  -6   16.06    0.76
   1  -4   6   16.04    0.84
   1  -4   6   17.30    0.71
  -1  -4  -6   17.93    0.80
   1  -4   6   16.00    0.70
  -1  -4  -6   16.87    0.75
  -1  -4  -6   16.62    0.56
  -1  -4  -6   16.51    0.89
   1  -4   6   17.10    0.83
   1  -4   6   16.39    0.74
  -1   4  -6   15.82    0.69
   1   4   6   18.68    1.20
  -1   4  -6   15.92    0.80
   1   4   6   17.98    0.77
   1   4   6   16.52    0.55
   1   4   6   17.29    0.83
  -1   4  -6   16.71    0.76
  -1   4  -6   16.73    0.77
   1   4   6   16.75    0.80
   1   4   6   16.94    0.83
  -1   4  -6   15.35    0.78
  -1   4  -6   17.19    0.49
  -1   4  -6   16.76    0.77
   1   4   6   18.86    0.93
   1   4   6   16.07    0.73
  -2  -4  -6    4.34    0.53
   2  -4   6    4.02    0.54
   2  -4   6    3.95    0.43
   2  -4   6    3.99    0.47
  -2  -4  -6    3.57    0.35
  -2  -4  -6    4.15    0.51
  -2  -4  -6    3.21    0.52
  -2  -4  -6    4.55    0.54
   2   4   6    3.61    0.47
   2   4   6    3.09    0.48
  -2   4  -6    4.16    0.48
  -2   4  -6    4.24    0.50
  -2   4  -6    3.48    0.41
   2   4   6    3.74    0.44
  -2   4  -6    4.87    0.64
   2   4   6    3.17    0.50
   2   4   6    3.85    0.49
   3  -4   6   12.73    0.87
  -3  -4  -6   13.21    1.18
  -3  -4  -6   15.49    0.77
  -3  -4  -6   14.55    0.64
  -3  -4  -6   13.73    0.67
   3  -4   6   14.77    0.75
   3  -4   6   14.60    0.87
   3  -4   6   14.37    0.81
  -3  -4  -6   13.76    0.87
  -3  -4  -6   15.27    0.89
  -3   4  -6   14.85    0.75
   3   4   6   12.85    0.85
   3   4   6   14.41    0.81
  -3   4  -6   14.65    0.85
   3   4   6   13.54    0.72
   3   4   6   12.07    1.04
  -3   4  -6   13.69    0.84
   4  -4   6    1.11    0.41
  -4  -4  -6    0.27    0.44
  -4  -4  -6    0.88    0.32
   4  -4   6    1.45    0.52
   4  -4   6    0.42    0.38
   4  -4   6    0.60    0.31
  -4  -4  -6    0.81    0.45
  -4  -4  -6    1.29    0.49
  -4  -4  -6    0.89    0.31
  -4   4  -6    0.73    0.33
  -4   4  -6    0.66    0.40
  -4   4  -6    1.95    0.73
   4   4   6    0.69    0.35
   4   4   6    0.67    0.40
   4   4   6    0.39    0.45
   5  -4   6    4.57    0.78
  -5  -4  -6    4.00    0.65
  -5  -4  -6    5.10    0.77
  -5  -4  -6    3.86    0.50
  -5  -4  -6    3.59    0.53
   5  -4   6    3.36    0.47
  -5   4  -6    4.05    0.66
   5   4   6    4.66    0.53
  -5   4  -6    3.70    0.45
   5   4   6    3.68    0.73
   5   4   6    3.63    0.66
  -6  -4  -6   10.22    1.06
   6  -4   6    9.22    0.89
   6  -4   6   12.45    1.14
  -6  -4  -6   10.02    1.04
  -6  -4  -6   10.92    1.05
   6   4   6   13.12    1.50
   6   4   6    9.93    0.98
  -6   4  -6   11.22    1.10
   6   4   6   11.32    1.13
   7  -4   6   -1.71    0.87
  -7  -4  -6    1.11    0.77
   7  -4   6   -0.34    0.61
  -7   4  -6   -0.74    0.86
   7   4   6    0.27    1.09
   7   4   6   -0.57    0.82
  -7   4  -6    0.46    0.82
  -7  -5   6    2.09    0.81
   7  -5  -6    0.81    0.68
  -7  -5   6    0.39    0.73
   7  -5  -6    0.62    0.40
  -7   5   6    1.19    0.60
  -7   5   6    0.36    0.72
   7   5  -6    0.85    0.90
   7   5  -6    0.65    0.53
  -6  -5   6    1.07    0.64
  -6  -5   6    1.43    0.54
   6  -5  -6    0.94    0.50
   6  -5  -6    0.40    0.45
   6  -5  -6    0.48    0.32
  -6  -5   6    1.19    0.45
  -6  -5   6    1.01    0.60
  -6   5   6    1.29    0.52
   6   5  -6    1.89    0.48
  -6   5   6    0.23    0.62
   6   5  -6    0.41    0.37
   6   5  -6   -0.11    0.59
  -5  -5   6    1.00    0.54
   5  -5  -6    1.98    0.39
   5  -5  -6    1.39    0.34
   5  -5  -6    1.81    0.49
  -5  -5   6    1.79    0.46
  -5  -5   6    1.30    0.35
   5  -5  -6    1.78    0.31
  -5  -5   6    1.73    0.54
  -5   5   6    2.20    0.44
   5   5  -6    1.17    0.38
   5   5  -6    1.70    0.45
   5   5  -6    1.57    0.49
  -5   5   6    1.32    0.34
  -5   5   6    1.67    0.26
  -5   5   6    1.34    0.52
   4  -5  -6    6.20    0.63
   4  -5  -6    5.95    0.47
  -4  -5   6    5.38    0.63
   4  -5  -6    6.52    0.65
  -4  -5   6    6.73    0.61
  -4  -5   6    6.77    0.48
  -4  -5   6    6.74    0.71
  -4  -5   6    6.08    0.85
  -4  -5   6    6.15    0.73
   4  -5  -6    5.95    0.57
   4   5  -6    7.30    0.63
  -4   5   6    6.38    0.69
  -4   5   6    7.07    0.69
  -4   5   6    5.81    0.64
   4   5  -6    6.20    0.59
  -4   5   6    6.52    0.82
   4   5  -6    6.78    0.75
   3  -5  -6    4.10    0.53
  -3  -5   6    4.78    0.61
   3  -5  -6    5.80    0.56
   3  -5  -6    4.53    0.41
  -3  -5   6    4.95    0.62
  -3  -5   6    5.44    0.53
  -3  -5   6    4.97    0.40
  -3  -5   6    4.38    0.61
   3  -5  -6    5.15    0.50
   3   5  -6    5.07    0.65
   3   5  -6    4.97    0.67
   3   5  -6    5.62    0.53
   3   5  -6    5.12    0.52
  -3   5   6    4.83    0.57
   3   5  -6    5.60    0.62
  -3   5   6    5.19    0.54
  -3   5   6    5.02    0.48
  -2  -5   6   -0.09    0.40
  -2  -5   6   -0.02    0.25
  -2  -5   6   -0.29    0.36
   2  -5  -6    0.17    0.18
   2  -5  -6    0.29    0.28
  -2  -5   6   -0.04    0.27
  -2  -5   6   -0.08    0.31
  -2  -5   6    0.16    0.16
   2  -5  -6    0.06    0.26
  -2  -5   6    0.28    0.15
   2   5  -6    0.03    0.37
  -2   5   6    0.15    0.24
   2   5  -6    0.29    0.40
  -2   5   6   -0.15    0.24
   2   5  -6    0.32    0.24
  -2   5   6    0.22    0.18
   2   5  -6    0.09    0.23
  -2   5   6    0.01    0.28
   2   5  -6    0.48    0.37
  -1  -5   6   27.31    1.06
  -1  -5   6   27.26    0.85
   1  -5  -6   27.98    1.00
   1  -5  -6   29.66    1.10
  -1  -5   6   26.95    1.01
  -1  -5   6   29.08    1.09
   1  -5  -6   27.38    1.03
  -1  -5   6   28.30    1.13
   1  -5  -6   27.53    0.91
  -1   5   6   28.27    0.93
  -1   5   6   27.37    0.93
   1   5  -6   26.43    1.12
   1   5  -6   28.42    1.08
  -1   5   6   29.42    1.01
   1   5  -6   25.04    1.07
   1   5  -6   28.86    0.98
   1   5  -6   27.19    1.11
  -1   5   6   27.91    1.14
   0  -5   6    6.37    0.51
   0  -5  -6    7.19    0.45
   0  -5  -6    6.80    0.51
   0  -5   6    7.06    0.61
   0  -5   6    6.89    0.41
   0  -5   6    7.34    0.61
   0  -5   6    7.24    0.46
   0  -5  -6    6.09    0.54
   0   5   6    7.22    0.60
   0   5  -6    6.83    0.42
   0   5   6    6.92    0.52
   0   5  -6    7.04    0.61
   0   5  -6    7.62    0.62
   0   5   6    7.85    0.58
   0   5   6    6.91    0.30
   0   5   6    7.03    0.57
   0   5  -6    7.65    0.56
   0   5  -6    7.06    0.45
  -1  -5  -6   12.64    0.71
  -1  -5  -6   12.40    0.70
   1  -5   6   11.50    0.58
  -1  -5  -6   11.86    0.82
   1  -5   6   12.49    0.78
  -1  -5  -6   12.26    0.68
   1  -5   6   12.85    0.64
   1   5   6   11.06    0.78
  -1   5  -6   12.21    0.70
   1   5   6   11.61    0.66
   1   5   6   12.73    0.77
  -1   5  -6   12.84    0.69
  -1   5  -6   13.00    0.71
  -1   5  -6   12.41    0.43
   1   5   6   12.87    0.75
   2  -5   6    2.67    0.37
  -2  -5  -6    2.91    0.40
   2  -5   6    2.73    0.35
  -2  -5  -6    2.67    0.41
  -2  -5  -6    2.33    0.56
   2  -5   6    3.15    0.46
   2  -5   6    2.78    0.48
  -2  -5  -6    2.50    0.37
  -2   5  -6    2.62    0.36
  -2   5  -6    3.24    0.51
  -2   5  -6    2.28    0.39
   2   5   6    2.81    0.44
   2   5   6    2.78    0.45
  -2   5  -6    2.82    0.41
   2   5   6    2.48    0.38
  -3  -5  -6   20.45    0.95
  -3  -5  -6   19.88    1.03
  -3  -5  -6   19.68    0.67
   3  -5   6   20.52    0.97
  -3  -5  -6   19.19    1.02
  -3  -5  -6   19.30    1.33
   3  -5   6   21.32    1.08
   3  -5   6   19.59    1.05
  -3  -5  -6   19.82    0.68
   3  -5   6   20.09    0.89
  -3   5  -6   18.84    1.01
   3   5   6   20.30    1.01
   3   5   6   20.75    1.15
   3   5   6   20.25    0.91
  -3   5  -6   19.60    0.92
  -3   5  -6   18.76    0.99
   4  -5   6    2.62    0.42
   4  -5   6    3.65    0.55
  -4  -5  -6    3.68    0.62
   4  -5   6    3.46    0.63
   4  -5   6    4.11    0.62
  -4  -5  -6    3.19    0.47
  -4  -5  -6    3.01    0.53
   4   5   6    3.07    0.59
   4   5   6    3.33    0.47
  -4   5  -6    2.98    0.50
   4   5   6    3.95    0.61
  -4   5  -6    2.96    0.44
  -5  -5  -6    0.80    0.43
  -5  -5  -6    0.59    0.67
  -5  -5  -6    0.40    0.52
  -5  -5  -6    1.13    0.45
   5  -5   6    0.42    0.36
   5   5   6    1.01    0.74
   5   5   6    0.43    0.45
  -5   5  -6    1.46    0.43
   5   5   6    1.23    0.55
  -5   5  -6    0.93    0.50
   6  -5   6    0.46    0.69
  -6  -5  -6    1.02    0.64
   6  -5   6    1.71    0.46
   6   5   6    1.68    0.83
  -6   5  -6    1.37    0.69
   6   5   6    1.15    0.71
   7  -6  -6    3.15    0.80
   7  -6  -6    3.50    0.49
  -7  -6   6    6.62    1.00
  -7  -6   6    3.49    0.91
   7   6  -6    3.21    0.63
   7   6  -6    3.70    1.19
  -7   6   6    2.94    0.93
  -7   6   6    5.27    0.81
   6  -6  -6    0.73    0.44
  -6  -6   6    0.90    0.59
   6  -6  -6   -0.04    0.29
   6  -6  -6   -0.65    0.50
  -6  -6   6   -0.05    0.51
  -6  -6   6    0.43    0.73
  -6  -6   6    0.48    0.59
   6   6  -6    0.47    0.46
   6   6  -6    0.22    0.44
   6   6  -6   -0.37    0.65
  -6   6   6   -0.11    0.66
  -6   6   6    0.73    0.48
   5  -6  -6    1.33    0.35
   5  -6  -6    0.79    0.37
  -5  -6   6    1.22    0.47
  -5  -6   6    0.72    0.50
   5  -6  -6    1.93    0.53
  -5  -6   6    0.83    0.54
  -5  -6   6    1.37    0.35
   5   6  -6    1.37    0.40
  -5   6   6    1.62    0.56
   5   6  -6    1.18    0.68
  -5   6   6    2.03    0.82
   5   6  -6    0.90    0.54
  -5   6   6    1.85    0.33
  -4  -6   6    2.24    0.83
   4  -6  -6    2.72    0.31
   4  -6  -6    3.19    0.37
  -4  -6   6    2.86    0.54
   4  -6  -6    2.99    0.42
  -4  -6   6    2.84    0.32
  -4  -6   6    3.16    0.46
  -4  -6   6    2.55    0.52
   4  -6  -6    3.52    0.48
   4   6  -6    2.85    0.45
   4   6  -6    3.28    0.53
  -4   6   6    3.65    0.42
  -4   6   6    3.03    0.29
  -4   6   6    2.68    0.53
   4   6  -6    3.74    0.45
  -4   6   6    3.23    0.52
   3  -6  -6    8.68    0.48
  -3  -6   6    9.26    0.66
   3  -6  -6    8.90    0.56
   3  -6  -6    8.50    0.63
  -3  -6   6    7.98    0.80
  -3  -6   6    7.49    0.72
  -3  -6   6    8.33    0.74
  -3   6   6    8.30    0.46
  -3   6   6    8.76    0.66
   3   6  -6    8.65    0.63
   3   6  -6    8.34    0.67
  -3   6   6    7.99    0.43
  -3   6   6    9.91    0.71
   3   6  -6    8.29    0.89
  -3   6   6    8.34    0.48
   2  -6  -6    3.27    0.37
  -2  -6   6    2.73    0.44
  -2  -6   6    3.24    0.45
   2  -6  -6    2.79    0.42
  -2  -6   6    3.28    0.57
  -2  -6   6    3.32    0.43
   2  -6  -6    3.03    0.36
   2   6  -6    2.72    0.38
  -2   6   6    3.07    0.39
  -2   6   6    2.95    0.33
  -2   6   6    2.37    0.43
   2   6  -6    2.53    0.49
  -2   6   6    3.36    0.37
   2   6  -6    2.00    0.35
  -1  -6   6    1.68    0.42
  -1  -6   6    2.08    0.46
  -1  -6   6    2.15    0.38
   1  -6  -6    1.72    0.27
  -1  -6   6    2.21    0.40
   1  -6  -6    1.76    0.33
   1  -6  -6    1.69    0.30
   1  -6  -6    1.86    0.35
  -1  -6   6    2.03    0.37
   1   6  -6    1.71    0.34
  -1   6   6    2.10    0.38
   1   6  -6    1.81    0.46
  -1   6   6    1.97    0.34
  -1   6   6    1.99    0.36
  -1   6   6    1.82    0.41
   1   6  -6    1.93    0.30
  -1   6   6    1.82    0.26
   0  -6  -6    2.21    0.37
   0  -6  -6    1.89    0.31
   0  -6  -6    1.54    0.27
   0  -6   6    2.01    0.40
   0  -6  -6    1.65    0.40
   0  -6   6    1.53    0.31
   0  -6   6    1.44    0.22
   0  -6   6    1.74    0.30
   0   6   6    1.52    0.36
   0   6   6    0.91    0.40
   0   6   6    1.58    0.38
   0   6  -6    1.90    0.25
   0   6  -6    2.23    0.39
   0   6  -6    1.01    0.32
   0   6   6    1.51    0.31
   0   6  -6    1.43    0.26
   1  -6   6   33.87    1.11
   1  -6   6   32.77    1.34
  -1  -6  -6   34.64    1.29
  -1  -6  -6   32.60    1.34
   1  -6   6   31.83    1.18
  -1  -6  -6   33.93    1.24
   1  -6   6   30.91    1.24
  -1  -6  -6   32.52    1.21
   1   6   6   33.57    1.25
   1   6   6   32.67    1.35
  -1   6  -6   33.92    0.99
  -1   6  -6   32.02    1.17
   1   6   6   33.34    1.31
  -1   6  -6   32.93    1.25
  -1   6  -6   32.58    1.22
   1   6   6   33.10    1.27
  -2  -6  -6    3.31    0.48
   2  -6   6    2.78    0.47
  -2  -6  -6    3.78    0.68
  -2  -6  -6    3.15    0.43
   2  -6   6    3.77    0.47
  -2  -6  -6    2.82    0.45
   2  -6   6    2.92    0.48
   2  -6   6    2.83    0.36
   2   6   6    3.98    0.56
  -2   6  -6    2.76    0.39
   2   6   6    3.35    0.44
  -2   6  -6    2.48    0.42
   2   6   6    2.12    0.42
  -2   6  -6    2.79    0.43
  -2   6  -6    3.66    0.57
   3  -6   6   -0.45    0.31
  -3  -6  -6    0.13    0.38
  -3  -6  -6   -0.16    0.31
   3  -6   6   -0.20    0.24
  -3  -6  -6    0.48    0.39
  -3  -6  -6   -0.58    0.76
   3  -6   6    0.41    0.45
   3  -6   6    0.21    0.42
  -3   6  -6    0.28    0.31
  -3   6  -6   -0.15    0.35
   3   6   6    0.39    0.30
   3   6   6    0.07    0.51
   3   6   6    0.00    0.37
  -3   6  -6   -0.26    0.46
  -4  -6  -6    5.23    0.65
  -4  -6  -6    6.66    0.73
   4  -6   6    6.98    0.78
  -4  -6  -6    7.49    0.93
   4  -6   6    5.20    0.70
  -4   6  -6    6.84    1.07
  -4   6  -6    6.40    0.70
   4   6   6    6.37    0.71
   4   6   6    7.80    0.82
   4   6   6    5.09    0.69
  -5  -6  -6    6.67    0.83
   5  -6   6    4.80    0.64
  -5  -6  -6    5.83    0.77
  -5  -6  -6    6.96    0.89
   5  -6   6    6.06    0.78
   5   6   6    5.19    0.68
  -5   6  -6    5.80    0.64
   5   6   6    5.71    0.89
   5   6   6    5.92    0.78
  -5   6  -6    6.11    0.80
   6  -6   6    2.05    0.45
   6  -6   6    2.27    0.80
  -6  -6  -6    3.17    0.79
   6   6   6    0.48    0.67
  -6   6  -6    0.90    0.80
   6   6   6    2.69    0.83
   7  -7  -6   -0.74    0.37
   7  -7  -6    0.59    0.87
  -7  -7   6    0.15    0.90
  -7  -7   6   -0.72    0.84
  -7   7   6    0.74    1.01
  -7   7   6    0.01    0.77
   7   7  -6    2.05    0.74
  -6  -7   6    1.05    0.80
   6  -7  -6    0.26    0.29
   6  -7  -6    0.01    0.41
  -6  -7   6    0.17    0.70
  -6  -7   6    0.11    0.61
   6  -7  -6    0.58    0.61
   6   7  -6    0.51    0.52
  -6   7   6    0.37    0.78
   6   7  -6    0.04    0.50
  -6   7   6    0.00    0.60
  -5  -7   6   11.11    0.95
   5  -7  -6   11.84    0.59
   5  -7  -6   11.65    0.66
  -5  -7   6   11.09    1.12
   5   7  -6   12.19    0.92
   5   7  -6    9.86    0.87
  -5   7   6   11.74    1.07
  -5   7   6   10.71    0.98
   5   7  -6   12.88    1.20
  -4  -7   6    0.43    0.47
  -4  -7   6    0.11    0.41
   4  -7  -6    0.21    0.21
   4  -7  -6    0.00    0.25
   4  -7  -6    0.71    0.36
  -4  -7   6   -0.21    0.44
   4   7  -6    1.43    0.57
   4   7  -6    0.09    0.35
   4   7  -6    0.50    0.39
  -4   7   6   -0.09    0.45
  -4   7   6    0.21    0.31
  -4   7   6    0.45    0.45
  -3  -7   6    4.19    0.55
  -3  -7   6    4.59    0.62
   3  -7  -6    2.89    0.42
   3  -7  -6    4.52    0.48
   3  -7  -6    4.56    0.40
  -3  -7   6    3.51    0.54
  -3  -7   6    4.40    0.75
  -3   7   6    4.04    0.44
  -3   7   6    3.65    0.54
  -3   7   6    4.38    0.69
   3   7  -6    3.80    0.48
   3   7  -6    3.51    0.62
   3   7  -6    3.82    0.48
  -3   7   6    3.73    0.49
  -3   7   6    4.44    0.58
  -2  -7   6   18.82    1.11
  -2  -7   6   20.23    1.00
   2  -7  -6   19.66    0.82
  -2  -7   6   20.81    1.03
   2  -7  -6   20.33    0.79
   2  -7  -6   19.87    0.96
  -2  -7   6   19.59    0.98
  -2   7   6   19.57    0.82
  -2   7   6   19.15    0.89
   2   7  -6   20.57    0.97
   2   7  -6   20.39    0.93
  -2   7   6   19.44    0.99
   2   7  -6   20.77    1.13
  -2   7   6   20.16    0.92
  -2   7   6   21.94    1.02
  -1  -7   6   12.65    0.77
   1  -7  -6   12.90    0.77
  -1  -7   6   12.73    0.94
   1  -7  -6   12.92    0.64
  -1  -7   6   12.22    0.75
   1  -7  -6   11.67    0.63
   1  -7  -6   11.85    0.73
  -1  -7   6   13.44    0.84
  -1  -7   6   12.68    0.88
  -1   7   6   12.10    0.81
  -1   7   6   12.79    0.51
   1   7  -6   11.53    0.89
  -1   7   6   12.61    0.52
  -1   7   6   13.11    0.81
   1   7  -6   12.02    0.73
   1   7  -6   12.90    0.68
  -1   7   6   12.94    0.71
   0  -7  -6    7.46    0.61
   0  -7   6    6.78    0.72
   0  -7   6    5.66    0.62
   0  -7  -6    6.24    0.71
   0  -7   6    6.24    0.56
   0  -7  -6    7.00    0.52
   0  -7  -6    6.95    0.57
   0   7  -6    6.81    0.61
   0   7   6    6.24    0.65
   0   7  -6    6.53    0.31
   0   7   6    6.26    0.59
   0   7  -6    7.56    0.75
   0   7  -6    7.52    0.49
   0   7   6    6.02    0.64
  -1  -7  -6    2.26    0.39
   1  -7   6    2.76    0.46
  -1  -7  -6    2.26    0.52
  -1  -7  -6    2.81    0.43
  -1  -7  -6    2.66    0.38
   1  -7   6    2.23    0.43
   1  -7   6    2.56    0.34
  -1   7  -6    2.75    0.41
  -1   7  -6    2.50    0.43
  -1   7  -6    2.57    0.44
   1   7   6    2.45    0.49
   1   7   6    2.64    0.42
   1   7   6    2.67    0.47
  -1   7  -6    2.81    0.30
   2  -7   6    0.04    0.29
   2  -7   6   -0.12    0.39
  -2  -7  -6    0.11    0.30
  -2  -7  -6    0.26    0.37
  -2  -7  -6    0.70    0.67
  -2  -7  -6    0.18    0.31
   2  -7   6    0.31    0.24
   2  -7   6   -0.06    0.39
   2   7   6    0.44    0.34
   2   7   6   -0.07    0.36
  -2   7  -6    0.76    0.33
   2   7   6   -0.09    0.48
  -2   7  -6    0.04    0.34
  -2   7  -6    0.12    0.54
  -2   7  -6    0.58    0.41
   3  -7   6   21.84    1.15
   3  -7   6   19.13    0.99
  -3  -7  -6   21.42    1.12
  -3  -7  -6   20.14    1.13
   3  -7   6   18.76    0.89
  -3  -7  -6   20.51    1.05
  -3   7  -6   19.30    1.02
   3   7   6   20.28    1.32
   3   7   6   19.30    1.09
  -3   7  -6   18.67    1.09
   3   7   6   19.84    1.01
   4  -7   6    5.49    0.71
  -4  -7  -6    6.62    0.80
   4  -7   6    4.48    0.55
  -4  -7  -6    6.37    0.77
  -4  -7  -6    4.90    0.60
   4  -7   6    5.60    0.78
   4  -7   6    6.50    0.81
   4   7   6    4.74    0.62
  -4   7  -6    5.32    0.65
  -4   7  -6    5.71    0.64
   4   7   6    6.02    0.97
   4   7   6    5.98    0.85
  -5  -7  -6    1.91    0.67
  -5  -7  -6    0.94    0.57
   5  -7   6    1.63    0.64
  -5  -7  -6    0.68    0.77
   5  -7   6    1.38    0.36
   5   7   6    1.68    0.67
   5   7   6    1.58    0.58
  -5   7  -6    0.69    0.56
  -5   7  -6    2.18    0.69
  -6  -7  -6    3.72    0.90
   6  -7   6    1.48    0.91
   6  -7   6    2.31    0.51
   6   7   6    0.73    0.79
  -6   7  -6    0.15    0.87
   6   7   6    3.44    0.96
  -6  -8   6    3.85    0.93
  -6  -8   6    5.52    0.94
  -6  -8   6    3.33    0.82
   6   8  -6    3.63    0.76
   6   8  -6    4.49    0.68
  -6   8   6    5.23    1.00
  -6   8   6    4.30    0.84
  -5  -8   6   10.56    1.23
   5  -8  -6    9.69    0.48
  -5  -8   6   11.65    1.08
  -5  -8   6    9.59    1.07
   5   8  -6   10.25    0.97
   5   8  -6    8.97    0.92
  -5   8   6    8.36    0.99
  -5   8   6    8.73    1.10
   4  -8  -6    3.08    0.32
   4  -8  -6    3.02    0.52
  -4  -8   6    2.93    0.62
  -4  -8   6    2.09    0.58
  -4  -8   6    2.26    0.54
  -4   8   6    3.33    1.06
  -4   8   6    3.17    0.40
  -4   8   6    2.48    0.57
   4   8  -6    3.14    0.82
   4   8  -6    2.97    0.53
   3  -8  -6    0.59    0.22
  -3  -8   6    0.37    0.42
   3  -8  -6    0.66    0.28
   3  -8  -6    0.14    0.38
  -3  -8   6    0.23    0.39
  -3  -8   6    0.81    0.48
  -3   8   6    0.48    0.31
  -3   8   6    0.43    0.45
   3   8  -6   -0.18    0.36
   3   8  -6    0.85    0.38
   3   8  -6    0.57    0.62
  -3   8   6    0.13    0.37
  -2  -8   6   24.53    1.38
  -2  -8   6   25.81    1.26
   2  -8  -6   28.28    1.01
   2  -8  -6   26.62    0.96
  -2  -8   6   28.39    1.24
  -2  -8   6   27.55    1.19
   2  -8  -6   26.46    1.18
  -2   8   6   24.66    1.21
  -2   8   6   25.36    1.10
  -2   8   6   25.42    0.98
   2   8  -6   28.45    1.15
   2   8  -6   27.32    1.18
  -2   8   6   27.82    1.26
   2   8  -6   26.74    1.37
   1  -8  -6    1.24    0.53
   1  -8  -6    1.17    0.33
  -1  -8   6    2.01    0.45
   1  -8  -6    1.39    0.39
   1  -8  -6    1.32    0.27
  -1  -8   6    1.47    0.46
  -1  -8   6    1.66    0.40
   1   8  -6    1.31    0.36
  -1   8   6    1.12    0.61
   1   8  -6    1.44    0.33
  -1   8   6    1.04    0.36
   1   8  -6    0.94    0.54
  -1   8   6    1.60    0.41
  -1   8   6    1.06    0.40
   0  -8   6   32.12    1.40
   0  -8  -6   30.39    1.32
   0  -8   6   34.28    1.26
   0  -8  -6   34.97    1.37
   0  -8  -6   32.20    1.20
   0  -8  -6   32.94    1.25
   0  -8   6   31.82    1.33
   0   8   6   32.47    1.36
   0   8  -6   32.76    1.15
   0   8   6   32.09    1.29
   0   8   6   33.58    1.34
   0   8  -6   33.31    1.32
   1  -8   6   -0.10    0.41
  -1  -8  -6   -0.01    0.27
  -1  -8  -6    0.35    0.34
  -1  -8  -6    0.50    0.51
   1  -8   6   -0.09    0.38
   1  -8   6   -0.01    0.26
  -1  -8  -6    0.33    0.36
   1  -8   6    0.39    0.27
  -1   8  -6    0.07    0.35
  -1   8  -6   -0.18    0.44
   1   8   6    0.10    0.47
  -1   8  -6    0.55    0.25
   1   8   6    0.01    0.36
   1   8   6    0.07    0.32
  -1   8  -6    0.72    0.32
  -2  -8  -6    0.82    0.42
  -2  -8  -6    0.95    0.37
   2  -8   6    0.68    0.32
  -2  -8  -6    0.89    0.39
   2  -8   6    0.29    0.27
   2  -8   6    1.02    0.49
   2   8   6    0.40    0.56
  -2   8  -6    0.56    0.40
  -2   8  -6    0.71    0.40
   2   8   6    1.07    0.42
   2   8   6    0.13    0.41
  -3  -8  -6    0.79    0.46
   3  -8   6    0.24    0.28
  -3  -8  -6    0.44    0.43
   3  -8   6    0.70    0.47
  -3  -8  -6    0.68    0.53
   3  -8   6   -0.09    0.40
   3  -8   6    1.14    0.41
  -3   8  -6    0.52    0.48
  -3   8  -6    0.70    0.43
   3   8   6    0.20    0.46
   3   8   6    0.72    0.46
   4  -8   6    0.32    0.30
  -4  -8  -6    0.43    0.67
   4  -8   6   -0.56    0.49
   4  -8   6    0.78    0.61
  -4  -8  -6    0.81    0.58
  -4  -8  -6    0.37    0.56
  -4   8  -6    0.85    0.59
  -4   8  -6   -0.15    0.45
   4   8   6   -0.11    0.54
   4   8   6   -0.20    0.47
   5  -8   6    2.91    0.44
   5  -8   6    2.04    0.74
  -5  -8  -6    3.40    0.70
  -5  -8  -6    3.35    0.98
  -5  -8  -6    3.17    0.72
   5   8   6    3.06    0.66
  -5   8  -6    2.46    0.77
   5   8   6    4.16    0.84
  -6  -9   6    0.33    0.95
  -6  -9   6    1.62    0.89
  -6  -9   6    2.20    1.03
  -6   9   6    1.93    0.90
   6   9  -6    3.67    0.78
  -6   9   6    1.92    1.03
  -5  -9   6    1.92    0.79
  -5  -9   6    0.82    0.78
  -5  -9   6    1.32    0.66
   5   9  -6    2.15    0.65
  -5   9   6    2.12    0.66
  -5   9   6    1.39    0.91
   5   9  -6    1.69    0.59
   4  -9  -6    0.45    0.20
  -4  -9   6    0.17    0.60
  -4  -9   6    0.31    0.70
  -4  -9   6    0.02    0.51
  -4   9   6    0.26    0.54
  -4   9   6   -0.54    0.55
   4   9  -6   -0.15    0.49
   4   9  -6    0.09    0.55
   3  -9  -6    0.20    0.29
   3  -9  -6   -0.09    0.26
   3  -9  -6    0.36    0.43
  -3  -9   6   -0.24    0.45
  -3  -9   6   -0.23    0.51
   3   9  -6    0.76    0.45
  -3   9   6   -0.07    0.42
   3   9  -6    0.63    0.52
  -3   9   6   -0.16    0.51
   2  -9  -6    2.20    0.32
  -2  -9   6    1.71    0.53
  -2  -9   6    1.68    0.43
   2  -9  -6    2.27    0.38
   2  -9  -6    1.43    0.42
  -2  -9   6    1.98    0.52
   2   9  -6    1.80    0.41
  -2   9   6    1.49    0.37
  -2   9   6    2.10    0.51
  -2   9   6    1.97    0.49
   2   9  -6    1.08    0.40
  -1  -9   6    1.20    0.45
  -1  -9   6    0.20    0.49
  -1  -9   6    0.62    0.43
  -1  -9   6    0.29    0.35
   1  -9  -6    0.11    0.25
   1  -9  -6    0.77    0.36
   1  -9  -6   -0.13    0.35
   1  -9  -6    0.06    0.35
  -1   9   6    1.11    0.44
   1   9  -6    0.04    0.35
  -1   9   6    0.58    0.39
   1   9  -6    0.22    0.35
   0  -9   6   13.06    0.97
   0  -9  -6   14.42    0.84
   0  -9   6   12.73    0.78
   0  -9  -6   12.99    0.85
   0  -9   6   11.52    0.96
   0  -9  -6   13.50    1.04
   0  -9  -6   13.45    0.74
   0   9  -6   12.47    0.74
   0   9   6   14.93    0.97
   0   9   6   12.77    0.86
   0   9  -6   14.08    0.88
  -1  -9  -6    3.14    0.53
   1  -9   6    2.54    0.55
  -1  -9  -6    3.16    0.46
  -1  -9  -6    2.65    0.48
   1  -9   6    4.14    0.57
   1  -9   6    3.17    0.55
  -1   9  -6    2.66    0.49
  -1   9  -6    3.00    0.37
   1   9   6    2.92    0.56
   1   9   6    2.87    0.50
   2  -9   6    5.75    0.55
   2  -9   6    6.85    0.92
  -2  -9  -6    8.26    0.85
  -2  -9  -6    7.14    0.81
  -2   9  -6    7.77    0.85
   2   9   6    6.86    0.86
   2   9   6    6.19    0.74
  -2   9  -6    7.17    1.02
  -3  -9  -6    6.21    0.75
   3  -9   6    4.46    0.55
  -3  -9  -6    5.25    0.72
  -3  -9  -6    5.74    0.69
   3  -9   6    5.88    0.63
   3  -9   6    7.46    0.96
   3  -9   6    6.34    0.62
   3   9   6    4.88    0.68
  -3   9  -6    5.58    0.71
   3   9   6    6.72    0.91
  -3   9  -6    6.43    0.81
  -4  -9  -6    0.65    0.66
  -4  -9  -6   -0.59    0.65
   4  -9   6   -0.28    0.31
  -4  -9  -6    0.19    0.59
   4  -9   6    0.14    0.65
   4  -9   6    0.05    0.61
  -4   9  -6    0.12    0.62
   4   9   6    0.72    0.68
  -4   9  -6   -0.57    0.51
   4   9   6    0.37    0.57
  -5  -9  -6    5.99    0.93
   5  -9   6    2.81    0.46
  -5  -9  -6    3.49    0.97
   5  -9   6    3.35    0.90
   5   9   6    5.96    0.95
   5   9   6    3.86    0.80
  -5   9  -6    4.29    0.96
  -5   9  -6    3.96    0.83
  -5 -10   6    0.31    0.75
  -5 -10   6    2.52    0.92
  -5 -10   6    0.35    0.79
   5  10  -6    1.95    0.72
   5  10  -6    0.36    0.65
  -5  10   6    0.77    0.80
  -5  10   6   -0.14    0.85
  -4 -10   6    4.88    0.75
  -4 -10   6    5.41    0.83
  -4 -10   6    6.37    0.80
   4  10  -6    6.12    0.75
   4  10  -6    6.36    0.78
  -4  10   6    5.66    0.86
  -4  10   6    5.52    0.79
  -3 -10   6   18.35    1.23
   3 -10  -6   15.17    0.62
  -3 -10   6   16.19    1.44
  -3 -10   6   16.58    1.15
   3 -10  -6   15.87    0.68
  -3  10   6   16.09    0.98
   3  10  -6   16.55    1.12
   3  10  -6   18.55    1.13
  -3  10   6   20.90    1.17
  -3  10   6   18.64    1.19
  -2 -10   6    4.62    0.72
   2 -10  -6    4.15    0.58
   2 -10  -6    4.55    0.42
  -2 -10   6    5.00    0.70
  -2 -10   6    4.90    0.60
   2 -10  -6    4.38    0.47
   2  10  -6    2.98    0.53
  -2  10   6    3.93    0.67
   2  10  -6    4.95    0.60
  -2  10   6    5.58    0.64
   1 -10  -6   24.82    1.19
   1 -10  -6   26.34    1.09
   1 -10  -6   23.35    1.24
  -1 -10   6   26.85    1.18
  -1 -10   6   24.79    1.32
  -1 -10   6   25.92    1.35
   1 -10  -6   24.63    1.00
   1  10  -6   24.99    1.16
  -1  10   6   26.28    1.32
  -1  10   6   25.71    1.27
   1  10  -6   24.46    1.20
   0 -10  -6    0.88    0.32
   0 -10   6    0.35    0.34
   0 -10  -6    0.96    0.45
   0 -10  -6    0.37    0.44
   0 -10   6    0.82    0.60
   0  10  -6    0.52    0.38
   0  10   6    0.15    0.54
   0  10  -6    0.79    0.40
   0  10   6    1.50    0.44
  -1 -10  -6    0.38    0.49
   1 -10   6    0.66    0.31
  -1 -10  -6    0.47    0.37
   1 -10   6   -0.23    0.52
  -1 -10  -6    0.16    0.39
  -1  10  -6   -0.02    0.42
   1  10   6   -0.18    0.44
  -1  10  -6    0.00    0.36
   1  10   6    0.22    0.48
  -2 -10  -6   10.12    1.06
  -2 -10  -6    9.02    0.97
   2 -10   6    9.57    0.66
   2 -10   6    9.47    1.08
  -2 -10  -6   11.55    0.94
  -2  10  -6    7.59    0.91
  -2  10  -6   11.06    1.02
   2  10   6   11.42    1.03
   2  10   6    7.31    0.88
   3 -10   6   -0.57    0.31
  -3 -10  -6    1.20    0.58
  -3 -10  -6   -0.56    0.59
   3 -10   6    0.93    0.67
  -3 -10  -6    0.12    0.56
  -3  10  -6    0.13    0.51
  -3  10  -6    0.78    0.58
   3  10   6   -0.62    0.53
   3  10   6    1.09    0.61
   4 -10   6    4.10    0.45
  -4 -10  -6    4.64    0.84
  -4 -10  -6    4.28    0.92
  -4  10  -6    4.05    0.87
   4  10   6    4.82    0.80
   4  10   6    6.76    0.98
  -4  10  -6    4.23    0.80
  -4 -11   6    7.43    0.97
  -4 -11   6    8.99    1.08
  -4  11   6    6.71    1.01
  -4  11   6    9.32    1.22
   4  11  -6   10.93    1.23
   4  11  -6    7.82    0.94
  -3 -11   6   -0.28    0.66
  -3 -11   6   -0.25    0.72
  -3 -11   6   -0.48    0.55
  -3  11   6    1.23    0.63
  -3  11   6    0.28    0.64
   3  11  -6    0.89    0.58
   3  11  -6    0.68    0.58
  -2 -11   6    0.42    0.67
  -2 -11   6    1.70    0.54
  -2 -11   6    2.57    0.69
   2 -11  -6    1.80    0.39
   2 -11  -6    0.79    0.28
  -2  11   6    2.10    0.67
   2  11  -6    0.26    0.53
  -2  11   6    1.45    0.59
   2  11  -6    1.01    0.54
  -1 -11   6   10.18    0.87
   1 -11  -6   12.72    0.97
   1 -11  -6   10.87    0.97
  -1 -11   6   11.52    1.14
   1 -11  -6   13.20    1.01
   1 -11  -6   10.88    0.69
  -1  11   6   10.16    0.96
   1  11  -6   10.63    0.97
   1  11  -6   10.63    0.96
   0 -11  -6    1.96    0.57
   0 -11   6    1.48    0.64
   0 -11   6    1.30    0.40
   0 -11  -6    1.85    0.54
   0 -11  -6    1.49    0.36
   0  11   6    0.47    0.60
   0  11  -6    0.97    0.49
   0  11   6    1.04    0.48
   0  11  -6    0.75    0.46
  -1 -11  -6    0.18    0.59
   1 -11   6    0.70    0.68
  -1 -11  -6    0.50    0.40
   1 -11   6    0.20    0.34
  -1 -11  -6    0.29    0.53
   1  11   6   -0.63    0.67
  -1  11  -6    0.09    0.48
   1  11   6    0.56    0.50
  -2 -11  -6    2.18    0.58
   2 -11   6    1.84    0.38
   2 -11   6    3.33    0.76
  -2 -11  -6    2.35    0.76
   2  11   6    3.45    0.62
  -2  11  -6    1.42    0.60
   2  11   6    2.73    0.76
   3 -11   6    0.53    0.37
   3 -11   6    1.08    0.84
  -3 -11  -6   -0.18    0.64
  -3 -11  -6    0.11    0.84
  -3  11  -6    1.59    0.82
   3  11   6    1.83    0.77
   3  11   6    1.59    0.68
  -3  11  -6    0.52    0.65
  -3 -12   6    1.93    0.68
  -3 -12   6    1.28    0.79
  -3 -12   6    1.75    0.96
  -3  12   6    1.29    0.89
   3  12  -6    4.14    0.87
  -3  12   6    2.61    0.82
   3  12  -6    2.74    0.76
   2 -12  -6    2.81    0.41
   2 -12  -6    3.08    0.35
  -2 -12   6    1.68    0.72
  -2 -12   6    3.11    0.88
  -2 -12   6    2.32    0.65
   2  12  -6    3.82    0.72
   2  12  -6    1.29    0.70
  -2  12   6    3.23    0.73
  -2  12   6    3.37    0.81
   1 -12  -6    0.13    0.34
  -1 -12   6    0.09    0.50
  -1 -12   6    1.11    0.77
   1  12  -6   -0.27    0.58
  -1  12   6    1.61    0.75
  -1  12   6    1.26    0.61
   1  12  -6    0.74    0.64
   0 -12  -6   -0.17    0.41
   0 -12   6   -0.38    0.71
   0 -12   6   -0.97    0.43
   0 -12  -6    0.36    0.66
   0  12   6    0.62    0.55
   0  12   6   -0.29    0.71
   0  12  -6    0.05    0.59
   0  12  -6    0.02    0.75
  -1 -12  -6    2.76    0.77
   1 -12   6    3.11    0.80
  -1 -12  -6    2.52    0.50
   1 -12   6    2.42    0.42
   1  12   6    1.54    0.63
  -1  12  -6    3.46    0.73
   1  12   6    3.25    0.87
  -2 -12  -6    3.68    0.85
   2 -12   6    4.41    0.98
  -2 -12  -6    3.09    0.63
   2 -12   6    2.67    0.43
   2  12   6    3.79    0.68
  -2  12  -6    1.70    0.75
  -2  12  -6    5.01    0.88
   2  12   6    1.95    0.91
  -1 -13   6   -0.29    0.98
   1 -13  -6   -0.04    0.44
   1  13  -6    0.33    0.72
  -1  13   6   -0.55    0.71
  -1  13   6    2.51    1.04
   0 -13   6    0.87    0.51
   0 -13  -6    0.39    0.91
   0 -13  -6    0.26    0.49
   0 -13   6    0.80    0.98
   0  13  -6    1.55    0.71
   0  13   6    1.14    0.72
   8   0  -7    0.89    0.69
   8   0  -7    1.25    0.68
   7   0  -7    0.10    0.52
   7   0  -7    0.39    0.47
  -6   0   7    0.82    0.45
   6   0  -7    0.10    0.28
  -6   0   7   -0.35    0.71
  -6   0   7   -0.20    0.30
   6   0  -7   -0.47    0.47
   6   0  -7   -0.17    0.40
   5   0  -7   -0.37    0.34
   5   0  -7   -0.07    0.52
  -5   0   7    0.02    0.23
  -5   0   7   -0.80    0.45
  -5   0   7   -0.38    0.37
   5   0  -7   -0.22    0.24
   5   0  -7    0.00    0.35
  -5   0   7   -0.05    0.37
   5   0  -7    0.14    0.32
  -5   0   7    0.37    0.32
  -4   0   7   -0.15    0.34
   4   0  -7   -0.05    0.29
  -4   0   7   -0.29    0.35
  -4   0   7    0.18    0.40
   4   0  -7   -0.04    0.43
   4   0  -7   -0.23    0.22
   4   0  -7   -0.03    0.30
  -4   0   7   -0.37    0.27
  -4   0   7   -0.21    0.14
   3   0  -7    0.02    0.30
   3   0  -7    0.05    0.24
  -3   0   7   -0.07    0.29
  -3   0   7   -0.03    0.34
  -3   0   7    0.37    0.28
  -3   0   7    0.15    0.37
   3   0  -7   -0.27    0.21
  -3   0   7   -0.11    0.27
  -3   0   7    0.11    0.33
   3   0  -7   -0.06    0.34
  -2   0   7    0.01    0.23
   2   0  -7   -0.23    0.33
   2   0  -7   -0.20    0.21
  -2   0   7   -0.03    0.26
   2   0  -7   -0.05    0.12
   2   0  -7   -0.12    0.19
  -2   0   7   -0.32    0.27
   2   0  -7    0.04    0.27
   2   0  -7   -0.06    0.10
  -2   0   7    0.16    0.26
  -2   0   7   -0.13    0.25
  -2   0   7   -0.60    0.24
  -1   0   7    0.12    0.23
   1   0  -7    0.10    0.28
   1   0  -7   -0.38    0.25
   1   0  -7   -0.08    0.32
   1   0  -7   -0.16    0.19
   1   0  -7    0.02    0.19
  -1   0   7    0.14    0.28
   1   0  -7   -0.12    0.24
  -1   0   7   -0.39    0.23
   1   0  -7   -0.12    0.16
  -1   0   7   -0.14    0.27
  -1   0   7   -0.12    0.23
   1   0  -7   -0.14    0.14
   0   0  -7    0.47    0.24
   0   0   7   -0.26    0.21
   0   0  -7   -0.31    0.32
   0   0   7    0.02    0.31
   0   0  -7    0.16    0.28
   0   0   7    0.03    0.24
   0   0  -7    0.17    0.16
   0   0   7    0.28    0.20
   0   0  -7   -0.12    0.24
   0   0   7    0.13    0.28
   0   0   7    0.06    0.23
   0   0  -7   -0.42    0.21
   1   0   7   -0.35    0.34
   1   0   7   -0.23    0.22
   1   0   7   -0.51    0.22
   1   0   7    0.24    0.25
  -1   0  -7    0.09    0.28
   1   0   7   -0.48    0.20
   1   0   7    0.01    0.19
  -1   0  -7    0.25    0.28
  -1   0  -7    0.06    0.23
  -1   0  -7    0.21    0.36
  -1   0  -7   -0.07    0.22
  -1   0  -7    0.17    0.29
   2   0   7   -0.17    0.37
  -2   0  -7    0.07    0.32
   2   0   7    0.00    0.29
   2   0   7    0.27    0.23
   2   0   7    0.03    0.24
  -2   0  -7    0.69    0.39
   2   0   7   -0.65    0.35
  -2   0  -7   -0.14    0.28
  -2   0  -7   -0.11    0.42
   2   0   7    0.07    0.16
   2   0   7   -0.15    0.24
  -2   0  -7    0.11    0.24
   2   0   7   -0.04    0.37
   3   0   7    0.16    0.18
   3   0   7   -0.09    0.21
   3   0   7    0.37    0.33
  -3   0  -7   -0.19    0.33
   3   0   7   -0.11    0.34
  -3   0  -7   -0.24    0.25
  -3   0  -7   -0.47    0.39
   3   0   7    0.26    0.50
   3   0   7    0.05    0.29
   4   0   7   -0.23    0.71
  -4   0  -7   -0.07    0.53
   4   0   7    0.31    0.37
   4   0   7    0.07    0.38
  -4   0  -7    0.04    0.30
  -4   0  -7   -0.26    0.39
   4   0   7   -0.09    0.19
   4   0   7    0.08    0.25
  -5   0  -7    0.56    0.37
   5   0   7    0.25    0.45
  -5   0  -7    0.02    0.49
   5   0   7   -0.32    0.45
  -6   0  -7   -0.68    0.64
   6   0   7   -0.49    0.59
  -6   0  -7    0.56    0.62
   6   0   7    0.21    0.63
   7   0   7    1.26    0.76
  -7   0  -7   -2.12    0.87
  -7   0  -7   -1.16    0.77
   7   0   7   -0.27    0.89
   8  -1  -7   11.47    1.33
   8  -1  -7    9.58    0.97
  -8  -1   7   10.70    1.34
   8   1  -7    8.94    1.02
  -8   1   7    8.31    1.07
  -8   1   7   10.75    1.32
   8   1  -7   11.95    1.39
   7  -1  -7    2.31    0.62
   7  -1  -7    2.29    0.58
  -7  -1   7    2.28    0.70
  -7   1   7    0.57    0.65
  -7   1   7    3.22    0.68
   7   1  -7    2.01    0.58
   7   1  -7    2.44    0.60
  -6  -1   7    2.14    0.49
  -6  -1   7    1.42    0.49
   6  -1  -7    1.81    0.55
  -6  -1   7    2.33    0.39
   6  -1  -7    2.22    0.32
   6  -1  -7    1.29    0.44
  -6   1   7    2.32    0.52
  -6   1   7    2.22    0.34
   6   1  -7    3.60    0.47
   6   1  -7    2.38    0.51
   6   1  -7    2.85    0.53
  -5  -1   7    0.13    0.47
  -5  -1   7    0.59    0.27
   5  -1  -7   -0.10    0.54
  -5  -1   7    0.22    0.32
   5  -1  -7    0.57    0.32
  -5  -1   7    0.48    0.41
   5  -1  -7    0.50    0.38
   5  -1  -7    0.53    0.27
  -5  -1   7    0.67    0.43
   5   1  -7    0.11    0.27
  -5   1   7   -0.01    0.43
   5   1  -7   -0.02    0.68
  -5   1   7    0.39    0.43
  -5   1   7    0.06    0.41
  -5   1   7    1.08    0.38
   5   1  -7    0.38    0.35
   5   1  -7    0.47    0.39
   5   1  -7    0.30    0.37
  -4  -1   7   19.56    0.70
  -4  -1   7   18.45    0.90
  -4  -1   7   17.38    0.88
   4  -1  -7   19.64    0.89
  -4  -1   7   18.99    1.01
   4  -1  -7   19.30    1.01
   4  -1  -7   18.92    0.80
  -4  -1   7   18.83    0.98
   4  -1  -7   19.13    0.90
   4   1  -7   18.98    0.92
  -4   1   7   17.87    0.95
   4   1  -7   18.05    0.92
   4   1  -7   19.58    1.05
   4   1  -7   19.14    0.80
  -4   1   7   19.62    1.00
  -4   1   7   18.49    0.93
   4   1  -7   18.39    0.90
  -4   1   7   16.69    0.89
  -3  -1   7    0.15    0.31
  -3  -1   7    0.28    0.31
   3  -1  -7    0.40    0.26
   3  -1  -7    0.25    0.25
   3  -1  -7    0.08    0.34
  -3  -1   7    0.69    0.40
   3  -1  -7    0.38    0.27
  -3  -1   7    0.51    0.64
  -3  -1   7    0.24    0.26
  -3  -1   7    0.53    0.33
   3   1  -7    0.69    0.28
   3   1  -7    0.54    0.23
   3   1  -7    0.99    0.42
   3   1  -7    0.64    0.32
  -3   1   7    0.72    0.30
  -3   1   7    0.42    0.31
  -3   1   7    0.54    0.32
   3   1  -7    0.40    0.26
  -3   1   7    0.49    0.28
   2  -1  -7    1.24    0.28
  -2  -1   7    0.83    0.31
   2  -1  -7    0.63    0.25
   2  -1  -7    0.66    0.35
  -2  -1   7    0.41    0.31
   2  -1  -7    0.35    0.24
  -2  -1   7    0.70    0.31
   2  -1  -7    0.76    0.34
  -2  -1   7    0.35    0.29
  -2  -1   7    0.94    0.27
   2   1  -7    0.48    0.25
   2   1  -7    0.35    0.31
  -2   1   7    0.59    0.31
  -2   1   7    0.75    0.27
   2   1  -7    0.47    0.23
  -2   1   7    1.12    0.34
   2   1  -7    0.58    0.35
  -2   1   7    0.41    0.28
   2   1  -7    0.77    0.20
  -2   1   7    0.51    0.31
  -1  -1   7    4.29    0.53
  -1  -1   7    3.98    0.47
   1  -1  -7    4.49    0.45
   1  -1  -7    4.97    0.42
  -1  -1   7    4.38    0.43
   1  -1  -7    4.08    0.42
   1  -1  -7    4.14    0.43
   1  -1  -7    4.64    0.28
   1  -1  -7    4.31    0.52
   1  -1  -7    4.86    0.30
  -1  -1   7    4.79    0.52
  -1  -1   7    4.24    0.42
   1  -1  -7    4.27    0.55
   1   1  -7    4.64    0.39
  -1   1   7    3.23    0.40
   1   1  -7    3.96    0.46
  -1   1   7    4.34    0.44
   1   1  -7    3.95    0.52
  -1   1   7    5.04    0.52
  -1   1   7    4.46    0.43
   1   1  -7    4.53    0.36
  -1   1   7    4.76    0.52
   1   1  -7    4.85    0.38
   1   1  -7    4.56    0.48
   1   1  -7    5.13    0.56
   1   1  -7    4.98    0.46
   0  -1  -7   -0.06    0.30
   0  -1   7    0.27    0.21
   0  -1  -7   -0.04    0.24
   0  -1   7   -0.11    0.27
   0  -1  -7    0.20    0.28
   0  -1   7   -0.34    0.18
   0  -1  -7    0.13    0.23
   0  -1   7    0.09    0.25
   0  -1  -7    0.27    0.22
   0  -1   7    0.06    0.19
   0  -1   7    0.00    0.31
   0   1  -7    0.35    0.27
   0   1   7    0.18    0.28
   0   1   7    0.16    0.28
   0   1  -7   -0.18    0.33
   0   1   7   -0.05    0.24
   0   1  -7    0.35    0.29
   0   1  -7   -0.35    0.24
   0   1   7    0.61    0.26
   0   1  -7   -0.15    0.22
   0   1   7    0.04    0.22
   0   1  -7    0.13    0.18
   0   1   7   -0.06    0.17
   0   1  -7    0.22    0.27
   0   1  -7    0.14    0.20
  -1  -1  -7    0.24    0.31
   1  -1   7   -0.03    0.25
   1  -1   7   -0.23    0.36
   1  -1   7   -0.05    0.20
  -1  -1  -7   -0.29    0.23
  -1  -1  -7    0.33    0.37
   1  -1   7   -0.12    0.21
   1  -1   7    0.10    0.17
  -1  -1  -7    0.03    0.26
  -1  -1  -7    0.05    0.24
  -1  -1  -7    0.06    0.24
   1  -1   7    0.15    0.24
   1   1   7   -0.13    0.22
  -1   1  -7   -0.23    0.22
   1   1   7    0.04    0.22
   1   1   7    0.12    0.35
   1   1   7   -0.17    0.21
   1   1   7    0.19    0.24
  -1   1  -7    0.13    0.31
  -1   1  -7   -0.36    0.36
  -1   1  -7    0.23    0.24
  -1   1  -7   -0.10    0.50
   1   1   7    0.28    0.30
   1   1   7    0.04    0.34
  -1   1  -7   -0.13    0.28
   1   1   7   -0.10    0.17
  -2  -1  -7    4.56    0.57
   2  -1   7    5.74    0.74
  -2  -1  -7    4.20    0.57
  -2  -1  -7    4.69    0.54
   2  -1   7    4.46    0.48
  -2  -1  -7    3.25    0.39
   2  -1   7    4.47    0.48
   2  -1   7    2.92    0.52
  -2  -1  -7    4.17    0.57
   2  -1   7    3.60    0.44
   2   1   7    4.23    0.54
  -2   1  -7    4.02    0.52
   2   1   7    4.22    0.44
  -2   1  -7    3.98    0.48
   2   1   7    3.91    0.52
   2   1   7    3.65    0.46
  -2   1  -7    3.59    0.45
   2   1   7    3.90    0.45
  -2   1  -7    3.89    0.53
  -2   1  -7    3.81    0.46
   2   1   7    5.01    0.60
   3  -1   7   -0.06    0.29
   3  -1   7    0.20    0.32
   3  -1   7    0.38    0.32
  -3  -1  -7   -0.52    0.26
  -3  -1  -7    0.10    0.35
   3  -1   7   -0.13    0.90
  -3  -1  -7    0.11    0.46
   3   1   7    0.31    0.35
   3   1   7    0.17    0.32
   3   1   7   -0.17    0.58
   3   1   7   -0.05    0.29
  -3   1  -7    0.15    0.41
   3   1   7   -0.21    0.30
  -3   1  -7    0.32    0.27
  -3   1  -7   -0.18    0.33
  -4  -1  -7    1.42    0.45
  -4  -1  -7    1.27    0.37
   4  -1   7    0.56    1.19
   4  -1   7    1.79    0.45
   4  -1   7    1.17    0.42
  -4  -1  -7    1.23    0.60
   4   1   7    1.47    0.42
   4   1   7    1.41    0.47
  -4   1  -7    1.28    0.55
  -4   1  -7    1.66    0.48
   4   1   7    0.86    0.26
   4   1   7    1.68    0.76
   4   1   7    0.92    0.38
  -4   1  -7    0.56    0.33
   5  -1   7    4.15    0.57
  -5  -1  -7    4.72    0.87
   5  -1   7    4.18    0.63
  -5  -1  -7    3.02    0.61
  -5  -1  -7    5.23    0.66
   5   1   7    4.96    0.51
  -5   1  -7    3.72    0.48
   5   1   7    5.24    0.70
  -5   1  -7    4.69    0.69
   5   1   7    4.78    0.67
  -6  -1  -7    1.28    0.64
   6  -1   7    2.48    0.65
   6  -1   7    3.32    0.77
   6   1   7    2.91    0.74
   6   1   7    3.32    0.68
  -6   1  -7    2.61    0.68
  -7  -1  -7   -0.52    0.79
   7  -1   7    0.80    0.78
  -7  -1  -7    0.47    0.94
   7  -1   7    2.49    0.86
   7   1   7    2.15    0.84
  -7   1  -7   -0.63    0.90
   7   1   7   -0.87    0.92
  -7   1  -7   -1.01    0.81
  -8  -2   7    0.67    0.79
   8  -2  -7    0.14    0.63
   8  -2  -7   -0.89    0.73
  -8  -2   7    1.08    0.81
   8   2  -7    0.51    0.80
  -8   2   7   -1.83    0.84
  -8   2   7   -0.23    0.80
   8   2  -7   -0.10    0.73
  -7  -2   7   -0.56    0.62
  -7  -2   7   -0.34    0.57
  -7  -2   7    0.80    0.57
   7  -2  -7    0.11    0.48
   7  -2  -7    0.50    0.56
   7   2  -7    0.63    0.56
   7   2  -7    1.23    0.65
  -7   2   7    0.63    0.59
  -6  -2   7    1.08    0.45
   6  -2  -7    1.71    0.44
  -6  -2   7    0.05    1.03
  -6  -2   7    0.50    0.54
   6  -2  -7    0.55    0.58
  -6  -2   7    0.84    0.38
   6  -2  -7    0.91    0.30
   6   2  -7    0.09    0.43
   6   2  -7    2.06    0.59
   6   2  -7    0.90    0.33
  -6   2   7    0.98    0.66
  -5  -2   7    2.01    0.41
   5  -2  -7    1.11    0.49
   5  -2  -7    1.70    0.36
   5  -2  -7    1.92    0.32
   5  -2  -7    2.05    0.41
  -5  -2   7    1.98    0.50
  -5  -2   7    1.61    0.56
  -5  -2   7    2.06    0.32
  -5  -2   7    1.53    0.46
   5   2  -7    2.32    0.43
  -5   2   7    1.56    0.49
  -5   2   7    1.55    0.46
   5   2  -7    2.18    0.47
  -5   2   7    1.88    0.46
   5   2  -7    1.68    0.56
   5   2  -7    1.73    0.32
   5   2  -7    0.64    0.73
  -5   2   7    2.23    0.46
   4  -2  -7   32.23    1.21
  -4  -2   7   32.88    1.38
  -4  -2   7   30.91    1.34
   4  -2  -7   34.70    1.30
  -4  -2   7   32.39    1.23
   4  -2  -7   32.86    1.15
  -4  -2   7   33.84    1.35
  -4  -2   7   33.42    1.09
   4   2  -7   32.23    1.32
  -4   2   7   32.79    1.25
   4   2  -7   32.81    1.17
  -4   2   7   33.16    1.34
   4   2  -7   29.96    1.17
  -4   2   7   30.11    1.24
   4   2  -7   31.93    1.42
  -4   2   7   31.49    1.32
   4   2  -7   33.15    1.28
  -3  -2   7    3.25    0.47
   3  -2  -7    4.23    0.49
  -3  -2   7    3.11    0.45
  -3  -2   7    4.66    0.60
   3  -2  -7    3.19    0.40
   3  -2  -7    2.89    0.53
  -3  -2   7    3.99    0.54
  -3  -2   7    4.05    0.44
   3  -2  -7    3.58    0.46
  -3  -2   7    3.51    0.43
   3  -2  -7    3.61    0.55
   3   2  -7    3.82    0.43
   3   2  -7    3.88    0.45
  -3   2   7    3.04    0.43
  -3   2   7    4.18    0.51
   3   2  -7    4.21    0.56
   3   2  -7    3.56    0.48
   3   2  -7    3.85    0.48
  -3   2   7    3.94    0.43
   2  -2  -7    0.29    0.32
  -2  -2   7    0.16    0.25
  -2  -2   7    0.35    0.30
   2  -2  -7    1.20    0.28
  -2  -2   7    0.66    0.33
  -2  -2   7    0.19    0.29
  -2  -2   7    0.33    0.24
   2  -2  -7    0.38    0.25
   2  -2  -7    0.82    0.38
   2  -2  -7    0.33    0.26
  -2   2   7    0.69    0.29
   2   2  -7    0.49    0.30
  -2   2   7    1.34    0.33
   2   2  -7    0.15    0.38
  -2   2   7    1.06    0.27
   2   2  -7    0.57    0.25
   2   2  -7    0.51    0.24
  -2   2   7    0.52    0.21
   2   2  -7    0.78    0.26
  -2   2   7    0.49    0.32
  -2   2   7    0.73    0.29
  -1  -2   7    5.28    0.38
  -1  -2   7    5.40    0.63
  -1  -2   7    6.17    0.45
   1  -2  -7    6.85    0.51
  -1  -2   7    6.12    0.56
   1  -2  -7    5.61    0.55
   1  -2  -7    6.17    0.29
  -1  -2   7    6.47    0.49
   1  -2  -7    6.20    0.58
   1  -2  -7    7.15    0.51
  -1  -2   7    6.33    0.51
   1  -2  -7    6.20    0.47
   1  -2  -7    5.15    0.44
   1   2  -7    6.73    0.51
  -1   2   7    7.19    0.52
   1   2  -7    5.82    0.47
   1   2  -7    7.15    0.63
   1   2  -7    5.48    0.46
  -1   2   7    5.52    0.50
  -1   2   7    6.36    0.50
   1   2  -7    6.18    0.40
   1   2  -7    6.28    0.61
  -1   2   7    6.00    0.55
  -1   2   7    6.70    0.40
  -1   2   7    6.27    0.46
   1   2  -7    6.54    0.43
   1   2  -7    6.37    0.50
   0  -2   7   15.89    0.69
   0  -2   7   19.85    0.88
   0  -2  -7   17.81    0.77
   0  -2  -7   18.71    0.81
   0  -2   7   19.80    0.69
   0  -2   7   19.52    0.84
   0  -2  -7   19.18    0.89
   0  -2  -7   20.37    0.84
   0  -2   7   19.54    0.92
   0  -2  -7   19.28    0.72
   0  -2   7   18.70    0.79
   0  -2  -7   17.76    0.80
   0   2  -7   19.46    0.90
   0   2  -7   19.31    0.68
   0   2   7   17.03    0.72
   0   2  -7   19.74    0.88
   0   2  -7   19.71    0.78
   0   2   7   19.15    0.88
   0   2   7   19.18    0.85
   0   2  -7   18.99    0.83
   0   2   7   18.98    0.75
   0   2  -7   18.75    0.83
   0   2   7   17.41    0.79
   0   2  -7   18.16    0.90
   0   2  -7   18.10    0.81
   0   2   7   19.09    0.72
   0   2   7   20.02    0.88
  -1  -2  -7   11.91    0.63
   1  -2   7   11.84    0.65
   1  -2   7   11.41    0.69
  -1  -2  -7   10.72    0.63
   1  -2   7   11.50    0.42
   1  -2   7   10.58    0.78
  -1  -2  -7   11.35    0.64
  -1  -2  -7   11.48    0.68
   1  -2   7   12.20    0.67
   1  -2   7   11.44    0.64
  -1  -2  -7   12.42    0.80
   1   2   7   11.52    0.64
  -1   2  -7   11.34    0.68
  -1   2  -7   11.93    0.72
   1   2   7   11.62    0.55
  -1   2  -7   10.96    0.64
   1   2   7   11.24    0.73
   1   2   7   11.51    0.57
   1   2   7   11.47    0.65
   1   2   7   12.61    0.82
  -1   2  -7   11.97    0.66
  -1   2  -7   12.05    0.74
   1   2   7   11.04    0.69
  -1   2  -7   12.28    0.77
   1   2   7   12.76    0.64
   2  -2   7   63.34    2.04
  -2  -2  -7   60.50    1.93
   2  -2   7   64.85    2.08
  -2  -2  -7   64.56    2.04
  -2  -2  -7   64.93    2.03
  -2  -2  -7   62.99    2.00
   2  -2   7   62.38    2.01
   2  -2   7   65.01    2.08
  -2  -2  -7   61.84    2.12
  -2   2  -7   64.38    2.00
   2   2   7   62.48    2.09
  -2   2  -7   62.00    2.03
   2   2   7   63.99    2.05
  -2   2  -7   62.44    2.03
   2   2   7   63.97    1.91
   2   2   7   63.05    1.92
   2   2   7   61.29    2.05
   2   2   7   63.13    1.87
   2   2   7   63.89    2.13
  -3  -2  -7   11.61    1.20
  -3  -2  -7   12.76    0.85
  -3  -2  -7   11.57    0.84
   3  -2   7   12.67    0.76
  -3  -2  -7   12.84    0.72
   3  -2   7   12.30    0.79
   3  -2   7   12.29    0.97
  -3  -2  -7   12.22    0.82
   3  -2   7   12.99    0.80
  -3   2  -7   11.45    0.80
   3   2   7   12.98    0.79
   3   2   7   12.55    0.79
   3   2   7   12.07    0.82
  -3   2  -7   12.62    0.72
   3   2   7   12.25    1.08
  -3   2  -7   11.08    0.88
   3   2   7   11.44    0.60
  -4  -2  -7    1.66    0.49
  -4  -2  -7    2.42    0.41
   4  -2   7    1.80    0.73
   4  -2   7    1.88    0.44
   4  -2   7    2.10    0.49
   4  -2   7    2.07    0.46
  -4  -2  -7    1.75    0.47
   4   2   7    0.65    0.78
   4   2   7    2.35    0.34
   4   2   7    2.03    0.56
  -4   2  -7    1.84    0.62
  -4   2  -7    1.76    0.37
  -4   2  -7    1.58    0.48
   4   2   7    2.54    0.51
   4   2   7    2.76    0.49
  -5  -2  -7    1.65    0.67
  -5  -2  -7    0.79    0.45
  -5  -2  -7    1.39    0.43
   5  -2   7    1.30    0.49
  -5  -2  -7    0.43    0.48
   5  -2   7    1.11    0.50
  -5   2  -7    0.66    0.50
  -5   2  -7    1.06    0.39
   5   2   7    0.67    0.55
   5   2   7    1.65    0.49
   5   2   7    1.30    0.37
  -6  -2  -7    2.37    0.67
   6  -2   7    0.68    0.54
  -6  -2  -7    1.51    0.65
   6  -2   7    1.70    0.63
  -6   2  -7    0.94    0.62
   6   2   7    1.54    0.77
   6   2   7    1.62    0.63
   7  -2   7    3.96    0.96
   7  -2   7    4.10    0.84
  -7  -2  -7    4.50    0.87
  -7   2  -7    2.21    0.90
  -7   2  -7    3.50    1.01
   7   2   7    4.54    0.97
   7   2   7    5.65    1.13
   8  -3  -7    1.89    0.89
  -8  -3   7    2.69    0.92
  -8  -3   7    1.84    0.92
   8  -3  -7   -1.19    0.62
  -8   3   7    0.52    0.84
   8   3  -7   -0.28    0.76
   8   3  -7    2.78    1.04
  -8   3   7   -1.71    0.89
  -7  -3   7    1.44    0.65
   7  -3  -7    0.16    0.47
   7  -3  -7    0.11    0.66
  -7  -3   7    0.49    0.59
  -7   3   7    1.11    0.62
   7   3  -7    1.19    0.66
   7   3  -7    0.03    0.54
   6  -3  -7    4.63    0.53
   6  -3  -7    3.76    0.50
  -6  -3   7    5.09    0.55
   6  -3  -7    4.68    0.62
  -6  -3   7    4.23    0.66
  -6  -3   7    4.16    0.57
   6   3  -7    4.18    0.44
   6   3  -7    5.39    0.70
  -6   3   7    4.43    0.68
   6   3  -7    4.60    0.61
  -6   3   7    3.87    0.70
   5  -3  -7    8.00    0.64
   5  -3  -7    8.92    0.61
  -5  -3   7    8.35    0.87
   5  -3  -7    8.61    0.78
   5  -3  -7    6.91    0.87
  -5  -3   7    8.42    0.79
  -5  -3   7    8.39    0.63
  -5  -3   7    9.06    0.71
   5   3  -7    9.41    0.89
   5   3  -7    8.73    0.70
  -5   3   7    9.52    0.80
  -5   3   7    7.47    0.86
   5   3  -7    8.30    1.05
  -5   3   7    8.01    0.99
  -5   3   7    7.43    0.90
   5   3  -7    8.21    0.63
  -4  -3   7    1.05    0.28
   4  -3  -7    0.87    0.30
   4  -3  -7    0.95    0.33
  -4  -3   7    0.96    0.56
  -4  -3   7    1.00    0.44
   4  -3  -7    0.41    0.40
  -4  -3   7    1.23    0.31
  -4  -3   7    1.65    0.41
   4  -3  -7    0.70    0.26
  -4  -3   7    1.39    0.43
   4   3  -7    1.06    0.49
  -4   3   7    1.12    0.45
   4   3  -7    1.77    0.65
  -4   3   7    1.11    0.56
   4   3  -7    1.15    0.31
  -4   3   7    0.91    0.45
   4   3  -7    1.48    0.43
   4   3  -7    1.41    0.37
  -4   3   7    0.83    0.39
   3  -3  -7   80.72    2.37
  -3  -3   7   75.97    2.29
  -3  -3   7   73.73    2.37
   3  -3  -7   78.55    2.42
  -3  -3   7   81.68    2.45
   3  -3  -7   73.18    2.43
  -3  -3   7   77.17    2.32
   3  -3  -7   80.14    2.34
  -3  -3   7   76.59    2.48
  -3  -3   7   76.46    2.48
  -3  -3   7   79.15    2.28
   3  -3  -7   80.01    2.35
   3   3  -7   76.12    2.48
  -3   3   7   70.35    2.34
  -3   3   7   76.61    2.40
   3   3  -7   76.80    2.37
   3   3  -7   80.00    2.45
   3   3  -7   75.51    2.31
  -3   3   7   76.40    2.47
   3   3  -7   80.35    2.35
  -3   3   7   81.65    2.34
  -2  -3   7   14.81    0.80
  -2  -3   7   14.72    0.78
   2  -3  -7   15.05    0.75
   2  -3  -7   15.44    0.72
  -2  -3   7   14.52    0.73
  -2  -3   7   15.02    0.65
   2  -3  -7   14.71    0.81
  -2  -3   7   15.26    0.80
   2  -3  -7   15.90    0.75
   2   3  -7   15.66    0.75
  -2   3   7   15.52    0.74
  -2   3   7   16.70    0.77
   2   3  -7   13.45    0.71
   2   3  -7   14.47    0.89
  -2   3   7   14.07    0.78
   2   3  -7   15.23    0.70
  -2   3   7   14.05    0.75
  -1  -3   7   28.36    1.10
   1  -3  -7   29.62    1.07
   1  -3  -7   29.43    1.06
  -1  -3   7   29.12    1.10
   1  -3  -7   28.71    0.85
  -1  -3   7   29.70    1.02
  -1  -3   7   29.01    1.16
  -1  -3   7   30.32    1.18
  -1  -3   7   29.94    1.03
   1  -3  -7   28.49    1.09
   1  -3  -7   28.00    1.10
  -1   3   7   28.08    1.02
  -1   3   7   29.56    1.02
   1   3  -7   28.86    1.10
  -1   3   7   26.33    1.02
  -1   3   7   29.18    0.86
  -1   3   7   28.57    1.14
   1   3  -7   30.01    1.15
   1   3  -7   27.99    1.07
   1   3  -7   27.42    1.15
   1   3  -7   29.04    1.04
  -1   3   7   30.32    1.10
  -1   3   7   27.71    1.08
   1   3  -7   29.99    0.99
   0  -3   7    9.33    0.62
   0  -3   7    8.18    0.50
   0  -3   7    8.35    0.46
   0  -3   7    8.51    0.70
   0  -3  -7    8.31    0.57
   0  -3  -7    9.13    0.59
   0  -3   7    8.96    0.60
   0  -3  -7    8.07    0.66
   0  -3  -7    8.25    0.55
   0  -3  -7    8.23    0.53
   0   3   7    7.85    0.60
   0   3  -7    7.89    0.67
   0   3  -7    8.07    0.54
   0   3   7    7.67    0.75
   0   3  -7    9.23    0.66
   0   3   7    8.06    0.55
   0   3  -7    8.17    0.43
   0   3   7    8.75    0.63
   0   3  -7    9.06    0.59
   0   3   7    7.42    0.59
   0   3  -7    8.84    0.59
   0   3  -7    7.58    0.62
   0   3   7    7.76    0.50
   1  -3   7   18.81    0.91
  -1  -3  -7   19.89    0.98
   1  -3   7   18.70    0.80
  -1  -3  -7   19.10    0.80
  -1  -3  -7   18.87    0.76
   1  -3   7   18.86    0.85
  -1  -3  -7   19.14    0.87
  -1  -3  -7   19.47    0.84
   1   3   7   18.67    0.90
   1   3   7   18.02    0.85
   1   3   7   18.50    0.88
   1   3   7   18.46    0.92
   1   3   7   18.76    0.77
  -1   3  -7   16.13    0.91
   1   3   7   17.95    0.71
  -1   3  -7   17.15    0.90
  -1   3  -7   18.68    0.85
  -1   3  -7   17.02    0.87
  -1   3  -7   19.51    0.86
  -1   3  -7   18.24    0.88
   2  -3   7   11.76    0.70
  -2  -3  -7   12.19    0.79
  -2  -3  -7   11.93    0.74
  -2  -3  -7   12.45    0.70
   2  -3   7   11.66    0.77
  -2  -3  -7   11.96    1.01
  -2  -3  -7   12.31    0.66
   2  -3   7   11.49    0.69
   2  -3   7   10.81    0.85
   2   3   7   10.58    0.87
  -2   3  -7   12.28    0.76
  -2   3  -7   12.75    0.79
   2   3   7   11.35    0.69
   2   3   7   12.05    0.62
   2   3   7   12.62    0.80
  -2   3  -7   11.35    0.68
   2   3   7   11.86    0.77
  -2   3  -7   10.61    0.99
  -3  -3  -7    0.31    0.91
  -3  -3  -7   -0.38    0.35
  -3  -3  -7   -0.05    0.34
  -3  -3  -7    0.32    0.29
   3  -3   7    0.25    0.32
  -3  -3  -7    0.59    0.41
   3  -3   7   -0.34    0.34
   3  -3   7    0.21    0.30
   3  -3   7    0.22    0.53
   3   3   7   -0.24    0.25
  -3   3  -7   -0.27    0.28
   3   3   7   -0.33    0.38
   3   3   7    0.81    0.66
  -3   3  -7   -0.03    0.45
   3   3   7    0.07    0.30
  -3   3  -7    0.80    0.35
  -4  -3  -7    1.20    0.39
  -4  -3  -7    0.80    0.50
   4  -3   7    2.40    0.67
   4  -3   7    1.74    0.41
  -4  -3  -7    1.38    0.39
   4  -3   7    1.90    0.50
  -4  -3  -7    1.76    0.50
   4  -3   7    1.30    0.41
  -4   3  -7    1.02    0.35
   4   3   7    1.70    0.51
  -4   3  -7    1.20    0.41
   4   3   7    1.58    0.43
   4   3   7    1.56    0.36
  -4   3  -7    1.85    0.65
   5  -3   7   38.64    1.65
  -5  -3  -7   38.69    1.46
  -5  -3  -7   36.32    1.79
  -5  -3  -7   37.27    1.65
   5  -3   7   36.99    1.55
  -5  -3  -7   34.55    1.45
   5   3   7   39.09    1.69
  -5   3  -7   39.08    1.67
   5   3   7   39.83    1.78
  -5   3  -7   39.01    1.43
   5   3   7   36.10    1.39
   6  -3   7    0.44    0.70
  -6  -3  -7   -0.47    0.58
   6  -3   7   -0.10    0.50
  -6  -3  -7    0.14    0.65
   6   3   7   -0.51    0.58
  -6   3  -7   -0.08    0.69
   7  -4  -7    0.54    0.46
  -7  -4   7    0.54    0.63
  -7  -4   7    2.73    0.81
  -7  -4   7    2.07    0.65
   7  -4  -7    2.85    0.64
  -7   4   7    1.47    0.69
   7   4  -7    1.29    0.74
   7   4  -7    0.77    0.61
  -7   4   7   -0.59    0.74
  -6  -4   7   -0.32    0.67
  -6  -4   7    0.46    0.46
  -6  -4   7    0.72    0.51
   6  -4  -7    0.28    0.37
   6  -4  -7    1.25    0.47
   6  -4  -7    0.26    0.34
  -6  -4   7    0.24    0.42
  -6   4   7   -0.13    0.57
  -6   4   7    0.21    0.43
   6   4  -7    0.21    0.56
   6   4  -7    0.13    0.37
   6   4  -7    0.45    0.45
   5  -4  -7   -0.28    0.25
   5  -4  -7   -0.25    0.47
   5  -4  -7    0.51    0.39
  -5  -4   7    0.08    0.34
   5  -4  -7    0.21    0.32
  -5  -4   7    0.11    0.47
  -5  -4   7   -0.43    0.46
  -5  -4   7   -0.01    0.33
   5   4  -7    0.20    0.49
  -5   4   7   -0.03    0.47
  -5   4   7    0.67    0.41
   5   4  -7    0.20    0.34
   5   4  -7    0.52    0.37
  -4  -4   7   31.21    1.77
  -4  -4   7   32.60    1.17
   4  -4  -7   32.15    1.28
  -4  -4   7   33.37    1.40
  -4  -4   7   31.96    1.36
  -4  -4   7   33.13    1.21
   4  -4  -7   33.28    1.22
  -4  -4   7   31.03    1.29
   4  -4  -7   34.16    1.36
   4  -4  -7   34.29    1.19
   4   4  -7   32.47    1.29
   4   4  -7   32.60    1.37
   4   4  -7   34.04    1.23
  -4   4   7   33.98    1.26
  -4   4   7   32.47    1.36
  -4   4   7   32.20    1.36
   4   4  -7   30.22    2.54
   4   4  -7   31.51    1.44
   3  -4  -7   -0.30    0.34
  -3  -4   7    0.30    0.31
  -3  -4   7   -0.01    0.26
  -3  -4   7    0.00    0.34
  -3  -4   7    0.41    0.36
   3  -4  -7    0.04    0.30
   3  -4  -7    0.12    0.28
  -3  -4   7   -0.36    0.53
   3  -4  -7    0.05    0.24
  -3  -4   7    0.01    0.21
   3  -4  -7   -0.42    0.46
   3   4  -7    0.30    0.27
  -3   4   7    0.07    0.33
   3   4  -7    0.06    0.26
  -3   4   7   -0.66    0.27
   3   4  -7   -0.03    0.45
  -3   4   7    0.10    0.33
   3   4  -7    0.13    0.34
   3   4  -7    0.41    0.70
  -2  -4   7    1.03    0.41
   2  -4  -7    1.15    0.34
  -2  -4   7    1.17    0.41
  -2  -4   7    1.15    0.36
  -2  -4   7    1.35    0.29
   2  -4  -7    0.77    0.40
   2  -4  -7    1.15    0.32
   2  -4  -7    1.06    0.28
   2  -4  -7    1.04    0.32
  -2  -4   7    0.89    0.33
  -2  -4   7    1.10    0.28
  -2  -4   7    1.17    0.47
  -2   4   7    0.88    0.32
   2   4  -7    0.79    0.59
  -2   4   7    1.12    0.34
   2   4  -7    1.28    0.27
  -2   4   7    0.84    0.29
   2   4  -7    1.15    0.42
   2   4  -7    1.32    0.32
   2   4  -7    1.04    0.37
  -1  -4   7   15.99    0.81
   1  -4  -7   16.23    0.75
  -1  -4   7   15.94    0.74
   1  -4  -7   16.29    0.57
  -1  -4   7   12.98    1.04
   1  -4  -7   16.59    0.79
   1  -4  -7   16.48    0.74
  -1  -4   7   16.54    0.85
   1   4  -7   14.83    0.86
  -1   4   7   15.80    0.59
  -1   4   7   16.64    0.80
   1   4  -7   15.99    0.70
  -1   4   7   15.52    0.74
  -1   4   7   16.21    0.83
   1   4  -7   14.94    0.87
   1   4  -7   17.38    0.81
   1   4  -7   15.92    0.67
   1   4  -7   15.69    0.87
   0  -4   7    4.83    0.53
   0  -4  -7    4.31    0.42
   0  -4   7    5.47    0.57
   0  -4  -7    5.02    0.47
   0  -4  -7    4.77    0.62
   0  -4   7    5.29    0.40
   0  -4   7    4.89    0.54
   0  -4   7    5.16    0.41
   0  -4  -7    5.66    0.57
   0  -4  -7    4.55    0.49
   0   4  -7    5.20    0.53
   0   4  -7    4.79    0.63
   0   4   7    4.82    0.48
   0   4   7    4.84    0.62
   0   4   7    4.44    0.59
   0   4  -7    5.61    0.56
   0   4  -7    5.32    0.38
   0   4  -7    4.91    0.53
   0   4   7    4.67    0.52
   0   4   7    4.66    0.38
  -1  -4  -7    4.51    0.48
   1  -4   7    4.95    0.45
   1  -4   7    5.42    0.54
  -1  -4  -7    4.61    0.57
  -1  -4  -7    5.09    0.40
   1  -4   7    5.95    0.60
   1  -4   7    5.19    0.59
  -1  -4  -7    5.51    0.56
  -1  -4  -7    4.95    0.54
   1   4   7    5.63    0.55
  -1   4  -7    4.60    0.59
   1   4   7    4.76    0.36
   1   4   7    5.30    0.62
   1   4   7    5.08    0.56
  -1   4  -7    5.27    0.55
   1   4   7    5.17    0.54
   1   4   7    4.52    0.47
  -1   4  -7    4.72    0.53
  -1   4  -7    5.13    0.54
   2  -4   7   27.17    1.09
   2  -4   7   26.63    1.20
   2  -4   7   26.71    1.21
  -2  -4  -7   27.58    1.16
  -2  -4  -7   26.79    1.12
  -2  -4  -7   28.42    1.13
   2  -4   7   26.91    1.09
  -2  -4  -7   25.12    1.38
  -2   4  -7   27.65    1.15
  -2   4  -7   26.82    1.09
  -2   4  -7   26.33    1.15
   2   4   7   28.22    1.35
   2   4   7   27.84    1.23
   2   4   7   26.67    1.05
  -2   4  -7   24.84    1.25
   2   4   7   27.76    1.20
  -3  -4  -7   15.21    0.91
  -3  -4  -7   14.19    0.94
   3  -4   7   13.25    0.85
  -3  -4  -7   12.76    1.43
  -3  -4  -7   14.78    0.83
   3  -4   7   13.68    0.84
  -3  -4  -7   14.03    0.76
   3  -4   7   14.24    0.81
  -3   4  -7   13.10    0.78
   3   4   7   14.64    0.77
   3   4   7   14.49    0.87
  -3   4  -7   15.03    0.88
   3   4   7   14.80    0.95
  -3   4  -7   13.45    0.98
   4  -4   7    2.63    0.52
   4  -4   7    2.93    0.56
   4  -4   7    2.45    0.46
  -4  -4  -7    2.00    0.44
  -4  -4  -7    2.31    0.53
   4  -4   7   -0.04    0.73
  -4  -4  -7    3.75    0.65
  -4  -4  -7    2.82    0.40
  -4   4  -7    2.97    0.54
   4   4   7    2.42    0.42
  -4   4  -7    1.65    0.42
   4   4   7    1.83    0.58
   4   4   7    3.09    0.55
   5  -4   7   11.53    0.89
  -5  -4  -7   12.06    1.27
  -5  -4  -7   12.44    0.90
  -5  -4  -7    9.72    1.04
  -5  -4  -7   11.43    0.91
   5  -4   7   12.16    1.04
   5   4   7   12.54    1.26
  -5   4  -7   11.66    0.82
   5   4   7   12.50    0.88
   5   4   7   11.70    1.05
  -5   4  -7   11.24    1.03
   6  -4   7   -1.05    0.49
  -6  -4  -7    0.70    0.62
   6  -4   7    0.83    0.66
  -6   4  -7   -1.32    0.67
   6   4   7    0.74    0.71
   6   4   7   -1.29    0.86
  -7  -5   7    0.04    0.81
  -7  -5   7    0.56    0.80
   7  -5  -7   -0.51    0.42
   7  -5  -7   -0.75    0.70
   7   5  -7   -0.99    0.53
   7   5  -7    1.37    0.92
  -7   5   7    0.02    0.65
  -7   5   7   -0.61    0.79
  -6  -5   7    1.64    0.53
   6  -5  -7    3.46    0.44
  -6  -5   7    4.18    0.72
   6  -5  -7    3.76    0.67
  -6  -5   7    3.35    0.62
  -6  -5   7    2.69    0.81
  -6   5   7    3.14    0.72
   6   5  -7    3.09    0.75
   6   5  -7    3.08    0.56
   6   5  -7    3.00    0.50
  -6   5   7    2.78    0.64
   5  -5  -7    2.64    0.63
   5  -5  -7    3.38    0.49
  -5  -5   7    2.72    0.48
  -5  -5   7    2.47    0.53
   5  -5  -7    2.77    0.43
  -5  -5   7    2.60    0.43
  -5  -5   7    1.67    0.62
   5   5  -7    2.24    0.49
   5   5  -7    2.38    0.58
   5   5  -7    2.39    0.43
  -5   5   7    2.56    0.58
  -4  -5   7   22.68    1.58
   4  -5  -7   21.11    1.16
  -4  -5   7   23.58    1.02
  -4  -5   7   23.37    0.90
  -4  -5   7   22.98    1.17
  -4  -5   7   24.19    1.20
   4  -5  -7   23.92    0.96
   4  -5  -7   23.96    1.12
   4  -5  -7   23.22    1.04
  -4  -5   7   25.05    1.07
  -4   5   7   23.96    1.16
  -4   5   7   23.73    1.17
   4   5  -7   23.66    1.21
   4   5  -7   24.30    1.10
   4   5  -7   24.48    1.05
   3  -5  -7    3.16    0.42
  -3  -5   7    1.93    0.44
   3  -5  -7    1.60    0.40
  -3  -5   7    3.37    0.51
  -3  -5   7    3.21    0.33
  -3  -5   7    3.26    0.43
   3  -5  -7    2.83    0.34
   3  -5  -7    3.65    0.46
  -3  -5   7    2.59    0.35
  -3  -5   7    3.30    0.66
  -3   5   7    3.21    0.47
  -3   5   7    2.94    0.41
   3   5  -7    2.79    0.39
  -3   5   7    2.76    0.46
   3   5  -7    2.25    0.48
   3   5  -7    3.23    0.44
  -2  -5   7    1.10    0.40
  -2  -5   7    0.97    0.44
  -2  -5   7    1.30    0.39
  -2  -5   7    1.19    0.23
   2  -5  -7    0.79    0.31
   2  -5  -7    1.00    0.35
  -2  -5   7    1.41    0.32
   2  -5  -7    1.22    0.25
  -2  -5   7    0.89    0.50
   2   5  -7    1.17    0.48
   2   5  -7    1.17    0.46
  -2   5   7    0.62    0.33
   2   5  -7    0.80    0.32
   2   5  -7    0.56    0.27
  -2   5   7    0.99    0.35
  -2   5   7    1.15    0.30
  -1  -5   7    6.25    0.63
  -1  -5   7    6.97    0.58
   1  -5  -7    7.18    0.53
  -1  -5   7    6.92    0.62
  -1  -5   7    6.01    0.41
   1  -5  -7    6.64    0.59
   1  -5  -7    6.04    0.41
   1  -5  -7    6.69    0.65
  -1  -5   7    6.46    0.75
  -1   5   7    7.04    0.62
   1   5  -7    5.45    0.68
   1   5  -7    6.63    0.47
  -1   5   7    6.04    0.46
  -1   5   7    6.68    0.52
  -1   5   7    5.48    0.61
   1   5  -7    6.46    0.59
   1   5  -7    5.98    0.69
   0  -5   7    4.16    0.58
   0  -5  -7    3.85    0.47
   0  -5  -7    3.19    0.46
   0  -5  -7    3.60    0.46
   0  -5   7    3.58    0.48
   0  -5   7    3.81    0.45
   0  -5  -7    4.24    0.41
   0  -5   7    4.34    0.52
   0   5  -7    2.92    0.46
   0   5   7    3.54    0.48
   0   5   7    4.31    0.44
   0   5  -7    4.30    0.53
   0   5  -7    4.24    0.50
   0   5   7    4.67    0.51
   0   5   7    4.01    0.30
   0   5   7    4.69    0.48
  -1  -5  -7    8.65    0.87
   1  -5   7    8.33    0.81
  -1  -5  -7    9.05    0.67
   1  -5   7    7.03    0.58
  -1  -5  -7    8.41    0.64
   1  -5   7    7.98    0.70
   1  -5   7    8.33    0.53
  -1  -5  -7    7.23    0.57
   1   5   7    8.43    0.75
   1   5   7    7.18    0.59
  -1   5  -7    7.81    0.64
  -1   5  -7    7.68    0.71
  -1   5  -7    7.92    0.60
  -1   5  -7    6.86    0.69
   1   5   7    8.34    0.88
   1   5   7    7.99    0.68
   2  -5   7   22.30    1.12
   2  -5   7   21.28    0.95
   2  -5   7   21.21    0.95
  -2  -5  -7   21.30    1.00
  -2  -5  -7   20.57    0.99
  -2  -5  -7   22.13    1.31
  -2  -5  -7   23.25    1.07
  -2   5  -7   21.41    1.04
  -2   5  -7   21.54    0.99
  -2   5  -7   21.20    1.05
   2   5   7   21.65    1.08
  -2   5  -7   19.87    1.18
   2   5   7   22.39    0.95
   2   5   7   21.54    1.13
  -3  -5  -7    0.91    0.87
  -3  -5  -7    0.79    0.45
  -3  -5  -7    0.70    0.39
   3  -5   7    0.14    0.41
   3  -5   7    1.06    0.34
  -3  -5  -7    0.47    0.40
   3  -5   7    1.24    0.53
  -3  -5  -7    0.80    0.24
  -3  -5  -7    0.70    0.26
   3  -5   7    0.93    0.40
  -3   5  -7    0.52    0.87
   3   5   7    0.37    0.45
  -3   5  -7    0.68    0.42
   3   5   7    0.75    0.38
  -3   5  -7    1.30    0.34
   3   5   7    1.55    0.37
  -4  -5  -7    5.61    0.60
   4  -5   7    5.80    0.79
  -4  -5  -7    4.81    0.65
   4  -5   7    4.08    0.92
  -4  -5  -7    6.00    0.70
  -4   5  -7    6.69    0.72
   4   5   7    5.22    0.71
   4   5   7    6.58    0.69
   4   5   7    4.70    0.85
  -4   5  -7    5.07    0.76
  -5  -5  -7    0.13    0.78
   5  -5   7    0.72    0.40
  -5  -5  -7    0.89    0.52
  -5  -5  -7    0.89    0.60
   5  -5   7   -0.07    0.54
   5   5   7    1.55    0.63
  -5   5  -7    0.39    0.46
   5   5   7   -0.10    0.73
  -5   5  -7    0.38    0.58
   5   5   7    0.44    0.51
  -6  -5  -7    3.62    0.82
   6  -5   7    4.30    0.87
   6  -5   7    3.28    0.61
   6   5   7    2.40    0.80
   6   5   7    3.79    0.72
  -6   5  -7    4.60    0.81
  -7  -6   7    5.01    0.90
   7  -6  -7    4.34    0.54
   7  -6  -7    4.93    0.93
  -7  -6   7    5.81    0.95
  -7   6   7    6.08    0.82
   7   6  -7    5.38    0.76
  -7   6   7    4.72    1.09
  -6  -6   7    0.21    0.58
   6  -6  -7    0.90    0.56
  -6  -6   7    1.12    0.80
  -6  -6   7    0.28    0.54
   6  -6  -7   -0.32    0.36
   6   6  -7    0.04    0.52
  -6   6   7    0.08    0.56
   6   6  -7    0.56    0.75
   6   6  -7   -0.12    0.48
  -6   6   7   -0.30    0.69
  -5  -6   7   13.78    1.17
   5  -6  -7   13.79    0.85
   5  -6  -7   13.99    0.74
   5  -6  -7   15.07    1.05
  -5  -6   7   14.75    1.08
  -5  -6   7   12.73    0.74
   5  -6  -7   13.76    0.87
  -5  -6   7   13.73    1.01
   5   6  -7   15.99    1.00
   5   6  -7   13.73    0.91
   5   6  -7   14.60    1.23
  -5   6   7   14.52    1.03
  -5   6   7   15.71    1.13
  -4  -6   7    5.57    0.75
   4  -6  -7    4.34    0.55
  -4  -6   7    3.74    0.50
   4  -6  -7    5.01    0.48
   4  -6  -7    4.50    0.51
  -4  -6   7    2.61    0.54
   4  -6  -7    4.71    0.47
  -4  -6   7    4.81    0.66
   4   6  -7    3.98    0.62
   4   6  -7    4.87    0.52
  -4   6   7    4.87    0.63
   4   6  -7    4.79    0.56
  -4   6   7    4.13    0.61
  -3  -6   7   11.69    0.87
  -3  -6   7   11.17    0.85
   3  -6  -7   12.20    0.80
  -3  -6   7   11.87    0.78
   3  -6  -7   11.92    0.62
  -3  -6   7   11.66    1.20
   3   6  -7   12.43    0.78
  -3   6   7   11.61    0.79
   3   6  -7   12.19    0.79
  -3   6   7   11.99    0.78
   3   6  -7   11.33    1.04
   2  -6  -7   20.15    0.96
  -2  -6   7   20.48    0.96
   2  -6  -7   19.50    0.91
   2  -6  -7   19.75    0.83
  -2  -6   7   20.33    1.20
  -2  -6   7   19.96    1.02
  -2  -6   7   20.07    1.05
  -2   6   7   20.66    1.02
  -2   6   7   18.51    0.89
   2   6  -7   19.65    0.95
  -2   6   7   18.91    0.71
   2   6  -7   19.52    1.11
  -2   6   7   19.62    0.83
   2   6  -7   19.74    0.90
  -1  -6   7   17.30    0.88
  -1  -6   7   16.84    0.90
   1  -6  -7   17.40    0.77
   1  -6  -7   16.43    0.87
  -1  -6   7   17.19    0.95
   1  -6  -7   16.12    0.90
  -1  -6   7   16.63    0.56
  -1   6   7   16.65    0.78
   1   6  -7   18.70    0.77
   1   6  -7   15.23    0.96
  -1   6   7   16.35    0.67
  -1   6   7   18.18    1.01
   1   6  -7   17.11    0.86
   0  -6  -7    0.17    0.24
   0  -6   7    0.25    0.27
   0  -6   7    0.14    0.31
   0  -6   7    0.45    0.34
   0  -6  -7    0.47    0.30
   0  -6   7   -0.01    0.43
   0  -6  -7    0.71    0.29
   0  -6   7    0.12    0.22
   0   6   7    0.23    0.32
   0   6   7   -0.03    0.40
   0   6  -7    0.32    0.22
   0   6   7    0.23    0.28
   0   6  -7    0.00    0.30
   0   6  -7    0.27    0.39
   0   6  -7    0.13    0.30
   0   6   7    0.11    0.43
  -1  -6  -7    9.68    0.70
   1  -6   7   10.27    0.58
  -1  -6  -7   10.08    0.71
  -1  -6  -7   10.83    0.68
  -1  -6  -7    8.85    0.97
   1  -6   7   10.96    0.80
   1  -6   7    9.18    0.65
   1   6   7    8.61    0.97
  -1   6  -7   10.48    0.75
  -1   6  -7    9.86    0.78
   1   6   7    9.94    0.86
  -1   6  -7    9.23    0.80
   1   6   7   10.42    0.78
   1   6   7   10.46    0.70
  -1   6  -7   10.93    0.75
  -1   6  -7   10.20    0.40
   2  -6   7    3.86    0.51
  -2  -6  -7    4.05    0.52
  -2  -6  -7    3.83    0.49
  -2  -6  -7    5.05    0.68
   2  -6   7    3.79    0.56
   2  -6   7    3.93    0.58
   2  -6   7    3.17    0.40
  -2  -6  -7    3.83    0.74
  -2   6  -7    2.76    0.42
   2   6   7    3.50    0.60
  -2   6  -7    4.07    0.56
  -2   6  -7    2.93    0.70
   2   6   7    3.89    0.55
   2   6   7    3.63    0.47
   3  -6   7    0.94    0.41
  -3  -6  -7    1.10    0.46
  -3  -6  -7    0.99    0.46
  -3  -6  -7    1.01    0.41
   3  -6   7    0.95    0.59
   3  -6   7    1.23    0.46
   3  -6   7    0.92    0.33
  -3   6  -7    1.30    0.40
   3   6   7    1.18    0.47
   3   6   7    0.88    0.64
   3   6   7    1.04    0.40
  -3   6  -7    1.21    0.46
  -4  -6  -7   14.77    1.06
  -4  -6  -7   13.46    0.99
   4  -6   7   13.77    0.84
   4  -6   7   13.61    1.02
   4  -6   7   14.80    1.08
  -4  -6  -7   13.40    1.20
  -4   6  -7   12.69    0.95
   4   6   7   14.32    0.94
   4   6   7   16.02    1.06
  -4   6  -7   12.65    1.02
   4   6   7   13.54    1.23
  -5  -6  -7    1.96    0.59
   5  -6   7    2.35    0.71
   5  -6   7    1.00    0.42
  -5  -6  -7   -0.34    0.84
  -5  -6  -7    2.38    0.68
   5   6   7    0.58    0.67
   5   6   7    2.63    0.68
  -5   6  -7    0.49    0.54
  -5   6  -7    0.41    0.65
   6  -6   7   12.72    1.07
  -6  -6  -7   13.43    1.43
   6  -6   7   13.72    1.48
   6   6   7   11.12    1.35
  -6   6  -7   11.60    1.45
   6   6   7   11.00    1.48
  -6  -7   7    2.27    0.75
   6  -7  -7    2.30    0.73
  -6  -7   7    2.48    0.73
   6  -7  -7    1.76    0.38
  -6  -7   7    2.55    0.95
   6   7  -7    3.11    0.66
  -6   7   7    2.96    0.84
  -6   7   7    0.79    0.74
   6   7  -7    2.40    0.62
  -5  -7   7    0.47    0.51
   5  -7  -7    0.58    0.39
  -5  -7   7   -0.32    0.63
   5  -7  -7    1.04    0.47
  -5  -7   7    1.83    0.63
   5  -7  -7    0.77    0.29
   5   7  -7    0.71    0.48
  -5   7   7    0.64    0.53
   5   7  -7    1.26    0.53
  -5   7   7    1.87    0.65
   5   7  -7    1.34    0.73
  -4  -7   7    0.06    0.49
  -4  -7   7    1.70    0.54
   4  -7  -7    1.15    0.44
  -4  -7   7    1.47    0.48
   4  -7  -7    1.21    0.37
   4  -7  -7    1.50    0.37
  -4   7   7    1.80    0.52
   4   7  -7    1.17    0.43
   4   7  -7    1.19    0.44
   4   7  -7    1.10    0.61
   3  -7  -7    2.50    0.32
  -3  -7   7    2.29    0.47
  -3  -7   7    2.51    0.55
   3  -7  -7    2.32    0.44
   3  -7  -7    1.21    0.34
  -3  -7   7    1.62    0.45
  -3   7   7    2.27    0.46
   3   7  -7    3.01    0.46
  -3   7   7    2.56    0.34
  -3   7   7    1.64    0.50
  -3   7   7    2.36    0.29
  -3   7   7    2.75    0.76
   3   7  -7    2.32    0.44
   3   7  -7    2.39    0.66
   2  -7  -7    0.12    0.22
  -2  -7   7    0.36    0.41
  -2  -7   7    0.69    0.37
   2  -7  -7    0.51    0.55
  -2  -7   7   -0.11    0.36
   2  -7  -7    0.00    0.33
   2   7  -7    0.29    0.31
   2   7  -7   -0.11    0.27
  -2   7   7    0.00    0.44
  -2   7   7   -0.13    0.37
   2   7  -7    0.41    0.58
  -2   7   7    0.01    0.38
  -2   7   7    0.27    0.28
  -2   7   7    0.77    0.42
   1  -7  -7    1.03    0.28
   1  -7  -7    0.32    0.37
   1  -7  -7    1.02    0.27
  -1  -7   7    1.21    0.56
  -1  -7   7    0.77    0.35
   1  -7  -7    1.00    0.44
  -1  -7   7    1.31    0.50
  -1  -7   7    0.99    0.43
  -1   7   7    1.51    0.45
   1   7  -7    0.49    0.51
  -1   7   7    1.50    0.47
   1   7  -7    1.17    0.34
   1   7  -7    1.45    0.31
  -1   7   7    1.19    0.24
  -1   7   7    1.18    0.40
  -1   7   7    1.24    0.22
   0  -7  -7   12.55    0.83
   0  -7  -7   13.67    0.76
   0  -7  -7   12.73    0.72
   0  -7  -7   14.26    0.96
   0  -7   7   12.19    0.78
   0  -7   7   12.88    0.51
   0  -7   7   13.06    0.78
   0  -7   7   13.16    0.90
   0   7  -7   12.92    0.79
   0   7   7   14.21    0.89
   0   7  -7   14.37    0.63
   0   7  -7   13.07    0.99
   0   7  -7   12.89    0.56
   0   7   7   14.50    0.81
   0   7   7   12.37    1.14
   0   7   7   13.67    0.91
  -1  -7  -7    9.05    0.84
  -1  -7  -7    8.34    0.69
   1  -7   7    9.46    0.54
   1  -7   7    9.14    0.90
  -1  -7  -7    8.70    0.69
   1  -7   7    8.72    0.64
   1  -7   7    8.91    0.82
  -1  -7  -7    7.67    0.73
  -1   7  -7    8.71    0.72
  -1   7  -7    9.02    0.45
   1   7   7    8.49    0.68
   1   7   7    9.82    0.94
   1   7   7    9.31    0.78
  -1   7  -7    8.71    0.76
   2  -7   7   -0.21    0.50
  -2  -7  -7   -0.32    0.34
  -2  -7  -7    0.23    0.38
   2  -7   7   -0.13    0.27
   2  -7   7    0.27    0.32
  -2  -7  -7   -0.03    0.35
   2  -7   7   -0.35    0.38
  -2   7  -7    0.26    0.38
   2   7   7   -0.51    0.39
   2   7   7   -0.10    0.60
   2   7   7   -0.18    0.37
  -2   7  -7   -0.68    0.34
  -3  -7  -7    0.34    0.47
  -3  -7  -7    0.56    0.54
   3  -7   7    0.63    0.64
  -3  -7  -7   -0.20    0.41
   3  -7   7    0.09    0.45
   3  -7   7    0.51    0.43
   3  -7   7   -0.37    0.29
  -3   7  -7    0.17    0.46
   3   7   7   -0.40    0.43
   3   7   7    0.43    0.40
   3   7   7   -0.88    0.80
  -3   7  -7   -0.05    0.43
   4  -7   7    1.16    0.60
  -4  -7  -7    0.83    0.55
  -4  -7  -7    1.57    0.67
   4  -7   7    0.58    0.55
   4  -7   7    1.05    0.36
   4   7   7    1.27    0.54
  -4   7  -7    1.24    0.53
  -4   7  -7    1.07    0.47
   4   7   7    0.35    0.61
  -5  -7  -7    2.71    1.46
  -5  -7  -7    2.04    0.67
   5  -7   7    1.15    0.43
   5  -7   7    1.71    0.70
  -5  -7  -7    1.56    0.72
   5   7   7    1.66    0.66
   5   7   7    2.40    0.79
  -5   7  -7    1.49    0.69
   6  -8  -7   11.37    0.65
  -6  -8   7   11.16    1.37
  -6  -8   7   15.31    1.50
   6   8  -7   11.57    1.20
  -6   8   7    9.65    1.29
  -6   8   7   12.18    1.61
   5  -8  -7    1.65    0.30
  -5  -8   7    0.18    0.60
  -5  -8   7   -0.23    0.67
  -5  -8   7    1.40    0.69
   5  -8  -7    0.98    0.37
   5   8  -7    1.93    0.58
  -5   8   7    1.98    0.62
  -5   8   7    1.76    1.13
   4  -8  -7    1.66    0.30
   4  -8  -7    2.11    0.39
  -4  -8   7    2.06    0.66
   4  -8  -7    2.16    0.50
  -4  -8   7    0.68    0.55
  -4  -8   7    1.53    0.57
   4   8  -7    2.01    0.52
   4   8  -7    2.09    0.53
  -4   8   7    1.92    0.59
  -4   8   7    2.12    0.58
  -3  -8   7   14.57    1.01
  -3  -8   7   14.76    1.01
  -3  -8   7   15.02    1.07
   3  -8  -7   16.00    0.98
   3   8  -7   14.37    0.92
   3   8  -7   14.85    1.41
  -3   8   7   14.72    0.77
   3   8  -7   14.31    0.93
  -3   8   7   13.51    0.87
  -3   8   7   13.67    1.03
   2  -8  -7    6.05    0.62
  -2  -8   7    7.40    0.80
   2  -8  -7    6.37    0.75
  -2  -8   7    7.31    0.79
   2  -8  -7    6.54    0.53
  -2  -8   7    5.07    0.61
   2   8  -7    6.95    0.71
  -2   8   7    6.92    0.54
  -2   8   7    6.44    0.77
   2   8  -7    6.68    0.71
   2   8  -7    7.22    0.82
  -1  -8   7   13.57    0.87
  -1  -8   7   11.91    1.12
   1  -8  -7   13.26    0.72
   1  -8  -7   13.38    0.71
   1  -8  -7   13.96    0.89
  -1  -8   7   15.19    0.96
   1  -8  -7   13.31    0.93
   1   8  -7   10.53    1.11
  -1   8   7   13.13    1.13
  -1   8   7   12.07    0.94
  -1   8   7   15.59    0.93
   1   8  -7   13.17    0.83
  -1   8   7   14.03    0.83
   1   8  -7   14.24    0.78
   0  -8  -7   -0.54    0.34
   0  -8   7    0.04    0.48
   0  -8   7   -0.24    0.33
   0  -8  -7    0.26    0.33
   0  -8  -7    0.21    0.53
   0  -8   7   -0.21    0.39
   0  -8  -7   -0.29    0.28
   0   8  -7    0.17    0.60
   0   8   7   -0.84    0.82
   0   8   7   -0.12    0.35
   0   8  -7    0.23    0.32
   0   8   7    0.35    0.42
   0   8  -7    0.43    0.27
  -1  -8  -7    7.83    0.71
  -1  -8  -7    6.77    0.74
  -1  -8  -7    8.29    0.74
   1  -8   7    8.07    0.65
   1  -8   7    6.76    0.81
   1  -8   7    7.91    0.94
   1  -8   7    8.90    0.85
   1   8   7    7.65    0.73
   1   8   7    8.01    0.80
  -1   8  -7    6.44    0.70
  -1   8  -7    7.14    0.51
   2  -8   7    2.31    0.61
  -2  -8  -7    1.54    0.47
   2  -8   7    0.87    0.33
   2  -8   7    1.94    0.60
  -2  -8  -7    1.75    0.47
   2  -8   7    1.51    0.37
  -2   8  -7    1.44    0.47
   2   8   7    0.93    0.50
   2   8   7    1.81    0.47
  -2   8  -7    1.37    0.54
   3  -8   7    6.45    0.79
  -3  -8  -7    6.98    1.17
  -3  -8  -7    7.28    1.14
  -3  -8  -7    7.41    0.88
   3  -8   7    6.36    0.88
   3  -8   7    4.36    0.49
   3   8   7    5.82    0.68
  -3   8  -7    6.95    0.93
   3   8   7    6.54    0.94
   4  -8   7    1.68    0.41
   4  -8   7    1.85    0.65
   4  -8   7    1.80    0.63
  -4  -8  -7    2.31    0.66
  -4  -8  -7    1.35    0.73
  -4  -8  -7    0.99    0.60
  -4   8  -7    0.70    0.54
   4   8   7    0.69    0.58
  -4   8  -7    1.05    0.70
   4   8   7    2.74    0.75
   5  -8   7    4.22    0.54
   5  -8   7    3.73    0.93
  -5  -8  -7    3.96    1.06
  -5  -8  -7    5.41    0.87
  -5  -8  -7    6.08    0.88
   5   8   7    5.36    0.95
  -5   8  -7    4.99    0.96
  -5   8  -7    3.71    0.77
   5   8   7    3.40    0.80
  -5  -9   7   -0.55    0.78
  -5  -9   7   -0.13    0.69
  -5  -9   7    1.14    0.83
   5  -9  -7    0.31    0.26
  -5   9   7   -0.62    0.70
  -5   9   7    1.31    0.81
   5   9  -7   -0.71    0.63
   5   9  -7    0.60    0.62
   4  -9  -7   -0.03    0.25
  -4  -9   7   -0.89    0.54
  -4  -9   7   -0.19    0.55
   4  -9  -7   -0.11    0.32
  -4  -9   7   -0.11    0.63
   4  -9  -7    0.33    0.53
  -4   9   7   -0.63    0.59
  -4   9   7   -0.39    0.57
   4   9  -7    0.26    0.51
   4   9  -7    0.40    0.51
  -3  -9   7    6.95    1.04
   3  -9  -7    7.24    0.84
  -3  -9   7    7.59    1.01
   3  -9  -7    7.70    0.54
   3  -9  -7    8.43    0.70
  -3  -9   7    7.93    0.93
   3   9  -7    7.35    0.88
  -3   9   7    9.89    0.94
  -3   9   7    6.57    0.78
   3   9  -7    7.86    0.85
   2  -9  -7    3.83    0.46
   2  -9  -7    2.64    0.56
   2  -9  -7    2.99    0.38
  -2  -9   7    3.24    0.67
  -2  -9   7    3.46    0.61
   2   9  -7    2.73    0.51
  -2   9   7    3.08    0.64
  -2   9   7    4.14    0.57
   2   9  -7    3.58    0.56
  -1  -9   7    0.63    0.49
   1  -9  -7    0.86    0.41
   1  -9  -7    1.14    0.40
  -1  -9   7    0.66    0.46
   1  -9  -7    1.16    0.51
   1  -9  -7    0.76    0.32
   1   9  -7    1.20    0.42
  -1   9   7    0.91    0.40
  -1   9   7    1.23    0.52
   1   9  -7    1.04    0.40
   0  -9  -7    3.07    0.50
   0  -9  -7    3.59    0.45
   0  -9  -7    4.43    0.56
   0  -9   7    2.60    0.64
   0  -9   7    4.01    0.91
   0   9  -7    3.67    0.45
   0   9   7    3.50    0.65
   0   9  -7    3.35    0.53
   0   9   7    2.77    0.50
  -1  -9  -7    0.96    0.48
  -1  -9  -7    1.02    0.38
   1  -9   7    0.41    0.48
  -1  -9  -7    1.81    0.47
   1  -9   7    0.80    0.32
  -1   9  -7    0.71    0.39
   1   9   7    0.61    0.44
  -1   9  -7    1.52    0.33
   1   9   7    1.27    0.54
   2  -9   7    2.86    0.42
  -2  -9  -7    5.78    0.68
   2  -9   7    3.83    0.67
  -2  -9  -7    3.75    0.60
  -2  -9  -7    5.07    0.65
   2   9   7    4.18    0.58
  -2   9  -7    3.43    0.61
  -2   9  -7    4.15    0.61
   3  -9   7    0.64    0.34
  -3  -9  -7    1.22    0.55
   3  -9   7    0.79    0.61
  -3  -9  -7    0.58    0.62
   3  -9   7    0.98    0.64
  -3  -9  -7    0.69    0.62
   3   9   7    0.88    0.62
  -3   9  -7    0.11    0.49
  -3   9  -7    0.13    0.65
   3   9   7   -0.04    0.50
   4  -9   7    2.38    0.84
   4  -9   7    0.95    0.39
  -4  -9  -7    0.36    0.65
  -4  -9  -7    2.56    0.86
  -4  -9  -7    1.62    0.71
   4   9   7    1.59    0.79
  -4   9  -7   -0.29    0.77
  -4   9  -7    2.72    0.72
   4   9   7    1.43    0.66
  -5 -10   7    0.75    0.90
  -5 -10   7   -0.23    0.85
  -5 -10   7    2.89    0.97
   5  10  -7    1.01    0.74
  -5  10   7    1.07    0.89
   5  10  -7    1.32    0.78
  -4 -10   7    0.04    0.74
  -4 -10   7   -0.01    0.64
  -4 -10   7   -0.40    0.79
  -4  10   7    0.54    0.68
   4  10  -7    0.89    0.66
   4  10  -7    1.07    0.57
   3 -10  -7   -0.31    0.53
  -3 -10   7   -0.09    0.62
   3 -10  -7   -0.15    0.26
  -3 -10   7    0.32    0.53
   3 -10  -7    0.74    0.40
  -3 -10   7    0.31    0.58
  -3  10   7    0.59    0.59
   3  10  -7   -0.61    0.52
  -3  10   7    0.13    0.52
   3  10  -7    0.17    0.58
  -2 -10   7    0.46    0.53
   2 -10  -7    0.24    0.29
   2 -10  -7   -0.11    0.47
   2 -10  -7    0.27    0.42
  -2 -10   7    0.24    0.59
  -2 -10   7    0.21    0.53
   2  10  -7    0.55    0.50
   2  10  -7   -0.20    0.47
  -2  10   7    0.28    0.44
  -2  10   7    0.86    0.54
   1 -10  -7   13.97    0.77
  -1 -10   7   12.49    0.96
   1 -10  -7   12.26    0.91
   1 -10  -7   14.31    1.02
  -1 -10   7   14.21    1.16
  -1  10   7   10.14    1.23
  -1  10   7   13.66    0.98
   1  10  -7   12.73    1.00
   1  10  -7   13.95    0.94
   0 -10   7    0.65    0.39
   0 -10  -7    0.64    0.35
   0 -10   7    0.84    0.60
   0 -10  -7    0.86    0.51
   0 -10  -7    1.11    0.50
   0  10  -7    0.03    0.47
   0  10  -7    0.87    0.44
   0  10   7    0.39    0.41
  -1 -10  -7    6.11    0.76
  -1 -10  -7    5.69    0.70
   1 -10   7    5.15    0.80
  -1 -10  -7    5.63    0.66
   1 -10   7    6.21    0.64
  -1  10  -7    4.57    0.61
   1  10   7    4.20    0.95
   1  10   7    4.71    0.63
  -2 -10  -7    0.92    0.61
   2 -10   7    0.22    0.34
  -2 -10  -7    1.44    0.60
  -2 -10  -7    0.65    0.56
   2 -10   7    0.47    0.61
   2  10   7    0.25    0.58
  -2  10  -7    1.00    0.53
   2  10   7    2.08    0.67
  -2  10  -7    1.27    0.65
   3 -10   7    7.34    0.94
  -3 -10  -7    8.79    1.12
  -3 -10  -7    6.01    0.83
  -3 -10  -7    8.13    0.91
   3 -10   7    4.67    0.53
  -3  10  -7    5.22    0.81
   3  10   7    5.76    0.84
  -3  10  -7    6.84    0.91
   3  10   7    7.01    0.89
  -4 -10  -7    2.07    0.91
  -4 -10  -7    3.98    0.92
   4 -10   7    1.97    0.47
  -4 -10  -7    2.36    0.83
   4  10   7    2.85    0.95
  -4  10  -7    2.46    0.84
   4  10   7    2.18    0.76
  -4  10  -7    2.94    0.95
  -4 -11   7    1.75    0.96
  -4 -11   7   -0.45    0.88
  -4 -11   7    0.43    0.74
   4  11  -7    1.59    0.77
  -4  11   7    1.44    0.73
  -4  11   7    2.74    0.90
   4  11  -7   -0.04    0.71
  -3 -11   7    0.00    0.79
  -3 -11   7    1.32    0.63
   3 -11  -7    0.28    0.33
   3 -11  -7    0.17    0.27
  -3 -11   7    2.52    0.80
  -3  11   7    0.99    0.61
   3  11  -7   -0.17    0.65
  -3  11   7   -0.73    0.73
   3  11  -7   -0.78    0.59
  -2 -11   7    1.64    0.60
  -2 -11   7   -0.45    0.71
  -2 -11   7    1.87    0.70
   2 -11  -7    1.10    0.60
   2  11  -7    1.58    0.61
   2  11  -7   -0.23    0.57
  -2  11   7    0.17    0.57
  -2  11   7    2.16    0.73
   1 -11  -7    0.61    0.36
  -1 -11   7    0.55    0.69
   1 -11  -7    1.56    0.60
  -1 -11   7    1.69    0.52
   1 -11  -7    1.85    0.58
  -1  11   7    0.89    0.54
   1  11  -7    2.37    0.60
  -1  11   7    0.75    0.66
   1  11  -7    0.71    0.51
   0 -11   7    2.03    0.48
   0 -11  -7    0.91    0.57
   0 -11   7    2.04    0.76
   0 -11  -7    1.57    0.43
   0 -11  -7    2.88    0.65
   0  11  -7    1.45    0.55
   0  11   7    0.88    0.51
   0  11   7    1.40    0.69
   1 -11   7    3.33    0.86
  -1 -11  -7    3.28    0.73
   1 -11   7    2.55    0.45
  -1 -11  -7    2.22    0.55
  -1 -11  -7    2.96    0.70
   1  11   7    3.14    0.68
   1  11   7    1.06    0.73
  -1  11  -7    3.22    0.65
   2 -11   7    3.75    0.46
  -2 -11  -7    5.19    0.78
   2 -11   7    5.93    0.94
  -2 -11  -7    3.88    0.70
  -2 -11  -7    4.15    0.86
   2  11   7    5.12    0.88
  -2  11  -7    3.24    0.73
   2  11   7    3.81    0.73
  -2  11  -7    5.69    0.81
   3 -11   7   -0.14    0.44
  -3 -11  -7   -0.26    0.71
   3 -11   7   -0.32    0.86
  -3 -11  -7   -0.50    0.87
   3  11   7   -0.10    0.72
   3  11   7    0.84    0.88
  -3  11  -7    1.15    0.83
  -3  11  -7   -0.97    0.74
  -2 -12   7    4.37    0.78
  -2 -12   7    5.19    1.04
   2  12  -7    4.18    0.85
   2  12  -7    4.72    0.84
  -2  12   7    3.99    0.96
  -2  12   7    4.46    0.87
  -1 -12   7    0.74    0.58
   1 -12  -7    0.42    0.41
  -1 -12   7    0.53    0.86
   1  12  -7    0.66    0.64
  -1  12   7    1.32    0.88
   1  12  -7    2.21    1.06
  -1  12   7    2.90    0.70
   0 -12  -7   10.05    0.90
   0 -12  -7   10.90    1.34
   0 -12   7   11.98    0.94
   0 -12   7   10.43    1.21
   0  12   7   12.63    1.42
   0  12  -7    9.70    0.96
   0  12   7   12.00    1.16
   1 -12   7    2.86    0.53
   1 -12   7    7.57    1.10
  -1 -12  -7    5.22    0.94
  -1 -12  -7    2.97    0.62
   1  12   7    4.87    0.98
  -1  12  -7    5.15    0.80
   1  12   7    4.40    0.74
   8   0  -8    0.41    0.78
  -8   0   8   -1.88    0.85
  -7   0   8    3.31    0.70
   7   0  -8    3.97    0.63
   7   0  -8    1.91    0.66
  -7   0   8    1.14    0.71
  -6   0   8    4.54    0.70
   6   0  -8    6.80    0.78
  -6   0   8    4.99    0.69
   6   0  -8    5.11    0.58
   6   0  -8    3.64    0.90
   5   0  -8    0.75    0.34
  -5   0   8    0.28    0.45
  -5   0   8    0.58    0.55
   5   0  -8    0.89    0.32
  -5   0   8    0.26    0.57
   5   0  -8    0.48    0.85
  -5   0   8   -0.08    0.38
   5   0  -8    0.49    0.43
   4   0  -8    0.51    0.30
  -4   0   8    1.19    0.43
  -4   0   8    0.97    0.36
   4   0  -8    0.95    0.31
   4   0  -8    1.74    0.58
  -4   0   8    0.80    0.47
   4   0  -8    0.75    0.38
   3   0  -8    7.89    0.59
  -3   0   8    7.99    0.71
   3   0  -8    7.89    0.67
  -3   0   8    8.00    0.71
   3   0  -8    8.17    0.59
   3   0  -8    9.98    1.14
  -3   0   8    6.92    0.62
   2   0  -8  273.77    7.27
  -2   0   8  245.97    7.21
  -2   0   8  269.20    7.31
   2   0  -8  272.46    7.24
   2   0  -8  256.18    7.27
  -2   0   8  269.10    7.28
   2   0  -8  273.92    7.30
  -2   0   8  271.38    7.31
   2   0  -8  268.50    6.98
   2   0  -8  270.75    6.98
  -2   0   8  256.44    7.31
  -1   0   8    0.18    0.36
  -1   0   8    0.36    0.31
   1   0  -8    0.23    0.37
   1   0  -8    0.74    0.30
   1   0  -8    0.29    0.43
   1   0  -8    0.35    0.23
  -1   0   8    0.25    0.29
  -1   0   8    0.10    0.27
   1   0  -8    0.86    0.42
   1   0  -8    0.51    0.21
   1   0  -8    0.58    0.23
  -1   0   8    0.25    0.33
   1   0  -8    0.84    0.28
   0   0   8    0.19    0.27
   0   0  -8    0.07    0.34
   0   0  -8    0.40    0.28
   0   0   8   -0.10    0.41
   0   0  -8    0.11    0.23
   0   0   8    0.02    0.28
   0   0  -8    0.12    0.20
   0   0  -8    0.10    0.67
   0   0  -8    0.10    0.43
   0   0   8    0.01    0.25
   0   0  -8    0.11    0.20
   0   0   8   -0.26    0.34
  -1   0  -8   26.39    1.22
   1   0   8   25.22    1.21
  -1   0  -8   26.38    1.02
   1   0   8   25.32    1.10
   1   0   8   26.18    0.91
   1   0   8   26.85    1.09
  -1   0  -8   26.79    1.09
   1   0   8   26.91    1.06
  -1   0  -8   25.60    1.25
  -1   0  -8   26.03    1.05
   2   0   8   20.09    1.19
   2   0   8   18.66    0.81
  -2   0  -8   17.69    1.15
   2   0   8   19.36    0.97
  -2   0  -8   19.90    0.95
  -2   0  -8   19.17    0.90
   2   0   8   18.24    0.88
   2   0   8   19.61    0.68
   2   0   8   18.81    0.95
  -3   0  -8    2.19    0.46
   3   0   8    3.00    0.35
  -3   0  -8    2.68    0.43
   3   0   8    2.76    0.44
   3   0   8    2.56    0.51
   3   0   8    2.64    0.48
  -3   0  -8    2.15    0.57
   3   0   8    2.39    0.31
   3   0   8    2.52    0.72
  -4   0  -8    8.47    0.88
   4   0   8    8.66    0.89
   4   0   8    9.09    0.86
  -4   0  -8    6.79    0.81
  -4   0  -8    9.69    0.73
  -5   0  -8    2.11    0.60
   5   0   8    2.16    0.61
  -5   0  -8    2.90    0.51
   5   0   8    1.64    0.53
   6   0   8    9.78    1.00
  -6   0  -8    9.41    1.25
   6   0   8   12.98    1.20
  -6   0  -8    9.59    1.07
  -7  -1   8    0.80    0.60
   7  -1  -8   -0.12    0.57
  -7  -1   8    0.39    0.63
   7   1  -8   -0.95    0.63
  -7   1   8    0.39    0.63
   7   1  -8   -0.02    0.51
  -7   1   8   -0.29    0.61
  -6  -1   8   -0.19    0.48
   6  -1  -8   -0.14    0.41
  -6  -1   8    0.70    0.48
   6  -1  -8    0.23    0.33
   6  -1  -8    0.56    0.44
   6   1  -8    0.00    0.38
  -6   1   8    0.35    0.51
   6   1  -8    0.12    0.47
  -6   1   8    0.56    0.54
   6   1  -8    0.30    0.34
  -5  -1   8    1.45    0.57
  -5  -1   8    2.44    0.32
   5  -1  -8    2.04    0.68
   5  -1  -8    2.04    0.42
  -5  -1   8    1.85    0.45
   5  -1  -8    2.50    0.38
   5  -1  -8    2.46    0.43
  -5  -1   8    1.79    0.69
  -5  -1   8    2.75    0.53
   5   1  -8    1.63    0.43
  -5   1   8    2.20    0.56
  -5   1   8    1.36    0.59
   5   1  -8    2.88    0.54
  -5   1   8    2.10    0.50
  -5   1   8    1.47    0.55
   5   1  -8    2.11    0.38
   4  -1  -8   18.99    0.86
  -4  -1   8   18.16    1.04
  -4  -1   8   18.90    0.94
   4  -1  -8   16.47    1.12
   4  -1  -8   19.23    0.94
   4  -1  -8   17.49    0.91
  -4   1   8   19.92    1.04
   4   1  -8   18.44    0.96
   4   1  -8   17.90    0.68
   4   1  -8   18.14    1.23
  -4   1   8   18.19    0.95
   4   1  -8   18.51    0.86
   4   1  -8   19.77    1.00
  -4   1   8   18.43    0.99
   3  -1  -8    5.53    0.62
   3  -1  -8    5.50    0.62
  -3  -1   8    4.82    0.63
   3  -1  -8    4.74    0.52
  -3  -1   8    3.45    0.52
  -3  -1   8    5.56    0.72
   3  -1  -8    4.95    0.51
  -3  -1   8    4.57    0.52
  -3   1   8    4.08    0.48
   3   1  -8    5.03    0.52
   3   1  -8    5.67    0.62
   3   1  -8    4.75    0.53
   3   1  -8    4.90    0.39
  -3   1   8    3.85    0.55
   3   1  -8    5.31    0.62
  -3   1   8    5.19    0.62
   2  -1  -8   19.12    0.85
  -2  -1   8   18.45    1.01
  -2  -1   8   17.08    0.90
   2  -1  -8   19.08    0.87
  -2  -1   8   18.67    0.86
  -2  -1   8   18.65    0.93
   2  -1  -8   19.85    0.99
   2  -1  -8   17.47    0.99
  -2  -1   8   18.39    0.92
   2  -1  -8   18.95    0.92
   2   1  -8   18.49    0.82
   2   1  -8   19.41    0.99
  -2   1   8   17.83    0.91
  -2   1   8   21.22    1.43
   2   1  -8   17.92    0.85
  -2   1   8   18.66    0.90
   2   1  -8   20.05    0.93
   2   1  -8   17.30    0.67
  -2   1   8   19.33    0.91
   1  -1  -8    0.36    0.24
  -1  -1   8    0.72    0.34
  -1  -1   8    0.61    0.42
   1  -1  -8    0.49    0.29
   1  -1  -8    0.67    0.29
  -1  -1   8    0.68    0.31
  -1  -1   8    0.74    0.28
   1  -1  -8    0.57    0.42
   1  -1  -8    0.89    0.20
   1  -1  -8    0.65    0.20
   1  -1  -8    0.57    0.42
  -1   1   8    1.01    0.37
  -1   1   8    1.12    0.35
   1   1  -8    0.31    0.42
   1   1  -8    0.42    0.42
   1   1  -8    0.75    0.27
   1   1  -8    0.56    0.23
   1   1  -8    0.76    0.42
   1   1  -8    0.79    0.33
   1   1  -8    0.74    0.30
  -1   1   8    0.88    0.31
  -1   1   8    0.46    0.29
   0  -1   8    7.02    0.49
   0  -1  -8    7.12    0.55
   0  -1  -8    7.51    0.59
   0  -1  -8    6.89    0.46
   0  -1   8    6.65    0.57
   0  -1  -8    6.57    0.67
   0  -1  -8    6.98    0.75
   0  -1   8    7.28    0.59
   0  -1   8    6.01    0.76
   0  -1   8    7.25    0.56
   0   1  -8    7.24    0.58
   0   1  -8    6.02    0.57
   0   1   8    6.05    0.71
   0   1   8    6.73    0.60
   0   1   8    7.43    0.67
   0   1  -8    6.71    0.88
   0   1   8    7.03    0.55
   0   1  -8    6.28    0.66
   0   1  -8    6.57    0.42
   0   1  -8    6.20    0.69
   0   1  -8    6.86    0.78
   0   1  -8    6.40    0.47
   0   1   8    7.27    0.57
   1  -1   8   14.57    0.78
  -1  -1  -8   14.75    0.81
   1  -1   8   15.07    0.78
  -1  -1  -8   13.65    0.96
  -1  -1  -8   14.01    0.74
  -1  -1  -8   14.41    0.73
   1  -1   8   15.44    0.81
   1  -1   8   12.77    0.74
   1  -1   8   13.27    0.96
  -1  -1  -8   13.70    0.84
   1   1   8   14.29    0.72
   1   1   8   12.03    0.94
  -1   1  -8   15.27    0.75
   1   1   8   14.48    0.72
   1   1   8   14.13    0.81
  -1   1  -8   14.17    0.84
  -1   1  -8   14.59    0.75
  -1   1  -8   14.89    1.40
   1   1   8   14.28    0.61
   1   1   8   13.99    0.80
  -2  -1  -8    0.16    0.39
   2  -1   8   -0.06    0.30
   2  -1   8    0.47    0.52
  -2  -1  -8    0.17    0.34
   2  -1   8    0.10    0.30
  -2  -1  -8    0.34    0.25
   2  -1   8    0.21    0.29
  -2   1  -8    0.41    0.28
   2   1   8    0.09    0.29
   2   1   8    0.21    0.33
   2   1   8    0.34    0.21
   2   1   8    0.24    0.29
  -2   1  -8    0.21    0.31
   2   1   8    0.31    0.33
   2   1   8    0.93    0.58
  -2   1  -8    0.17    0.38
  -3  -1  -8   37.39    1.52
   3  -1   8   39.65    1.73
   3  -1   8   41.02    1.52
  -3  -1  -8   37.98    1.41
   3  -1   8   37.12    1.49
  -3  -1  -8   39.05    1.52
   3  -1   8   40.61    1.49
  -3   1  -8   38.20    1.41
   3   1   8   38.39    1.53
   3   1   8   36.78    1.80
   3   1   8   35.14    1.26
  -3   1  -8   37.19    1.50
   3   1   8   37.34    1.41
   3   1   8   38.70    1.52
  -3   1  -8   36.68    1.57
  -4  -1  -8   16.80    1.17
   4  -1   8   16.87    1.06
   4  -1   8   17.62    1.05
  -4  -1  -8   17.79    0.93
  -4  -1  -8   14.83    1.08
   4  -1   8   18.17    1.09
   4   1   8   18.59    1.03
  -4   1  -8   17.19    1.29
   4   1   8   16.12    1.11
  -4   1  -8   16.75    0.91
  -4   1  -8   16.94    1.08
  -5  -1  -8    0.32    0.43
   5  -1   8   -0.36    0.76
   5  -1   8    0.59    0.53
  -5  -1  -8   -0.59    0.58
   5   1   8   -0.33    0.50
  -5   1  -8   -0.69    0.52
  -5   1  -8   -0.02    0.42
   5   1   8   -1.11    0.56
   6  -1   8   -0.37    0.63
  -6  -1  -8    0.33    0.73
   6  -1   8    0.60    0.73
  -6  -1  -8    0.13    0.68
   6   1   8    0.49    0.83
  -6   1  -8   -1.12    0.71
  -7  -2   8    5.09    0.73
  -7  -2   8    7.67    1.05
   7  -2  -8    4.19    0.71
   7  -2  -8    4.69    0.65
   7   2  -8    4.09    0.79
  -7   2   8    4.24    0.89
  -7   2   8    6.40    0.81
   7   2  -8    5.40    0.76
  -6  -2   8    0.21    0.37
   6  -2  -8    0.69    0.35
   6  -2  -8   -0.15    0.41
  -6  -2   8   -0.21    0.49
   6  -2  -8    0.25    0.44
  -6  -2   8    0.97    0.52
  -6   2   8   -0.75    0.53
   6   2  -8   -0.72    0.54
  -6   2   8   -0.24    0.43
   6   2  -8   -0.03    0.36
   6   2  -8   -0.40    0.44
   5  -2  -8    0.23    0.37
  -5  -2   8    0.63    0.43
   5  -2  -8   -0.03    0.36
   5  -2  -8    0.55    0.32
  -5  -2   8    0.40    0.61
  -5  -2   8    0.70    0.29
  -5  -2   8    0.61    0.39
   5   2  -8   -0.01    0.43
  -5   2   8    0.41    0.49
   5   2  -8    0.61    0.34
   5   2  -8    0.20    0.38
  -5   2   8   -0.28    0.38
   4  -2  -8    2.88    0.44
  -4  -2   8    3.27    0.43
   4  -2  -8    3.24    0.68
   4  -2  -8    2.88    0.40
  -4  -2   8    2.69    0.43
   4  -2  -8    3.34    0.46
  -4  -2   8    2.97    0.56
  -4  -2   8    3.39    0.52
   4   2  -8    3.50    0.46
   4   2  -8    2.57    0.67
  -4   2   8    4.05    0.56
   4   2  -8    3.61    0.43
  -4   2   8    2.78    0.58
   4   2  -8    3.57    0.53
   4   2  -8    2.71    0.45
  -4   2   8    2.82    0.45
  -3  -2   8   45.48    1.90
  -3  -2   8   50.68    1.91
   3  -2  -8   47.80    1.76
  -3  -2   8   51.87    1.70
   3  -2  -8   52.56    1.77
   3  -2  -8   53.64    1.73
  -3  -2   8   52.92    1.85
   3  -2  -8   53.94    1.72
   3   2  -8   51.43    1.71
  -3   2   8   52.15    1.74
  -3   2   8   54.25    1.80
   3   2  -8   53.43    1.81
   3   2  -8   49.08    1.71
  -3   2   8   51.85    1.83
   3   2  -8   52.17    1.90
   3   2  -8   51.42    1.59
   2  -2  -8    4.09    0.45
  -2  -2   8    4.39    0.48
   2  -2  -8    3.54    0.44
   2  -2  -8    3.59    0.43
  -2  -2   8    4.48    0.50
   2  -2  -8    4.76    0.54
  -2  -2   8    4.50    0.58
  -2  -2   8    4.20    0.49
  -2  -2   8    4.65    0.59
   2  -2  -8    3.99    0.65
  -2   2   8    4.32    0.50
  -2   2   8    4.78    0.50
   2   2  -8    3.31    0.41
   2   2  -8    4.39    0.47
   2   2  -8    3.51    0.46
  -2   2   8    4.59    0.52
   2   2  -8    4.03    0.61
   2   2  -8    5.14    0.64
   1  -2  -8   38.58    1.38
   1  -2  -8   38.14    1.33
   1  -2  -8   39.48    1.11
  -1  -2   8   38.50    1.33
   1  -2  -8   39.03    1.42
   1  -2  -8   38.87    1.37
   1  -2  -8   37.89    1.10
  -1  -2   8   38.19    1.42
  -1  -2   8   40.11    1.30
   1  -2  -8   38.03    1.37
  -1  -2   8   38.26    1.47
  -1  -2   8   39.49    1.39
  -1   2   8   37.42    1.41
   1   2  -8   38.19    1.25
   1   2  -8   35.93    1.36
   1   2  -8   38.51    1.25
   1   2  -8   39.66    1.37
  -1   2   8   39.20    1.43
  -1   2   8   38.08    1.32
   1   2  -8   36.80    1.46
  -1   2   8   35.78    1.35
   1   2  -8   37.32    1.28
  -1   2   8   39.14    1.40
   1   2  -8   33.68    1.41
   0  -2   8    2.08    0.37
   0  -2  -8    2.18    0.33
   0  -2  -8    2.86    0.50
   0  -2   8    1.93    0.37
   0  -2  -8    1.85    0.36
   0  -2  -8    1.85    0.44
   0  -2   8    1.57    0.47
   0  -2   8    2.09    0.35
   0  -2  -8    1.75    0.35
   0  -2   8    2.55    0.31
   0   2   8    2.29    0.42
   0   2   8    1.66    0.37
   0   2   8    1.99    0.47
   0   2   8    2.00    0.40
   0   2  -8    2.59    0.35
   0   2  -8    2.10    0.40
   0   2  -8    1.64    0.40
   0   2   8    2.15    0.32
   0   2  -8    2.48    0.48
   0   2  -8    2.15    0.50
   0   2  -8    1.85    0.34
  -1  -2  -8    1.34    0.52
   1  -2   8    1.03    0.33
   1  -2   8    1.32    0.21
  -1  -2  -8    1.35    0.42
   1  -2   8    0.76    0.30
   1  -2   8    0.90    0.34
  -1  -2  -8    0.98    0.31
  -1  -2  -8    1.65    0.39
  -1  -2  -8    1.28    0.32
   1  -2   8    2.00    0.50
  -1   2  -8    1.67    0.34
  -1   2  -8    2.04    0.59
  -1   2  -8    0.85    0.58
   1   2   8    1.59    0.38
  -1   2  -8    0.63    0.41
   1   2   8    1.36    0.28
  -1   2  -8    1.19    0.43
   1   2   8    1.25    0.36
   1   2   8    1.37    0.25
  -1   2  -8    1.47    0.35
   1   2   8    1.45    0.41
   1   2   8    1.36    0.45
   2  -2   8    0.61    0.36
  -2  -2  -8    1.34    0.38
   2  -2   8    0.92    0.61
   2  -2   8    0.44    0.32
  -2  -2  -8    0.65    0.29
  -2  -2  -8    0.96    0.37
  -2  -2  -8    0.62    0.62
  -2  -2  -8    1.53    0.46
   2  -2   8    0.97    0.36
  -2   2  -8    1.54    0.37
   2   2   8    1.05    0.35
  -2   2  -8    0.86    0.43
  -2   2  -8    1.36    0.38
   2   2   8    0.80    0.40
   2   2   8    1.02    0.26
   2   2   8    1.15    0.42
   2   2   8    0.93    0.28
  -3  -2  -8    3.21    0.54
   3  -2   8    3.11    0.51
  -3  -2  -8    2.89    0.44
  -3  -2  -8    1.41    0.42
   3  -2   8    2.58    1.20
   3  -2   8    2.76    0.44
  -3  -2  -8    2.58    0.61
   3  -2   8    2.07    0.48
   3   2   8    2.56    0.50
   3   2   8    2.81    0.35
  -3   2  -8    2.26    0.44
   3   2   8    3.70    0.94
   3   2   8    2.07    0.51
   3   2   8    3.13    0.47
  -3   2  -8    1.94    0.40
  -3   2  -8    2.95    0.65
   4  -2   8    8.86    0.86
  -4  -2  -8   10.31    0.79
  -4  -2  -8   10.04    0.90
  -4  -2  -8    8.14    1.00
   4  -2   8    9.78    0.90
   4  -2   8   10.08    0.88
   4   2   8    9.61    0.95
   4   2   8    9.71    0.64
  -4   2  -8    9.70    0.75
  -4   2  -8    9.71    0.88
  -5  -2  -8    0.32    0.52
   5  -2   8   -0.28    0.49
  -5  -2  -8    0.16    0.53
  -5  -2  -8    0.63    0.47
   5  -2   8    0.54    0.53
   5   2   8    0.96    0.52
  -5   2  -8    0.71    0.46
  -5   2  -8    0.19    0.57
   5   2   8   -0.09    0.59
  -6  -2  -8    3.34    0.81
  -6  -2  -8    2.65    0.88
   6  -2   8    4.57    0.78
   6  -2   8    2.78    0.76
  -6   2  -8    2.75    0.81
   6   2   8    1.85    0.86
   6   2   8    4.96    0.87
   7  -3  -8   11.35    1.00
  -7  -3   8   14.47    1.30
   7  -3  -8    9.76    1.20
  -7  -3   8    8.89    1.14
   7   3  -8   11.98    1.15
  -7   3   8   11.71    1.16
  -7   3   8   10.52    1.17
   7   3  -8    9.87    1.08
  -6  -3   8    3.69    0.52
   6  -3  -8    2.70    0.48
  -6  -3   8    1.12    0.53
  -6  -3   8    3.68    0.64
   6  -3  -8    2.63    0.44
   6  -3  -8    2.60    0.59
   6   3  -8    2.98    0.71
  -6   3   8    1.81    0.69
  -6   3   8    2.61    0.59
   6   3  -8    2.74    0.56
   6   3  -8    2.53    0.46
   5  -3  -8    0.97    0.59
  -5  -3   8    1.51    0.36
  -5  -3   8    0.96    0.52
   5  -3  -8    0.91    0.34
   5  -3  -8    1.06    0.44
   5  -3  -8    0.62    0.35
  -5  -3   8    1.13    0.40
  -5  -3   8    1.61    0.55
  -5   3   8    0.96    0.54
  -5   3   8    1.07    0.46
   5   3  -8    1.07    0.42
   5   3  -8    0.84    0.51
   5   3  -8    1.58    0.40
  -4  -3   8    7.16    0.84
   4  -3  -8    7.29    0.86
   4  -3  -8    7.24    0.62
   4  -3  -8    7.64    0.63
   4  -3  -8    7.71    0.62
  -4  -3   8    6.93    0.56
  -4  -3   8    6.38    0.61
  -4  -3   8    7.43    0.76
  -4  -3   8    8.14    0.95
  -4   3   8    9.46    1.04
   4   3  -8    7.13    0.81
  -4   3   8    7.10    0.70
   4   3  -8    5.53    0.80
   4   3  -8    7.00    0.87
   4   3  -8    8.15    0.68
   4   3  -8    6.60    0.63
  -4   3   8    6.95    0.78
  -3  -3   8    2.31    0.45
  -3  -3   8    3.42    0.53
  -3  -3   8    2.46    0.38
  -3  -3   8    2.31    0.47
   3  -3  -8    3.44    0.44
   3  -3  -8    2.99    0.39
   3  -3  -8    2.36    0.40
  -3  -3   8    3.56    1.11
  -3   3   8    2.12    0.41
   3   3  -8    3.08    0.42
   3   3  -8    2.92    0.68
  -3   3   8    3.37    0.50
   3   3  -8    3.55    0.50
   3   3  -8    2.98    0.47
   3   3  -8    3.02    0.41
  -3   3   8    2.72    0.46
   2  -3  -8    4.33    0.51
  -2  -3   8    4.02    0.46
  -2  -3   8    5.22    0.62
  -2  -3   8    5.53    0.62
  -2  -3   8    4.36    0.59
   2  -3  -8    5.01    0.69
   2  -3  -8    4.48    0.51
   2  -3  -8    4.95    0.55
  -2  -3   8    4.66    0.53
   2  -3  -8    4.28    0.52
  -2   3   8    5.58    0.55
   2   3  -8    5.32    0.55
  -2   3   8    5.40    0.58
   2   3  -8    5.26    0.61
  -2   3   8    5.06    0.66
   2   3  -8    4.40    0.54
   2   3  -8    4.11    0.49
   2   3  -8    4.26    0.62
   1  -3  -8   29.79    1.18
  -1  -3   8   30.66    1.24
   1  -3  -8   30.59    1.17
  -1  -3   8   29.08    1.29
   1  -3  -8   31.31    1.19
  -1  -3   8   28.94    1.12
   1  -3  -8   30.75    0.91
  -1  -3   8   29.70    1.09
  -1  -3   8   31.80    1.22
   1  -3  -8   29.96    1.25
  -1   3   8   32.45    1.26
   1   3  -8   30.31    1.09
   1   3  -8   32.22    1.20
   1   3  -8   32.32    1.28
   1   3  -8   30.30    1.17
  -1   3   8   29.50    1.19
  -1   3   8   31.24    1.10
   1   3  -8   29.49    1.16
   1   3  -8   30.71    1.06
   0  -3  -8    3.28    0.44
   0  -3   8    3.83    0.48
   0  -3  -8    3.59    0.53
   0  -3  -8    3.78    0.49
   0  -3  -8    3.87    0.45
   0  -3   8    4.08    0.47
   0  -3   8    3.74    0.54
   0  -3   8    3.64    0.44
   0  -3  -8    3.66    0.39
   0  -3   8    4.01    0.44
   0   3  -8    3.78    0.41
   0   3  -8    3.56    0.43
   0   3  -8    3.29    0.81
   0   3  -8    3.72    0.46
   0   3  -8    3.15    0.46
   0   3   8    3.54    0.38
   0   3  -8    3.80    0.49
   0   3   8    3.58    0.49
   0   3   8    3.60    0.41
   0   3   8    2.99    0.49
   0   3  -8    3.18    0.56
   0   3   8    3.13    0.46
  -1  -3  -8    1.56    0.32
  -1  -3  -8    1.91    0.37
  -1  -3  -8    2.24    0.41
   1  -3   8    2.04    0.41
  -1  -3  -8    2.02    0.41
  -1  -3  -8    1.89    0.55
   1  -3   8    1.85    0.60
   1  -3   8    2.14    0.34
   1  -3   8    2.15    0.44
  -1   3  -8    2.38    0.40
   1   3   8    1.90    0.29
  -1   3  -8    2.44    0.54
   1   3   8    2.26    0.46
   1   3   8    2.32    0.44
   1   3   8    2.19    0.33
  -1   3  -8    1.71    0.47
   1   3   8    2.08    0.46
  -1   3  -8    1.85    0.37
   1   3   8    1.82    0.51
  -2  -3  -8    9.01    0.67
  -2  -3  -8    8.98    1.15
  -2  -3  -8    9.38    0.78
  -2  -3  -8    8.11    0.72
   2  -3   8    9.07    0.69
   2  -3   8    8.40    1.01
  -2  -3  -8    9.11    0.70
   2  -3   8    9.12    0.66
   2  -3   8    7.67    0.72
   2   3   8    8.80    0.58
   2   3   8    8.88    0.80
   2   3   8    9.17    0.55
   2   3   8    7.40    0.87
  -2   3  -8    9.48    0.73
  -2   3  -8   10.56    0.86
   2   3   8    8.66    0.69
  -2   3  -8    8.28    0.66
  -3  -3  -8    4.60    1.31
  -3  -3  -8    3.63    0.62
   3  -3   8    3.42    0.49
   3  -3   8    3.27    0.51
  -3  -3  -8    3.27    0.52
  -3  -3  -8    3.21    0.52
   3  -3   8    3.57    0.58
  -3  -3  -8    3.09    0.44
   3  -3   8    3.24    0.74
   3   3   8    2.94    0.52
  -3   3  -8    3.38    0.65
  -3   3  -8    3.23    0.45
   3   3   8    3.51    0.42
  -3   3  -8    3.72    0.54
   3   3   8    3.91    0.56
   3   3   8    2.65    0.66
  -4  -3  -8    2.91    0.49
   4  -3   8    2.63    0.56
  -4  -3  -8    2.81    0.57
   4  -3   8    3.14    0.56
  -4  -3  -8    3.50    0.69
   4  -3   8    2.14    0.49
   4   3   8    3.68    0.66
  -4   3  -8    3.32    0.49
   4   3   8    2.64    0.43
   4   3   8    3.55    0.69
  -5  -3  -8   -0.88    0.51
  -5  -3  -8    0.09    0.48
   5  -3   8   -0.26    0.56
   5  -3   8   -0.01    0.50
  -5  -3  -8   -0.08    0.57
  -5   3  -8   -0.24    0.51
   5   3   8   -0.08    0.69
   5   3   8   -0.46    0.42
   5   3   8   -0.09    0.51
  -5   3  -8   -0.49    0.44
  -6  -3  -8    0.32    0.74
   6  -3   8    1.95    0.78
   6  -3   8    0.54    0.61
   6   3   8    0.36    0.90
   6   3   8    0.49    0.72
  -6   3  -8   -0.58    0.72
   7  -4  -8    3.68    0.83
  -7  -4   8    5.49    0.89
   7  -4  -8    2.05    0.52
   7   4  -8    2.48    0.85
  -7   4   8    3.25    0.79
  -7   4   8    2.44    0.94
   7   4  -8    3.35    0.71
  -6  -4   8    0.35    0.49
   6  -4  -8    0.59    0.53
  -6  -4   8    1.15    0.60
   6  -4  -8    0.90    0.39
   6  -4  -8    0.83    0.69
  -6  -4   8    0.95    0.49
   6   4  -8    0.77    0.45
  -6   4   8    0.08    0.66
   6   4  -8   -0.23    0.72
  -6   4   8   -1.23    0.51
   6   4  -8    0.19    0.44
   5  -4  -8    0.27    0.60
   5  -4  -8   -0.59    0.38
  -5  -4   8   -0.73    0.49
   5  -4  -8    0.71    0.38
   5  -4  -8    0.52    0.39
  -5  -4   8    0.05    0.39
  -5  -4   8    0.09    0.47
  -5  -4   8    0.43    0.37
  -5   4   8   -0.17    0.43
  -5   4   8   -0.02    0.55
   5   4  -8   -0.30    0.37
   5   4  -8    0.28    0.52
  -4  -4   8   10.58    0.90
   4  -4  -8   11.17    0.79
   4  -4  -8   12.94    0.77
   4  -4  -8   10.61    0.74
   4  -4  -8   10.75    0.92
  -4  -4   8   12.34    0.69
  -4  -4   8   13.62    1.06
  -4  -4   8   10.76    0.89
  -4  -4   8   11.10    0.71
   4   4  -8   13.37    0.97
   4   4  -8    9.48    1.59
   4   4  -8   10.04    1.16
   4   4  -8   11.44    0.77
  -4   4   8   11.50    0.89
  -4   4   8   10.65    0.87
   4   4  -8   11.66    0.80
  -4   4   8   11.81    0.97
  -3  -4   8   19.34    1.37
  -3  -4   8   18.36    0.96
   3  -4  -8   20.63    0.96
  -3  -4   8   21.45    0.89
  -3  -4   8   20.63    1.03
   3  -4  -8   19.45    0.98
  -3  -4   8   21.03    0.84
   3  -4  -8   21.08    1.07
   3  -4  -8   20.73    0.92
   3   4  -8   18.51    1.33
   3   4  -8   20.66    1.10
   3   4  -8   20.76    0.95
  -3   4   8   21.51    0.98
   3   4  -8   19.17    0.92
  -3   4   8   17.16    1.36
  -3   4   8   20.14    1.06
  -2  -4   8    5.47    0.58
   2  -4  -8    5.02    0.51
   2  -4  -8    5.34    0.59
   2  -4  -8    6.27    0.57
  -2  -4   8    5.61    0.48
  -2  -4   8    5.11    0.64
  -2  -4   8    4.85    0.65
   2  -4  -8    5.69    0.80
  -2   4   8    5.55    0.59
   2   4  -8    5.81    0.79
   2   4  -8    5.25    0.57
   2   4  -8    5.08    0.51
   2   4  -8    4.95    0.63
  -2   4   8    6.07    0.56
  -2   4   8    5.97    0.68
   1  -4  -8   14.34    0.75
   1  -4  -8   14.00    0.80
  -1  -4   8   14.88    0.99
  -1  -4   8   14.56    0.81
  -1  -4   8   14.48    0.67
  -1  -4   8   13.91    0.78
   1  -4  -8   14.37    0.54
  -1  -4   8   14.13    0.87
   1  -4  -8   13.80    0.89
   1  -4  -8   14.15    0.78
   1   4  -8   13.19    0.77
  -1   4   8   13.65    0.85
  -1   4   8   15.00    0.68
   1   4  -8   14.94    0.97
   1   4  -8   14.15    0.93
  -1   4   8   14.94    0.83
  -1   4   8   14.68    0.57
   1   4  -8   14.18    0.79
   1   4  -8   14.02    0.66
   0  -4   8    7.29    0.51
   0  -4   8    6.73    0.61
   0  -4  -8    6.83    0.60
   0  -4   8    7.62    0.51
   0  -4   8    8.25    0.93
   0  -4  -8    6.45    0.60
   0  -4  -8    7.09    0.48
   0  -4  -8    8.75    0.84
   0  -4  -8    6.57    0.61
   0  -4   8    6.99    0.62
   0   4  -8    7.45    0.52
   0   4  -8    7.38    0.68
   0   4   8    7.20    0.74
   0   4   8    6.94    0.62
   0   4  -8    6.87    0.75
   0   4  -8    6.77    0.59
   0   4   8    6.93    0.66
   0   4  -8    6.97    0.57
  -1  -4  -8    5.10    0.64
   1  -4   8    5.50    0.58
  -1  -4  -8    4.70    0.52
   1  -4   8    5.34    0.52
   1  -4   8    5.60    0.66
  -1  -4  -8    5.74    0.57
  -1  -4  -8    6.45    0.73
   1  -4   8    6.59    0.66
  -1  -4  -8    4.77    0.53
  -1   4  -8    6.06    0.61
  -1   4  -8    5.80    0.61
  -1   4  -8    5.04    0.74
   1   4   8    5.29    0.44
  -1   4  -8    4.84    0.55
   1   4   8    5.07    0.61
   1   4   8    5.96    0.76
   1   4   8    5.61    0.58
   1   4   8    4.86    0.52
   2  -4   8    0.31    0.30
  -2  -4  -8    0.55    0.43
   2  -4   8    0.14    0.36
  -2  -4  -8    0.04    0.32
  -2  -4  -8    0.94    0.74
  -2  -4  -8   -0.01    0.35
   2  -4   8    0.26    0.55
   2  -4   8    0.18    0.31
  -2  -4  -8    0.56    0.37
  -2   4  -8    0.27    0.35
   2   4   8    0.53    0.53
   2   4   8    0.12    0.36
   2   4   8    0.33    0.29
  -2   4  -8    0.65    0.48
  -2   4  -8    0.05    0.33
  -3  -4  -8    1.26    1.34
  -3  -4  -8    0.55    0.44
  -3  -4  -8    0.74    0.38
   3  -4   8    0.61    0.45
   3  -4   8    0.72    0.34
   3  -4   8    1.12    0.73
   3  -4   8    0.32    0.38
  -3  -4  -8    0.26    0.47
  -3   4  -8    0.64    0.61
  -3   4  -8    0.52    0.40
   3   4   8    0.80    0.49
   3   4   8    1.05    0.35
   3   4   8    0.84    0.38
  -3   4  -8    0.68    0.37
   4  -4   8    0.63    0.47
   4  -4   8    0.00    0.47
  -4  -4  -8    0.29    0.37
  -4  -4  -8    0.72    0.47
   4  -4   8   -0.48    0.48
  -4  -4  -8    1.22    0.62
   4   4   8    0.62    0.41
  -4   4  -8    0.43    0.49
  -4   4  -8    0.90    0.43
   4   4   8    1.33    0.50
   4   4   8    0.17    0.59
  -5  -4  -8    0.21    0.58
   5  -4   8   -0.51    0.45
  -5  -4  -8    0.50    0.54
  -5  -4  -8   -0.04    0.86
   5  -4   8    0.83    0.64
   5   4   8    0.55    0.79
  -5   4  -8   -0.40    0.61
  -5   4  -8   -0.62    0.48
   5   4   8    1.11    0.67
   5   4   8    0.07    0.49
   6  -4   8    1.15    0.86
   6  -4   8    2.03    0.68
  -6  -4  -8    3.78    0.87
  -6   4  -8    2.64    0.84
   6   4   8    2.66    0.87
   7  -5  -8   -0.43    0.75
  -7  -5   8    2.02    0.84
   7  -5  -8    0.58    0.48
   7   5  -8    0.70    1.09
   7   5  -8    0.87    0.64
   6  -5  -8    6.02    0.67
  -6  -5   8    4.30    0.67
   6  -5  -8    2.76    0.64
  -6  -5   8    5.93    0.83
  -6   5   8    4.45    0.88
   6   5  -8    4.13    0.92
   6   5  -8    3.83    0.69
  -6   5   8    4.15    0.74
   6   5  -8    4.27    0.59
   5  -5  -8    8.02    0.94
   5  -5  -8    7.30    0.79
   5  -5  -8    8.86    0.87
  -5  -5   8    9.78    0.82
  -5  -5   8    7.92    0.72
  -5  -5   8    9.99    1.13
  -5  -5   8    8.87    0.91
   5  -5  -8    8.37    0.68
   5   5  -8    8.85    0.79
   5   5  -8   10.36    0.98
  -5   5   8    8.10    0.88
  -5   5   8    8.49    1.04
   5   5  -8    8.68    0.86
   4  -5  -8    9.84    0.67
   4  -5  -8    8.60    0.91
  -4  -5   8    9.84    0.88
  -4  -5   8    9.62    0.97
   4  -5  -8    9.82    0.82
  -4  -5   8    9.89    0.75
   4  -5  -8   10.54    0.77
  -4  -5   8    9.24    0.65
  -4   5   8   10.68    0.87
  -4   5   8    9.87    0.88
   4   5  -8    9.36    0.99
   4   5  -8    9.78    0.77
   4   5  -8    9.99    0.78
  -3  -5   8   -0.71    0.71
  -3  -5   8    0.18    0.40
   3  -5  -8    0.10    0.41
  -3  -5   8    0.08    0.33
   3  -5  -8    0.56    0.33
   3  -5  -8    0.22    0.31
  -3  -5   8    0.30    0.36
  -3  -5   8   -0.79    0.35
   3  -5  -8    0.10    0.27
  -3   5   8   -0.64    0.31
   3   5  -8   -0.02    0.48
   3   5  -8    0.37    0.35
  -3   5   8    0.18    0.35
   3   5  -8    0.06    0.31
  -3   5   8    0.20    0.43
  -2  -5   8    0.36    0.34
   2  -5  -8    0.01    0.31
  -2  -5   8    0.17    0.30
   2  -5  -8    0.02    0.23
  -2  -5   8    0.06    0.64
  -2  -5   8    0.01    0.30
   2  -5  -8   -0.07    0.41
  -2  -5   8   -0.16    0.39
   2   5  -8    0.41    0.32
  -2   5   8    0.16    0.31
   2   5  -8   -0.06    0.51
  -2   5   8   -0.15    0.32
   2   5  -8    0.02    0.26
  -1  -5   8    1.57    0.50
   1  -5  -8    2.06    0.40
  -1  -5   8    2.83    0.45
   1  -5  -8    1.92    0.35
  -1  -5   8    1.42    0.41
   1  -5  -8    2.18    0.38
  -1  -5   8    1.55    0.45
   1  -5  -8    1.41    0.25
   1   5  -8    1.67    0.49
  -1   5   8    1.71    0.48
   1   5  -8    1.34    0.29
   1   5  -8    1.86    0.40
  -1   5   8    1.87    0.30
  -1   5   8    1.65    0.41
   0  -5  -8   34.95    1.31
   0  -5   8   34.06    1.42
   0  -5  -8   34.48    1.34
   0  -5  -8   34.67    1.16
   0  -5  -8   34.24    1.13
   0  -5  -8   33.11    1.41
   0  -5   8   34.45    1.33
   0  -5   8   33.07    1.46
   0  -5   8   33.79    1.14
   0  -5   8   34.18    1.17
   0   5   8   33.87    1.30
   0   5  -8   35.47    1.36
   0   5   8   34.33    1.07
   0   5  -8   32.54    1.26
   0   5  -8   35.11    1.33
   0   5   8   35.53    1.26
   0   5   8   35.41    1.41
   0   5   8   32.98    1.36
   0   5  -8   34.27    1.39
  -1  -5  -8    0.40    0.29
   1  -5   8    0.19    0.36
  -1  -5  -8    0.05    0.30
  -1  -5  -8    0.45    0.34
   1  -5   8   -0.14    0.31
   1  -5   8   -0.01    0.55
  -1  -5  -8    0.29    0.63
   1  -5   8    0.34    0.29
  -1   5  -8   -0.30    0.42
   1   5   8    0.21    0.34
   1   5   8   -0.13    0.49
   1   5   8    0.02    0.55
   1   5   8    0.22    0.30
  -1   5  -8    0.42    0.34
  -1   5  -8   -0.15    0.32
  -1   5  -8    0.59    0.61
   2  -5   8    4.94    0.61
   2  -5   8    5.98    0.73
   2  -5   8    3.73    0.67
  -2  -5  -8    4.68    0.56
  -2  -5  -8    5.40    0.99
  -2  -5  -8    4.59    0.54
   2  -5   8    5.25    0.60
  -2  -5  -8    6.07    0.74
  -2   5  -8    6.09    0.69
   2   5   8    5.20    0.73
  -2   5  -8    5.01    0.61
   2   5   8    4.76    0.68
   2   5   8    3.92    0.47
  -2   5  -8    5.53    0.62
  -3  -5  -8    5.44    0.66
   3  -5   8    5.33    0.69
  -3  -5  -8    5.57    0.64
   3  -5   8    6.02    0.71
   3  -5   8    5.59    0.68
  -3  -5  -8    5.30    0.67
   3   5   8    5.54    0.68
   3   5   8    6.60    0.69
   3   5   8    4.33    0.68
  -3   5  -8    6.60    0.78
  -3   5  -8    5.38    0.61
  -4  -5  -8    2.74    0.53
   4  -5   8    2.47    0.51
   4  -5   8    2.26    0.61
  -4  -5  -8    1.95    0.61
   4  -5   8    2.60    0.64
  -4  -5  -8    2.85    0.71
   4   5   8    2.86    0.52
   4   5   8    3.12    0.61
  -4   5  -8    3.20    0.56
  -4   5  -8    2.23    0.60
   4   5   8    3.28    0.75
   5  -5   8   -0.10    0.46
  -5  -5  -8    0.20    0.63
   5  -5   8   -0.53    0.63
  -5  -5  -8    0.69    0.88
   5   5   8   -0.08    0.59
  -5   5  -8   -0.45    0.50
   5   5   8    0.41    0.66
  -5   5  -8   -1.74    0.64
   6  -5   8    7.55    1.10
   6  -5   8    4.55    0.73
  -6  -5  -8    3.84    0.97
   6   5   8    5.51    1.04
  -6   5  -8    5.85    1.03
   7  -6  -8    0.75    0.83
   7  -6  -8   -1.25    0.51
  -7  -6   8    0.67    0.94
   7   6  -8    0.42    0.73
  -7   6   8   -1.87    0.80
  -7   6   8   -2.54    1.04
   6  -6  -8    0.80    0.62
  -6  -6   8   -0.07    0.70
  -6  -6   8    0.39    0.63
   6  -6  -8   -0.97    0.39
   6   6  -8    0.47    0.56
   6   6  -8   -0.34    0.91
  -6   6   8   -0.11    0.80
   6   6  -8    0.78    0.58
  -6   6   8    0.53    0.63
   5  -6  -8    0.41    0.32
  -5  -6   8    1.55    0.59
  -5  -6   8    1.38    0.70
  -5  -6   8    0.77    0.50
   5  -6  -8    1.33    0.47
   5  -6  -8    0.39    0.48
  -5   6   8    0.68    0.63
   5   6  -8    0.35    0.65
  -5   6   8    1.21    0.45
   5   6  -8    0.51    0.44
   5   6  -8    0.98    0.45
  -4  -6   8    0.70    0.49
  -4  -6   8    0.26    0.42
   4  -6  -8   -0.27    0.47
   4  -6  -8    0.61    0.41
  -4  -6   8    0.01    0.33
   4  -6  -8    0.46    0.39
   4  -6  -8    0.33    0.28
   4   6  -8    0.44    0.40
  -4   6   8    0.06    0.49
  -4   6   8   -0.49    0.49
   4   6  -8    0.16    0.39
   4   6  -8   -0.38    0.54
  -3  -6   8    0.46    0.24
  -3  -6   8    0.22    0.26
  -3  -6   8    0.86    0.38
   3  -6  -8    0.31    0.26
  -3  -6   8   -0.08    0.41
   3  -6  -8    0.39    0.37
  -3  -6   8    0.32    0.48
   3  -6  -8    0.35    0.45
   3   6  -8    0.12    0.37
  -3   6   8    0.01    0.54
   3   6  -8    0.23    0.36
  -3   6   8   -0.18    0.36
  -3   6   8    0.18    0.38
   3   6  -8    0.44    0.61
  -2  -6   8   55.71    2.21
  -2  -6   8   57.99    1.64
   2  -6  -8   61.26    1.90
  -2  -6   8   57.02    1.64
  -2  -6   8   58.60    2.03
  -2  -6   8   59.10    2.09
   2  -6  -8   57.26    1.96
   2  -6  -8   59.07    2.00
  -2   6   8   60.60    2.11
   2   6  -8   60.68    2.01
   2   6  -8   58.12    2.13
  -2   6   8   58.21    1.92
   2   6  -8   60.41    1.91
  -2   6   8   59.33    1.84
   1  -6  -8    1.45    0.51
  -1  -6   8    0.89    0.43
  -1  -6   8    1.34    0.56
  -1  -6   8    0.89    0.25
   1  -6  -8    1.28    0.31
   1  -6  -8    0.98    0.29
  -1  -6   8    1.18    0.37
   1  -6  -8    0.58    0.38
  -1   6   8    1.62    0.40
   1   6  -8    1.05    0.30
  -1   6   8    1.00    0.28
   1   6  -8    0.92    0.32
   1   6  -8    1.39    0.56
  -1   6   8    1.12    0.37
  -1   6   8    0.93    0.54
   0  -6  -8    1.51    0.32
   0  -6   8    1.33    0.38
   0  -6  -8    1.45    0.59
   0  -6   8    2.43    0.60
   0  -6  -8    1.88    0.38
   0  -6  -8    1.03    0.37
   0  -6   8    1.64    0.28
   0  -6   8    1.81    0.43
   0  -6   8    1.87    0.38
   0   6   8    2.42    0.47
   0   6   8    2.03    0.53
   0   6   8    1.84    0.35
   0   6   8    1.63    0.49
   0   6  -8    1.47    0.42
   0   6  -8    1.50    0.37
   0   6  -8    1.51    0.50
   0   6  -8    1.76    0.27
  -1  -6  -8   10.67    0.80
   1  -6   8   10.67    0.76
   1  -6   8   11.03    0.65
  -1  -6  -8   10.03    0.72
  -1  -6  -8   11.82    1.25
  -1  -6  -8   11.63    0.80
   1  -6   8    9.86    1.05
   1  -6   8    9.84    0.79
   1   6   8   11.46    0.76
  -1   6  -8   11.00    0.92
   1   6   8   11.61    0.85
   1   6   8   10.78    1.03
  -1   6  -8   10.33    0.79
  -1   6  -8   10.02    0.80
  -1   6  -8   10.39    0.99
  -2  -6  -8    0.98    0.43
   2  -6   8    0.63    0.63
   2  -6   8    1.30    0.36
  -2  -6  -8    1.08    0.42
   2  -6   8    1.42    0.51
  -2  -6  -8    1.71    0.45
   2  -6   8    1.24    0.40
  -2   6  -8    1.97    0.49
   2   6   8    0.80    0.40
   2   6   8    0.97    0.43
   2   6   8    1.20    0.67
  -2   6  -8    1.38    0.43
   3  -6   8   -0.28    0.35
  -3  -6  -8   -0.34    0.45
   3  -6   8    0.18    0.42
  -3  -6  -8   -0.13    0.43
  -3  -6  -8    0.22    0.41
   3  -6   8   -0.41    0.45
  -3   6  -8   -0.54    0.44
   3   6   8    0.46    0.60
   3   6   8    0.36    0.38
  -3   6  -8    0.06    0.41
  -4  -6  -8    1.81    0.60
   4  -6   8    1.07    0.70
   4  -6   8    0.93    0.62
   4  -6   8    2.05    0.48
  -4  -6  -8    1.88    0.63
  -4  -6  -8    1.88    0.69
   4   6   8    1.10    0.57
  -4   6  -8    0.79    0.58
   4   6   8    2.13    0.64
  -4   6  -8    2.22    0.57
   5  -6   8    1.45    0.74
  -5  -6  -8    1.20    0.74
   5  -6   8    0.07    0.45
  -5  -6  -8    0.44    0.64
  -5  -6  -8    1.13    0.94
   5   6   8   -0.01    0.61
   5   6   8   -0.92    0.70
  -5   6  -8   -0.45    0.61
  -5   6  -8   -0.03    0.69
  -6  -7   8    1.18    0.80
   6  -7  -8    0.31    0.41
  -6  -7   8    1.05    0.73
  -6   7   8    1.24    0.67
   6   7  -8    2.24    0.69
  -6   7   8   -1.35    0.89
  -5  -7   8    5.18    0.74
   5  -7  -8    5.24    0.65
  -5  -7   8    7.25    0.99
  -5  -7   8    4.58    0.82
   5  -7  -8    6.25    0.59
  -5   7   8    4.98    0.79
  -5   7   8    5.37    1.13
   5   7  -8    5.90    0.74
   5   7  -8    5.54    0.79
   4  -7  -8    0.29    0.28
  -4  -7   8    0.81    0.57
  -4  -7   8    0.14    0.49
   4  -7  -8    0.42    0.44
  -4  -7   8   -0.61    0.54
   4  -7  -8   -0.04    0.41
  -4   7   8   -0.01    0.47
   4   7  -8   -0.48    0.66
   4   7  -8    0.14    0.44
  -4   7   8   -0.11    0.51
  -3  -7   8   -0.08    0.45
   3  -7  -8    0.16    0.41
  -3  -7   8    1.87    0.48
  -3  -7   8   -0.02    0.48
   3  -7  -8    0.30    0.40
  -3   7   8    0.02    0.41
   3   7  -8    1.05    0.79
  -3   7   8    0.40    0.69
   3   7  -8    0.30    0.40
   3   7  -8    0.47    0.38
   2  -7  -8    0.69    0.48
   2  -7  -8    1.30    0.31
  -2  -7   8    0.19    0.44
   2  -7  -8   -0.14    0.42
  -2  -7   8    0.49    0.45
   2   7  -8    0.30    0.68
  -2   7   8    1.25    0.35
   2   7  -8    0.49    0.37
   2   7  -8    0.88    0.35
  -2   7   8    0.09    0.42
  -1  -7   8    2.67    0.52
  -1  -7   8    2.51    0.69
  -1  -7   8    2.56    0.47
  -1  -7   8    2.75    0.62
   1  -7  -8    2.89    0.45
   1  -7  -8    2.57    0.38
   1  -7  -8    3.26    0.45
   1  -7  -8    3.87    0.65
  -1   7   8    2.48    0.50
   1   7  -8    3.06    0.40
  -1   7   8    2.91    0.45
   1   7  -8    2.07    0.48
  -1   7   8    2.92    0.63
  -1   7   8    2.97    0.31
   1   7  -8    2.39    0.64
  -1   7   8    2.67    0.35
  -1   7   8    3.23    0.56
   0  -7   8    5.77    0.77
   0  -7   8    5.78    0.47
   0  -7   8    4.92    0.65
   0  -7  -8    7.55    0.71
   0  -7  -8    6.01    0.60
   0  -7  -8    7.42    0.66
   0  -7   8    5.48    0.69
   0   7   8    5.41    0.76
   0   7  -8    5.36    0.68
   0   7  -8    6.13    0.49
   0   7  -8    4.36    0.64
   0   7   8    6.44    0.67
   0   7   8    7.82    0.96
   0   7  -8    5.78    0.66
  -1  -7  -8    0.60    0.36
   1  -7   8    0.42    0.35
   1  -7   8    0.92    0.30
   1  -7   8    0.55    0.58
  -1  -7  -8    0.93    0.41
  -1  -7  -8    0.47    0.36
   1  -7   8    0.88    0.46
  -1   7  -8    0.69    0.44
   1   7   8    0.93    0.41
   1   7   8    1.36    0.38
   1   7   8    1.35    0.75
  -1   7  -8    0.76    0.39
   2  -7   8    1.07    0.40
  -2  -7  -8    1.64    0.86
  -2  -7  -8    1.58    0.51
  -2  -7  -8    1.09    0.46
   2  -7   8    1.22    0.54
   2   7   8    0.95    0.53
   2   7   8    1.49    0.48
  -2   7  -8    1.29    0.46
   3  -7   8    4.30    0.61
  -3  -7  -8    3.93    0.60
   3  -7   8    3.68    0.68
  -3  -7  -8    4.26    1.09
   3  -7   8    2.67    0.44
  -3  -7  -8    4.41    0.69
  -3   7  -8    3.81    0.64
   3   7   8    3.25    0.62
   3   7   8    4.06    0.77
   4  -7   8   19.67    1.05
  -4  -7  -8   17.51    1.34
   4  -7   8   17.51    1.34
  -4  -7  -8   19.07    1.25
  -4   7  -8   17.58    1.19
  -4   7  -8   17.43    1.29
   4   7   8   18.83    1.32
   4   7   8   16.74    1.18
  -5  -7  -8   -1.14    1.07
   5  -7   8   -0.54    0.49
  -5  -7  -8    0.10    0.79
  -5  -7  -8   -0.18    0.70
   5  -7   8   -1.42    0.78
  -5   7  -8   -0.13    0.70
   5   7   8   -0.34    0.71
  -5   7  -8   -0.42    0.78
   5   7   8    0.40    0.82
   6  -8  -8    1.49    0.42
  -6  -8   8    0.81    0.90
  -6  -8   8    2.46    0.93
   6   8  -8    1.33    0.77
  -6   8   8   -0.88    1.03
  -6   8   8    0.40    0.87
   5  -8  -8    0.65    0.68
  -5  -8   8   -0.16    0.75
   5  -8  -8    0.64    0.36
  -5  -8   8    0.30    0.67
  -5   8   8   -0.21    0.71
   5   8  -8    0.51    0.60
   5   8  -8    0.34    0.61
  -5   8   8   -0.02    0.83
   4  -8  -8    1.02    0.33
   4  -8  -8    0.80    0.95
  -4  -8   8    0.60    0.72
  -4  -8   8    0.16    0.60
  -4  -8   8    1.25    0.61
   4  -8  -8    0.60    0.47
  -4   8   8    0.15    0.61
   4   8  -8    0.47    0.49
  -4   8   8    0.26    0.57
   4   8  -8    0.22    0.47
  -3  -8   8    1.30    0.56
   3  -8  -8    0.34    0.40
   3  -8  -8    0.41    0.28
  -3  -8   8    2.37    0.54
  -3  -8   8    0.32    0.50
   3   8  -8    0.61    0.46
   3   8  -8    0.81    0.45
  -3   8   8    0.97    0.46
  -3   8   8    1.30    0.54
  -2  -8   8   11.22    0.95
   2  -8  -8   13.01    0.72
   2  -8  -8   12.20    0.87
   2   8  -8   11.46    1.32
   2   8  -8   12.07    0.84
  -2   8   8   11.96    0.69
   1  -8  -8    0.67    0.34
   1  -8  -8    0.64    0.57
   1  -8  -8    1.12    0.64
  -1  -8   8    1.53    0.55
  -1  -8   8    0.39    0.40
  -1   8   8    0.82    0.48
   1   8  -8    0.71    0.37
   0  -8  -8    2.29    0.57
   0  -8   8    2.44    0.44
   0  -8  -8    3.04    0.45
   0  -8  -8    3.16    0.72
   0   8  -8    2.88    0.37
   0   8  -8    2.77    0.70
   0   8   8    2.32    0.56
   0   8   8    2.45    0.58
  -1  -8  -8    0.63    0.39
   1  -8   8    0.50    0.36
  -1  -8  -8   -0.25    0.40
   1  -8   8   -0.07    0.36
   1  -8   8    0.65    0.53
   1   8   8    0.35    0.50
  -1   8  -8   -0.23    0.41
  -1   8  -8    1.02    0.54
  -2  -8  -8    4.36    0.62
   2  -8   8    5.52    0.68
   2  -8   8    4.99    0.63
   2  -8   8    5.19    0.74
  -2  -8  -8    5.50    0.68
  -2  -8  -8    4.49    0.64
  -2   8  -8    6.13    0.74
   2   8   8    6.69    0.80
  -2   8  -8    4.76    0.61
   2   8   8    6.24    0.79
  -3  -8  -8    7.49    0.98
   3  -8   8    6.44    0.82
  -3  -8  -8    8.41    1.02
   3  -8   8    7.51    0.87
   3  -8   8    6.28    0.71
  -3  -8  -8    6.91    0.81
   3   8   8    8.52    1.02
  -3   8  -8    6.43    0.85
  -3   8  -8    7.47    0.81
   3   8   8    7.14    0.91
   4  -8   8   11.08    0.87
  -4  -8  -8   10.12    1.11
  -4  -8  -8   10.05    1.18
   4  -8   8   10.32    1.14
  -4  -8  -8   10.02    1.28
   4  -8   8    9.88    1.21
   4   8   8   10.84    1.30
   4   8   8    9.22    0.95
  -4   8  -8   10.29    1.25
  -4   8  -8   10.69    1.17
   5  -9  -8    1.36    0.35
  -5  -9   8    1.07    0.84
  -5  -9   8    2.07    0.88
  -5  -9   8   -0.50    0.92
   5  -9  -8    0.59    0.42
  -5   9   8   -0.40    0.76
   5   9  -8    2.16    0.74
   5   9  -8    0.07    0.71
  -5   9   8    0.11    0.98
   4  -9  -8   -0.30    0.59
   4  -9  -8    0.04    0.46
  -4  -9   8    0.93    0.72
  -4  -9   8    1.28    0.74
  -4  -9   8    0.47    0.68
   4  -9  -8    0.40    0.32
  -4   9   8    0.60    0.62
  -4   9   8    0.69    0.78
   4   9  -8    0.29    0.64
   4   9  -8    0.63    0.57
  -3  -9   8    0.44    0.62
   3  -9  -8    1.42    0.53
  -3  -9   8    0.79    0.63
   3  -9  -8    1.00    0.47
  -3  -9   8    1.62    0.62
   3  -9  -8    1.46    0.35
   3   9  -8    0.77    0.48
   3   9  -8    0.65    0.89
  -3   9   8    1.37    0.61
   2  -9  -8    0.39    0.31
  -2  -9   8   -0.21    0.48
   2  -9  -8    0.54    0.50
   2  -9  -8    1.11    0.62
  -2  -9   8    0.45    0.54
   2   9  -8    1.08    0.47
  -2   9   8    1.58    0.46
   2   9  -8    0.86    0.45
  -2   9   8   -0.13    0.49
   1  -9  -8    3.72    0.47
  -1  -9   8    4.06    0.75
  -1  -9   8    3.55    0.57
   1  -9  -8    4.93    0.64
   1  -9  -8    4.23    0.51
  -1   9   8    3.90    0.67
  -1   9   8    3.78    0.56
   1   9  -8    3.09    0.52
   1   9  -8    5.62    0.71
   0  -9  -8    0.25    0.43
   0  -9   8    0.81    0.41
   0  -9  -8    1.01    0.47
   0  -9   8    0.29    0.52
   0  -9  -8    0.43    0.36
   0   9  -8    0.36    0.42
   0   9  -8    0.55    0.37
   0   9   8    0.32    0.43
   0   9   8    0.12    0.55
  -1  -9  -8    2.08    0.57
  -1  -9  -8    2.54    0.51
  -1  -9  -8    2.56    0.53
   1  -9   8    2.25    0.66
   1  -9   8    1.11    0.38
  -1   9  -8    2.39    0.59
  -1   9  -8    2.87    0.57
   1   9   8    1.74    0.56
   1   9   8    2.09    0.63
  -2  -9  -8    0.36    0.53
   2  -9   8    0.73    0.67
  -2  -9  -8    0.97    0.54
   2  -9   8   -0.45    0.35
   2   9   8   -0.23    0.50
   2   9   8    0.33    0.55
  -2   9  -8   -0.11    0.57
  -2   9  -8    0.05    0.49
  -3  -9  -8   14.61    1.37
   3  -9   8   16.46    1.31
  -3  -9  -8   17.05    1.34
  -3  -9  -8   17.00    1.25
   3  -9   8   14.49    0.96
  -3   9  -8   17.29    1.40
   3   9   8   17.98    1.35
   3   9   8   13.53    1.23
  -3   9  -8   14.81    1.21
  -4  -9  -8    0.30    0.78
  -4  -9  -8    0.16    0.92
   4  -9   8   -0.12    0.89
  -4  -9  -8    0.54    0.80
   4  -9   8   -0.01    0.47
   4   9   8   -0.12    0.72
  -4   9  -8    0.86    0.72
   4   9   8   -0.05    0.88
  -4   9  -8   -0.26    0.88
  -4 -10   8   -0.71    0.85
   4 -10  -8   -0.32    0.40
  -4 -10   8    1.11    0.80
   4 -10  -8    0.58    0.33
  -4 -10   8    1.40    0.87
   4  10  -8    0.36    0.66
   4  10  -8    1.66    0.69
  -4  10   8    2.47    0.86
   3 -10  -8    1.36    0.38
  -3 -10   8    2.09    0.69
   3 -10  -8    1.76    0.69
  -3 -10   8    3.61    0.75
  -3 -10   8    1.85    0.77
  -3  10   8    2.45    0.65
   3  10  -8    1.93    0.61
   3  10  -8    2.40    0.65
  -3  10   8    1.14    0.73
  -2 -10   8   -0.41    0.54
   2 -10  -8   -0.14    0.56
  -2 -10   8    1.15    0.71
   2 -10  -8   -0.31    0.34
  -2  10   8    1.52    0.67
   2  10  -8    0.34    0.48
   2  10  -8    0.48    0.56
  -2  10   8    0.51    0.52
   1 -10  -8    4.31    0.67
  -1 -10   8    3.98    0.60
  -1 -10   8    4.31    0.83
   1 -10  -8    4.11    0.47
   1  10  -8    5.87    0.66
  -1  10   8    3.64    0.61
   1  10  -8    5.20    0.62
  -1  10   8    4.39    0.75
   0 -10  -8    0.71    0.51
   0 -10   8    1.38    0.64
   0 -10   8    0.49    0.42
   0 -10  -8    0.97    0.54
   0 -10  -8    1.37    0.44
   0  10   8    0.38    0.50
   0  10   8    0.26    0.65
   0  10  -8    0.40    0.43
  -1 -10  -8    0.83    0.54
  -1 -10  -8    0.77    0.60
   1 -10   8    0.86    0.68
  -1 -10  -8    0.26    0.53
   1 -10   8    0.38    0.41
   1  10   8   -0.01    0.63
  -1  10  -8    0.75    0.56
   1  10   8    0.33    0.55
  -1  10  -8    1.07    0.64
  -2 -10  -8    2.05    0.74
   2 -10   8    1.48    0.42
  -2 -10  -8    1.57    0.66
  -2 -10  -8    2.38    0.67
   2 -10   8    2.14    0.80
  -2  10  -8    0.74    0.64
   2  10   8    0.42    0.66
  -2  10  -8    1.59    0.70
   2  10   8    3.10    0.75
  -3 -10  -8    4.33    0.89
  -3 -10  -8    6.46    0.93
   3 -10   8    6.74    1.08
  -3 -10  -8    5.05    0.87
   3 -10   8    4.36    0.56
   3  10   8    5.23    0.98
  -3  10  -8    4.34    0.95
   3  10   8    4.28    0.86
  -3  10  -8    5.03    0.88
  -3 -11   8    0.95    0.84
   3 -11  -8    0.99    0.76
  -3 -11   8    0.54    0.90
  -3 -11   8    0.82    0.75
   3 -11  -8    0.74    0.36
   3  11  -8    0.86    0.64
   3  11  -8    0.27    0.72
  -3  11   8    0.87    0.66
  -3  11   8    0.75    0.82
  -2 -11   8   -1.20    0.65
   2 -11  -8   -0.61    0.37
  -2 -11   8   -1.41    0.81
   2 -11  -8    0.33    0.68
   2  11  -8    0.63    0.62
  -2  11   8    0.16    0.73
  -2  11   8   -1.54    0.61
   2  11  -8    0.79    0.67
   1 -11  -8   -1.75    0.62
   1 -11  -8   -0.65    0.41
  -1 -11   8   -0.65    0.53
  -1 -11   8    0.02    0.76
  -1  11   8    0.65    0.75
   1  11  -8   -1.04    0.52
  -1  11   8    0.03    0.60
   0 -11   8    3.58    0.89
   0 -11  -8    5.28    0.76
   0 -11   8    3.54    0.57
   0 -11  -8    3.61    0.55
   0  11   8    3.34    0.84
   0  11  -8    4.11    0.65
   0  11   8    3.47    0.68
   1 -11   8   -0.55    0.77
   1 -11   8   -0.48    0.46
  -1 -11  -8   -0.52    0.72
  -1 -11  -8   -0.19    0.60
  -1 -11  -8    0.13    0.57
  -1  11  -8    1.14    0.75
  -1  11  -8   -0.67    0.59
   1  11   8   -0.21    0.75
   1  11   8    0.57    0.64
   2 -11   8   10.07    1.22
  -2 -11  -8    7.22    0.93
  -2 -11  -8    7.85    1.07
  -2 -11  -8    8.77    0.98
   2  11   8    8.14    0.94
  -2  11  -8    7.14    1.04
  -2  11  -8    9.04    1.05
   2  11   8    8.65    1.12
  -1 -12   8   -1.46    0.65
   1 -12  -8    0.90    0.75
  -1 -12   8   -0.02    0.98
   1 -12  -8    0.75    0.49
  -1  12   8    1.44    0.67
  -1  12   8   -0.03    0.96
   1  12  -8   -0.97    0.63
   0 -12  -8    1.42    0.76
   0  12   8   -0.93    0.65
   0  12  -8   -0.89    0.68
   7   0  -9   -1.15    0.60
  -7   0   9   -1.32    0.70
   7   0  -9   -1.16    0.63
  -7   0   9    0.57    0.77
   6   0  -9   -0.04    0.45
  -6   0   9   -0.32    0.50
  -6   0   9    0.93    0.55
   6   0  -9    0.03    0.50
   6   0  -9    0.22    0.39
  -5   0   9    0.09    0.48
   5   0  -9    0.27    0.43
   5   0  -9   -0.43    0.34
  -5   0   9    0.16    0.46
  -4   0   9    0.05    0.35
   4   0  -9   -0.14    0.65
   4   0  -9   -0.19    0.38
  -4   0   9    0.14    0.47
  -4   0   9    0.61    0.42
   4   0  -9    0.10    0.30
   4   0  -9   -0.05    0.32
  -3   0   9    0.18    0.33
  -3   0   9   -0.02    0.41
   3   0  -9    0.27    0.31
   3   0  -9   -0.05    0.29
  -3   0   9    0.30    0.35
   3   0  -9   -0.55    0.56
   3   0  -9   -0.10    0.37
   2   0  -9   -0.03    0.16
   2   0  -9   -0.03    0.15
  -2   0   9   -0.08    0.31
   2   0  -9   -0.45    0.26
   2   0  -9    0.51    0.53
   2   0  -9   -0.31    0.34
  -2   0   9    0.06    0.31
  -2   0   9   -0.31    0.36
   2   0  -9    0.05    0.26
  -1   0   9    0.29    0.46
  -1   0   9   -0.46    0.32
  -1   0   9    0.47    0.50
   1   0  -9    0.16    0.27
   1   0  -9   -0.13    0.30
   1   0  -9   -0.16    0.22
   1   0  -9   -0.21    0.24
   1   0  -9   -0.08    0.26
  -1   0   9   -0.58    0.43
   1   0  -9    0.13    0.50
  -1   0   9    0.32    0.31
   0   0   9    0.39    0.34
   0   0   9    0.17    0.32
   0   0  -9   -0.26    0.24
   0   0  -9    0.54    0.26
   0   0   9   -0.10    0.29
   0   0   9    0.09    0.34
   0   0   9   -0.42    0.52
   0   0  -9   -0.36    0.33
   0   0  -9    0.82    0.33
   0   0  -9    0.18    0.55
   1   0   9    0.05    0.31
   1   0   9    0.38    0.20
  -1   0  -9    0.02    0.35
  -1   0  -9   -0.50    0.67
  -1   0  -9    0.10    0.30
   1   0   9    0.13    0.31
  -1   0  -9    0.04    0.30
   1   0   9   -0.04    0.33
   1   0   9    0.05    0.31
   1   0   9    0.15    0.64
  -2   0  -9    0.19    0.36
   2   0   9    0.11    0.71
   2   0   9   -0.37    0.32
   2   0   9   -0.18    0.32
  -2   0  -9   -0.24    0.31
   2   0   9    0.65    0.41
   2   0   9    0.04    0.23
  -2   0  -9    0.08    0.42
   2   0   9   -0.20    0.27
  -3   0  -9   -0.29    0.32
  -3   0  -9    0.39    0.51
   3   0   9    0.11    0.41
   3   0   9    0.25    0.36
   3   0   9   -0.11    0.46
  -3   0  -9   -0.15    0.43
   4   0   9    0.04    0.51
  -4   0  -9    0.21    0.56
  -4   0  -9    0.48    0.41
   4   0   9   -0.15    0.46
   5   0   9    0.17    0.62
  -5   0  -9    1.33    0.56
   5   0   9   -0.24    0.65
  -5   0  -9   -0.84    0.61
  -6   0  -9   -1.49    0.76
   6   0   9   -1.91    0.85
   6   0   9    0.27    0.78
  -6   0  -9   -0.31    0.89
   7  -1  -9    1.56    0.63
  -7  -1   9    3.70    0.76
  -7  -1   9    2.44    0.79
   7  -1  -9    3.70    0.72
   7   1  -9    1.87    0.71
  -7   1   9    2.99    0.81
  -7   1   9    1.67    0.75
   6  -1  -9    0.31    0.42
   6  -1  -9   -0.41    0.49
  -6  -1   9    0.82    0.54
   6  -1  -9    0.26    0.45
  -6   1   9   -0.01    0.53
   6   1  -9   -0.52    0.57
   6   1  -9    0.07    0.44
  -6   1   9    0.37    0.55
   6   1  -9   -0.11    0.40
  -5  -1   9    2.23    0.51
   5  -1  -9    2.68    0.69
   5  -1  -9    2.16    0.41
  -5  -1   9    1.18    0.62
   5  -1  -9    3.14    0.52
   5   1  -9    2.27    0.43
  -5   1   9    2.43    0.51
   5   1  -9    2.61    0.59
  -5   1   9    2.04    0.54
  -4  -1   9    0.03    0.36
   4  -1  -9    0.32    0.61
   4  -1  -9    0.45    0.33
   4  -1  -9   -0.17    0.32
   4  -1  -9    0.85    0.45
  -4  -1   9    1.14    0.44
  -4  -1   9    0.21    0.48
   4   1  -9    0.17    0.39
  -4   1   9    0.90    0.40
   4   1  -9    0.62    0.33
  -4   1   9    0.48    0.43
  -4   1   9    0.66    0.56
   4   1  -9    0.73    0.36
   4   1  -9   -0.04    0.72
   3  -1  -9   34.11    1.35
   3  -1  -9   32.16    1.49
   3  -1  -9   34.85    1.29
  -3  -1   9   33.32    1.30
  -3  -1   9   32.85    1.39
  -3  -1   9   33.88    1.41
   3  -1  -9   32.15    1.31
   3   1  -9   31.03    1.56
  -3   1   9   32.81    1.34
   3   1  -9   30.95    1.27
  -3   1   9   34.32    1.40
   3   1  -9   33.15    0.98
  -3   1   9   33.27    1.36
   3   1  -9   32.83    0.99
   3   1  -9   33.19    1.38
   3   1  -9   33.81    1.27
   2  -1  -9   24.04    1.04
   2  -1  -9   24.56    1.09
   2  -1  -9   25.10    1.28
  -2  -1   9   24.27    1.11
   2  -1  -9   23.81    1.02
  -2  -1   9   24.42    1.04
  -2  -1   9   21.14    1.28
  -2   1   9   25.13    1.09
  -2   1   9   24.57    1.17
   2   1  -9   23.98    1.14
   2   1  -9   24.06    0.83
  -2   1   9   23.34    1.08
   2   1  -9   23.45    0.85
   2   1  -9   21.75    1.26
   2   1  -9   22.99    1.02
   2   1  -9   23.84    0.98
   1  -1  -9   19.00    0.70
   1  -1  -9   18.61    1.13
   1  -1  -9   21.07    0.97
  -1  -1   9   16.73    1.12
   1  -1  -9   20.39    1.23
  -1  -1   9   18.40    0.95
  -1  -1   9   18.71    0.95
  -1  -1   9   18.97    0.95
   1  -1  -9   19.25    0.93
  -1  -1   9   19.09    0.94
   1  -1  -9   19.88    0.85
  -1   1   9   19.90    0.97
   1   1  -9   19.30    0.81
  -1   1   9   20.09    0.92
   1   1  -9   19.25    0.92
  -1   1   9   19.78    1.05
   1   1  -9   19.27    0.83
  -1   1   9   17.22    0.98
   1   1  -9   19.05    1.16
   1   1  -9   21.04    1.00
   1   1  -9   19.25    0.75
   0  -1  -9   58.24    2.07
   0  -1   9   57.97    2.10
   0  -1   9   62.29    2.01
   0  -1   9   60.66    1.99
   0  -1  -9   60.55    1.98
   0  -1  -9   57.27    1.79
   0  -1   9   60.19    1.97
   0  -1   9   59.21    1.81
   0  -1  -9   61.88    2.00
   0  -1  -9   56.22    1.99
   0   1   9   56.26    1.87
   0   1  -9   56.50    1.89
   0   1  -9   60.84    1.85
   0   1  -9   59.86    1.99
   0   1  -9   58.79    2.11
   0   1  -9   60.29    1.78
   0   1   9   57.75    2.00
   0   1  -9   60.95    1.97
   0   1   9   56.61    2.06
   0   1   9   60.72    1.92
  -1  -1  -9   14.36    1.20
   1  -1   9   15.15    1.12
   1  -1   9   14.69    0.66
  -1  -1  -9   14.43    0.78
   1  -1   9   14.98    0.85
  -1  -1  -9   14.32    0.82
   1  -1   9   14.44    0.60
   1  -1   9   14.40    0.83
  -1  -1  -9   13.04    1.01
  -1  -1  -9   15.38    0.88
   1  -1   9   14.93    0.88
  -1   1  -9   14.41    0.90
   1   1   9   13.86    0.88
   1   1   9   15.27    0.81
  -1   1  -9   13.67    0.78
  -1   1  -9   14.79    0.82
   1   1   9   14.89    0.80
   1   1   9   11.84    1.45
   1   1   9   16.00    0.67
   1   1   9   15.42    0.90
   2  -1   9   23.54    1.10
   2  -1   9   22.36    1.07
  -2  -1  -9   22.90    1.04
   2  -1   9   21.14    1.49
  -2  -1  -9   22.93    1.07
   2  -1   9   22.97    1.13
  -2  -1  -9   23.13    1.18
  -2   1  -9   21.16    1.20
   2   1   9   22.65    0.85
   2   1   9   22.23    1.01
   2   1   9   19.35    2.30
   2   1   9   24.20    1.16
   2   1   9   22.12    0.99
   2   1   9   22.30    1.10
  -2   1  -9   21.07    1.02
  -2   1  -9   21.49    1.06
  -3  -1  -9    1.50    0.39
   3  -1   9    2.19    0.52
   3  -1   9    2.15    0.51
   3  -1   9    2.11    0.50
  -3  -1  -9    1.99    0.60
  -3  -1  -9    1.46    0.49
  -3   1  -9    1.14    0.47
   3   1   9    2.09    0.47
  -3   1  -9    1.00    0.38
  -3   1  -9    1.47    0.67
   3   1   9    2.22    0.46
   3   1   9    2.18    0.57
   4  -1   9    0.92    0.52
  -4  -1  -9   -0.37    0.60
  -4  -1  -9    0.09    0.67
   4  -1   9    0.50    0.50
   4  -1   9    0.81    0.49
  -4  -1  -9    0.54    0.43
  -4   1  -9    0.06    0.54
   4   1   9    1.34    0.52
   4   1   9    0.31    0.60
  -4   1  -9    0.20    0.41
   5  -1   9    3.40    0.75
  -5  -1  -9    3.30    0.73
  -5  -1  -9    4.39    0.64
   5  -1   9    4.09    0.73
  -5   1  -9    3.86    0.63
   5   1   9    5.44    0.81
  -5   1  -9    3.15    0.80
  -6  -1  -9    0.38    0.84
   6  -1   9    0.54    0.82
  -6  -1  -9    0.46    0.86
   6  -1   9   -0.92    0.83
   6   1   9    0.51    0.78
  -6   1  -9   -0.35    0.84
   6   1   9    0.51    0.99
  -7  -2   9    3.76    0.81
   7  -2  -9    5.33    0.84
  -7  -2   9    5.03    0.85
   7  -2  -9    3.31    0.69
  -7   2   9    3.13    0.86
  -7   2   9    3.15    0.92
   7   2  -9    5.39    0.99
   7   2  -9    3.98    0.75
  -6  -2   9   -0.12    0.53
   6  -2  -9   -0.06    0.42
   6  -2  -9   -0.22    0.44
  -6  -2   9    1.14    0.57
   6  -2  -9    0.27    0.50
   6   2  -9   -0.03    0.47
  -6   2   9   -0.51    0.63
  -6   2   9   -0.22    0.57
   6   2  -9    0.37    0.45
  -5  -2   9    1.24    0.66
   5  -2  -9    2.50    0.60
  -5  -2   9    1.99    0.47
   5  -2  -9    1.85    0.45
   5  -2  -9    1.91    0.43
  -5  -2   9    2.56    0.57
   5   2  -9    2.04    0.43
  -5   2   9    1.64    0.56
   5   2  -9    2.21    0.58
  -5   2   9    1.78    0.59
   4  -2  -9   -0.20    0.36
   4  -2  -9    0.04    0.34
   4  -2  -9    0.40    0.62
   4  -2  -9    0.59    0.33
  -4  -2   9    0.33    0.44
  -4  -2   9    0.18    0.32
   4   2  -9    0.02    0.44
   4   2  -9   -0.12    0.35
   4   2  -9    0.79    0.79
  -4   2   9   -0.15    0.50
   4   2  -9   -0.37    0.30
  -4   2   9    0.11    0.37
   4   2  -9   -0.24    0.43
  -4   2   9    0.16    0.41
  -3  -2   9    6.27    0.70
  -3  -2   9    6.24    0.73
   3  -2  -9    6.87    0.64
   3  -2  -9    6.25    0.71
  -3  -2   9    6.29    0.64
   3  -2  -9    6.09    0.61
   3  -2  -9    6.88    0.68
   3   2  -9    7.34    0.82
   3   2  -9    6.30    0.63
  -3   2   9    8.08    0.86
   3   2  -9    6.47    0.63
   3   2  -9    7.41    0.86
   3   2  -9    5.95    0.63
  -3   2   9    7.22    0.71
  -3   2   9    7.68    0.68
  -2  -2   9   -0.26    0.34
   2  -2  -9    0.14    0.27
   2  -2  -9    0.00    0.30
  -2  -2   9   -0.02    0.28
   2  -2  -9   -0.45    0.29
  -2  -2   9    0.10    0.75
   2  -2  -9    0.00    0.51
  -2  -2   9   -0.20    0.34
   2   2  -9    0.18    0.31
   2   2  -9    0.21    0.34
  -2   2   9    0.40    0.41
  -2   2   9   -0.36    0.29
   2   2  -9   -0.12    0.24
   2   2  -9    0.01    0.61
   2   2  -9   -0.01    0.35
  -2   2   9   -0.29    0.32
   2   2  -9   -0.03    0.21
   1  -2  -9   54.42    1.81
  -1  -2   9   54.84    1.88
   1  -2  -9   52.32    1.51
   1  -2  -9   54.20    1.82
  -1  -2   9   53.50    1.83
   1  -2  -9   51.91    1.91
   1  -2  -9   54.65    1.77
  -1  -2   9   49.54    1.94
  -1  -2   9   52.93    1.77
  -1  -2   9   52.31    1.73
   1  -2  -9   52.76    1.51
   1  -2  -9   48.54    1.83
   1   2  -9   63.28    2.54
  -1   2   9   54.22    1.89
   1   2  -9   51.81    1.66
   1   2  -9   50.64    1.72
   1   2  -9   52.96    1.84
  -1   2   9   55.00    1.76
   1   2  -9   53.85    1.67
   1   2  -9   50.14    1.84
   1   2  -9   53.50    1.81
  -1   2   9   56.17    1.87
   0  -2   9   19.48    0.84
   0  -2  -9   20.00    0.97
   0  -2   9   19.45    0.98
   0  -2  -9   19.61    0.94
   0  -2   9   19.53    0.91
   0  -2  -9   18.06    1.05
   0  -2  -9   18.13    1.17
   0  -2   9   18.43    0.97
   0  -2  -9   18.85    0.78
   0  -2   9   20.29    1.23
   0   2   9   19.69    0.86
   0   2   9   20.76    1.08
   0   2  -9   20.53    0.96
   0   2   9   17.96    1.00
   0   2   9   19.94    1.03
   0   2  -9   18.92    1.20
   0   2  -9   18.77    0.74
   0   2  -9   19.39    0.87
   1  -2   9    0.29    0.35
  -1  -2  -9    0.46    0.29
  -1  -2  -9    0.38    0.65
   1  -2   9    1.03    0.62
   1  -2   9    0.15    0.36
   1  -2   9    0.29    0.18
  -1  -2  -9   -0.06    0.29
  -1  -2  -9    0.48    0.36
   1  -2   9    0.60    0.23
   1  -2   9   -0.22    0.28
  -1  -2  -9    0.19    0.51
   1   2   9    0.46    0.29
  -1   2  -9    0.43    0.49
  -1   2  -9    0.10    0.33
   1   2   9    0.37    0.35
   1   2   9    0.34    0.25
   1   2   9    0.26    0.40
  -1   2  -9    0.68    0.35
   2  -2   9   -0.09    0.35
  -2  -2  -9   -0.40    0.34
   2  -2   9   -0.38    0.71
  -2  -2  -9   -0.36    0.66
  -2  -2  -9   -0.84    0.78
   2  -2   9   -0.21    0.30
  -2  -2  -9    0.18    0.35
  -2  -2  -9    0.12    0.39
   2  -2   9   -0.37    0.37
  -2   2  -9    0.14    0.31
  -2   2  -9    0.27    0.37
   2   2   9    0.13    0.45
  -2   2  -9    0.00    0.53
   2   2   9    0.13    0.35
   2   2   9   -0.10    0.30
   2   2   9    0.38    0.52
   2   2   9   -0.06    0.27
   3  -2   9    0.51    0.46
  -3  -2  -9    1.05    0.55
  -3  -2  -9    0.29    0.44
  -3  -2  -9    0.80    0.36
   3  -2   9    0.34    0.43
   3  -2   9    1.07    0.45
  -3   2  -9    0.97    0.39
   3   2   9    0.40    0.52
   3   2   9    0.18    0.30
  -3   2  -9    0.04    0.61
  -3   2  -9    0.18    0.43
   3   2   9    1.12    0.40
   3   2   9    0.96    0.39
   4  -2   9    6.11    0.74
  -4  -2  -9    7.36    0.88
   4  -2   9    6.75    0.89
  -4  -2  -9    6.33    0.81
  -4  -2  -9    5.50    0.77
   4   2   9    8.03    0.79
   4   2   9    6.16    0.79
  -4   2  -9    6.82    0.81
  -4   2  -9    6.44    0.65
   4   2   9    5.89    0.61
   5  -2   9    0.54    0.62
  -5  -2  -9    0.10    0.63
   5  -2   9    0.16    0.63
  -5  -2  -9    0.95    0.57
  -5  -2  -9    0.64    0.64
  -5   2  -9    0.02    0.64
   5   2   9    2.05    0.64
  -5   2  -9    0.47    0.54
   5   2   9   -0.62    0.69
  -6  -2  -9    0.41    0.82
   6  -2   9    0.91    0.84
   6  -2   9   -0.89    0.71
   6   2   9    2.48    1.10
   6   2   9    1.53    0.85
  -6   2  -9    1.39    0.99
  -7  -3   9    1.38    0.76
   7  -3  -9    0.01    0.58
   7  -3  -9    1.34    0.69
  -7  -3   9    2.34    0.75
  -7   3   9    0.27    0.72
   7   3  -9   -0.31    0.89
   7   3  -9   -0.07    0.61
  -7   3   9   -0.59    0.83
  -6  -3   9    4.55    0.70
   6  -3  -9    3.95    0.62
   6  -3  -9    4.21    0.80
  -6  -3   9    4.32    0.69
   6  -3  -9    4.52    0.62
   6   3  -9    4.01    0.56
   6   3  -9    4.09    0.66
  -6   3   9    3.22    0.72
   6   3  -9    2.75    0.71
  -6   3   9    3.64    0.85
   5  -3  -9    5.41    0.70
   5  -3  -9    4.04    0.57
  -5  -3   9    3.98    0.59
  -5  -3   9    4.85    0.60
  -5  -3   9    4.71    0.67
  -5  -3   9    4.12    0.69
   5  -3  -9    4.28    0.52
  -5   3   9    3.15    0.64
   5   3  -9    4.13    0.64
   5   3  -9    4.23    0.52
   5   3  -9    4.90    0.78
  -5   3   9    4.74    0.68
   4  -3  -9    0.79    0.38
  -4  -3   9    0.76    0.52
  -4  -3   9    1.72    0.39
   4  -3  -9    0.83    0.36
   4  -3  -9    1.06    0.38
   4  -3  -9   -0.54    0.58
  -4  -3   9    1.47    0.49
  -4   3   9    0.93    0.44
   4   3  -9    0.92    0.39
   4   3  -9    0.93    0.55
  -4   3   9    1.18    0.47
   4   3  -9    0.83    0.41
  -3  -3   9   17.89    1.14
  -3  -3   9   20.64    1.08
  -3  -3   9   19.97    0.92
   3  -3  -9   21.08    0.99
   3  -3  -9   19.09    0.95
   3  -3  -9   18.71    1.19
  -3  -3   9   20.11    1.07
   3  -3  -9   18.53    0.99
   3   3  -9   19.62    0.95
  -3   3   9   20.08    1.13
  -3   3   9   20.77    1.03
   3   3  -9   19.74    1.10
   3   3  -9   16.76    1.42
   3   3  -9   20.75    0.98
   3   3  -9   20.10    1.04
  -3   3   9   21.33    1.05
  -2  -3   9    3.04    0.41
   2  -3  -9    2.73    0.80
   2  -3  -9    2.92    0.43
  -2  -3   9    2.21    0.67
  -2  -3   9    2.21    0.49
  -2  -3   9    2.22    0.41
   2  -3  -9    2.69    0.45
   2  -3  -9    3.36    0.48
   2  -3  -9    2.93    0.54
  -2   3   9    2.90    0.55
  -2   3   9    3.11    0.51
   2   3  -9    3.10    0.49
   2   3  -9    3.55    0.74
   2   3  -9    3.05    0.44
   2   3  -9    3.14    0.42
  -2   3   9    2.30    0.41
   2   3  -9    2.88    0.49
   1  -3  -9   51.45    1.48
  -1  -3   9   54.73    1.91
  -1  -3   9   51.06    1.74
   1  -3  -9   55.51    1.82
   1  -3  -9   54.68    1.83
  -1  -3   9   51.17    1.96
   1  -3  -9   51.92    1.89
  -1  -3   9   54.56    1.85
  -1  -3   9   53.77    1.74
   1  -3  -9   51.28    1.82
   1  -3  -9   52.98    1.48
   1   3  -9   54.56    1.66
  -1   3   9   53.10    1.88
  -1   3   9   54.06    1.85
   1   3  -9   52.48    1.70
   1   3  -9   51.63    1.85
  -1   3   9   54.09    1.72
   1   3  -9   49.28    1.86
   1   3  -9   53.35    1.82
   0  -3   9    1.68    0.41
   0  -3  -9    2.44    0.52
   0  -3  -9    1.52    0.39
   0  -3   9    1.90    0.47
   0  -3   9    2.31    0.64
   0  -3   9    1.98    0.37
   0  -3  -9    2.17    0.41
   0  -3   9    2.09    0.36
   0  -3  -9    2.20    0.61
   0  -3  -9    1.89    0.30
   0   3  -9    1.42    0.48
   0   3  -9    1.95    0.40
   0   3  -9    1.76    0.57
   0   3  -9    2.00    0.29
   0   3   9    2.27    0.42
   0   3  -9    2.01    0.38
   0   3   9    2.18    0.35
   0   3   9    2.69    0.56
   1  -3   9   11.10    0.82
   1  -3   9   10.41    0.71
  -1  -3  -9   11.00    0.74
  -1  -3  -9   11.34    0.90
  -1  -3  -9   11.06    0.83
  -1  -3  -9   10.76    0.68
   1  -3   9   10.23    1.13
   1  -3   9   10.64    0.78
  -1  -3  -9    9.48    1.14
   1   3   9    8.59    0.95
   1   3   9   11.46    1.09
   1   3   9   10.66    0.62
  -1   3  -9   10.38    0.91
   1   3   9   10.26    0.78
   1   3   9   10.07    0.65
  -1   3  -9    9.67    0.73
  -1   3  -9   10.76    0.76
  -2  -3  -9   12.66    0.94
  -2  -3  -9   12.55    0.82
  -2  -3  -9   10.47    0.97
   2  -3   9   12.00    0.82
  -2  -3  -9   11.81    0.82
   2  -3   9   13.87    1.31
   2  -3   9   11.57    0.88
   2  -3   9   12.19    0.81
  -2  -3  -9   11.91    1.49
   2   3   9   12.70    0.94
  -2   3  -9   11.25    0.84
  -2   3  -9   11.79    1.06
   2   3   9   12.32    0.87
   2   3   9   12.55    0.67
  -2   3  -9   11.55    0.81
   2   3   9   11.34    0.69
  -3  -3  -9    4.72    0.60
  -3  -3  -9    3.99    0.63
   3  -3   9    6.81    0.80
  -3  -3  -9    4.32    0.60
   3  -3   9    5.66    0.77
   3  -3   9    3.90    0.64
   3   3   9    4.18    0.47
  -3   3  -9    4.09    0.59
   3   3   9    4.25    0.89
   3   3   9    3.98    0.64
  -3   3  -9    4.22    0.52
  -4  -3  -9    3.66    0.58
  -4  -3  -9    2.99    0.65
   4  -3   9    1.98    0.53
   4  -3   9    2.76    0.68
   4  -3   9    2.39    0.58
  -4  -3  -9    1.78    0.66
   4   3   9    3.03    0.48
  -4   3  -9    1.95    0.60
  -4   3  -9    1.78    0.49
   4   3   9    3.14    0.71
   4   3   9    3.31    0.59
   5  -3   9    3.73    0.71
   5  -3   9    4.21    0.79
  -5  -3  -9    4.30    0.80
  -5   3  -9    4.56    0.67
  -5   3  -9    4.07    0.84
   5   3   9    6.49    0.86
   5   3   9    5.04    1.00
  -6  -3  -9    7.42    1.10
  -6   3  -9    5.89    1.05
   7  -4  -9    3.62    0.62
  -7  -4   9    5.64    0.92
   7  -4  -9    4.12    0.85
  -7   4   9    2.12    0.94
   7   4  -9    1.61    0.78
  -7   4   9    3.35    0.88
   7   4  -9    1.23    0.93
   6  -4  -9    0.37    0.43
  -6  -4   9    1.30    0.62
   6  -4  -9    1.00    0.54
  -6  -4   9   -0.01    0.56
  -6   4   9   -0.67    0.68
   6   4  -9   -0.21    0.51
  -6   4   9    0.24    0.59
   6   4  -9   -0.40    0.75
   6   4  -9   -0.11    0.49
  -5  -4   9    1.63    0.44
   5  -4  -9    0.42    0.39
   5  -4  -9    1.67    0.45
  -5  -4   9    0.60    0.55
   5  -4  -9    1.63    0.49
  -5  -4   9    1.74    0.72
  -5  -4   9    1.01    0.43
   5   4  -9    0.61    0.45
   5   4  -9    0.95    0.45
   5   4  -9    0.58    0.65
  -5   4   9    0.62    0.51
  -5   4   9    0.64    0.62
  -4  -4   9    1.36    0.38
   4  -4  -9    1.01    0.63
   4  -4  -9    0.07    0.36
  -4  -4   9    0.92    0.41
   4  -4  -9    1.28    0.46
  -4  -4   9    0.90    0.51
  -4  -4   9    0.97    0.50
   4  -4  -9    1.42    0.40
   4   4  -9    1.61    0.44
  -4   4   9    1.22    0.50
  -4   4   9    1.38    0.45
   4   4  -9    1.25    0.44
   4   4  -9    1.33    0.59
  -3  -4   9    0.04    0.38
  -3  -4   9    0.74    0.54
  -3  -4   9    0.23    0.88
   3  -4  -9    0.21    0.35
   3  -4  -9    0.11    0.32
   3  -4  -9   -0.16    0.29
   3  -4  -9   -0.28    0.55
  -3  -4   9   -0.04    0.31
  -3  -4   9    1.06    0.43
   3   4  -9    0.10    0.33
  -3   4   9   -0.18    0.38
  -3   4   9    0.45    0.59
   3   4  -9    0.07    0.66
  -3   4   9    0.56    0.40
   3   4  -9   -0.74    0.43
   3   4  -9   -0.18    0.30
   2  -4  -9    7.21    0.63
  -2  -4   9    5.61    0.69
   2  -4  -9    6.14    0.76
  -2  -4   9    5.77    0.66
  -2  -4   9    5.34    0.54
   2  -4  -9    5.83    0.63
   2  -4  -9    5.91    0.68
  -2   4   9    5.47    0.67
  -2   4   9    6.76    0.85
   2   4  -9    5.86    0.63
   2   4  -9    4.71    0.66
   2   4  -9    6.54    0.79
   2   4  -9    5.11    0.56
  -2   4   9    5.02    0.59
  -1  -4   9   11.45    1.07
   1  -4  -9    9.54    0.90
   1  -4  -9   10.25    0.73
  -1  -4   9    9.73    0.81
   1  -4  -9   10.58    0.72
   1  -4  -9    9.77    1.00
  -1  -4   9   10.27    0.79
  -1  -4   9   10.62    0.65
  -1  -4   9   10.79    0.83
   1  -4  -9   10.63    0.45
   1   4  -9   10.86    0.61
   1   4  -9   12.20    0.97
  -1   4   9   12.03    0.94
   1   4  -9   10.06    0.86
  -1   4   9   10.26    0.65
   1   4  -9   10.13    0.72
  -1   4   9   12.31    0.83
   1   4  -9   10.78    0.69
   0  -4   9   48.10    1.95
   0  -4  -9   53.30    1.80
   0  -4  -9   51.75    1.58
   0  -4   9   50.27    1.67
   0  -4   9   51.25    1.86
   0  -4   9   50.10    1.55
   0  -4   9   53.50    1.81
   0  -4  -9   49.22    1.96
   0  -4  -9   51.06    1.69
   0  -4  -9   51.46    1.80
   0   4   9   52.33    1.90
   0   4  -9   48.32    1.98
   0   4   9   48.98    1.65
   0   4  -9   52.18    1.87
   0   4  -9   53.21    1.76
   0   4   9   50.71    1.58
   0   4   9   50.19    1.84
   0   4  -9   48.30    1.77
  -1  -4  -9   -0.15    0.37
   1  -4   9   -0.11    0.37
  -1  -4  -9    0.01    0.44
  -1  -4  -9   -0.03    0.31
  -1  -4  -9   -0.46    0.31
   1  -4   9   -0.13    0.31
   1  -4   9    0.12    0.38
  -1  -4  -9   -1.19    0.71
  -1   4  -9   -0.16    0.49
   1   4   9   -0.42    0.28
  -1   4  -9   -0.35    0.31
   1   4   9    0.12    0.59
   1   4   9    0.42    0.52
  -1   4  -9   -0.53    0.31
   1   4   9   -0.24    0.33
   1   4   9   -0.06    0.24
   2  -4   9    0.97    0.41
   2  -4   9    0.63    0.38
   2  -4   9   -0.14    0.44
  -2  -4  -9    0.36    0.40
  -2  -4  -9    0.90    0.48
  -2  -4  -9    1.10    0.41
   2  -4   9    1.32    1.20
  -2   4  -9    0.27    0.62
   2   4   9    0.53    0.34
   2   4   9    0.29    0.40
  -2   4  -9    0.15    0.35
  -2   4  -9    1.05    0.42
   2   4   9    0.22    0.49
  -3  -4  -9    0.58    0.50
  -3  -4  -9    0.31    0.40
   3  -4   9    1.03    0.50
  -3  -4  -9    0.19    0.57
   3  -4   9    0.90    0.40
   3   4   9    0.78    0.44
  -3   4  -9    0.43    0.41
   3   4   9    0.60    0.39
   3   4   9    0.46    0.59
  -3   4  -9    0.42    0.53
  -4  -4  -9    2.27    0.72
  -4  -4  -9    2.32    1.04
   4  -4   9    1.99    0.54
   4  -4   9    3.62    0.67
  -4  -4  -9    1.95    0.61
   4  -4   9    2.80    0.68
   4   4   9    3.54    0.66
  -4   4  -9    2.09    0.51
   4   4   9    3.06    0.54
  -4   4  -9    2.81    0.69
   4   4   9    2.22    0.79
   5  -4   9    4.71    0.73
  -5  -4  -9    5.71    0.78
  -5  -4  -9    4.89    0.83
   5  -4   9    6.40    0.89
  -5   4  -9    4.93    0.84
  -5   4  -9    4.81    0.81
   5   4   9    6.68    0.83
  -6  -5   9   16.52    1.40
   6  -5  -9   14.97    0.99
   6  -5  -9   17.00    1.26
  -6   5   9   18.62    1.46
   6   5  -9   19.24    1.28
  -6   5   9   18.63    1.29
   6   5  -9   16.85    1.18
   6   5  -9   17.15    1.64
   5  -5  -9    0.21    0.50
   5  -5  -9    0.19    0.44
   5  -5  -9   -0.48    0.38
  -5  -5   9   -0.32    0.46
  -5  -5   9    0.21    0.68
  -5  -5   9   -0.08    0.47
  -5  -5   9    0.55    0.59
   5   5  -9   -1.41    0.67
  -5   5   9   -0.81    0.50
  -5   5   9    0.04    1.03
   5   5  -9    0.51    0.50
   5   5  -9   -0.18    0.44
  -4  -5   9    7.70    0.96
   4  -5  -9    6.24    0.76
   4  -5  -9    7.11    0.80
  -4  -5   9    6.72    0.85
  -4  -5   9    7.15    0.65
  -4  -5   9    7.59    0.76
   4  -5  -9    6.35    0.64
  -4   5   9    5.89    0.76
   4   5  -9    6.56    0.76
   4   5  -9    6.69    0.69
  -4   5   9    6.91    0.74
   4   5  -9    6.32    0.80
  -3  -5   9    0.03    0.44
   3  -5  -9    0.05    0.28
  -3  -5   9   -0.10    0.30
   3  -5  -9   -0.24    0.36
   3  -5  -9   -0.24    0.52
  -3  -5   9    0.52    0.46
   3   5  -9    0.21    0.36
  -3   5   9    0.68    0.37
  -3   5   9    0.16    0.40
   3   5  -9   -0.01    0.34
   3   5  -9   -1.16    0.51
   2  -5  -9    0.17    0.32
  -2  -5   9    0.16    0.41
   2  -5  -9    0.53    0.32
  -2  -5   9    0.92    0.77
  -2  -5   9    0.50    0.43
  -2  -5   9   -0.09    0.27
   2  -5  -9    0.56    0.51
  -2  -5   9    0.30    0.44
   2   5  -9   -0.02    0.32
  -2   5   9    0.27    0.36
  -2   5   9    0.01    0.64
  -2   5   9   -0.26    0.33
   2   5  -9    0.09    0.31
  -1  -5   9    8.79    0.74
  -1  -5   9    8.57    0.57
  -1  -5   9    8.90    0.79
   1  -5  -9    9.27    0.81
   1  -5  -9    8.83    0.72
  -1  -5   9    6.73    0.81
   1  -5  -9    8.63    0.46
   1  -5  -9    7.47    0.99
  -1  -5   9    8.88    0.87
   1  -5  -9    8.72    0.70
  -1   5   9    9.21    0.64
  -1   5   9    7.81    0.93
   1   5  -9    9.00    0.72
  -1   5   9    8.52    0.57
   1   5  -9    8.87    0.58
   1   5  -9    9.58    1.02
  -1   5   9    9.78    0.79
   0  -5  -9   -0.18    0.34
   0  -5   9    0.62    0.29
   0  -5  -9    0.94    0.38
   0  -5   9    0.33    0.37
   0  -5   9    0.87    0.41
   0  -5   9   -0.24    0.66
   0  -5   9    0.53    0.36
   0  -5  -9    0.71    0.38
   0  -5  -9    0.39    0.64
   0  -5  -9    0.52    0.29
   0   5   9    0.64    0.42
   0   5  -9    0.45    0.35
   0   5  -9    0.70    0.51
   0   5  -9    0.02    0.54
   0   5   9    0.36    0.28
   0   5   9    0.46    0.32
   0   5  -9    0.01    0.34
   0   5   9    0.72    0.54
   0   5   9    0.56    0.48
   1  -5   9    0.92    0.70
  -1  -5  -9    0.17    0.34
  -1  -5  -9   -0.12    0.88
  -1  -5  -9   -0.25    0.32
   1  -5   9    0.15    0.44
   1  -5   9   -0.03    0.32
   1  -5   9   -0.35    0.30
  -1  -5  -9    0.05    0.40
  -1  -5  -9   -0.17    0.28
  -1   5  -9    0.10    0.59
   1   5   9    0.19    0.40
   1   5   9   -0.11    0.34
  -1   5  -9    0.05    0.36
   1   5   9    0.65    0.59
  -1   5  -9    0.17    0.37
  -2  -5  -9    0.47    0.42
   2  -5   9    0.42    0.41
  -2  -5  -9    0.64    0.43
   2  -5   9    0.60    0.47
   2  -5   9    0.40    0.38
  -2  -5  -9    0.61    0.47
   2   5   9    0.38    0.64
   2   5   9    0.57    0.45
  -2   5  -9    0.54    0.39
  -2   5  -9   -0.05    0.42
   2   5   9    0.55    0.38
   3  -5   9    8.48    0.88
   3  -5   9    6.49    0.80
  -3  -5  -9    7.00    0.92
   3  -5   9    6.46    0.91
  -3  -5  -9    8.20    1.05
  -3  -5  -9    4.87    0.95
  -3   5  -9    6.31    0.87
   3   5   9    6.93    0.83
   3   5   9    5.78    0.78
  -3   5  -9    6.86    0.84
   3   5   9    7.07    0.78
  -4  -5  -9    4.41    0.68
   4  -5   9    4.64    0.68
   4  -5   9    5.19    0.85
  -4  -5  -9    3.69    0.72
   4  -5   9    4.54    0.72
  -4  -5  -9    5.37    0.87
   4   5   9    4.89    0.64
   4   5   9    5.44    0.76
  -4   5  -9    4.02    0.73
  -4   5  -9    5.09    0.72
  -5  -5  -9   25.99    1.67
   5  -5   9   23.86    1.40
  -5  -5  -9   25.72    1.52
   5  -5   9   27.35    1.71
  -5   5  -9   23.88    1.64
   5   5   9   26.19    1.63
  -5   5  -9   25.89    1.41
  -6  -6   9   10.64    1.34
   6  -6  -9   10.34    1.22
   6   6  -9   10.12    1.18
  -6   6   9    9.36    1.17
  -6   6   9   10.09    1.20
  -5  -6   9    1.06    0.58
  -5  -6   9    2.33    0.65
   5  -6  -9    1.42    0.38
  -5  -6   9    0.24    0.78
   5  -6  -9    2.85    0.62
   5  -6  -9    1.39    0.55
  -5   6   9    1.75    1.08
   5   6  -9    1.65    0.63
   5   6  -9    0.66    0.54
   5   6  -9    0.54    0.90
  -5   6   9    0.77    0.55
  -4  -6   9    0.18    0.54
  -4  -6   9    0.30    0.60
   4  -6  -9   -0.13    0.46
  -4  -6   9   -0.25    0.45
   4  -6  -9    0.21    0.29
   4   6  -9   -0.12    0.68
  -4   6   9    0.55    0.54
  -4   6   9   -0.59    0.44
   4   6  -9    0.31    0.45
  -3  -6   9    0.51    0.79
  -3  -6   9    1.11    0.34
   3  -6  -9    1.47    0.46
   3  -6  -9    0.04    0.54
  -3  -6   9    0.31    0.53
   3  -6  -9    1.08    0.40
   3   6  -9    1.07    0.43
   3   6  -9    0.07    0.59
  -3   6   9    1.99    0.83
  -3   6   9    1.35    0.44
   3   6  -9    0.45    0.40
  -2  -6   9    2.96    0.35
   2  -6  -9    2.48    0.63
   2  -6  -9    2.39    0.50
  -2  -6   9    1.90    0.47
   2  -6  -9    2.86    0.44
  -2  -6   9    3.69    0.56
   2   6  -9    2.33    0.42
  -2   6   9    3.69    0.56
   2   6  -9    1.93    0.74
   2   6  -9    3.00    0.51
  -2   6   9    2.60    0.42
  -1  -6   9    3.92    0.61
   1  -6  -9    3.07    0.43
  -1  -6   9    3.29    0.52
   1  -6  -9    3.06    0.49
   1  -6  -9    3.46    0.36
   1   6  -9    4.73    0.74
   1   6  -9    3.28    0.40
   1   6  -9    4.93    0.57
  -1   6   9    2.97    0.75
  -1   6   9    3.38    0.60
   0  -6  -9    5.41    0.54
   0  -6   9    4.74    0.51
   0  -6   9    5.20    0.68
   0  -6  -9    4.57    1.00
   0  -6  -9    6.43    0.69
   0  -6  -9    4.45    0.55
   0  -6   9    4.74    0.57
   0   6  -9    4.75    0.71
   0   6   9    4.80    0.69
   0   6  -9    5.65    0.69
   0   6  -9    5.09    0.66
   0   6   9    5.09    0.63
   0   6  -9    6.00    0.46
   0   6   9    5.62    0.68
  -1  -6  -9    9.59    0.86
   1  -6   9    9.94    0.80
   1  -6   9    9.05    0.91
  -1  -6  -9    9.99    0.82
   1  -6   9    9.03    0.68
  -1  -6  -9    8.87    0.72
   1   6   9    9.14    0.75
   1   6   9   10.06    1.17
   1   6   9    8.75    0.86
  -1   6  -9    8.15    0.78
  -1   6  -9   10.48    0.85
   2  -6   9   -0.01    0.44
  -2  -6  -9    0.54    0.54
   2  -6   9    0.41    0.42
  -2  -6  -9    0.41    0.47
  -2  -6  -9   -0.39    0.43
   2   6   9   -0.58    0.46
   2   6   9    0.44    0.42
  -3  -6  -9    0.27    0.72
  -3  -6  -9    1.28    0.52
   3  -6   9    0.55    0.42
   3  -6   9    0.32    0.56
  -3  -6  -9    1.00    0.58
   3  -6   9    0.60    0.51
  -3   6  -9    0.38    0.50
  -3   6  -9    2.21    0.62
   3   6   9    1.35    0.50
   3   6   9    1.01    0.55
   4  -6   9    4.10    0.64
   4  -6   9    3.84    0.80
   4  -6   9    3.56    0.76
  -4  -6  -9    4.25    0.93
  -4  -6  -9    3.59    0.79
  -4  -6  -9    3.27    0.73
  -4   6  -9    2.22    0.70
   4   6   9    3.09    0.72
   4   6   9    3.14    0.75
  -4   6  -9    3.44    0.68
   5  -6   9    1.87    0.91
   5  -6   9   -0.06    0.57
  -5  -6  -9    2.45    0.90
  -5  -6  -9   -0.08    0.76
   5   6   9   -0.33    0.86
  -5   6  -9   -0.34    0.69
  -5   6  -9   -0.26    0.83
   6  -7  -9   -0.32    0.45
  -6  -7   9    2.20    0.93
  -6   7   9   -0.10    0.77
   6   7  -9   -0.34    0.70
  -6   7   9   -0.23    0.97
   5  -7  -9   10.95    1.29
  -5  -7   9    8.99    1.07
  -5  -7   9   12.61    1.27
   5  -7  -9   14.15    0.83
  -5   7   9   12.51    1.08
   5   7  -9   13.29    1.13
   5   7  -9   13.44    1.17
  -5   7   9   14.21    1.35
  -4  -7   9    0.66    0.61
   4  -7  -9    0.69    0.34
  -4  -7   9    1.38    0.65
   4  -7  -9   -0.05    0.97
  -4  -7   9    1.62    0.60
  -4   7   9    1.67    0.60
  -4   7   9    0.09    0.53
   4   7  -9    1.27    0.50
   4   7  -9    0.35    0.48
  -3  -7   9    2.91    0.60
   3  -7  -9    2.09    0.36
  -3  -7   9    1.01    0.56
  -3   7   9    2.51    0.55
   3   7  -9    1.44    0.51
   3   7  -9    1.91    0.48
  -3   7   9    2.08    0.57
  -2  -7   9    0.08    0.45
   2  -7  -9    0.82    0.64
  -2  -7   9    0.53    0.51
   2  -7  -9    0.11    0.30
   2   7  -9   -0.06    0.35
  -2   7   9   -0.20    0.45
  -2   7   9    0.33    0.35
   2   7  -9   -0.84    1.12
   2   7  -9    0.40    0.74
   1  -7  -9    0.86    0.56
  -1  -7   9    0.48    0.45
  -1   7   9    0.62    0.41
  -1   7   9    0.59    0.76
   1   7  -9    0.34    0.33
  -1   7   9    0.20    0.38
   0  -7   9   -0.62    0.36
   0  -7  -9    0.00    0.45
   0  -7   9   -0.10    0.51
   0  -7  -9    0.02    0.34
   0  -7  -9   -0.01    0.34
   0   7  -9   -0.30    0.25
   0   7  -9    0.05    0.44
   0   7   9    0.28    0.75
   0   7  -9   -0.25    0.40
   0   7   9   -0.05    0.36
   1  -7   9    5.94    0.62
   1  -7   9    5.19    0.70
  -1  -7  -9    6.88    0.76
  -1  -7  -9    5.03    0.62
  -1  -7  -9    5.98    0.78
  -1   7  -9    6.16    0.77
   1   7   9    6.13    0.84
   1   7   9    6.54    0.76
   2  -7   9    0.84    0.55
   2  -7   9    1.09    0.40
  -2  -7  -9    1.21    0.54
  -2  -7  -9    1.51    0.54
   2  -7   9    1.05    0.47
   2   7   9    1.31    0.58
  -2   7  -9    0.07    0.52
  -2   7  -9    0.65    0.47
   3  -7   9    0.56    0.56
  -3  -7  -9    0.41    0.60
  -3  -7  -9    0.96    0.68
   3  -7   9    0.28    0.42
  -3  -7  -9    0.39    0.57
   3  -7   9   -0.54    0.58
  -3   7  -9    0.62    0.63
  -3   7  -9    0.11    0.56
   3   7   9    0.57    0.61
   3   7   9    1.23    0.53
   4  -7   9    8.95    1.05
   4  -7   9    9.64    0.93
  -4  -7  -9   10.22    1.22
  -4  -7  -9    7.82    1.06
   4  -7   9    9.96    1.26
  -4  -7  -9    8.26    1.01
  -4   7  -9    8.27    0.96
  -4   7  -9    6.54    0.84
   4   7   9    7.54    0.88
   4   7   9    8.81    1.04
   5  -8  -9    6.34    0.72
  -5  -8   9    3.05    0.92
  -5  -8   9    6.46    1.03
   5  -8  -9    4.16    0.80
  -5  -8   9    5.36    0.89
  -5   8   9    4.28    0.92
   5   8  -9    5.52    0.84
   5   8  -9    5.63    0.82
  -5   8   9    5.79    0.98
  -4  -8   9    5.11    0.90
   4  -8  -9    4.77    0.49
  -4  -8   9    5.59    0.82
  -4  -8   9    5.04    0.89
   4  -8  -9    5.28    0.74
   4   8  -9    3.83    0.67
  -4   8   9    5.33    0.76
  -4   8   9    7.23    1.01
   4   8  -9    5.14    0.74
  -3  -8   9    0.37    0.58
   3  -8  -9    0.59    0.53
   3  -8  -9    1.51    0.35
   3   8  -9    0.53    0.51
   3   8  -9    1.32    0.50
  -3   8   9    1.61    0.54
  -3   8   9    1.17    0.63
  -2  -8   9    0.63    0.56
   2  -8  -9    0.41    0.34
   2  -8  -9   -0.72    0.44
  -2  -8   9    0.95    0.72
  -2   8   9    0.48    0.52
   2   8  -9    0.80    0.44
   2   8  -9   -0.47    0.45
  -1  -8   9    7.47    1.26
   1  -8  -9    7.78    0.83
  -1  -8   9    8.62    0.93
   1  -8  -9    8.06    0.73
   1  -8  -9    7.31    0.99
  -1   8   9    6.79    0.78
  -1   8   9    6.60    0.93
   1   8  -9    6.96    0.75
   1   8  -9    7.40    0.72
   0  -8  -9    0.76    0.42
   0  -8   9    1.01    0.47
   0  -8  -9    1.02    0.41
   0  -8   9    1.34    0.55
   0  -8  -9    1.15    0.41
   0   8   9    0.44    0.53
   0   8   9    0.56    0.45
   0   8  -9    0.42    0.38
   0   8  -9    0.45    0.45
   1  -8   9    5.79    0.65
  -1  -8  -9    7.59    0.90
   1  -8   9    6.98    0.94
  -1  -8  -9    7.03    0.83
  -1  -8  -9    7.69    0.85
  -1   8  -9    6.37    0.79
   1   8   9    7.24    0.82
  -1   8  -9    6.80    0.86
   1   8   9    8.22    0.88
  -2  -8  -9   -0.31    0.49
   2  -8   9   -0.66    0.60
   2  -8   9    0.05    0.42
  -2  -8  -9    0.29    0.55
  -2  -8  -9    0.37    0.52
   2   8   9    0.67    0.55
   2   8   9   -0.11    0.59
  -2   8  -9   -0.26    0.55
  -2   8  -9    0.04    0.49
  -3  -8  -9    1.17    0.72
   3  -8   9    3.25    0.72
   3  -8   9    0.78    0.46
  -3  -8  -9    2.19    0.69
  -3  -8  -9    1.69    0.70
   3   8   9    1.00    0.66
  -3   8  -9    2.00    0.78
   3   8   9    0.96    0.67
  -3   8  -9    2.39    0.60
  -4  -8  -9    3.04    0.85
   4  -8   9    1.91    0.95
  -4  -8  -9    2.58    0.86
   4  -8   9    0.64    0.51
  -4  -8  -9    1.83    1.01
   4   8   9    1.44    0.80
   4   8   9    1.68    0.88
  -4   8  -9    1.89    0.77
  -4   8  -9    2.70    0.88
  -4  -9   9    0.10    0.76
  -4  -9   9    0.95    0.87
  -4  -9   9    1.14    0.75
   4  -9  -9    1.12    0.39
   4  -9  -9    0.15    0.69
   4   9  -9    1.31    0.70
  -4   9   9    1.25    0.74
   4   9  -9   -0.57    0.66
   3  -9  -9    0.40    0.61
  -3  -9   9    1.68    0.73
   3  -9  -9    1.67    0.40
  -3  -9   9   -0.18    0.62
   3   9  -9    0.59    0.57
   3   9  -9    0.56    0.57
  -3   9   9    0.80    0.70
  -2  -9   9    2.13    0.54
  -2  -9   9    2.20    0.77
   2  -9  -9    1.62    0.41
   2  -9  -9    2.66    0.61
   2   9  -9    1.95    0.60
   2   9  -9    2.95    0.59
  -2   9   9    2.94    0.69
  -2   9   9    3.74    0.63
   1  -9  -9    4.32    0.65
   1  -9  -9    3.19    0.48
  -1  -9   9    3.03    0.58
  -1  -9   9    3.94    0.74
  -1   9   9    4.13    0.66
  -1   9   9    2.73    0.71
   1   9  -9    3.76    0.54
   1   9  -9    2.40    0.60
   0  -9  -9    0.87    0.51
   0  -9   9    0.86    0.49
   0  -9  -9    1.13    0.48
   0  -9   9    0.77    0.62
   0  -9  -9   -0.04    0.50
   0   9  -9    0.33    0.49
   0   9   9    0.07    0.60
   0   9   9    1.09    0.48
  -1  -9  -9    2.74    0.66
  -1  -9  -9    2.73    0.61
  -1  -9  -9    2.42    0.60
   1  -9   9    2.77    0.74
   1  -9   9    1.77    0.52
  -1   9  -9    1.12    0.53
   1   9   9    1.77    0.63
   1   9   9    2.59    0.68
  -1   9  -9    1.71    0.63
   2  -9   9    4.07    0.54
  -2  -9  -9    8.12    1.06
  -2  -9  -9    5.54    0.81
   2  -9   9    6.59    0.95
  -2  -9  -9    5.35    0.78
  -2   9  -9    4.99    0.78
  -2   9  -9    6.59    0.94
   2   9   9    4.53    0.71
   2   9   9    6.60    0.88
  -3  -9  -9    0.95    0.83
  -3  -9  -9    1.00    0.76
  -3  -9  -9    0.50    0.78
   3  -9   9    0.20    0.81
   3  -9   9   -0.20    0.49
  -3   9  -9    1.59    0.83
   3   9   9    0.15    0.76
  -3   9  -9    0.05    0.70
   3   9   9   -1.66    0.65
   4 -10  -9   -0.46    0.41
  -4 -10   9    0.54    0.98
  -4 -10   9    1.48    0.91
  -4 -10   9    0.45    0.99
   4 -10  -9    0.82    0.88
  -4  10   9   -0.09    0.90
   4  10  -9    1.09    0.84
   4  10  -9   -0.37    0.78
   3 -10  -9    1.50    0.44
   3 -10  -9    2.64    0.73
  -3 -10   9    1.59    0.77
  -3 -10   9    1.28    0.91
  -3  10   9    3.53    0.69
   3  10  -9    3.81    0.77
   3  10  -9    1.46    0.70
  -3  10   9    2.62    0.86
   2 -10  -9    1.00    0.43
  -2 -10   9    0.26    0.61
  -2 -10   9    1.64    0.84
   2 -10  -9    1.25    0.68
  -2  10   9   -0.01    0.70
  -2  10   9    0.60    0.65
   2  10  -9    0.20    0.61
  -1 -10   9    0.23    0.55
   1 -10  -9    0.12    0.62
  -1 -10   9   -0.95    0.72
  -1  10   9    0.50    0.71
  -1  10   9    0.30    0.60
   0 -10   9    2.89    0.82
   0 -10  -9    1.52    0.65
   0 -10  -9    1.84    0.52
   0  10   9    2.40    0.60
   0  10   9    1.91    0.77
   0  10  -9    0.52    0.58
  -1 -10  -9    0.66    0.57
   1 -10   9    1.07    0.49
  -1 -10  -9    1.58    0.62
   1 -10   9   -0.20    0.74
  -1  10  -9   -0.41    0.61
   1  10   9    0.70    0.61
  -1  10  -9   -0.42    0.71
   1  10   9   -0.67    0.70
   2 -10   9    0.03    0.47
  -2 -10  -9   -0.77    0.83
  -2 -10  -9   -0.03    0.68
  -2 -10  -9    0.71    0.75
   2 -10   9    0.13    0.82
  -2  10  -9    0.91    0.84
   2  10   9    1.41    0.85
  -2  10  -9   -0.73    0.70
  -2 -11   9    0.98    0.74
   2 -11  -9    0.85    0.48
  -2 -11   9   -1.26    0.94
   2 -11  -9    0.65    0.77
  -2  11   9   -0.01    0.91
   2  11  -9   -1.04    0.73
  -2  11   9   -0.12    0.78
   1 -11  -9    1.22    0.51
  -1 -11   9    1.97    0.69
  -1 -11   9    0.93    0.91
   1 -11  -9    1.04    0.70
  -1  11   9    0.39    0.70
  -1  11   9    0.67    0.93
   0 -11   9   -0.61    0.59
   0 -11  -9   -0.46    0.53
   0 -11   9    0.84    0.93
   0 -11  -9   -0.62    0.71
   0  11   9    0.45    0.83
   0  11   9   -0.26    0.66
  -1 -11  -9   -0.32    0.66
   1 -11   9   -1.68    0.92
  -1 -11  -9    0.90    0.71
  -1  11  -9   -1.08    0.84
  -1  11  -9   -1.44    0.70
   1  11   9   -1.19    0.91
   1  11   9    0.29    0.76
   7   0 -10    4.38    0.76
  -7   0  10    3.35    0.97
   7   0 -10    2.48    0.87
  -7   0  10    4.01    0.87
  -6   0  10    3.15    0.72
   6   0 -10    1.57    0.61
   6   0 -10    2.07    0.59
  -6   0  10    1.32    0.66
   6   0 -10    2.24    0.58
   5   0 -10    2.70    0.48
  -5   0  10    1.53    0.53
  -5   0  10    3.26    0.63
   5   0 -10    3.23    0.57
   5   0 -10    1.64    0.65
  -4   0  10    4.88    0.70
  -4   0  10    2.44    0.65
   4   0 -10    5.18    0.60
  -4   0  10    4.89    0.68
   4   0 -10    3.72    0.50
   4   0 -10    3.42    0.62
   3   0 -10    0.00    0.79
   3   0 -10    0.03    0.35
   3   0 -10    0.50    0.35
  -3   0  10    0.69    0.57
  -3   0  10    0.08    0.39
   3   0 -10   -0.38    0.42
  -3   0  10    0.08    0.38
   2   0 -10   28.05    1.13
   2   0 -10   27.96    1.27
   2   0 -10   26.24    1.51
  -2   0  10   28.34    1.33
  -2   0  10   27.94    1.25
  -2   0  10   27.73    1.22
   2   0 -10   26.85    1.18
   1   0 -10    1.09    0.40
  -1   0  10    0.34    0.36
   1   0 -10    0.80    0.34
  -1   0  10    0.42    0.38
   1   0 -10    0.24    0.28
   1   0 -10    0.08    0.75
  -1   0  10    0.98    0.42
   1   0 -10    0.52    0.36
   0   0 -10   -0.25    0.46
   0   0 -10    0.20    0.42
   0   0  10    0.38    0.36
   0   0  10   -0.12    0.39
   0   0  10    0.12    1.09
   0   0  10    0.02    0.47
   0   0 -10    0.47    0.29
   0   0  10    0.14    0.34
   0   0 -10    0.61    0.34
   1   0  10    7.97    0.85
   1   0  10   10.46    1.10
  -1   0 -10   10.39    0.90
  -1   0 -10    8.63    0.72
   1   0  10    8.68    0.75
   1   0  10    9.33    0.55
   1   0  10   10.05    0.79
  -1   0 -10    9.77    0.74
   1   0  10    9.47    0.74
  -2   0 -10    0.14    0.34
   2   0  10   -0.09    0.45
   2   0  10   -0.28    0.36
  -2   0 -10    0.11    0.49
  -2   0 -10   -0.26    0.40
   2   0  10   -0.60    0.35
   2   0  10   -0.34    0.27
  -3   0 -10    2.12    0.48
   3   0  10    0.47    0.55
  -3   0 -10    0.34    0.50
   3   0  10    1.14    0.50
   3   0  10    1.28    0.50
  -3   0 -10    1.55    0.66
   4   0  10    4.90    0.78
  -4   0 -10    5.86    0.84
   4   0  10    4.32    0.74
   5   0  10    2.45    0.89
  -5   0 -10    0.23    0.77
  -5   0 -10    2.21    0.70
   5   0  10    2.31    0.80
  -7  -1  10    0.21    0.83
   7  -1 -10    0.30    0.73
   7  -1 -10   -0.59    0.69
  -7  -1  10    2.38    0.85
  -7   1  10    1.48    0.89
   7   1 -10    0.02    0.72
   7   1 -10    0.22    0.84
  -7   1  10    0.69    0.79
   6  -1 -10   -1.17    0.51
  -6  -1  10    0.71    0.67
   6  -1 -10   -0.86    0.48
   6  -1 -10    0.32    0.88
  -6  -1  10    0.33    0.56
  -6   1  10    0.98    0.65
  -6   1  10   -0.68    0.59
   6   1 -10    0.40    0.49
   6   1 -10   -0.52    0.50
   6   1 -10   -0.40    0.63
   5  -1 -10    0.37    0.42
  -5  -1  10   -0.17    0.45
  -5  -1  10    1.34    0.52
   5  -1 -10    0.17    0.47
   5  -1 -10    0.88    0.43
  -5   1  10    0.49    0.56
   5   1 -10    0.20    0.43
   5   1 -10    0.16    0.44
   5   1 -10   -0.16    0.49
  -5   1  10    0.79    0.59
  -4  -1  10    5.82    0.82
  -4  -1  10    3.90    0.69
  -4  -1  10    7.05    0.72
   4  -1 -10    5.64    0.68
   4  -1 -10    4.10    0.52
   4  -1 -10    7.21    0.79
  -4   1  10    5.06    0.71
  -4   1  10    7.13    0.84
  -4   1  10    4.90    1.06
   4   1 -10    4.51    0.58
   4   1 -10    5.33    0.69
   4   1 -10    5.71    0.72
  -3  -1  10    3.05    0.55
   3  -1 -10    2.09    0.49
   3  -1 -10    2.61    0.46
   3  -1 -10    2.34    0.43
  -3  -1  10    2.11    0.45
   3  -1 -10    1.20    0.76
   3   1 -10    2.38    0.43
   3   1 -10    2.04    0.42
  -3   1  10    1.93    0.47
   3   1 -10    2.88    0.91
  -3   1  10    2.00    0.48
  -3   1  10    2.64    0.64
   3   1 -10    2.69    0.52
  -2  -1  10   14.43    0.93
   2  -1 -10   14.13    0.85
   2  -1 -10   14.83    0.94
   2  -1 -10   14.98    1.32
  -2  -1  10   14.96    0.95
   2  -1 -10   14.84    0.83
  -2  -1  10   15.23    0.94
   2   1 -10   12.35    1.31
  -2   1  10   13.86    1.05
  -2   1  10   15.77    0.91
   2   1 -10   13.10    0.96
   2   1 -10   14.19    0.65
   2   1 -10   13.88    0.68
   2   1 -10   14.58    0.81
  -2   1  10   15.14    0.91
   2   1 -10   15.13    0.84
  -1  -1  10    1.00    0.41
  -1  -1  10   -0.28    0.50
  -1  -1  10    0.81    0.41
   1  -1 -10    0.18    0.70
   1  -1 -10    0.72    0.31
  -1  -1  10    1.31    0.96
  -1  -1  10    0.68    0.42
   1  -1 -10    0.91    0.33
   1  -1 -10    0.99    0.37
   1  -1 -10    0.87    0.27
   1  -1 -10    1.20    0.35
  -1   1  10    1.12    0.39
  -1   1  10    0.63    0.38
  -1   1  10    1.02    0.50
   1   1 -10    0.93    0.43
   1   1 -10    0.96    0.32
   1   1 -10    0.93    0.28
   1   1 -10    0.75    0.32
   1   1 -10    0.69    0.41
   0  -1 -10    0.99    0.45
   0  -1 -10    0.63    0.40
   0  -1 -10    1.79    0.75
   0  -1  10    1.21    0.45
   0  -1  10    1.77    0.44
   0  -1  10    1.68    0.45
   0  -1  10    0.37    1.05
   0  -1  10    1.38    0.41
   0  -1 -10    1.57    0.38
   0  -1 -10    1.60    0.34
   0   1  10    1.16    0.54
   0   1  10    0.76    0.42
   0   1  10    1.84    0.46
   0   1 -10    0.84    0.33
   0   1  10    1.62    0.40
   0   1 -10    1.98    0.43
   0   1 -10    1.45    0.35
  -1  -1 -10   46.15    1.66
   1  -1  10   45.79    1.69
   1  -1  10   39.78    1.99
  -1  -1 -10   38.73    2.00
  -1  -1 -10   44.32    1.56
   1  -1  10   46.17    1.70
   1  -1  10   45.81    1.68
   1  -1  10   42.28    1.41
  -1  -1 -10   46.37    1.74
   1   1  10   44.77    1.44
  -1   1 -10   44.30    1.64
  -1   1 -10   44.08    1.60
  -1   1 -10   43.63    1.68
   1   1  10   46.09    1.75
   1   1  10   44.12    1.72
   1   1  10   45.99    1.61
   1   1  10   42.11    1.57
  -2  -1 -10    0.33    0.39
   2  -1  10   -0.11    0.45
  -2  -1 -10   -0.11    0.49
   2  -1  10    0.53    0.37
   2  -1  10    0.06    0.47
  -2  -1 -10    0.35    0.40
  -2   1 -10   -0.02    0.51
  -2   1 -10    0.38    0.41
   2   1  10    0.07    0.42
  -2   1 -10    0.50    0.36
   2   1  10   -0.20    0.27
   2   1  10    0.05    0.46
   2   1  10   -0.02    0.40
  -3  -1 -10    6.04    0.83
  -3  -1 -10    5.90    0.75
   3  -1  10    8.20    0.97
   3  -1  10    6.45    0.81
  -3  -1 -10    5.09    0.69
  -3   1 -10    5.73    0.63
  -3   1 -10    4.46    0.64
   3   1  10    6.32    0.81
   3   1  10    5.62    0.78
   3   1  10    5.89    0.75
  -4  -1 -10    0.14    0.58
   4  -1  10    1.37    0.75
   4  -1  10    0.89    0.63
  -4  -1 -10    0.81    0.65
   4  -1  10    0.48    0.59
   4   1  10    0.63    0.54
  -4   1 -10    0.39    0.60
   4   1  10    0.44    0.69
  -5  -1 -10    0.25    0.78
  -5  -1 -10    2.13    0.70
   5  -1  10   -0.24    0.77
   5  -1  10    0.47    0.74
   5   1  10    0.51    0.84
   5   1  10    1.81    0.76
  -5   1 -10    2.38    0.67
  -5   1 -10    1.93    0.83
   7  -2 -10    0.37    0.67
  -7  -2  10    2.91    0.84
   7  -2 -10   -1.61    0.73
  -7  -2  10   -1.17    0.81
   7   2 -10    1.04    0.93
  -7   2  10    1.37    0.82
  -7   2  10    0.65    0.88
   7   2 -10    1.49    0.71
   6  -2 -10    0.54    0.52
  -6  -2  10   -0.68    0.58
   6  -2 -10   -0.76    0.56
  -6  -2  10    2.30    0.66
  -6   2  10   -1.16    0.62
  -6   2  10    1.84    0.73
   6   2 -10   -0.15    0.52
   6   2 -10   -0.37    0.54
   6   2 -10    0.50    0.76
   5  -2 -10    2.21    0.49
   5  -2 -10    1.29    0.53
  -5  -2  10    2.55    0.58
   5  -2 -10    2.02    0.51
  -5  -2  10    1.22    0.50
  -5   2  10    1.82    0.59
  -5   2  10    2.25    0.54
   5   2 -10    1.50    0.50
   5   2 -10    1.25    0.58
   5   2 -10    1.16    0.51
  -4  -2  10    2.33    0.55
  -4  -2  10    2.92    0.52
   4  -2 -10    3.76    0.60
   4  -2 -10    2.68    0.55
   4  -2 -10    3.57    0.50
   4   2 -10    4.19    0.56
   4   2 -10    3.37    0.39
  -4   2  10    4.37    0.68
  -4   2  10    2.81    0.55
   4   2 -10    4.67    0.71
   4   2 -10    2.90    0.48
   3  -2 -10    0.86    0.72
   3  -2 -10    0.81    0.41
   3  -2 -10    1.28    0.43
  -3  -2  10    1.44    0.49
   3  -2 -10    0.82    0.37
  -3  -2  10    2.25    0.53
  -3  -2  10    1.96    0.44
  -3   2  10    1.61    0.61
   3   2 -10    1.28    0.51
  -3   2  10    0.75    0.43
   3   2 -10    1.36    0.42
   3   2 -10    1.09    0.37
   3   2 -10    1.56    0.34
  -3   2  10    0.58    0.38
   2  -2 -10    0.92    0.35
   2  -2 -10    2.44    0.45
   2  -2 -10    2.33    0.43
   2  -2 -10    2.16    0.77
  -2  -2  10    3.24    0.56
  -2  -2  10    2.10    0.43
  -2   2  10    1.73    0.43
  -2   2  10    2.91    0.62
   2   2 -10    1.64    0.32
  -2   2  10    2.51    0.47
   2   2 -10    1.14    0.51
   2   2 -10    0.56    0.79
   2   2 -10    1.88    0.37
   2   2 -10    1.70    0.40
   2   2 -10    2.22    0.45
  -1  -2  10    0.64    0.35
   1  -2 -10    0.88    0.23
  -1  -2  10    0.41    0.40
   1  -2 -10    0.98    0.70
  -1  -2  10    0.20    0.88
  -1  -2  10    0.47    0.43
  -1  -2  10    1.11    0.53
   1  -2 -10    0.52    0.25
   1  -2 -10    1.24    0.39
   1  -2 -10    0.85    0.36
   1   2 -10    0.70    0.40
   1   2 -10    1.08    0.52
  -1   2  10    0.64    0.36
   1   2 -10    1.01    0.37
  -1   2  10    0.92    0.36
   1   2 -10    0.48    0.29
   1   2 -10    0.66    0.30
  -1   2  10    0.60    0.54
   0  -2  10   -0.02    0.37
   0  -2  10    0.45    0.42
   0  -2 -10    0.62    0.76
   0  -2  10   -0.05    0.40
   0  -2 -10    0.27    0.33
   0  -2  10   -0.10    0.35
   0  -2  10   -0.24    0.76
   0  -2 -10    0.13    0.40
   0  -2 -10    0.40    0.28
   0  -2 -10    0.34    0.80
   0   2  10    0.19    0.33
   0   2 -10    0.57    0.26
   0   2 -10    0.07    0.31
   0   2 -10   -0.01    0.31
   0   2  10   -0.04    0.32
   0   2 -10    0.28    0.41
   0   2  10    0.23    0.50
   1  -2  10    0.30    0.89
   1  -2  10    0.48    0.30
  -1  -2 -10    0.45    0.36
  -1  -2 -10    1.02    0.97
   1  -2  10    0.48    0.22
   1  -2  10    0.47    0.36
  -1  -2 -10    0.27    0.31
  -1  -2 -10    1.37    0.89
   1  -2  10    0.39    0.41
  -1  -2 -10    0.76    0.41
   1  -2  10    0.77    0.43
   1   2  10    0.31    0.30
  -1   2 -10    0.05    0.36
   1   2  10    0.91    0.67
  -1   2 -10    0.54    0.34
   1   2  10    0.21    0.36
   1   2  10    0.36    0.34
  -1   2 -10    0.70    0.52
   1   2  10    0.10    0.45
  -2  -2 -10    8.57    0.82
  -2  -2 -10    9.15    0.79
   2  -2  10    9.03    0.80
   2  -2  10    7.68    0.83
   2  -2  10    7.32    0.85
  -2  -2 -10   10.27    0.98
  -2   2 -10    8.57    0.81
  -2   2 -10    8.08    0.75
   2   2  10    9.06    0.82
   2   2  10    9.50    0.73
   2   2  10    9.67    1.01
  -2   2 -10    8.89    0.93
   2   2  10    8.37    0.65
   3  -2  10    0.06    0.50
   3  -2  10    0.40    0.47
  -3  -2 -10    0.53    0.45
  -3  -2 -10   -0.38    0.49
  -3  -2 -10    0.98    0.65
  -3   2 -10    0.14    0.40
   3   2  10   -0.45    0.56
  -3   2 -10   -0.49    0.58
   3   2  10   -0.03    0.33
   3   2  10    0.02    0.43
   3   2  10    0.58    0.46
   4  -2  10    0.15    0.61
  -4  -2 -10   -0.35    0.59
  -4  -2 -10    0.64    0.54
   4  -2  10    0.30    0.62
   4  -2  10    0.58    0.60
   4   2  10   -0.85    0.71
  -4   2 -10    0.23    0.58
   4   2  10    1.17    0.57
  -4   2 -10    0.31    0.64
   5  -2  10    4.94    0.90
  -5  -2 -10    5.00    0.91
   5  -2  10    2.10    0.78
  -5  -2 -10    4.49    0.81
  -5   2 -10    4.85    0.95
   5   2  10    2.47    1.00
  -5   2 -10    3.86    0.74
   5   2  10    5.26    0.83
   7  -3 -10    3.19    0.80
   7   3 -10    2.21    0.85
  -7   3  10    3.63    1.04
   7   3 -10    2.28    1.06
  -7   3  10    2.41    0.96
  -6  -3  10    0.87    0.66
   6  -3 -10    0.88    0.55
  -6  -3  10   -0.24    0.70
   6  -3 -10    1.10    0.51
  -6   3  10    0.84    0.64
   6   3 -10    0.43    0.63
   6   3 -10    0.42    0.64
  -6   3  10    1.10    0.72
   6   3 -10    0.41    0.81
   5  -3 -10   -0.10    0.47
   5  -3 -10   -0.16    0.48
  -5  -3  10    0.48    0.56
  -5  -3  10    1.25    0.51
   5  -3 -10   -0.55    0.47
   5   3 -10   -0.29    0.46
   5   3 -10   -0.17    0.44
  -5   3  10    0.87    0.60
   5   3 -10   -0.68    0.63
  -5   3  10   -0.02    0.46
  -4  -3  10    0.45    0.44
   4  -3 -10    0.61    0.48
   4  -3 -10    0.40    0.39
  -4  -3  10    0.44    0.56
  -4  -3  10    0.94    0.49
  -4   3  10    1.22    0.54
   4   3 -10    0.68    0.45
   4   3 -10   -0.60    0.53
   4   3 -10    0.15    0.40
  -3  -3  10    5.15    0.68
   3  -3 -10    4.26    0.53
   3  -3 -10    4.42    0.53
  -3  -3  10    3.46    0.60
   3  -3 -10    5.54    0.64
  -3  -3  10    4.62    0.60
  -3   3  10    5.94    0.74
   3   3 -10    5.33    0.53
  -3   3  10    6.38    0.86
   3   3 -10    4.52    0.52
   3   3 -10    4.55    0.66
  -3   3  10    5.48    0.73
   3   3 -10    5.03    0.56
  -2  -3  10    1.46    0.47
   2  -3 -10    2.97    0.45
  -2  -3  10    2.67    0.53
  -2  -3  10    3.27    1.00
   2  -3 -10    2.31    0.46
  -2  -3  10    2.31    0.43
   2  -3 -10    2.22    0.43
   2  -3 -10    1.70    0.73
   2   3 -10    2.74    0.46
   2   3 -10    2.36    0.40
  -2   3  10    2.33    0.63
   2   3 -10    2.62    0.58
   2   3 -10    1.43    0.52
   2   3 -10    2.82    0.39
  -2   3  10    2.46    0.47
  -2   3  10    1.91    0.43
   1  -3 -10   12.32    0.80
   1  -3 -10   13.07    0.87
  -1  -3  10   12.23    1.41
  -1  -3  10   13.14    0.87
   1  -3 -10   12.45    0.48
  -1  -3  10   14.00    0.92
  -1  -3  10   11.89    0.78
   1  -3 -10   12.05    1.23
   1  -3 -10   11.31    1.16
   1   3 -10   14.21    0.97
  -1   3  10   14.44    1.08
   1   3 -10   13.93    1.15
   1   3 -10   13.90    0.84
  -1   3  10   12.75    0.91
   1   3 -10   12.86    0.69
  -1   3  10   13.46    0.78
   1   3 -10   12.92    0.75
   0  -3  10    8.00    0.74
   0  -3  10    8.00    0.71
   0  -3  10   10.07    0.82
   0  -3 -10    7.41    0.57
   0  -3 -10    9.31    1.00
   0  -3 -10    9.06    0.81
   0  -3  10    8.72    0.96
   0  -3  10    8.33    0.81
   0  -3 -10    9.65    0.70
   0   3  10    7.93    1.05
   0   3  10    9.47    0.66
   0   3 -10    7.91    0.71
   0   3 -10    8.34    0.69
   0   3 -10    7.53    0.51
   0   3  10    8.11    0.80
   1  -3  10    4.43    0.55
   1  -3  10    3.86    0.60
  -1  -3 -10    4.85    0.63
   1  -3  10    3.86    0.55
  -1  -3 -10    3.64    0.59
  -1  -3 -10    3.96    0.49
   1   3  10    3.16    0.52
  -1   3 -10    3.83    0.50
   1   3  10    3.14    0.61
   1   3  10    4.22    0.46
  -1   3 -10    3.85    0.70
  -1   3 -10    3.69    0.54
   1   3  10    3.51    0.46
   2  -3  10    9.67    0.91
  -2  -3 -10   10.22    0.83
  -2  -3 -10   10.79    0.86
   2  -3  10    9.13    0.91
  -2  -3 -10   11.72    1.04
   2  -3  10   11.04    0.87
   2   3  10   10.83    0.75
  -2   3 -10    9.75    0.84
  -2   3 -10    9.78    1.26
   2   3  10   10.73    0.71
   2   3  10   11.78    1.08
  -2   3 -10   11.85    0.92
   3  -3  10    7.03    0.92
  -3  -3 -10    7.41    0.90
   3  -3  10    6.26    0.78
  -3  -3 -10    7.04    0.92
   3  -3  10    6.61    0.76
   3   3  10    6.42    0.88
   3   3  10    6.23    0.80
  -3   3 -10    5.88    0.73
   3   3  10    5.61    0.55
   4  -3  10    1.73    0.60
  -4  -3 -10    2.60    0.63
   4  -3  10    1.73    0.67
  -4  -3 -10    2.07    1.12
  -4  -3 -10    2.68    0.67
   4  -3  10    3.02    0.76
  -4   3 -10    2.58    0.61
   4   3  10    1.91    0.66
   4   3  10    3.57    0.88
  -4   3 -10    2.93    0.71
  -5  -3 -10    1.85    0.78
   5  -3  10    4.69    0.93
   5  -3  10    2.19    0.82
  -5  -3 -10    2.01    0.79
   5   3  10    2.94    0.81
  -5   3 -10    1.67    0.68
  -5   3 -10    0.92    0.81
  -6  -4  10    5.05    0.90
   6  -4 -10    4.24    0.64
   6  -4 -10    5.39    0.83
   6   4 -10    7.13    0.85
  -6   4  10    5.29    0.84
   6   4 -10    3.23    0.92
  -6   4  10    5.87    0.99
   5  -4 -10    2.62    0.56
  -5  -4  10    2.02    0.60
   5  -4 -10    1.64    0.50
  -5  -4  10    3.55    0.70
   5  -4 -10    2.17    0.57
  -5   4  10    3.34    0.74
  -5   4  10    2.37    0.61
   5   4 -10    3.17    0.76
   5   4 -10    2.75    0.61
   5   4 -10    2.89    0.59
  -4  -4  10    0.65    0.56
  -4  -4  10    0.59    0.44
   4  -4 -10    0.18    0.45
  -4  -4  10    0.63    0.52
   4  -4 -10   -0.37    0.40
   4  -4 -10   -0.31    0.44
  -4   4  10    0.98    0.58
   4   4 -10    0.78    0.43
  -4   4  10   -0.01    0.49
   4   4 -10    0.01    0.43
   4   4 -10   -1.18    0.56
   3  -4 -10    3.24    0.57
  -3  -4  10    2.47    0.55
  -3  -4  10    3.42    0.94
   3  -4 -10    3.47    0.54
   3  -4 -10    3.07    0.49
  -3  -4  10    3.46    0.50
   3   4 -10    3.24    0.48
   3   4 -10    2.36    0.60
   3   4 -10    2.75    0.47
  -3   4  10    2.75    0.60
  -3   4  10    3.63    0.58
  -2  -4  10    6.97    0.65
  -2  -4  10    9.16    0.85
   2  -4 -10    9.03    0.73
   2  -4 -10    7.51    0.95
   2  -4 -10    7.97    0.73
  -2  -4  10    7.81    0.83
  -2   4  10    7.67    0.71
  -2   4  10    7.89    0.78
  -2   4  10    8.47    1.06
   2   4 -10    7.89    0.68
   2   4 -10    7.70    0.65
   2   4 -10    7.88    0.72
   2   4 -10    6.79    0.80
  -1  -4  10    0.84    0.36
   1  -4 -10    1.34    0.74
   1  -4 -10    1.19    0.38
   1  -4 -10    1.03    0.37
  -1  -4  10    1.43    0.43
  -1  -4  10    0.87    0.46
  -1  -4  10    1.91    0.92
   1   4 -10    1.42    0.52
   1   4 -10    1.90    0.33
  -1   4  10    0.97    0.64
   1   4 -10    0.93    0.38
  -1   4  10    0.63    0.40
  -1   4  10    1.80    0.38
   1   4 -10    1.09    0.39
   0  -4  10   16.55    1.02
   0  -4  10   16.21    0.87
   0  -4 -10   17.59    1.02
   0  -4 -10   16.51    0.76
   0  -4  10   17.76    1.04
   0  -4 -10   16.74    0.96
   0   4  10   16.15    1.05
   0   4 -10   15.69    0.94
   0   4  10   16.98    0.80
   0   4 -10   16.79    1.17
   0   4 -10   16.50    0.71
   0   4  10   17.79    0.91
   0   4 -10   16.92    0.95
   0   4  10   16.49    1.23
  -1  -4 -10    2.95    0.47
  -1  -4 -10    2.57    0.45
   1  -4  10    2.02    0.46
   1  -4  10    2.91    0.49
  -1  -4 -10    1.94    0.51
   1  -4  10    3.04    0.59
   1   4  10    2.81    0.71
  -1   4 -10    3.18    0.73
  -1   4 -10    2.09    0.43
  -1   4 -10    2.35    0.53
   1   4  10    3.53    0.55
   1   4  10    3.15    0.46
   1   4  10    3.01    0.40
   2  -4  10   -0.55    0.43
   2  -4  10    0.29    0.44
  -2  -4 -10    0.95    0.47
  -2  -4 -10    0.07    0.53
  -2   4 -10   -0.45    0.45
   2   4  10    0.17    0.44
  -2   4 -10   -0.04    0.46
   2   4  10   -1.16    0.58
   2   4  10    0.00    0.39
   3  -4  10   10.95    1.05
   3  -4  10   13.61    1.08
  -3  -4 -10   11.45    1.24
  -3  -4 -10   14.08    1.06
  -3  -4 -10   13.60    1.10
   3  -4  10   10.71    1.18
  -3   4 -10   10.95    1.06
   3   4  10   10.33    1.29
   3   4  10   13.04    1.03
   3   4  10   10.17    0.86
  -3   4 -10   10.07    0.97
   4  -4  10    0.76    0.62
  -4  -4 -10    0.53    0.77
  -4  -4 -10   -0.14    0.60
   4  -4  10   -0.48    0.57
   4  -4  10    0.48    0.69
  -4  -4 -10    0.66    0.65
  -4   4 -10    0.73    0.56
   4   4  10    0.79    0.58
  -4   4 -10   -0.19    0.67
   5  -4  10    1.73    0.89
  -5  -4 -10    1.06    0.86
   5  -4  10    0.16    0.73
  -5  -4 -10    0.06    0.77
  -5   4 -10   -0.47    0.72
  -5   4 -10   -1.42    0.85
   5   4  10    0.35    0.75
   6  -5 -10   -0.14    0.64
  -6  -5  10    0.47    0.77
   6  -5 -10    1.20    0.54
  -6   5  10    2.28    0.90
   6   5 -10   -1.15    0.66
  -6   5  10    0.06    0.66
   5  -5 -10    0.51    0.44
   5  -5 -10    0.44    0.54
  -5  -5  10    1.79    0.64
   5  -5 -10    0.88    0.59
   5   5 -10   -0.21    0.52
   5   5 -10   -0.21    0.77
   5   5 -10    0.14    0.66
  -5   5  10    1.28    0.73
   4  -5 -10   -0.42    0.45
   4  -5 -10    0.79    0.48
   4  -5 -10    0.47    0.36
  -4  -5  10    0.46    0.51
  -4  -5  10    0.72    0.63
  -4  -5  10    1.25    0.44
   4   5 -10   -0.33    0.68
  -4   5  10    1.01    0.49
   4   5 -10    0.77    0.85
  -4   5  10    1.19    0.59
  -3  -5  10    0.52    0.38
   3  -5 -10    0.23    0.44
   3  -5 -10    0.76    0.39
  -3  -5  10    0.54    0.51
  -3  -5  10    0.00    0.48
   3   5 -10    1.38    0.72
  -3   5  10    0.65    0.48
  -3   5  10    0.78    0.48
   3   5 -10    0.25    0.43
   3   5 -10    0.40    0.43
   2  -5 -10    0.13    0.38
  -2  -5  10    0.06    0.34
   2  -5 -10    0.13    0.35
  -2  -5  10   -0.23    0.44
  -2  -5  10    0.72    0.69
  -2   5  10    0.52    0.40
   2   5 -10   -0.50    0.58
   2   5 -10    0.01    0.36
   2   5 -10    0.29    0.35
  -1  -5  10    4.62    0.57
   1  -5 -10    5.58    0.70
  -1  -5  10    6.64    0.79
  -1  -5  10    4.53    0.63
   1  -5 -10    5.93    0.72
   1   5 -10    6.04    0.57
   1   5 -10    4.62    0.56
   1   5 -10    5.51    0.63
  -1   5  10    4.27    0.60
   1   5 -10    4.68    0.77
  -1   5  10    4.94    0.49
   0  -5  10   24.30    1.24
   0  -5  10   24.01    1.04
   0  -5  10   25.78    1.31
   0  -5 -10   25.28    1.23
   0  -5 -10   23.91    0.95
   0  -5 -10   24.85    1.23
   0   5  10   25.86    1.14
   0   5  10   24.35    0.94
   0   5 -10   23.57    1.20
   0   5 -10   23.58    1.38
   0   5  10   24.39    1.31
   0   5  10   25.62    1.46
   0   5 -10   25.69    1.20
  -1  -5 -10    0.00    0.69
  -1  -5 -10   -0.04    0.38
   1  -5  10   -0.49    0.42
   1  -5  10    0.56    0.41
  -1  -5 -10    0.65    0.49
  -1   5 -10    0.24    0.45
   1   5  10    0.77    0.72
   1   5  10    0.43    0.38
   1   5  10   -0.05    0.32
   1   5  10    0.80    0.49
  -2  -5 -10    4.19    0.60
   2  -5  10    3.71    0.67
  -2  -5 -10    3.81    0.60
   2  -5  10    3.37    0.62
  -2  -5 -10    4.87    0.74
  -2   5 -10    4.56    0.87
   2   5  10    4.63    0.59
  -2   5 -10    3.96    0.60
   2   5  10    5.09    0.71
  -3  -5 -10   -0.20    0.90
   3  -5  10   -0.10    0.59
   3  -5  10   -0.03    0.65
   3  -5  10   -0.15    0.48
  -3  -5 -10   -0.27    0.72
  -3  -5 -10   -0.10    0.52
  -3   5 -10    0.29    0.58
  -3   5 -10   -0.10    0.48
   3   5  10   -0.35    0.47
   3   5  10   -0.25    0.57
  -4  -5 -10    2.14    0.89
  -4  -5 -10    0.44    0.76
   4  -5  10    1.51    0.75
  -4  -5 -10    2.31    0.70
   4  -5  10    1.68    0.61
   4  -5  10    0.53    0.76
   4   5  10    1.76    0.83
  -4   5 -10   -0.26    0.74
   4   5  10    2.10    0.64
  -4   5 -10    0.63    0.60
   6  -6 -10    0.52    0.53
   6  -6 -10    0.53    0.81
  -6  -6  10    1.90    0.91
  -6   6  10    0.79    0.81
  -6   6  10   -0.04    0.97
   6   6 -10   -1.12    0.70
   5  -6 -10    4.80    0.75
   5  -6 -10    2.75    0.70
   5  -6 -10    3.44    0.49
  -5  -6  10    4.74    0.78
  -5  -6  10    4.61    0.74
  -5   6  10    2.83    0.74
   5   6 -10    3.09    0.68
  -5   6  10    5.10    0.89
   5   6 -10    4.70    0.77
  -4  -6  10    1.58    0.67
  -4  -6  10    2.38    0.64
   4  -6 -10    1.63    0.41
   4  -6 -10    2.35    0.60
  -4   6  10    1.43    0.66
   4   6 -10    1.02    0.52
  -4   6  10    2.39    0.58
   4   6 -10    0.87    0.57
  -3  -6  10    1.75    0.61
   3  -6 -10    1.71    0.39
  -3  -6  10    1.79    0.60
   3  -6 -10    1.42    0.54
  -3   6  10    1.69    0.53
   3   6 -10    1.98    0.50
  -3   6  10    1.36    0.55
   3   6 -10    1.76    0.72
   3   6 -10    2.55    0.54
   2  -6 -10    0.54    0.39
  -2  -6  10    0.38    0.51
   2  -6 -10    1.07    0.54
  -2  -6  10    0.20    0.48
   2   6 -10    1.23    0.45
   2   6 -10    0.14    0.37
  -2   6  10    0.92    0.42
  -2   6  10    1.72    0.48
  -1  -6  10   10.56    0.87
  -1  -6  10    9.21    0.61
   1  -6 -10    9.48    0.87
  -1  -6  10    9.46    0.93
   1  -6 -10    9.50    1.04
   1   6 -10    5.55    1.17
  -1   6  10    9.50    0.89
   1   6 -10    8.76    0.67
   1   6 -10   10.48    0.83
  -1   6  10   10.21    0.62
   1   6 -10   10.62    0.84
   0  -6 -10    1.91    0.37
   0  -6  10    1.47    0.49
   0  -6 -10    1.47    0.46
   0  -6  10    2.47    0.40
   0  -6  10    2.03    0.54
   0  -6 -10    2.05    0.50
   0   6  10    1.82    0.51
   0   6  10    2.33    0.49
   0   6 -10    1.74    0.45
   0   6 -10    2.05    0.52
   1  -6  10   10.36    0.96
  -1  -6 -10    9.18    0.90
  -1  -6 -10    9.04    0.79
   1  -6  10    9.02    0.78
  -1  -6 -10    9.99    0.95
  -1   6 -10   10.25    1.10
  -1   6 -10    7.84    0.82
   1   6  10   10.12    0.85
   1   6  10    9.47    0.87
  -2  -6 -10    3.62    0.62
  -2  -6 -10    3.40    0.57
   2  -6  10    4.06    0.78
   2  -6  10    3.51    0.57
  -2  -6 -10    3.71    0.76
   2  -6  10    4.82    0.65
  -2   6 -10    3.40    0.57
   2   6  10    3.34    0.59
  -2   6 -10    3.75    0.68
   2   6  10    3.54    0.65
  -3  -6 -10    2.59    0.70
  -3  -6 -10    1.81    0.62
   3  -6  10    1.57    0.58
  -3  -6 -10    0.93    0.82
   3  -6  10    1.28    0.71
   3  -6  10    1.11    0.70
   3   6  10    1.12    0.69
  -3   6 -10    1.85    0.60
  -3   6 -10    2.69    0.74
   3   6  10    1.53    0.60
  -4  -6 -10   -0.85    0.73
   4  -6  10   -1.45    0.79
   4  -6  10    0.38    0.63
  -4  -6 -10    0.53    0.77
  -4  -6 -10    1.70    1.04
   4  -6  10    1.64    0.79
   4   6  10    0.85    0.71
  -4   6 -10    0.34    0.69
  -4   6 -10   -0.76    0.78
   4   6  10    1.20    0.77
  -5  -7  10    0.19    0.81
   5  -7 -10    1.08    0.45
  -5  -7  10    1.67    0.78
   5  -7 -10    0.96    0.72
  -5   7  10    0.97    0.74
  -5   7  10    2.41    0.88
   5   7 -10    0.77    0.63
   5   7 -10   -0.23    0.66
   4  -7 -10   -1.47    0.57
   4  -7 -10    0.54    0.38
  -4  -7  10    0.67    0.78
  -4  -7  10   -0.99    0.66
   4   7 -10    0.58    0.56
  -4   7  10    0.61    0.68
   4   7 -10    0.11    0.55
  -4   7  10    2.25    0.68
  -3  -7  10    4.28    0.68
   3  -7 -10    3.96    0.68
  -3  -7  10    2.69    0.64
   3  -7 -10    3.37    0.49
   3   7 -10    3.17    0.58
  -3   7  10    3.01    0.67
  -3   7  10    2.12    0.58
   3   7 -10    3.23    0.59
  -2  -7  10   -0.29    0.51
   2  -7 -10    0.71    0.49
  -2  -7  10   -0.37    0.52
   2  -7 -10   -0.69    0.34
   2   7 -10   -0.10    0.41
   2   7 -10   -0.79    0.43
  -2   7  10    0.84    0.50
   1  -7 -10    0.11    0.39
  -1  -7  10   -0.71    0.44
  -1  -7  10    0.94    0.56
   1  -7 -10    0.25    0.49
   1   7 -10   -0.65    0.39
   1   7 -10   -0.12    0.36
  -1   7  10    0.59    0.46
  -1   7  10    1.05    0.54
   0  -7 -10    0.59    0.45
   0  -7 -10   -0.15    0.46
   0  -7  10   -0.32    0.47
   0  -7  10   -0.52    0.44
   0  -7 -10   -0.18    0.38
   0   7  10   -0.17    0.45
   0   7 -10   -0.16    0.43
   0   7  10   -0.53    0.53
   1  -7  10   13.69    0.94
  -1  -7 -10   16.20    1.11
  -1  -7 -10   13.73    0.98
  -1  -7 -10   15.48    1.15
   1  -7  10   17.12    1.16
   1  -7  10   15.44    1.05
   1   7  10   15.39    1.16
  -1   7 -10   15.49    1.13
   1   7  10   15.04    1.04
  -1   7 -10   14.90    1.03
   2  -7  10   -0.19    0.60
   2  -7  10    0.74    0.47
   2  -7  10    0.48    0.53
  -2  -7 -10    0.17    0.58
  -2  -7 -10    0.80    0.60
  -2  -7 -10    0.91    0.59
   2   7  10    1.02    0.64
   2   7  10    0.76    0.57
  -2   7 -10    0.90    0.61
  -2   7 -10   -0.27    0.56
  -3  -7 -10    0.52    0.73
   3  -7  10   -0.53    0.49
  -3  -7 -10    1.14    0.83
  -3  -7 -10    0.24    0.66
   3  -7  10   -1.35    0.81
   3  -7  10   -0.02    0.76
  -3   7 -10    0.25    0.73
   3   7  10    0.18    0.65
  -3   7 -10    0.61    0.61
   3   7  10    0.33    0.67
  -4  -7 -10    0.42    1.09
   4  -7  10    1.67    0.68
   4  -7  10    3.70    1.42
  -4  -7 -10    2.37    0.97
   4  -7  10   -0.24    0.96
  -4  -7 -10    0.52    0.87
   4   7  10    1.57    0.84
  -4   7 -10    0.72    0.89
  -4   7 -10    2.09    0.83
   4   7  10    2.10    0.89
   5  -8 -10    5.58    0.61
  -5  -8  10    6.64    1.19
   5  -8 -10    5.21    0.95
  -5  -8  10    3.53    1.04
   5   8 -10    6.19    0.97
   5   8 -10    5.61    0.92
  -5   8  10    7.86    0.99
   4  -8 -10    2.36    0.45
   4  -8 -10    2.53    0.72
  -4  -8  10    3.22    0.86
  -4  -8  10    0.99    0.78
   4   8 -10    1.85    0.71
  -4   8  10    1.78    0.73
   4   8 -10    1.76    0.68
  -3  -8  10    0.07    0.69
  -3  -8  10    0.94    0.68
   3  -8 -10    0.36    0.66
   3  -8 -10    0.44    0.39
   3   8 -10   -0.61    0.54
  -3   8  10    0.14    0.62
   3   8 -10   -0.52    0.53
  -2  -8  10    0.72    0.61
   2  -8 -10    1.34    0.43
   2  -8 -10    0.44    0.52
  -2  -8  10    1.10    0.62
  -2   8  10    1.67    0.59
   2   8 -10    0.97    0.52
   2   8 -10    1.29    0.57
  -1  -8  10   -0.18    0.51
   1  -8 -10    1.17    0.49
   1  -8 -10    1.42    0.48
  -1  -8  10    1.41    0.63
   1   8 -10    1.67    0.56
  -1   8  10    1.42    0.48
  -1   8  10    1.54    0.60
   1   8 -10    0.64    0.44
   0  -8 -10    0.74    0.52
   0  -8  10    1.16    0.62
   0  -8  10    1.03    0.52
   0  -8 -10    0.73    0.55
   0   8 -10    0.26    0.52
   0   8 -10    1.13    0.59
   0   8  10    1.08    0.58
   0   8  10    0.40    0.51
   1  -8  10   -0.13    0.64
  -1  -8 -10    0.41    0.55
  -1  -8 -10    0.56    0.54
  -1  -8 -10   -0.78    0.55
   1  -8  10    0.90    0.50
   1   8  10   -0.39    0.61
  -1   8 -10    0.07    0.62
  -1   8 -10   -0.68    0.49
   1   8  10    0.51    0.58
  -2  -8 -10    2.86    0.71
  -2  -8 -10    2.34    0.70
   2  -8  10    2.34    0.79
   2  -8  10    2.07    0.55
  -2  -8 -10    3.35    0.73
  -2   8 -10    2.36    0.81
  -2   8 -10    2.34    0.62
   2   8  10    3.93    0.71
   2   8  10    4.42    0.80
  -3  -8 -10    1.23    0.87
  -3  -8 -10    0.20    0.75
   3  -8  10    2.19    0.81
  -3  -8 -10    3.08    0.86
   3  -8  10   -0.01    0.53
   3   8  10   -0.19    0.78
  -3   8 -10    0.41    0.83
  -3   8 -10   -0.20    0.69
   3   8  10    0.82    0.80
  -4  -9  10   11.82    1.34
   4  -9 -10   11.37    1.48
  -4  -9  10   15.29    1.75
   4  -9 -10   12.34    0.94
   4   9 -10   11.04    1.38
  -4   9  10   11.71    1.30
   4   9 -10   10.44    1.35
   3  -9 -10    0.47    0.41
   3  -9 -10    0.76    0.72
  -3  -9  10    2.03    0.83
  -3  -9  10    0.76    0.74
   3   9 -10   -0.87    0.62
  -3   9  10    0.59    0.76
   3   9 -10    0.76    0.64
  -2  -9  10   -1.66    0.58
  -2  -9  10    0.41    0.76
   2  -9 -10    0.69    0.45
   2  -9 -10   -0.30    0.64
  -2   9  10    0.96    0.60
   2   9 -10   -1.04    0.53
   2   9 -10    0.31    0.63
  -2   9  10   -1.42    0.66
  -1  -9  10    0.16    0.58
  -1  -9  10    1.59    0.75
   1  -9 -10    2.58    0.52
   1  -9 -10    1.43    0.67
   1   9 -10    2.15    0.59
  -1   9  10    3.11    0.76
  -1   9  10    1.60    0.65
   0  -9 -10   -0.43    0.57
   0  -9 -10    0.08    0.53
   0  -9  10    0.08    0.56
   0  -9  10    0.47    0.73
   0   9 -10    0.61    0.67
   0   9  10   -0.17    0.57
   0   9  10    0.59    0.72
   0   9 -10   -0.62    0.56
   1  -9  10   -0.36    0.77
  -1  -9 -10   -0.09    0.62
   1  -9  10    0.29    0.55
  -1  -9 -10    0.80    0.61
   1   9  10   -0.37    0.70
   1   9  10   -0.74    0.62
  -1   9 -10   -0.17    0.59
  -1   9 -10    0.34    0.69
  -2  -9 -10    2.51    0.88
  -2  -9 -10    2.23    0.77
   2  -9  10    3.12    0.96
  -2  -9 -10    2.28    0.80
   2  -9  10    2.06    0.56
   2   9  10    2.07    0.86
   2   9  10    0.98    0.73
  -2   9 -10    2.49    0.76
  -2   9 -10    2.50    0.86
   2 -10 -10   -1.30    0.73
  -2 -10  10    0.08    0.85
  -2 -10  10   -1.69    0.72
   2 -10 -10   -0.56    0.49
  -2  10  10    0.60    0.69
  -2  10  10   -1.80    0.83
   2  10 -10   -0.52    0.65
  -1 -10  10   -0.35    0.66
   1 -10 -10   -0.20    0.52
  -1 -10  10    0.78    0.85
   1 -10 -10    2.23    0.77
  -1  10  10   -0.31    0.85
   1  10 -10   -1.53    0.58
  -1  10  10   -0.09    0.66
   0 -10  10    1.68    0.89
   0 -10 -10    1.22    0.61
   0 -10 -10    1.96    0.68
   0 -10  10    0.58    0.59
   0  10  10    1.42    0.83
   0  10  10    2.11    0.71
   0  10 -10    2.11    0.80
   0  10 -10    0.03    0.63
  -1 -10 -10    1.66    0.74
   1 -10  10   -2.14    0.86
   1 -10  10    0.26    0.61
  -1 -10 -10    0.99    0.76
  -1  10 -10   -0.19    0.83
   1  10  10    0.52    0.79
  -1  10 -10   -0.43    0.73
   1  10  10    1.48    0.88
  -6   0  11    1.55    0.79
  -6   0  11   -1.51    0.74
   6   0 -11    0.41    0.63
   6   0 -11   -0.01    0.69
  -5   0  11    0.61    0.58
   5   0 -11   -0.67    0.45
   5   0 -11   -0.01    0.59
  -5   0  11    0.74    0.56
   5   0 -11   -0.39    0.46
  -4   0  11   -0.71    0.49
   4   0 -11    0.39    0.45
  -4   0  11   -0.26    0.54
   4   0 -11   -0.30    0.49
   4   0 -11    0.00    0.57
  -3   0  11    0.57    0.65
  -3   0  11    0.50    0.48
   3   0 -11   -1.10    0.47
   3   0 -11    0.41    0.39
   3   0 -11    0.05    0.41
  -3   0  11   -0.02    0.43
  -2   0  11    0.08    0.45
  -2   0  11   -0.16    0.54
  -2   0  11   -0.01    0.41
   2   0 -11    0.06    0.35
   2   0 -11   -0.51    0.36
   2   0 -11   -0.38    0.42
   1   0 -11   -0.09    0.33
  -1   0  11   -0.19    0.45
   1   0 -11   -0.31    0.40
  -1   0  11   -0.45    0.42
   1   0 -11   -0.30    0.28
  -1   0  11    0.03    0.41
   1   0 -11    0.44    0.35
   0   0  11   -0.07    0.39
   0   0  11    0.03    0.49
   0   0 -11   -0.16    0.49
   0   0 -11    0.22    0.31
   0   0  11    0.15    0.40
   0   0 -11    0.04    0.33
   1   0  11   -0.43    0.28
  -1   0 -11   -0.06    0.52
   1   0  11    0.64    0.47
  -1   0 -11   -0.06    0.40
   1   0  11   -0.20    0.40
   1   0  11   -0.61    0.46
  -1   0 -11   -0.18    0.36
  -2   0 -11    0.17    0.66
  -2   0 -11   -0.35    0.46
   2   0  11   -0.41    0.44
   2   0  11    0.20    0.50
   2   0  11   -0.15    0.53
  -2   0 -11   -0.36    0.47
   3   0  11   -0.11    0.52
  -3   0 -11   -0.10    0.45
   3   0  11    0.04    0.51
  -3   0 -11   -0.64    0.58
   3   0  11    0.42    0.71
   4   0  11   -1.13    0.76
   4   0  11   -0.41    0.67
  -4   0 -11   -1.25    0.69
  -4   0 -11    0.99    0.62
   5   0  11   -0.66    0.90
  -5   0 -11   -0.23    0.81
   6  -1 -11   -0.14    0.61
   6  -1 -11    0.50    0.70
  -6  -1  11   -0.43    0.71
  -6  -1  11    2.88    0.75
  -6   1  11   -0.87    0.72
   6   1 -11   -0.39    0.78
  -6   1  11    1.67    0.79
   6   1 -11    0.96    0.67
   5  -1 -11    0.43    0.49
  -5  -1  11    0.07    0.59
   5  -1 -11    0.80    0.55
   5  -1 -11   -1.10    0.50
  -5  -1  11    0.79    0.64
  -5   1  11    0.50    0.52
   5   1 -11   -0.17    0.67
  -5   1  11    0.87    0.66
   5   1 -11    0.42    0.50
   5   1 -11    0.69    0.52
  -4  -1  11   -0.14    0.50
   4  -1 -11    0.12    0.44
  -4  -1  11    0.52    0.55
   4  -1 -11   -0.12    0.52
   4  -1 -11    0.24    0.41
   4   1 -11   -0.47    0.42
   4   1 -11    0.23    0.75
   4   1 -11    1.12    0.58
  -3  -1  11    3.19    0.53
  -3  -1  11    2.72    0.59
   3  -1 -11    2.16    0.53
   3  -1 -11    2.41    0.50
   3  -1 -11    3.18    0.53
  -3  -1  11    2.37    0.59
  -3   1  11    2.71    0.81
  -3   1  11    3.94    0.65
   3   1 -11    1.34    0.60
   3   1 -11    3.03    0.52
  -3   1  11    2.50    0.57
   3   1 -11    2.90    0.48
   2  -1 -11    0.56    0.39
  -2  -1  11    1.07    0.50
  -2  -1  11    1.06    0.47
  -2  -1  11    1.87    0.51
   2  -1 -11    0.63    0.43
   2  -1 -11    0.81    0.41
   2   1 -11    0.72    0.37
   2   1 -11    0.60    0.46
   2   1 -11    0.51    0.31
  -2   1  11    1.07    0.64
  -2   1  11    0.89    0.45
  -2   1  11    0.55    0.46
   2   1 -11    0.18    0.38
  -1  -1  11   -0.03    0.40
   1  -1 -11    0.08    0.30
   1  -1 -11    0.17    0.34
  -1  -1  11    0.28    0.41
   1  -1 -11   -0.03    0.42
  -1  -1  11    0.22    0.49
   1   1 -11    0.30    0.48
   1   1 -11    0.03    0.32
  -1   1  11   -0.28    0.41
   1   1 -11   -0.35    0.32
  -1   1  11   -0.11    0.67
  -1   1  11    0.23    0.44
   1   1 -11   -0.43    0.32
   0  -1  11    0.50    0.42
   0  -1  11   -0.20    0.44
   0  -1  11   -0.17    0.40
   0  -1 -11   -0.06    0.43
   0  -1 -11    0.12    0.32
   0  -1 -11   -0.18    0.32
   0   1  11   -0.08    0.39
   0   1  11    0.47    0.40
   0   1 -11   -0.34    0.33
   0   1 -11   -0.29    0.35
   0   1 -11    0.09    0.48
   0   1  11    0.25    0.49
   1  -1  11    0.84    0.47
   1  -1  11   -0.06    0.42
  -1  -1 -11   -0.48    0.55
  -1  -1 -11   -0.01    0.41
  -1  -1 -11    0.51    0.38
   1  -1  11    0.37    0.48
   1   1  11   -0.31    0.40
  -1   1 -11    0.59    0.44
   1   1  11   -0.12    0.33
   1   1  11    0.38    0.53
  -1   1 -11    0.49    0.45
  -1   1 -11    0.60    0.54
   1   1  11    0.35    0.41
   2  -1  11    1.39    0.51
  -2  -1 -11    2.73    0.71
  -2  -1 -11    2.35    0.58
  -2  -1 -11    3.07    0.54
   2  -1  11    4.01    0.71
  -2   1 -11    4.08    0.60
   2   1  11    2.62    0.40
  -2   1 -11    3.42    0.80
   2   1  11    3.92    0.69
  -2   1 -11    2.98    0.58
   2   1  11    2.47    0.54
   2   1  11    2.87    0.52
   3  -1  11    0.69    0.67
  -3  -1 -11    0.03    0.87
   3  -1  11    0.75    0.56
  -3  -1 -11   -0.46    0.64
  -3  -1 -11    0.52    0.50
  -3   1 -11   -0.54    0.57
   3   1  11   -0.18    0.55
  -3   1 -11    0.08    0.45
   3   1  11    0.24    0.54
   3   1  11    0.64    0.71
  -4  -1 -11    1.39    0.62
   4  -1  11    0.93    0.74
   4  -1  11    1.02    0.71
  -4  -1 -11   -0.85    0.71
   4  -1  11    0.82    0.80
   4   1  11    0.24    1.27
   4   1  11    1.29    0.68
  -4   1 -11    0.95    0.61
  -4   1 -11   -0.83    0.71
  -6  -2  11    1.64    0.71
   6  -2 -11    0.71    0.58
   6  -2 -11    0.97    0.65
  -6  -2  11    1.88    0.70
   6   2 -11   -1.18    0.62
   6   2 -11   -1.50    0.74
  -6   2  11    0.83    0.82
   5  -2 -11    1.62    0.54
  -5  -2  11    0.74    0.59
  -5  -2  11    0.57    0.58
   5  -2 -11   -0.55    0.57
   5  -2 -11    1.44    0.55
  -5   2  11    1.07    0.61
   5   2 -11    1.16    0.57
   5   2 -11    0.85    0.53
  -5   2  11    1.91    0.71
  -4  -2  11    2.21    0.59
  -4  -2  11    0.63    0.51
   4  -2 -11    0.46    0.49
   4  -2 -11   -0.61    0.47
  -4  -2  11    0.50    0.60
   4  -2 -11    0.42    0.44
   4   2 -11   -0.41    0.77
  -4   2  11    0.47    0.97
   4   2 -11   -0.03    0.46
  -4   2  11    0.22    0.48
   4   2 -11    0.85    0.64
   3  -2 -11    1.25    0.43
   3  -2 -11    2.00    0.49
  -3  -2  11    1.18    0.49
  -3  -2  11    2.55    0.60
   3  -2 -11    1.31    0.47
  -3   2  11    1.48    0.53
   3   2 -11    1.00    0.61
   3   2 -11    2.19    0.47
  -3   2  11    1.38    0.51
   3   2 -11    1.69    0.46
   3   2 -11    1.54    0.41
  -2  -2  11    1.45    0.47
  -2  -2  11    1.54    0.54
   2  -2 -11    0.89    0.38
  -2  -2  11    1.27    0.52
   2  -2 -11    1.05    0.45
   2  -2 -11    1.17    0.42
   2   2 -11    1.11    0.61
   2   2 -11    1.11    0.32
  -2   2  11    1.75    0.67
   2   2 -11    1.09    0.41
  -2   2  11    0.94    0.51
   2   2 -11    1.53    0.44
  -2   2  11    1.66    0.51
  -1  -2  11   13.11    0.87
  -1  -2  11   12.64    1.04
   1  -2 -11   14.26    0.88
   1  -2 -11   13.79    0.99
  -1  -2  11   14.15    0.99
   1  -2 -11   12.38    0.55
  -1   2  11   11.87    0.89
   1   2 -11   13.01    1.04
   1   2 -11   12.12    0.74
   1   2 -11   12.24    0.85
  -1   2  11   12.31    1.21
  -1   2  11   13.29    1.01
   1   2 -11   13.23    0.77
   0  -2 -11    0.29    0.32
   0  -2 -11    0.56    0.50
   0  -2  11    0.60    0.45
   0  -2  11    0.17    0.48
   0  -2  11    0.35    0.43
   0  -2 -11    0.88    0.34
   0   2  11    0.64    0.45
   0   2  11    0.72    0.39
   0   2 -11    0.45    0.38
   0   2 -11    0.82    0.39
   0   2  11    0.24    0.51
   0   2 -11    0.84    0.48
   1  -2  11    1.17    0.50
   1  -2  11    1.56    0.49
  -1  -2 -11    0.65    0.42
  -1  -2 -11    0.62    0.54
   1  -2  11    0.57    0.49
  -1   2 -11    1.01    0.60
   1   2  11    0.91    0.61
  -1   2 -11    1.37    0.47
   1   2  11    0.79    0.38
   1   2  11    0.91    0.42
   2  -2  11    0.90    0.55
  -2  -2 -11    1.52    0.44
   2  -2  11    1.78    0.51
   2  -2  11    1.15    0.53
  -2  -2 -11    2.06    0.62
  -2  -2 -11    1.33    0.53
   2   2  11    1.18    0.40
   2   2  11    0.58    0.63
   2   2  11    0.47    0.49
  -2   2 -11    1.08    0.54
   2   2  11    0.69    0.46
  -2   2 -11    1.57    0.51
  -3  -2 -11    0.04    0.64
  -3  -2 -11    2.17    0.56
   3  -2  11    1.13    0.61
   3  -2  11    2.90    1.02
   3  -2  11    1.28    0.63
  -3  -2 -11    1.16    0.81
   3   2  11    1.25    0.56
   3   2  11    0.81    0.74
  -3   2 -11    1.27    0.53
   3   2  11    1.54    0.54
  -3   2 -11    0.72    0.62
  -4  -2 -11    1.68    0.79
   4  -2  11    2.30    0.79
  -4  -2 -11    2.01    0.69
   4  -2  11    3.38    0.84
   4  -2  11    3.64    0.80
  -4   2 -11    2.83    0.86
  -4   2 -11    3.70    0.69
   4   2  11    0.66    0.93
   4   2  11    4.19    0.75
  -6  -3  11   12.58    1.35
   6  -3 -11   12.75    1.27
   6  -3 -11    8.99    1.21
   6   3 -11   12.69    1.57
   6   3 -11   12.10    1.24
  -6   3  11   14.17    1.53
  -5  -3  11    0.34    0.62
   5  -3 -11    0.69    0.53
  -5  -3  11    0.81    0.61
   5  -3 -11   -0.58    0.51
   5   3 -11   -0.80    0.61
   5   3 -11   -0.14    0.71
   5   3 -11    1.65    0.55
  -5   3  11    0.97    0.69
  -5   3  11   -0.22    0.59
   4  -3 -11    0.47    0.51
   4  -3 -11    0.38    0.44
   4  -3 -11    1.08    0.47
  -4  -3  11    1.25    0.53
  -4  -3  11    1.53    0.59
  -4  -3  11    0.08    0.64
  -4   3  11    0.99    0.60
   4   3 -11    0.49    0.66
   4   3 -11    1.98    0.52
  -4   3  11    0.43    0.47
  -3  -3  11   -0.25    0.52
   3  -3 -11   -0.11    0.45
   3  -3 -11    0.27    0.43
  -3  -3  11    0.43    0.54
  -3  -3  11    0.71    0.45
  -3   3  11    0.02    0.45
  -3   3  11    0.00    0.50
   3   3 -11   -0.17    0.49
   3   3 -11   -0.67    0.58
   3   3 -11   -0.34    0.39
   3   3 -11    0.20    0.34
   2  -3 -11    0.36    0.38
  -2  -3  11   -0.23    0.49
  -2  -3  11    0.59    0.44
  -2  -3  11    0.61    0.55
   2  -3 -11    0.92    0.43
   2   3 -11    0.57    0.37
  -2   3  11    0.55    0.54
   2   3 -11    0.23    0.36
   2   3 -11   -0.50    0.52
   2   3 -11    0.66    0.40
  -2   3  11    0.13    0.46
   1  -3 -11    0.84    0.36
  -1  -3  11   -0.16    0.47
  -1  -3  11    0.70    0.43
  -1  -3  11    1.39    0.50
   1  -3 -11    0.94    0.47
   1   3 -11    0.82    0.45
  -1   3  11    0.57    0.47
  -1   3  11    0.19    0.43
   1   3 -11    0.31    0.38
  -1   3  11    1.04    0.66
   1   3 -11    0.54    0.60
   1   3 -11    0.88    0.35
   0  -3  11    0.96    0.49
   0  -3 -11    0.70    0.33
   0  -3  11    0.57    0.40
   0  -3  11    1.99    0.51
   0  -3 -11    1.79    0.53
   0   3 -11    1.70    0.57
   0   3  11    1.59    0.78
   0   3 -11    1.93    0.45
   0   3  11    1.12    0.41
   0   3  11    0.50    0.71
  -1  -3 -11   -0.32    0.39
  -1  -3 -11    0.85    0.42
   1  -3  11    0.08    0.54
   1  -3  11    0.48    0.44
  -1  -3 -11    0.09    0.53
   1  -3  11   -0.15    0.47
  -1   3 -11    0.44    0.41
  -1   3 -11    0.64    0.46
   1   3  11    1.64    0.67
   1   3  11    0.13    0.44
   1   3  11   -0.42    0.37
   1   3  11    0.07    0.39
  -2  -3 -11    2.16    0.70
   2  -3  11    2.03    0.56
  -2  -3 -11    1.59    0.51
   2  -3  11    2.42    0.62
   2  -3  11    0.61    0.59
  -2  -3 -11    2.13    0.56
   2   3  11    1.86    0.49
   2   3  11    2.08    0.48
   2   3  11    3.00    0.77
  -2   3 -11    0.97    0.44
   2   3  11    2.08    0.58
  -2   3 -11    1.50    0.60
   3  -3  11    1.33    0.62
   3  -3  11    0.78    0.59
   3  -3  11    0.34    0.66
  -3  -3 -11    1.54    0.64
  -3  -3 -11    1.74    0.82
  -3  -3 -11    1.28    0.58
  -3   3 -11    1.19    0.63
  -3   3 -11    0.32    0.50
   3   3  11    0.68    0.86
   3   3  11    2.24    0.60
   4  -3  11   -0.04    0.74
  -4  -3 -11   -0.55    0.72
  -4  -3 -11    0.40    0.70
   4  -3  11   -0.59    0.74
   4  -3  11    0.47    0.72
  -4   3 -11    1.10    0.82
  -4   3 -11    0.17    0.63
   4   3  11    0.83    0.65
  -6  -4  11    0.93    0.79
   6  -4 -11    0.74    0.70
  -6   4  11    2.25    0.99
  -6   4  11   -1.88    0.78
   6   4 -11    0.03    0.74
   6   4 -11    0.70    0.98
   5  -4 -11   -0.25    0.50
  -5  -4  11    1.34    0.66
   5  -4 -11   -0.47    0.56
   5  -4 -11   -0.60    0.58
   5   4 -11   -1.32    0.53
  -5   4  11    0.55    0.77
   5   4 -11   -2.09    0.80
  -5   4  11    0.70    0.66
   5   4 -11    0.02    0.56
   4  -4 -11   -0.09    0.52
   4  -4 -11    0.42    0.52
  -4  -4  11    0.10    0.51
   4  -4 -11    0.40    0.47
  -4  -4  11   -0.26    0.69
  -4  -4  11    0.29    0.51
   4   4 -11    0.04    0.50
   4   4 -11    0.28    0.73
  -4   4  11    0.47    0.50
  -4   4  11    0.65    0.63
   4   4 -11    0.67    0.50
   3  -4 -11   -0.03    0.45
  -3  -4  11    0.46    0.51
  -3  -4  11   -0.16    0.45
  -3  -4  11   -0.12    0.55
   3  -4 -11    0.14    0.51
   3  -4 -11    0.49    0.49
   3   4 -11   -0.28    0.41
   3   4 -11    0.23    0.67
   3   4 -11    0.25    0.43
  -3   4  11    0.47    0.53
   3   4 -11   -0.16    0.39
  -3   4  11   -0.24    0.47
   2  -4 -11    8.84    1.06
   2  -4 -11    9.26    0.86
  -2  -4  11   10.64    1.04
  -2  -4  11    6.91    0.75
  -2  -4  11    8.13    0.92
   2   4 -11    5.22    0.79
  -2   4  11    8.09    0.84
   2   4 -11    7.68    0.73
   2   4 -11    9.08    0.86
  -2   4  11    8.56    0.87
   2   4 -11    8.73    0.75
  -1  -4  11    0.66    0.41
  -1  -4  11    0.64    0.54
   1  -4 -11    0.36    0.38
  -1  -4  11    1.04    0.56
   1  -4 -11    0.73    0.44
   1   4 -11   -0.31    0.41
   1   4 -11    0.56    0.44
   1   4 -11   -0.27    0.59
  -1   4  11    0.60    0.52
  -1   4  11    0.74    0.42
   1   4 -11    0.24    0.35
   0  -4 -11    4.32    0.58
   0  -4  11    6.06    0.88
   0  -4  11    6.32    0.72
   0  -4 -11    5.74    0.71
   0  -4  11    5.37    0.68
   0  -4 -11    5.59    0.57
   0   4  11    6.65    0.83
   0   4  11    5.57    0.67
   0   4 -11    5.51    0.64
   0   4 -11    6.16    0.74
   0   4  11    6.10    0.73
   1  -4  11    1.22    0.49
  -1  -4 -11    0.84    0.43
   1  -4  11    1.40    0.58
   1  -4  11    1.54    0.53
  -1  -4 -11    0.31    0.57
  -1  -4 -11    1.18    0.47
   1   4  11    0.73    0.49
   1   4  11    1.16    0.47
  -1   4 -11    1.06    0.49
  -1   4 -11    1.10    0.43
   1   4  11    1.61    0.42
  -2  -4 -11    8.19    0.89
  -2  -4 -11   10.94    0.96
   2  -4  11    8.95    0.97
   2  -4  11    6.84    0.97
   2  -4  11    6.69    0.78
  -2  -4 -11    8.40    0.94
  -2   4 -11    8.00    0.98
  -2   4 -11    7.34    0.87
   2   4  11    8.93    0.90
   2   4  11    7.04    0.87
  -3  -4 -11    0.76    0.64
  -3  -4 -11   -0.45    0.53
   3  -4  11   -0.41    0.55
   3  -4  11   -0.51    0.59
   3  -4  11   -0.19    0.64
  -3  -4 -11   -0.33    0.78
  -3   4 -11   -0.79    0.51
  -3   4 -11    0.04    0.70
   3   4  11    0.75    0.57
   3   4  11   -0.98    0.56
   4  -4  11    1.33    0.81
   4  -4  11   -0.36    0.75
   4  -4  11    0.57    0.84
  -4  -4 -11    0.51    0.73
  -4  -4 -11    1.70    0.81
  -4   4 -11    0.81    0.80
  -4   4 -11    0.81    0.68
   4   4  11    2.03    0.77
   5  -5 -11    7.85    0.96
   5  -5 -11   10.48    1.16
   5  -5 -11    7.35    0.95
  -5  -5  11    8.75    1.19
  -5   5  11    8.63    1.07
  -5   5  11    6.92    0.88
   5   5 -11    8.26    1.07
   5   5 -11    7.19    0.86
   4  -5 -11    0.01    0.43
  -4  -5  11    0.34    0.75
   4  -5 -11    0.31    0.57
  -4  -5  11   -0.31    0.61
  -4   5  11    0.48    0.55
   4   5 -11    0.39    0.52
   4   5 -11    0.59    0.87
   4   5 -11   -0.27    0.53
  -4   5  11    0.64    0.66
   3  -5 -11    3.76    0.61
  -3  -5  11    2.88    0.56
  -3  -5  11    3.99    0.74
  -3  -5  11    1.66    0.63
   3  -5 -11    3.15    0.50
   3   5 -11    2.56    0.54
   3   5 -11    2.05    0.79
  -3   5  11    3.20    0.57
   3   5 -11    2.29    0.55
  -3   5  11    2.70    0.63
   2  -5 -11    3.27    0.58
  -2  -5  11    1.44    0.62
  -2  -5  11    1.77    0.63
   2  -5 -11    2.80    0.55
  -2  -5  11    2.16    0.46
   2   5 -11    0.68    0.72
  -2   5  11    2.61    0.54
   2   5 -11    2.96    0.48
  -2   5  11    3.11    0.56
   2   5 -11    1.52    0.47
   2   5 -11    1.67    0.51
  -1  -5  11   -0.32    0.51
   1  -5 -11   -0.66    0.40
  -1  -5  11   -0.04    0.47
  -1  -5  11    0.33    0.41
   1   5 -11   -0.68    0.70
   1   5 -11   -0.15    0.36
  -1   5  11    0.94    0.49
   1   5 -11    0.35    0.38
  -1   5  11    0.56    0.40
   1   5 -11    0.71    0.46
   0  -5  11    0.60    0.54
   0  -5 -11    0.44    0.35
   0  -5  11    0.82    0.42
   0  -5 -11   -0.02    0.49
   0  -5 -11    0.31    0.40
   0  -5  11    1.03    0.53
   0   5  11    0.68    0.38
   0   5 -11    0.76    0.44
   0   5 -11   -0.49    0.48
   0   5  11    1.21    0.42
   0   5  11    1.66    0.51
  -1  -5 -11    2.64    0.52
   1  -5  11    2.32    0.63
  -1  -5 -11    2.54    0.64
  -1  -5 -11    2.39    0.55
   1  -5  11    2.75    0.55
   1   5  11    2.87    0.60
  -1   5 -11    2.30    0.57
   1   5  11    2.25    0.53
  -2  -5 -11    1.18    0.59
  -2  -5 -11    2.22    0.77
   2  -5  11    0.12    0.57
  -2  -5 -11    1.17    0.56
   2  -5  11    0.51    0.66
   2  -5  11    0.84    0.49
   2   5  11    0.49    0.56
  -2   5 -11    0.16    0.59
   2   5  11    2.01    0.58
  -2   5 -11    0.76    0.55
   3  -5  11    3.71    0.80
  -3  -5 -11    4.62    1.10
   3  -5  11    1.17    0.81
  -3  -5 -11    2.52    0.76
   3  -5  11    3.28    0.76
  -3  -5 -11    3.08    0.75
   3   5  11    2.36    0.68
  -3   5 -11    2.31    0.77
   3   5  11    3.86    0.73
  -3   5 -11    2.69    0.69
   4  -5  11   -0.21    0.72
   4  -5  11    0.44    0.86
  -4  -5 -11   -0.95    0.87
   4  -5  11   -0.45    0.88
  -4  -5 -11    0.69    0.79
   4   5  11   -0.49    0.81
  -4   5 -11   -0.08    0.87
  -4   5 -11    1.03    0.75
  -5  -6  11    7.40    1.05
   5  -6 -11    9.31    0.95
   5  -6 -11    6.74    0.92
  -5   6  11   12.17    1.23
   5   6 -11    6.57    0.88
  -5   6  11    9.61    1.15
   5   6 -11    8.08    0.99
   4  -6 -11    0.82    0.67
  -4  -6  11    0.33    0.63
   4  -6 -11    0.90    0.45
  -4  -6  11   -0.05    0.72
  -4   6  11    0.99    0.72
  -4   6  11   -0.26    0.61
   4   6 -11   -0.47    0.56
   4   6 -11   -0.42    0.60
  -3  -6  11    2.87    0.64
  -3  -6  11    0.37    0.70
   3  -6 -11    1.80    0.62
   3  -6 -11    1.61    0.44
  -3   6  11    1.93    0.62
   3   6 -11    2.11    0.54
   3   6 -11    0.85    0.51
  -3   6  11    1.69    0.61
  -2  -6  11    3.12    0.68
  -2  -6  11    4.13    0.68
   2  -6 -11    6.30    0.73
   2  -6 -11    6.16    0.80
   2   6 -11    5.24    0.64
   2   6 -11    5.28    0.62
   2   6 -11    5.60    0.67
  -2   6  11    5.08    0.61
  -2   6  11    6.70    0.90
   1  -6 -11    0.11    0.43
  -1  -6  11    0.10    0.57
  -1  -6  11   -0.43    0.50
   1  -6 -11   -0.79    0.45
  -1   6  11    1.38    0.58
   1   6 -11    0.54    0.39
   1   6 -11    0.17    0.48
   1   6 -11    0.55    0.43
   0  -6  11    6.53    0.81
   0  -6 -11    6.49    0.73
   0  -6  11    8.09    0.77
   0  -6 -11    7.06    0.90
   0  -6  11    8.29    0.97
   0   6 -11    5.97    0.79
   0   6  11    7.29    0.85
   0   6  11    6.96    0.94
   0   6 -11    5.42    0.90
   1  -6  11    2.12    0.56
  -1  -6 -11    3.28    0.68
  -1  -6 -11    2.66    0.55
  -1  -6 -11    3.77    0.58
   1  -6  11    2.45    0.57
   1  -6  11    1.63    0.65
  -1   6 -11    2.76    0.68
  -1   6 -11    2.25    0.59
   1   6  11    3.24    0.59
   1   6  11    2.99    0.66
   2  -6  11    0.86    0.54
   2  -6  11    2.11    0.63
  -2  -6 -11    1.98    0.68
  -2  -6 -11    1.28    0.72
   2  -6  11    0.01    0.65
  -2  -6 -11   -0.28    0.62
  -2   6 -11    1.21    0.68
   2   6  11    1.81    0.63
  -2   6 -11    1.02    0.63
   2   6  11    1.16    0.57
   3  -6  11    6.28    0.86
  -3  -6 -11    6.71    0.94
   3  -6  11    5.85    0.93
  -3  -6 -11    6.38    0.90
  -3  -6 -11    3.66    0.94
   3  -6  11    5.26    0.91
  -3   6 -11    5.80    0.93
  -3   6 -11    5.24    0.82
   3   6  11    7.69    0.96
   3   6  11    4.20    0.79
  -4  -7  11    0.48    0.71
  -4  -7  11    1.61    0.93
   4  -7 -11    0.80    0.75
   4  -7 -11    0.35    0.46
   4   7 -11   -1.06    0.63
   4   7 -11   -0.40    0.62
  -4   7  11   -1.45    0.75
   3  -7 -11    0.80    0.46
  -3  -7  11   -1.12    0.69
   3  -7 -11    0.28    0.66
  -3  -7  11   -0.12    0.67
  -3   7  11    0.36    0.58
   3   7 -11    0.25    0.62
   3   7 -11   -0.60    0.58
  -2  -7  11   -0.12    0.60
  -2  -7  11    0.07    0.60
   2  -7 -11   -0.62    0.44
   2  -7 -11    0.08    0.57
   2   7 -11    0.68    0.48
   2   7 -11   -0.72    0.49
  -2   7  11    0.55    0.60
   1  -7 -11    4.58    0.70
  -1  -7  11    3.91    0.72
   1  -7 -11    4.83    0.69
  -1  -7  11    7.13    1.00
  -1   7  11    4.71    0.86
  -1   7  11    4.16    0.66
   1   7 -11    3.60    0.71
   1   7 -11    4.75    0.64
   0  -7 -11    0.94    0.55
   0  -7  11    1.65    0.67
   0  -7  11    0.51    0.65
   0  -7 -11    1.32    0.58
   0   7 -11    1.35    0.62
   0   7 -11    0.45    0.48
   0   7  11    0.36    0.57
   0   7  11    0.33    0.51
   1  -7  11   14.90    1.19
  -1  -7 -11   18.54    1.25
  -1  -7 -11   18.76    1.30
   1  -7  11   19.06    1.37
   1   7  11   17.45    1.24
  -1   7 -11   14.43    1.29
   1   7  11   16.57    1.28
  -1   7 -11   16.21    1.18
  -2  -7 -11    1.20    0.65
  -2  -7 -11    0.43    0.80
   2  -7  11    0.44    0.56
   2  -7  11    0.61    0.76
  -2  -7 -11    2.26    0.83
  -2   7 -11    0.46    0.63
   2   7  11    1.64    0.71
  -2   7 -11   -0.82    0.75
   2   7  11    0.26    0.66
  -3  -7 -11    0.46    0.88
   3  -7  11    1.65    0.88
  -3  -7 -11   -0.88    0.89
   3  -7  11   -0.47    0.62
  -3  -7 -11   -0.34    0.87
   3   7  11   -1.42    0.79
  -3   7 -11   -1.88    0.83
  -3   7 -11    0.84    0.76
   3   7  11    0.58    0.83
   4  -8 -11    6.22    0.99
  -4  -8  11    2.09    0.93
  -4  -8  11    5.10    1.03
   4  -8 -11    5.04    0.64
   4   8 -11    4.40    0.81
   4   8 -11    3.43    0.82
  -4   8  11    5.43    1.05
  -3  -8  11   -0.94    0.77
   3  -8 -11    0.27    0.46
  -3  -8  11    0.62    0.76
   3  -8 -11   -1.04    0.68
  -3   8  11    1.40    0.71
   3   8 -11    0.47    0.60
   3   8 -11   -1.23    0.63
  -2  -8  11    1.99    0.76
   2  -8 -11    3.37    0.58
  -2  -8  11    3.55    0.88
   2  -8 -11    3.22    0.73
  -2   8  11    2.87    0.80
  -2   8  11    2.83    0.63
   2   8 -11    2.33    0.67
   1  -8 -11    0.47    0.53
  -1  -8  11    0.21    0.69
   1  -8 -11    0.15    0.59
  -1   8  11   -0.23    0.73
   1   8 -11    0.36    0.63
   1   8 -11   -0.13    0.51
  -1   8  11    0.72    0.62
   0  -8 -11    0.65    0.58
   0  -8  11   -1.19    0.59
   0  -8 -11   -0.22    0.60
   0  -8  11    1.08    0.72
   0   8 -11   -0.45    0.52
   0   8  11    0.65    0.60
   0   8  11    0.94    0.67
   0   8 -11   -0.36    0.65
  -1  -8 -11    4.43    0.81
   1  -8  11    6.94    0.93
  -1  -8 -11    4.31    0.83
   1  -8  11    6.26    0.81
  -1   8 -11    5.59    0.92
   1   8  11    6.09    0.91
  -1   8 -11    5.53    0.81
   1   8  11    5.44    0.83
  -2  -8 -11    7.13    0.87
   2  -8  11    6.98    0.81
  -2  -8 -11    9.10    1.09
   2  -8  11    6.77    1.05
  -2   8 -11    6.21    0.90
  -2   8 -11    5.93    0.97
   2   8  11    9.53    1.31
   2   8  11    6.10    0.88
   3  -9 -11    2.53    0.88
   3   9 -11    1.47    0.80
   2  -9 -11    3.25    0.82
  -2  -9  11    3.60    0.90
   2  -9 -11    3.76    0.64
  -2  -9  11    5.23    1.04
   2   9 -11    1.36    0.73
  -2   9  11    4.25    0.74
  -2   9  11    3.73    0.92
   1  -9 -11    0.53    0.76
  -1  -9  11    1.43    0.84
   1  -9 -11    0.71    0.59
   1   9 -11   -0.28    0.60
   1   9 -11    2.09    0.78
  -1   9  11   -0.22    0.65
  -1   9  11    1.21    0.84
   0  -9  11    8.80    1.04
   0  -9 -11    8.10    0.89
   0  -9 -11    8.26    0.94
   0  -9  11    7.17    0.88
   0   9  11    9.58    1.22
   0   9 -11    8.15    1.00
   0   9 -11    7.90    0.89
   0   9  11   10.34    1.37
   1  -9  11   -2.19    0.85
  -1  -9 -11   -0.31    0.77
   1  -9  11   -0.88    0.65
  -1  -9 -11   -0.56    0.77
   1   9  11   -0.19    0.85
  -1   9 -11    1.21    0.84
  -1   9 -11    0.71    0.68
   1   9  11   -0.29    0.76
  -6   0  12    2.03    0.89
   6   0 -12    0.93    0.79
  -6   0  12    1.71    0.84
   6   0 -12    1.32    0.83
  -5   0  12   13.01    1.35
   5   0 -12   14.11    1.25
   5   0 -12   15.19    1.18
  -5   0  12   12.26    1.31
   4   0 -12    0.27    0.57
  -4   0  12    2.16    0.67
   4   0 -12    0.15    0.50
  -4   0  12    0.63    0.59
   4   0 -12   -0.87    0.59
   3   0 -12    0.41    0.55
   3   0 -12   -0.25    0.61
   3   0 -12   -0.07    0.45
  -3   0  12   -1.05    0.55
   2   0 -12    3.44    0.65
  -2   0  12    4.55    0.66
  -2   0  12    3.17    0.65
   2   0 -12    4.12    0.57
   2   0 -12    2.77    0.54
  -2   0  12    4.12    0.74
  -1   0  12   13.83    1.00
   1   0 -12   13.70    1.10
   1   0 -12   12.41    0.93
  -1   0  12   14.64    1.19
   1   0 -12   13.02    0.72
  -1   0  12   14.45    1.02
   0   0  12    8.42    1.20
   0   0 -12    6.30    0.74
   0   0 -12    8.62    1.11
   0   0 -12    7.10    0.76
   0   0  12    8.05    0.86
   0   0  12    8.74    0.92
   1   0  12    0.42    0.53
   1   0  12   -0.32    0.60
  -1   0 -12   -0.06    0.68
  -1   0 -12    0.35    0.51
   1   0  12   -0.19    0.49
  -1   0 -12    0.35    0.40
   1   0  12    0.44    0.41
   2   0  12    1.19    0.57
   2   0  12    0.59    0.70
  -2   0 -12    1.44    0.52
   2   0  12    0.60    0.59
  -2   0 -12    0.55    0.62
   3   0  12    2.06    0.74
  -3   0 -12    2.68    0.68
  -3   0 -12    0.74    0.75
   3   0  12    2.12    0.72
  -4   0 -12    4.22    0.83
   4   0  12    2.99    0.89
  -4   0 -12    2.47    0.99
   4   0  12    2.76    1.07
   6  -1 -12    2.13    0.82
  -6  -1  12    2.08    1.02
  -6  -1  12    1.14    0.90
   6  -1 -12   -0.41    0.80
   6   1 -12    1.50    0.74
   6   1 -12    0.76    0.91
  -6   1  12    3.45    0.84
  -6   1  12    2.90    0.90
  -5  -1  12    2.67    0.80
  -5  -1  12    4.89    0.85
   5  -1 -12    0.93    0.67
   5  -1 -12    3.47    0.69
   5  -1 -12    4.27    0.71
   5   1 -12    2.86    0.82
  -5   1  12    3.16    0.80
   5   1 -12    3.11    0.70
   5   1 -12    3.00    0.68
  -5   1  12    2.85    0.81
  -4  -1  12    1.46    0.68
   4  -1 -12   -0.65    0.58
   4  -1 -12    0.63    0.51
  -4  -1  12    2.06    0.66
   4  -1 -12   -0.39    0.51
  -4   1  12    2.06    0.61
   4   1 -12    0.31    0.55
   4   1 -12   -0.04    1.15
  -4   1  12    0.60    0.66
   4   1 -12    0.97    0.55
  -3  -1  12    2.87    0.64
   3  -1 -12    3.57    0.59
   3  -1 -12    2.52    0.77
  -3  -1  12    2.94    0.70
   3  -1 -12    2.03    0.59
  -3   1  12    3.81    0.68
   3   1 -12    3.79    0.61
   3   1 -12    2.82    0.56
   3   1 -12    2.74    0.69
  -2  -1  12    0.74    0.70
   2  -1 -12    0.03    0.55
  -2  -1  12    0.10    0.55
   2  -1 -12    0.60    0.43
   2  -1 -12    0.52    0.46
   2   1 -12   -0.06    0.61
   2   1 -12    0.76    0.42
   2   1 -12   -0.15    0.42
  -2   1  12    0.11    0.52
   1  -1 -12    2.01    0.56
  -1  -1  12    0.44    0.50
  -1  -1  12    0.91    0.51
  -1  -1  12    1.46    0.64
   1  -1 -12    0.95    0.43
   1   1 -12    1.20    0.65
  -1   1  12   -0.18    0.64
   1   1 -12    1.19    0.42
   1   1 -12    0.47    0.35
  -1   1  12    1.33    0.51
   1   1 -12    0.90    0.41
   0  -1  12    0.33    0.51
   0  -1  12    1.27    0.63
   0  -1 -12    0.95    0.40
   0  -1  12    0.28    0.50
   0  -1 -12    0.28    0.39
   0  -1 -12   -0.52    0.59
   0   1  12    0.28    0.50
   0   1  12    0.40    0.49
   0   1 -12    0.23    0.43
   0   1 -12    0.71    0.64
   0   1  12    0.77    0.67
   0   1 -12    0.15    0.36
   1  -1  12    0.43    0.56
   1  -1  12    0.26    0.64
   1  -1  12    0.42    0.53
  -1  -1 -12    0.91    0.70
  -1  -1 -12    0.25    0.48
  -1  -1 -12    0.40    0.42
   1   1  12    1.06    0.53
  -1   1 -12    0.17    0.50
   1   1  12    2.08    0.75
  -1   1 -12    0.95    0.44
   1   1  12    1.15    0.51
   1   1  12    0.38    0.40
  -1   1 -12    0.75    0.72
  -2  -1 -12    0.06    0.57
   2  -1  12   -0.21    0.54
  -2  -1 -12    0.86    0.80
   2  -1  12    0.86    0.75
   2  -1  12    0.61    0.55
  -2  -1 -12    0.56    0.52
   2   1  12   -0.31    0.50
   2   1  12    0.33    0.58
  -2   1 -12    0.31    0.49
  -2   1 -12    0.18    0.72
   2   1  12    1.75    0.79
  -3  -1 -12    1.72    0.76
  -3  -1 -12    4.44    0.73
   3  -1  12    2.24    0.85
   3  -1  12    2.35    0.71
   3  -1  12    2.55    0.71
   3   1  12    2.60    0.76
   3   1  12    3.64    0.88
   3   1  12    1.53    0.91
  -3   1 -12    2.34    0.65
  -3   1 -12    2.74    0.79
   4  -1  12    0.82    0.97
  -4  -1 -12    0.27    0.95
   4  -1  12    3.89    0.95
  -4  -1 -12    1.23    0.79
   4   1  12    2.17    0.88
  -4   1 -12    0.72    0.93
  -4   1 -12    2.07    0.82
  -6  -2  12    9.99    1.13
   6  -2 -12    8.99    1.08
  -6   2  12   13.72    1.66
   6   2 -12    7.37    0.99
  -5  -2  12    3.80    0.80
   5  -2 -12    5.22    0.78
   5  -2 -12    4.56    0.74
  -5   2  12    5.10    0.86
   5   2 -12    4.88    0.76
   5   2 -12    1.60    0.90
  -5   2  12    3.78    0.89
   5   2 -12    3.49    0.71
   4  -2 -12    6.64    0.82
   4  -2 -12    7.66    0.95
   4  -2 -12    4.46    0.69
  -4  -2  12    8.10    1.10
  -4  -2  12    7.16    1.01
  -4   2  12    6.53    0.91
  -4   2  12    7.31    0.88
   4   2 -12    7.21    0.76
   4   2 -12    3.86    0.92
   4   2 -12    8.12    0.98
   3  -2 -12    0.98    0.47
   3  -2 -12    0.68    0.53
  -3  -2  12    1.03    0.64
  -3  -2  12    1.44    0.59
   3  -2 -12    1.28    0.58
  -3  -2  12    1.55    0.73
   3   2 -12   -0.03    0.45
  -3   2  12    0.50    0.52
   3   2 -12    0.83    0.49
   3   2 -12   -0.55    0.62
  -3   2  12    1.27    0.59
  -2  -2  12    9.14    0.98
   2  -2 -12    9.56    0.85
  -2  -2  12    9.70    0.96
  -2  -2  12    8.38    0.89
   2  -2 -12    8.54    0.99
  -2   2  12    8.28    0.92
   2   2 -12    8.93    1.15
   2   2 -12    8.13    0.84
   2   2 -12    9.48    0.82
  -2   2  12    8.39    0.95
   1  -2 -12    1.35    0.57
  -1  -2  12    1.80    0.69
  -1  -2  12    1.04    0.60
  -1  -2  12    1.43    0.54
   1  -2 -12    0.49    0.41
   1   2 -12    1.96    0.49
   1   2 -12    0.98    0.63
  -1   2  12    1.26    0.50
   1   2 -12    1.46    0.43
   1   2 -12    0.79    0.43
  -1   2  12    1.11    0.52
   0  -2  12    0.93    0.49
   0  -2 -12    0.88    0.58
   0  -2  12    0.13    0.57
   0  -2 -12    0.28    0.38
   0  -2 -12   -0.31    0.39
   0   2  12    0.40    0.49
   0   2 -12    0.96    0.42
   0   2 -12    0.06    0.64
   0   2 -12    0.70    0.49
   0   2  12   -0.14    0.44
   0   2  12    0.18    0.72
  -1  -2 -12    1.40    0.49
  -1  -2 -12    1.92    0.50
   1  -2  12    1.18    0.61
  -1  -2 -12    2.06    0.71
   1  -2  12    1.29    0.60
   1   2  12    0.85    0.56
   1   2  12    0.91    0.50
   1   2  12    1.48    0.43
   1   2  12    1.86    0.75
  -1   2 -12    0.79    0.47
  -1   2 -12    1.31    0.55
   2  -2  12    3.16    0.70
   2  -2  12    3.44    0.85
   2  -2  12    4.09    0.73
  -2  -2 -12    3.75    0.68
  -2  -2 -12    4.82    0.68
  -2  -2 -12    4.30    0.85
   2   2  12    4.39    0.73
  -2   2 -12    3.47    0.60
  -2   2 -12    3.86    0.76
   2   2  12    4.47    0.67
   2   2  12    1.48    0.83
   3  -2  12    0.87    0.67
   3  -2  12   -0.56    0.70
   3  -2  12    1.20    0.77
  -3  -2 -12   -0.13    0.71
  -3  -2 -12    0.40    0.64
  -3   2 -12   -0.20    0.73
   3   2  12    1.41    0.71
  -3   2 -12    0.46    0.63
   4  -2  12   -1.28    0.87
   4  -2  12    1.18    0.93
   4  -2  12   -0.12    0.93
  -4  -2 -12    0.62    0.91
  -4  -2 -12    0.83    0.83
   4   2  12    2.39    0.84
  -4   2 -12    1.08    0.76
  -4   2 -12    0.21    0.94
  -5  -3  12    1.40    0.70
   5  -3 -12    0.60    0.63
   5  -3 -12   -0.02    0.69
   5  -3 -12    0.16    0.68
   5   3 -12    0.93    0.68
   5   3 -12    1.02    0.92
  -5   3  12    1.10    0.82
  -5   3  12    0.02    0.74
   5   3 -12   -0.29    0.66
   4  -3 -12    8.27    1.00
   4  -3 -12    7.10    0.80
  -4  -3  12    8.59    1.12
  -4  -3  12    6.25    0.82
   4  -3 -12    5.00    0.73
   4   3 -12    4.34    0.91
  -4   3  12    7.63    0.96
   4   3 -12    5.89    0.75
  -4   3  12    5.77    0.84
   4   3 -12    7.16    0.79
  -3  -3  12    0.82    0.59
   3  -3 -12    0.33    0.50
  -3  -3  12    0.01    0.55
   3  -3 -12    0.33    0.50
  -3  -3  12    1.41    0.72
   3  -3 -12    0.54    0.47
   3   3 -12   -0.43    0.72
   3   3 -12    0.98    0.51
  -3   3  12    1.51    0.62
  -3   3  12    1.43    0.54
   3   3 -12    0.41    0.50
  -2  -3  12    1.06    0.59
  -2  -3  12    0.48    0.68
  -2  -3  12    0.57    0.51
   2  -3 -12    0.97    0.45
   2   3 -12    0.26    0.67
  -2   3  12    0.33    0.56
  -2   3  12   -0.07    0.51
   2   3 -12    0.91    0.42
   2   3 -12    0.36    0.44
   2   3 -12    0.39    0.47
  -1  -3  12    1.27    0.63
  -1  -3  12    0.32    0.51
   1  -3 -12    1.18    0.40
   1  -3 -12    1.39    0.56
  -1  -3  12    1.10    0.56
   1   3 -12    0.75    0.45
   1   3 -12   -0.07    0.41
   1   3 -12    0.60    0.42
  -1   3  12    1.28    0.50
  -1   3  12    0.61    0.54
   1   3 -12   -0.09    0.60
   0  -3  12   -0.18    0.55
   0  -3  12    0.03    0.52
   0  -3  12   -0.24    0.52
   0  -3 -12    0.36    0.43
   0  -3 -12   -0.22    0.58
   0   3  12    0.60    0.44
   0   3 -12    0.10    0.48
   0   3  12   -0.57    0.47
   0   3 -12    0.50    0.40
   0   3 -12    0.06    0.69
   0   3  12    0.63    0.52
  -1  -3 -12   -0.10    0.62
  -1  -3 -12    1.51    0.46
   1  -3  12    0.17    0.61
  -1  -3 -12    0.90    0.50
   1  -3  12    0.09    0.53
   1  -3  12    0.90    0.60
   1   3  12    0.19    0.46
  -1   3 -12    0.07    0.47
  -1   3 -12    0.04    0.57
   1   3  12   -0.44    0.45
   1   3  12   -0.51    0.54
  -2  -3 -12    0.24    0.53
   2  -3  12   -0.03    0.59
  -2  -3 -12    1.59    0.83
   2  -3  12    1.25    0.60
  -2  -3 -12    0.09    0.62
   2  -3  12   -0.21    0.61
  -2   3 -12    0.73    0.50
   2   3  12   -0.68    0.58
  -2   3 -12    0.19    0.64
   2   3  12    0.53    0.74
  -3  -3 -12    0.64    0.76
   3  -3  12    2.28    0.77
   3  -3  12    0.66    0.75
   3  -3  12    3.32    0.83
  -3  -3 -12    1.49    0.71
   3   3  12    2.09    0.74
  -3   3 -12    2.02    0.67
  -3   3 -12    2.05    0.82
   5  -4 -12    1.34    0.63
  -5  -4  12    3.85    0.86
   5  -4 -12    1.89    0.77
   5  -4 -12    2.01    0.79
  -5   4  12    1.01    0.76
   5   4 -12    1.62    0.73
   5   4 -12    2.31    0.69
  -5   4  12    2.51    0.95
   4  -4 -12    1.62    0.67
   4  -4 -12    2.03    0.69
  -4  -4  12    1.79    0.79
   4  -4 -12    1.11    0.53
   4   4 -12    2.43    0.62
  -4   4  12    1.28    0.69
  -4   4  12    0.04    0.74
   4   4 -12    1.09    0.61
   4   4 -12    1.05    0.86
  -3  -4  12    1.90    0.74
  -3  -4  12    1.41    0.61
  -3  -4  12    1.45    0.58
   3  -4 -12    1.08    0.52
   3  -4 -12    1.21    0.54
   3   4 -12    0.14    0.79
  -3   4  12    2.08    0.67
   3   4 -12    1.26    0.58
   3   4 -12    0.94    0.56
  -3   4  12    2.08    0.60
   2  -4 -12    0.96    0.48
   2  -4 -12    0.81    0.52
  -2  -4  12    0.06    0.50
  -2  -4  12    0.71    0.57
  -2  -4  12    1.57    0.66
  -2   4  12    0.53    0.56
   2   4 -12   -0.20    0.46
   2   4 -12    1.24    0.75
  -2   4  12    0.39    0.56
   2   4 -12    1.03    0.50
   2   4 -12    0.98    0.49
  -1  -4  12   -0.43    0.59
   1  -4 -12   -0.31    0.55
   1  -4 -12   -0.04    0.43
  -1  -4  12   -0.58    0.46
  -1  -4  12    0.74    0.57
  -1   4  12    0.05    0.47
  -1   4  12   -0.02    0.55
   1   4 -12   -0.21    0.48
   1   4 -12    0.26    0.43
   1   4 -12    0.05    0.43
   0  -4  12    0.94    0.49
   0  -4  12   -0.27    0.59
   0  -4 -12    1.37    0.47
   0  -4  12   -0.46    0.64
   0   4  12    1.10    0.57
   0   4 -12    1.11    0.56
   0   4  12    1.24    0.47
   0   4  12    0.64    0.46
   0   4 -12    1.08    0.50
   1  -4  12    0.28    0.57
  -1  -4 -12    1.01    0.90
  -1  -4 -12   -0.31    0.50
   1  -4  12    0.56    0.61
  -1  -4 -12    0.86    0.50
   1  -4  12    0.15    0.61
   1   4  12    0.35    0.51
   1   4  12   -0.45    0.53
  -1   4 -12    0.61    0.97
  -1   4 -12    0.11    0.49
   2  -4  12    0.60    0.73
   2  -4  12   -0.60    0.67
   2  -4  12    2.07    0.70
  -2  -4 -12    1.32    0.66
  -2  -4 -12   -0.08    0.65
  -2   4 -12    0.32    0.71
   2   4  12    1.43    0.59
   2   4  12    0.32    0.60
  -2   4 -12    0.19    0.56
   3  -4  12    1.57    0.88
   3  -4  12    2.94    0.92
  -3  -4 -12    2.09    0.83
   3  -4  12    2.84    0.77
  -3  -4 -12    3.18    0.82
  -3   4 -12    1.91    0.85
   3   4  12    4.48    0.76
  -3   4 -12    1.50    0.70
   5  -5 -12    0.32    0.62
   5  -5 -12    2.53    0.84
   5  -5 -12    3.50    0.90
  -5  -5  12    1.48    0.85
   5   5 -12    1.13    0.79
   5   5 -12    1.58    0.79
  -5   5  12    3.66    1.02
  -5   5  12    1.22    0.83
   4  -5 -12    4.40    0.66
   4  -5 -12    4.36    0.85
  -4  -5  12    4.56    0.79
  -4   5  12    5.56    0.91
   4   5 -12    5.72    0.80
   4   5 -12    4.34    0.72
  -4   5  12    5.22    0.93
   3  -5 -12    1.10    0.57
   3  -5 -12    0.96    0.63
  -3  -5  12    0.93    0.75
  -3  -5  12    2.74    0.66
  -3   5  12    2.12    0.69
   3   5 -12    1.96    0.61
  -3   5  12    2.16    0.63
  -2  -5  12    0.60    0.68
  -2  -5  12    0.70    0.59
   2  -5 -12    0.51    0.51
   2  -5 -12    1.04    0.55
   2   5 -12    1.34    0.50
   2   5 -12    0.37    0.55
  -2   5  12    1.55    0.55
   2   5 -12    0.88    0.53
  -2   5  12    0.23    0.59
  -1  -5  12    0.92    0.64
  -1  -5  12    1.58    0.65
  -1  -5  12    0.89    0.50
   1  -5 -12    1.27    0.55
   1  -5 -12    1.54    0.55
   1   5 -12    1.32    0.47
  -1   5  12    1.66    0.60
   1   5 -12    0.49    0.56
   0  -5  12    2.96    0.77
   0  -5  12    3.29    0.60
   0  -5  12    3.94    0.77
   0  -5 -12    3.19    0.71
   0  -5 -12    3.97    0.65
   0   5  12    3.99    0.66
   0   5  12    4.25    0.66
   0   5 -12    2.84    0.76
   0   5 -12    3.27    0.58
   1  -5  12    5.36    0.88
   1  -5  12    5.29    0.77
  -1  -5 -12    3.84    0.68
   1  -5  12    3.97    0.71
  -1  -5 -12    5.69    0.87
   1   5  12    4.48    0.76
  -1   5 -12    4.21    0.72
  -1   5 -12    4.29    0.72
   1   5  12    4.12    0.69
   2  -5  12    1.67    0.70
  -2  -5 -12    3.14    0.86
  -2  -5 -12    1.44    0.72
  -2  -5 -12    2.95    0.88
   2  -5  12    1.38    0.75
   2  -5  12    0.69    0.71
  -2   5 -12    2.95    0.80
   2   5  12    3.10    0.76
   2   5  12    2.16    0.68
  -2   5 -12    1.42    0.64
   3  -5  12    0.95    0.82
  -3  -5 -12    1.03    0.90
   3  -5  12    1.42    0.93
   3  -5  12    2.64    0.90
  -3  -5 -12    1.70    0.80
  -3  -5 -12    2.43    1.34
  -3   5 -12   -0.15    0.92
   3   5  12    2.86    0.81
  -3   5 -12   -0.13    0.74
   4  -6 -12    0.91    0.76
   4  -6 -12   -0.83    0.53
  -4  -6  12    0.40    0.81
   4   6 -12    0.76    0.71
  -4   6  12    0.36    0.77
   4   6 -12   -0.24    0.68
  -3  -6  12    0.04    1.25
   3  -6 -12    1.08    0.54
   3  -6 -12   -0.48    0.67
  -3  -6  12   -0.43    0.69
   3   6 -12    0.51    0.58
  -3   6  12    0.84    0.71
   3   6 -12   -1.10    0.61
  -2  -6  12    0.95    0.78
   2  -6 -12   -0.37    0.53
  -2  -6  12    0.67    0.60
   2  -6 -12    0.98    0.61
   2   6 -12    0.33    0.62
   2   6 -12   -0.17    0.56
  -2   6  12   -0.36    0.62
   2   6 -12    0.26    0.51
  -1  -6  12    7.85    1.07
   1  -6 -12    4.70    0.69
  -1  -6  12    6.43    0.89
   1  -6 -12    7.74    0.84
   1   6 -12    5.57    0.74
  -1   6  12    6.51    0.80
  -1   6  12    6.91    0.89
   0  -6 -12    4.79    0.68
   0  -6  12    3.53    0.83
   0  -6  12    3.83    0.75
   0  -6 -12    4.03    0.66
   0   6 -12    5.53    0.84
   0   6  12    3.57    0.70
   0   6 -12    4.08    0.68
   0   6  12    3.58    0.73
  -1  -6 -12    2.17    0.63
   1  -6  12    3.72    0.79
   1  -6  12    1.72    0.71
  -1  -6 -12    1.77    0.81
  -1   6 -12    2.28    0.72
   1   6  12    2.31    0.68
   1   6  12    1.95    0.69
  -1   6 -12    0.71    0.59
   2  -6  12   -0.47    0.78
  -2  -6 -12   -0.07    0.85
   2  -6  12   -1.02    0.65
  -2  -6 -12   -1.34    0.69
  -2   6 -12   -0.13    0.80
   2   6  12    0.74    0.73
   2   6  12   -0.33    0.66
  -2   6 -12   -0.71    0.68
  -3  -7  12   -0.08    0.80
  -3  -7  12    1.24    0.93
   3  -7 -12    0.09    0.57
   3  -7 -12    1.06    0.76
   3   7 -12   -1.45    0.68
  -3   7  12    0.36    0.71
   3   7 -12    0.05    0.64
  -2  -7  12    1.99    0.80
   2  -7 -12    0.61    0.59
  -2  -7  12    2.66    0.82
   2  -7 -12    2.12    0.70
  -2   7  12    2.72    0.72
   2   7 -12    0.40    0.72
   2   7 -12    0.33    0.60
   1  -7 -12   10.80    1.16
   1  -7 -12    9.82    1.13
  -1  -7  12    8.63    0.98
  -1  -7  12   10.38    1.23
   1   7 -12   10.09    1.23
  -1   7  12    9.39    1.07
   1   7 -12    6.69    0.77
  -1   7  12    9.66    1.10
   0  -7  12    4.99    0.79
   0  -7  12    8.68    1.20
   0  -7 -12    8.48    1.06
   0  -7 -12    6.46    0.89
   0   7 -12    6.02    0.80
   0   7  12    5.46    0.76
   0   7 -12    5.36    0.87
   0   7  12    9.72    1.16
  -1  -7 -12    4.76    0.82
   1  -7  12    4.80    0.87
  -1  -7 -12    4.43    0.94
   1  -7  12    4.10    0.83
   1   7  12    4.66    0.92
  -1   7 -12    4.34    0.90
  -1   7 -12    4.78    0.78
   1   7  12    2.89    0.79
  -2  -8  12    6.57    0.94
   2  -8 -12    5.26    0.92
   2  -8 -12    9.51    1.07
  -2  -8  12    6.61    1.01
   2   8 -12    5.51    0.83
   2   8 -12    7.06    1.01
  -2   8  12    9.88    1.21
   1  -8 -12    9.24    1.20
  -1  -8  12    7.96    1.12
  -1  -8  12    6.21    0.95
   1  -8 -12    7.55    1.03
   1   8 -12    7.68    1.01
  -1   8  12    7.23    1.06
  -1   8  12    6.74    0.93
   1   8 -12    6.62    0.89
   0  -8 -12    4.71    0.85
   0  -8 -12    1.47    0.81
   0  -8  12    2.56    0.82
   0  -8  12    4.41    0.94
   0   8 -12    1.57    0.71
   0   8  12    3.47    0.86
   0   8  12    3.66    0.87
   0   8 -12    4.81    0.94
  -5   0  13    2.39    0.97
   5   0 -13    1.08    0.74
  -5   0  13   -0.40    0.82
   5   0 -13   -1.55    0.91
   5   0 -13    1.47    0.76
   4   0 -13    0.55    0.61
  -4   0  13    0.61    0.78
   4   0 -13    0.15    0.78
  -4   0  13    0.57    0.70
   4   0 -13   -0.04    0.60
  -3   0  13    0.24    0.68
   3   0 -13    0.09    0.52
   3   0 -13    0.14    0.57
  -3   0  13    0.02    0.64
   3   0 -13   -0.54    0.72
   2   0 -13    0.20    0.47
   2   0 -13    0.29    0.64
   2   0 -13    0.04    0.49
  -2   0  13   -0.24    0.59
  -2   0  13    0.41    0.67
   1   0 -13   -0.11    0.46
   1   0 -13    0.35    0.68
  -1   0  13   -0.84    0.55
  -1   0  13   -0.22    0.57
   0   0  13   -0.33    0.67
   0   0 -13    0.78    0.44
   0   0  13   -0.85    0.70
   0   0 -13    1.11    0.75
   0   0  13    0.04    0.59
  -1   0 -13    0.77    1.28
  -1   0 -13    1.05    0.51
  -1   0 -13   -1.28    0.60
   1   0  13   -0.91    0.83
   1   0  13    0.33    0.61
   1   0  13   -1.36    0.61
   2   0  13    0.58    0.72
   2   0  13    1.29    0.87
  -2   0 -13    0.04    0.64
   2   0  13    0.31    0.66
  -2   0 -13   -1.49    0.71
  -3   0 -13   -0.48    0.92
   3   0  13    1.19    0.85
   3   0  13    1.62    0.87
  -3   0 -13    0.40    0.72
   5  -1 -13    4.71    0.89
  -5  -1  13    5.26    0.99
   5  -1 -13    3.83    0.83
   5  -1 -13    1.57    0.95
  -5  -1  13    5.89    1.03
  -5   1  13    5.96    1.00
  -5   1  13    4.14    0.91
   5   1 -13    2.66    0.83
   5   1 -13    3.45    0.83
  -4  -1  13    7.96    1.05
  -4  -1  13    6.64    0.95
   4  -1 -13    9.26    1.06
   4  -1 -13    4.86    0.91
   4  -1 -13    6.14    0.81
   4   1 -13    8.82    1.13
   4   1 -13    8.56    0.88
  -4   1  13    8.08    1.02
  -4   1  13    6.40    0.92
  -3  -1  13    8.90    1.21
   3  -1 -13   10.26    0.97
   3  -1 -13   10.63    1.30
  -3  -1  13    9.96    1.06
   3  -1 -13    8.95    1.02
   3   1 -13    9.33    1.03
  -3   1  13    9.95    1.22
  -3   1  13    8.78    1.15
   3   1 -13    6.59    1.02
   3   1 -13   11.43    1.06
  -2  -1  13    0.61    0.61
   2  -1 -13   -0.06    0.49
  -2  -1  13   -0.77    0.62
   2   1 -13    0.28    0.49
   2   1 -13    0.56    0.70
  -2   1  13    0.42    0.65
  -2   1  13    0.55    0.65
   2   1 -13   -0.60    0.49
  -1  -1  13    0.38    0.76
   1  -1 -13    1.32    0.50
  -1  -1  13   -0.10    0.56
   1  -1 -13    0.70    0.68
  -1  -1  13    1.39    0.63
   1   1 -13    1.26    0.71
   1   1 -13    0.72    0.49
  -1   1  13    1.51    0.62
  -1   1  13    0.80    0.62
   0  -1  13    0.66    0.61
   0  -1  13   -0.06    0.73
   0  -1 -13    0.75    0.48
   0  -1 -13   -0.06    0.72
   0  -1  13    0.18    0.64
   0   1  13   -0.56    0.54
   0   1 -13    0.03    0.49
   0   1 -13    0.52    0.76
   0   1  13   -0.61    0.58
   0   1 -13   -0.43    0.52
   0   1  13    0.15    0.47
   1  -1  13    1.43    0.77
   1  -1  13    1.70    0.66
  -1  -1 -13    2.00    0.54
   1  -1  13    1.33    0.71
  -1  -1 -13    1.37    0.64
  -1  -1 -13    0.31    0.91
   1   1  13    1.55    0.72
  -1   1 -13    2.78    0.61
   1   1  13    1.38    0.65
  -1   1 -13    1.43    0.66
   2  -1  13    0.39    0.94
  -2  -1 -13   -0.35    0.59
   2  -1  13    0.22    0.72
   2  -1  13    0.11    0.71
  -2  -1 -13   -0.28    0.69
  -2   1 -13   -0.48    0.71
   2   1  13   -0.30    0.79
  -2   1 -13    0.92    0.60
   2   1  13    0.27    0.66
   3  -1  13    1.53    0.86
  -3  -1 -13    2.37    0.74
   3  -1  13    0.73    1.11
  -3  -1 -13   -0.01    0.92
   3  -1  13    0.81    0.87
  -3   1 -13    1.32    0.72
   3   1  13    0.88    0.85
  -3   1 -13   -0.14    0.94
  -5  -2  13    1.60    0.92
   5  -2 -13    1.42    0.81
  -5  -2  13    1.02    0.85
   5  -2 -13    0.94    0.80
   5  -2 -13    0.48    0.75
  -5   2  13    1.19    0.98
   5   2 -13   -2.48    0.99
  -5   2  13   -0.09    0.85
   5   2 -13   -0.30    0.75
   5   2 -13    0.06    0.80
  -4  -2  13   11.88    1.28
   4  -2 -13   11.23    1.21
   4  -2 -13   10.21    1.01
  -4  -2  13   10.21    1.36
   4   2 -13   10.05    1.17
  -4   2  13   12.67    1.31
  -4   2  13   13.44    1.45
   4   2 -13    8.79    0.94
   3  -2 -13    5.44    0.68
   3  -2 -13    4.25    0.71
  -3  -2  13    5.12    0.94
   3  -2 -13    3.03    0.69
  -3  -2  13    5.58    0.92
  -3   2  13    4.91    0.84
  -3   2  13    4.37    0.82
   3   2 -13    4.88    0.68
   3   2 -13    3.20    0.88
   3   2 -13    5.25    0.69
  -2  -2  13    2.82    0.74
   2  -2 -13    4.68    0.69
   2  -2 -13    4.40    0.67
  -2   2  13    2.61    0.73
   2   2 -13    3.23    0.57
   2   2 -13    4.10    0.65
  -2   2  13    5.94    1.22
   2   2 -13    2.97    0.82
   1  -2 -13    3.17    0.62
  -1  -2  13    3.59    0.74
  -1  -2  13    2.34    0.76
   1   2 -13    3.91    0.84
  -1   2  13    3.27    0.68
   1   2 -13    3.65    0.58
  -1   2  13    4.07    0.71
   0  -2 -13    4.65    0.63
   0  -2 -13    5.34    0.93
   0  -2  13    4.43    0.84
   0  -2  13    3.90    0.80
   0  -2  13    3.92    0.74
   0   2 -13    4.60    0.66
   0   2  13    3.27    0.71
   0   2  13    4.18    0.79
   0   2 -13    5.09    0.63
   0   2  13    4.64    0.62
   1  -2  13    4.60    0.89
  -1  -2 -13    7.64    0.95
   1  -2  13    4.34    0.76
  -1  -2 -13    4.49    0.94
   1  -2  13    5.72    0.79
   1   2  13    4.55    0.73
  -1   2 -13    4.87    0.79
   1   2  13    7.47    1.02
  -1   2 -13    5.08    0.75
   2  -2  13    2.98    0.82
  -2  -2 -13    4.63    0.86
   2  -2  13    3.12    0.82
   2  -2  13    4.10    0.95
  -2  -2 -13    3.17    0.72
   2   2  13    3.69    0.86
  -2   2 -13    3.13    0.68
  -2   2 -13    3.79    0.87
  -3  -2 -13    1.75    0.95
   3  -2  13    3.06    0.97
  -3  -2 -13    2.24    0.84
   3  -2  13    2.62    1.03
   3  -2  13    3.27    0.93
   3   2  13    2.82    0.87
  -3   2 -13    1.50    0.77
  -3   2 -13    2.19    1.04
   4  -3 -13    0.51    0.75
   4  -3 -13    0.31    0.69
   4  -3 -13    0.21    0.72
  -4  -3  13   -0.27    0.74
   4   3 -13   -2.85    1.03
   4   3 -13    0.72    0.67
  -4   3  13    0.46    0.85
   4   3 -13   -0.31    0.66
  -4   3  13    1.58    0.80
  -3  -3  13    0.48    0.71
  -3  -3  13    0.46    0.66
   3  -3 -13    0.18    0.60
   3  -3 -13   -0.14    0.62
   3   3 -13   -1.32    0.58
   3   3 -13    1.84    0.96
   3   3 -13    0.85    0.62
  -3   3  13    0.19    0.72
  -3   3  13   -0.67    0.68
   2  -3 -13    1.29    0.66
  -2  -3  13    1.79    0.67
   2  -3 -13    3.93    0.67
  -2  -3  13    1.90    0.68
  -2  -3  13    0.97    0.89
  -2   3  13    1.92    0.72
  -2   3  13    2.58    0.73
   2   3 -13    2.83    0.91
   2   3 -13    1.37    0.51
   2   3 -13    2.01    0.60
  -1  -3  13    1.41    0.68
   1  -3 -13    1.09    0.67
  -1  -3  13    0.22    0.71
   1  -3 -13    1.02    0.55
  -1  -3  13    1.01    0.62
  -1   3  13    0.89    0.66
  -1   3  13    0.82    0.62
   1   3 -13    1.13    0.52
   0  -3  13   15.32    1.31
   0  -3  13   14.68    1.33
   0  -3  13   15.58    1.44
   0  -3 -13   18.14    1.43
   0  -3 -13   19.13    1.18
   0   3 -13   15.18    1.20
   0   3  13   16.89    1.08
   0   3  13   16.09    1.23
   0   3 -13   16.73    1.10
   0   3  13   15.80    1.15
   1  -3  13    9.78    1.11
  -1  -3 -13   10.33    1.25
  -1  -3 -13    9.59    1.09
   1  -3  13    7.75    0.97
   1  -3  13    9.39    1.06
   1   3  13   10.02    1.04
   1   3  13    8.19    1.15
  -1   3 -13    8.33    0.86
  -1   3 -13    6.77    0.85
   2  -3  13   11.89    1.37
  -2  -3 -13   12.48    1.27
   2  -3  13   14.09    1.40
   2  -3  13    9.87    1.20
   2   3  13   11.73    1.27
  -2   3 -13   11.40    1.40
  -2   3 -13   11.08    1.18
   4  -4 -13    3.29    0.81
  -4  -4  13    1.09    0.85
   4  -4 -13    1.53    0.76
  -4   4  13    4.81    0.99
  -4   4  13    3.07    0.86
   4   4 -13    1.50    0.73
   4   4 -13    2.82    0.79
  -3  -4  13    3.33    0.82
   3  -4 -13    2.33    0.67
   3  -4 -13    2.43    0.74
  -3   4  13    1.81    0.79
   3   4 -13    1.85    0.68
  -3   4  13    2.11    0.77
   3   4 -13    2.04    0.67
  -2  -4  13   -0.40    0.80
  -2  -4  13   -0.44    0.66
  -2  -4  13    0.07    0.64
   2  -4 -13    0.36    0.59
   2  -4 -13    0.49    0.56
   2   4 -13    0.80    0.57
   2   4 -13   -0.18    0.58
  -2   4  13   -1.49    0.62
  -2   4  13    0.02    0.71
   1  -4 -13   -0.45    0.63
  -1  -4  13    0.35    0.73
  -1  -4  13    1.34    0.73
  -1  -4  13    0.19    0.59
   1  -4 -13    0.77    0.54
   1   4 -13    0.37    0.50
  -1   4  13    0.11    0.65
   1   4 -13   -0.02    0.70
   0  -4  13   16.80    1.86
   0  -4 -13   16.52    1.22
   0  -4 -13   17.54    1.48
   0  -4  13   17.67    1.54
   0  -4  13   16.79    1.42
   0   4  13   17.51    1.32
   0   4 -13   18.20    1.50
   0   4 -13   19.92    1.22
   0   4  13   17.43    1.19
   1  -4  13   -0.29    0.73
  -1  -4 -13    1.84    0.85
   1  -4  13    0.10    0.74
  -1  -4 -13    2.27    0.67
   1  -4  13    1.25    0.69
   1   4  13    1.00    0.75
   1   4  13   -0.43    0.66
  -1   4 -13   -0.31    0.75
  -1   4 -13   -1.22    0.59
   2  -4  13    1.66    0.97
   2  -4  13    3.16    0.96
  -2  -4 -13    2.74    1.20
   2  -4  13    1.83    0.88
  -2  -4 -13    2.87    0.84
  -2   4 -13    0.99    0.88
   2   4  13    1.24    0.83
  -2   4 -13    1.40    0.71
   4  -5 -13    0.90    0.84
  -4  -5  13   -0.21    0.81
   4  -5 -13    0.16    0.67
   4   5 -13    1.66    0.74
  -4   5  13    1.39    0.89
   4   5 -13    0.12    0.77
  -3  -5  13   -0.08    0.75
   3  -5 -13    1.29    0.73
   3  -5 -13    0.09    0.67
   3   5 -13    0.03    0.62
  -3   5  13    0.05    0.74
   3   5 -13    1.08    0.67
  -2  -5  13   -0.87    0.83
  -2  -5  13    0.69    0.72
   2  -5 -13    0.24    0.62
   2  -5 -13    1.38    0.69
   2   5 -13    0.04    0.64
  -2   5  13    1.09    0.77
  -1  -5  13   22.47    1.47
   1  -5 -13   21.28    1.44
   1  -5 -13   20.30    1.39
  -1  -5  13   18.52    1.60
   1   5 -13   21.42    1.30
  -1   5  13   19.87    1.47
   1   5 -13   18.32    1.48
  -1   5  13   21.34    1.32
   0  -5  13    2.22    0.80
   0  -5 -13    3.61    0.90
   0  -5 -13    3.33    0.68
   0  -5  13    3.39    0.83
   0   5  13    2.38    0.73
   0   5  13    2.52    0.75
   0   5 -13    3.23    0.65
   0   5 -13    1.87    0.73
   1  -5  13    8.37    1.09
  -1  -5 -13    9.11    1.13
  -1  -5 -13   11.22    1.29
   1  -5  13    8.77    1.06
   1   5  13    9.24    0.96
  -1   5 -13    8.04    0.92
  -1   5 -13    8.80    1.03
   1   5  13    8.42    1.02
   3  -6 -13    0.95    0.67
   3  -6 -13   -1.51    0.77
  -3  -6  13    0.78    0.88
   3   6 -13   -0.30    0.72
  -3   6  13   -0.56    0.84
  -2  -6  13    3.01    1.00
  -2  -6  13    4.32    0.89
   2  -6 -13    2.61    0.76
   2  -6 -13    2.87    0.78
  -2   6  13    3.30    0.90
   2   6 -13    1.81    0.71
  -1  -6  13   -0.67    0.87
   1  -6 -13    0.06    0.75
   1  -6 -13   -0.44    0.78
  -1  -6  13    0.51    0.82
   1   6 -13    1.07    0.80
  -1   6  13    0.63    0.68
   1   6 -13    0.68    0.65
  -1   6  13    0.83    0.76
   0  -6  13   -0.80    0.82
   0  -6 -13    0.09    0.70
   0  -6  13    0.43    0.80
   0  -6 -13    0.12    0.82
   0   6 -13    1.27    0.85
   0   6 -13    0.15    0.66
   0   6  13   -0.53    0.67
   0   6  13    0.22    0.73
   1  -6  13   -0.10    0.82
  -1  -6 -13    1.45    0.80
   1  -6  13    0.43    0.95
  -1  -6 -13   -1.06    0.96
  -1   6 -13   -0.50    0.90
   1   6  13   -0.85    0.77
   1   6  13   -1.29    0.81
  -1   6 -13    0.87    0.68
   1  -7 -13    1.59    0.84
  -1  -7  13    1.53    0.90
   1   7 -13    0.84    0.93
  -1   7  13    1.36    0.84
   1   7 -13    1.72    0.74
  -1   7  13    2.06    0.85
   4   0 -14    8.12    1.20
  -4   0  14   11.86    1.65
   4   0 -14   10.29    1.09
   4   0 -14   12.19    1.35
  -4   0  14   10.21    1.17
  -3   0  14    8.59    1.08
   3   0 -14    8.33    0.93
  -3   0  14    6.37    1.03
   3   0 -14    5.43    0.97
   3   0 -14    8.49    0.95
  -2   0  14   10.26    1.30
   2   0 -14   12.46    1.15
  -2   0  14   10.21    1.28
   2   0 -14   12.40    1.52
   1   0 -14    1.60    0.63
  -1   0  14   -1.29    0.69
  -1   0  14    0.87    0.72
   0   0  14    0.87    0.78
   0   0  14    1.48    0.78
   0   0 -14    2.38    0.59
   1   0  14    4.06    0.91
   1   0  14    6.23    0.97
  -1   0 -14    6.91    0.80
  -4  -1  14    1.62    0.96
   4  -1 -14    1.77    0.81
   4  -1 -14    1.85    1.03
  -4  -1  14    3.58    1.05
   4  -1 -14    4.39    0.87
   4   1 -14    1.15    1.05
   4   1 -14    3.31    0.85
  -4   1  14    1.81    1.03
   4   1 -14    1.49    0.86
  -4   1  14   -0.05    0.93
   3  -1 -14    0.21    0.65
   3  -1 -14   -1.03    0.78
  -3  -1  14    2.04    0.85
   3  -1 -14   -1.04    0.71
  -3  -1  14    1.39    0.88
   3   1 -14   -0.63    0.87
   3   1 -14    0.94    0.69
  -3   1  14   -0.19    0.87
  -3   1  14    0.68    0.85
   3   1 -14   -0.72    0.69
   2  -1 -14   -0.37    0.57
   2  -1 -14    1.57    0.83
  -2  -1  14    1.07    0.75
  -2  -1  14   -0.02    0.74
  -2   1  14   -0.21    0.74
   2   1 -14   -0.56    0.64
   2   1 -14    1.20    0.61
  -2   1  14    1.53    0.77
   1  -1 -14    2.83    0.89
   1  -1 -14    4.60    0.68
  -1  -1  14    3.34    0.82
  -1  -1  14    4.54    0.87
   1   1 -14    4.08    0.70
  -1   1  14    5.05    0.90
  -1   1  14    4.43    0.85
   0  -1 -14    0.38    0.58
   0  -1  14    0.53    0.81
   0  -1  14   -0.56    0.71
   0  -1 -14    1.25    1.25
   0   1  14    0.51    0.76
   0   1  14   -0.83    0.74
   0   1 -14    1.51    0.54
   1  -1  14   20.71    1.53
  -1  -1 -14   21.14    1.43
   1  -1  14   20.39    1.58
   1   1  14   15.65    1.49
   1   1  14   17.49    1.49
  -1   1 -14   21.23    1.39
   3  -2 -14    0.84    0.87
   3  -2 -14    1.42    0.70
  -3  -2  14    1.58    0.87
  -3  -2  14    0.75    0.83
  -3   2  14    0.84    0.88
   3   2 -14   -0.05    0.72
  -3   2  14    1.54    0.84
   3   2 -14    0.25    0.72
   2  -2 -14    0.57    0.83
   2  -2 -14    2.50    0.70
  -2  -2  14    1.28    0.81
  -2  -2  14   -0.19    0.74
  -2   2  14    0.69    0.76
   2   2 -14    1.11    0.64
  -2   2  14    0.88    0.80
   1  -2 -14    2.82    0.91
  -1  -2  14    1.22    0.77
   1  -2 -14    2.90    0.66
  -1  -2  14    2.03    0.79
   1   2 -14    2.12    0.65
  -1   2  14    2.83    0.78
  -1   2  14    1.71    0.79
   0  -2 -14    8.26    1.18
   0  -2  14    4.23    0.89
   0  -2  14    5.75    0.93
   0   2  14    6.24    1.00
   0   2  14    4.25    0.88
   0   2 -14    5.65    0.72
   1  -2  14    6.06    0.97
   1  -2  14    3.40    1.56
  -1  -2 -14    5.67    0.76
   1  -2  14    4.61    0.96
  -1   2 -14    5.26    0.85
   1   2  14    3.27    0.88
   3  -3 -14    0.61    0.70
  -3  -3  14    1.37    0.92
   3  -3 -14    2.42    0.93
   3   3 -14    1.82    0.79
   3   3 -14    3.16    0.76
  -3   3  14    2.02    0.90
  -3   3  14    3.09    0.89
   2  -3 -14    1.62    0.73
  -2  -3  14    0.22    0.82
  -2  -3  14    1.96    0.79
   2  -3 -14    2.28    0.84
  -2   3  14    1.07    0.78
  -2   3  14    0.77    0.80
   2   3 -14    1.09    0.64
   1  -3 -14    1.55    0.72
   1  -3 -14    1.11    0.83
  -1  -3  14    2.54    0.81
  -1  -3  14   -0.49    0.74
  -1   3  14    1.87    0.73
   1   3 -14    1.47    0.64
   0  -3  14    0.86    0.96
   0  -3 -14    2.75    0.69
   0  -3  14    3.82    0.85
   0  -3  14    3.66    1.00
   0  -3 -14    0.85    0.98
   0   3 -14    2.90    0.67
   0   3  14    2.21    0.86
  -1  -3 -14   -0.27    1.17
   1  -3  14    0.51    0.86
   1  -3  14    1.35    1.07
   1  -3  14    2.05    0.89
  -1  -3 -14    1.30    0.75
  -1   3 -14    1.31    0.72
   1   3  14    0.67    0.85
  -2  -4  14    1.42    0.81
   2  -4 -14    2.88    0.85
   2  -4 -14    2.27    0.76
  -2   4  14    2.50    0.89
   2   4 -14    2.37    0.71
   1  -4 -14    1.62    0.72
   1  -4 -14    0.16    0.87
  -1  -4  14    0.58    0.90
  -1   4  14    1.54    0.77
  -1   4  14    1.36    0.77
   1   4 -14    0.25    0.67
   0  -4 -14    0.89    0.98
   0  -4  14    0.15    1.05
   0  -4 -14    3.40    0.76
   0  -4  14    0.00    0.88
   0   4  14    0.09    0.80
   0   4 -14    2.16    0.69
   0   4  14    0.97    0.81
   0   0   0    0.00    0.00
;
_shelx_hkl_checksum              38867
_shelx_shelxl_version_number     2014/7
_olex2_submission_special_instructions 'No special instructions were received'
loop_
_space_group_symop_operation_xyz
'x, y, z'
'-x, y+1/2, -z+1/2'
'-x, -y, -z'
'x, -y-1/2, z-1/2'
loop_
_atom_site_label
_atom_site_type_symbol
_atom_site_fract_x
_atom_site_fract_y
_atom_site_fract_z
_atom_site_U_iso_or_equiv
_atom_site_adp_type
_atom_site_occupancy
_atom_site_site_symmetry_order
_atom_site_calc_flag
O1 O -0.01481(15) 0.39383(10) 0.88949(8) 0.01831(18) Uani 1 1 d
O2 O 0.56597(16) 0.16815(10) 0.82045(9) 0.0224(2) Uani 1 1 d
O3 O 0.65670(18) 0.14971(12) 0.60699(10) 0.0298(2) Uani 1 1 d
N1 N -0.07083(16) 0.51339(10) 0.54408(9) 0.01281(18) Uani 1 1 d
N2 N -0.12352(17) 0.47068(11) 0.77747(10) 0.01680(19) Uani 1 1 d
N3 N 0.18398(18) 0.31607(10) 0.85617(10) 0.01602(19) Uani 1 1 d
N4 N 0.36080(17) 0.29461(10) 0.64282(10) 0.01522(19) Uani 1 1 d
H4 H 0.341(3) 0.294(2) 0.554(2) 0.027(4) Uiso 1 1 d
N5 N 0.53798(17) 0.19626(11) 0.69452(10) 0.0165(2) Uani 1 1 d
C1 C 0.00060(18) 0.44452(11) 0.67383(10) 0.01222(19) Uani 1 1 d
C2 C 0.19437(18) 0.34613(11) 0.72352(10) 0.01198(19) Uani 1 1 d
loop_
_atom_site_aniso_label
_atom_site_aniso_U_11
_atom_site_aniso_U_22
_atom_site_aniso_U_33
_atom_site_aniso_U_23
_atom_site_aniso_U_13
_atom_site_aniso_U_12
O1 0.0234(4) 0.0202(4) 0.0122(3) 0.0022(3) 0.0056(3) 0.0027(3)
O2 0.0252(4) 0.0243(4) 0.0158(4) 0.0039(3) -0.0045(3) 0.0058(3)
O3 0.0281(5) 0.0375(6) 0.0251(5) 0.0043(4) 0.0084(4) 0.0191(4)
N1 0.0151(4) 0.0133(4) 0.0095(4) 0.0000(3) 0.0001(3) 0.0014(3)
N2 0.0192(4) 0.0184(4) 0.0131(4) 0.0010(3) 0.0034(3) 0.0021(3)
N3 0.0211(4) 0.0152(4) 0.0116(4) 0.0008(3) 0.0018(3) 0.0021(3)
N4 0.0170(4) 0.0180(4) 0.0101(4) 0.0016(3) 0.0000(3) 0.0073(3)
N5 0.0154(4) 0.0155(4) 0.0176(4) 0.0016(3) -0.0013(3) 0.0027(3)
C1 0.0140(4) 0.0122(4) 0.0100(4) 0.0000(3) -0.0001(3) 0.0003(3)
C2 0.0142(4) 0.0104(4) 0.0107(4) -0.0003(3) -0.0006(3) 0.0001(3)
loop_
_atom_type_symbol
_atom_type_description
_atom_type_scat_dispersion_real
_atom_type_scat_dispersion_imag
_atom_type_scat_source
C C 0.0033 0.0016 'International Tables Vol C Tables 4.2.6.8 and 6.1.1.4'
H H 0.0000 0.0000 'International Tables Vol C Tables 4.2.6.8 and 6.1.1.4'
N N 0.0061 0.0033 'International Tables Vol C Tables 4.2.6.8 and 6.1.1.4'
O O 0.0106 0.0060 'International Tables Vol C Tables 4.2.6.8 and 6.1.1.4'
loop_
_geom_angle_atom_site_label_1
_geom_angle_atom_site_label_2
_geom_angle_atom_site_label_3
_geom_angle
_geom_angle_site_symmetry_1
N2 O1 N3 111.81(8) .
N1 N1 C1 111.98(11) 3_566
C1 N2 O1 105.88(9) .
C2 N3 O1 105.00(8) .
N5 N4 H4 110.3(12) .
C2 N4 H4 124.1(12) .
C2 N4 N5 122.36(9) .
O2 N5 N4 118.59(10) .
O3 N5 O2 126.62(10) .
O3 N5 N4 114.75(9) .
N1 C1 C2 133.14(9) .
N2 C1 N1 118.05(9) .
N2 C1 C2 108.81(9) .
N3 C2 N4 126.68(10) .
N3 C2 C1 108.51(9) .
N4 C2 C1 124.81(9) .
loop_
_geom_bond_atom_site_label_1
_geom_bond_atom_site_label_2
_geom_bond_distance
_geom_bond_site_symmetry_2
O1 N2 1.3529(12) .
O1 N3 1.3975(13) .
O2 N5 1.2188(13) .
O3 N5 1.2163(13) .
N1 N1 1.2606(18) 3_566
N1 C1 1.3983(13) .
N2 C1 1.3097(14) .
N3 C2 1.3057(13) .
N4 H4 0.837(18) .
N4 N5 1.3808(13) .
N4 C2 1.3751(14) .
C1 C2 1.4410(14) .
loop_
_geom_hbond_atom_site_label_D
_geom_hbond_atom_site_label_H
_geom_hbond_atom_site_label_A
_geom_hbond_distance_DH
_geom_hbond_distance_HA
_geom_hbond_distance_DA
_geom_hbond_angle_DHA
_geom_hbond_site_symmetry_A
N4 H4 N3 0.837(18) 2.215(18) 2.9594(14) 148.1(16) 4_565
loop_
_geom_torsion_atom_site_label_1
_geom_torsion_atom_site_label_2
_geom_torsion_atom_site_label_3
_geom_torsion_atom_site_label_4
_geom_torsion
_geom_torsion_site_symmetry_1
O1 N2 C1 N1 -178.85(9) .
O1 N2 C1 C2 0.39(12) .
O1 N3 C2 N4 -179.93(10) .
O1 N3 C2 C1 0.35(11) .
N1 N1 C1 N2 175.97(11) 3_566
N1 N1 C1 C2 -3.04(18) 3_566
N1 C1 C2 N3 178.59(11) .
N1 C1 C2 N4 -1.13(18) .
N2 O1 N3 C2 -0.12(12) .
N2 C1 C2 N3 -0.49(12) .
N2 C1 C2 N4 179.79(10) .
N3 O1 N2 C1 -0.18(12) .
N5 N4 C2 N3 2.68(17) .
N5 N4 C2 C1 -177.65(10) .
C2 N4 N5 O2 -9.19(16) .
C2 N4 N5 O3 173.05(11) .
