#------------------------------------------------------------------------------
#$Date: 2015-07-09 01:06:54 +0300 (Thu, 09 Jul 2015) $
#$Revision: 141402 $
#$URL: svn://www.crystallography.net/cod/cif/1/52/03/1520313.cif $
#------------------------------------------------------------------------------
#
# This file is available in the Crystallography Open Database (COD),
# http://www.crystallography.net/
#
# All data on this site have been placed in the public domain by the
# contributors.
#
data_1520313
loop_
_publ_author_name
'Ro\&sbach, Jan'
'Harms, Klaus'
'Koert, Ulrich'
_publ_section_title
;
 \a-Crotyl-\a-difluoroboranyloxy-amides: Structure and Reactivity of
 Isolable Intermediates in Stereospecific \a-Ketol Rearrangements.
;
_journal_issue                   12
_journal_name_full               'Organic letters'
_journal_page_first              3122
_journal_page_last               3125
_journal_paper_doi               10.1021/acs.orglett.5b01427
_journal_volume                  17
_journal_year                    2015
_chemical_formula_moiety         'C10 H16 B F2 N O4'
_chemical_formula_sum            'C10 H16 B F2 N O4'
_chemical_formula_weight         263.05
_space_group_crystal_system      triclinic
_space_group_IT_number           2
_space_group_name_Hall           '-P 1'
_space_group_name_H-M_alt        'P -1'
_symmetry_space_group_name_Hall  '-P 1'
_symmetry_space_group_name_H-M   'P -1'
_atom_sites_solution_hydrogens   geom
_atom_sites_solution_primary     direct
_atom_sites_solution_secondary   difmap
_audit_creation_method           SHELXL-2014/7
_cell_angle_alpha                83.232(2)
_cell_angle_beta                 83.476(2)
_cell_angle_gamma                76.265(2)
_cell_formula_units_Z            2
_cell_length_a                   7.0022(3)
_cell_length_b                   7.7079(4)
_cell_length_c                   12.3657(6)
_cell_measurement_reflns_used    6410
_cell_measurement_temperature    100(2)
_cell_measurement_theta_max      25.2551
_cell_measurement_theta_min      2.7325
_cell_volume                     641.26(5)
_computing_cell_refinement       'BRUKER SAINT'
_computing_data_collection       'BRUKER APEX2 2014.9-0'
_computing_data_reduction        'SAINT V8.34A (Bruker AXS Inc., 2013)'
_computing_molecular_graphics    'DIAMOND (Crystal Impact)'
_computing_structure_refinement  'SHELXL-2014/7 (Sheldrick, 2014)'
_computing_structure_solution    'SHELXT V2014/1 (Bruker AXS Inc., 2014)'
_diffrn_ambient_temperature      100(2)
_diffrn_detector_area_resol_mean 7.9
_diffrn_measured_fraction_theta_full 0.999
_diffrn_measured_fraction_theta_max 0.998
_diffrn_measurement_device_type  'Bruker D8 QUEST area detector'
_diffrn_measurement_method       '\w and \f scans'
_diffrn_radiation_type           MoK\a
_diffrn_radiation_wavelength     0.71073
_diffrn_reflns_av_R_equivalents  0.0224
_diffrn_reflns_av_unetI/netI     0.0170
_diffrn_reflns_laue_measured_fraction_full 0.999
_diffrn_reflns_laue_measured_fraction_max 0.998
_diffrn_reflns_limit_h_max       8
_diffrn_reflns_limit_h_min       -8
_diffrn_reflns_limit_k_max       9
_diffrn_reflns_limit_k_min       -9
_diffrn_reflns_limit_l_max       14
_diffrn_reflns_limit_l_min       -14
_diffrn_reflns_number            10712
_diffrn_reflns_point_group_measured_fraction_full 0.999
_diffrn_reflns_point_group_measured_fraction_max 0.998
_diffrn_reflns_theta_full        25.242
_diffrn_reflns_theta_max         25.296
_diffrn_reflns_theta_min         2.732
_diffrn_source                   'microfocus sealed X-ray tube'
_exptl_absorpt_coefficient_mu    0.120
_exptl_absorpt_correction_T_max  0.99
_exptl_absorpt_correction_T_min  0.96
_exptl_absorpt_correction_type   numerical
_exptl_absorpt_process_details   'SADABS V2014/4 (Bruker AXS Inc.)'
_exptl_crystal_colour            colourless
_exptl_crystal_density_diffrn    1.362
_exptl_crystal_density_method    'not measured'
_exptl_crystal_description       block
_exptl_crystal_F_000             276
_exptl_crystal_size_max          0.25
_exptl_crystal_size_mid          0.24
_exptl_crystal_size_min          0.11
_refine_diff_density_max         0.335
_refine_diff_density_min         -0.171
_refine_diff_density_rms         0.037
_refine_ls_extinction_method     none
_refine_ls_goodness_of_fit_ref   1.063
_refine_ls_hydrogen_treatment    constr
_refine_ls_matrix_type           full
_refine_ls_number_parameters     168
_refine_ls_number_reflns         2327
_refine_ls_number_restraints     0
_refine_ls_restrained_S_all      1.063
_refine_ls_R_factor_all          0.0333
_refine_ls_R_factor_gt           0.0297
_refine_ls_shift/su_max          0.000
_refine_ls_shift/su_mean         0.000
_refine_ls_structure_factor_coef Fsqd
_refine_ls_weighting_details
'w=1/[\s^2^(Fo^2^)+(0.0343P)^2^+0.2528P] where P=(Fo^2^+2Fc^2^)/3'
_refine_ls_weighting_scheme      calc
_refine_ls_wR_factor_gt          0.0739
_refine_ls_wR_factor_ref         0.0763
_reflns_Friedel_coverage         0.000
_reflns_number_gt                2121
_reflns_number_total             2327
_reflns_threshold_expression     'I > 2\s(I)'
_cod_data_source_file            ol5b01427_si_002.cif
_cod_data_source_block           JR2103A_0m
_cod_depositor_comments
'Adding full bibliography for 1520305--1520319.cif.'
_cod_database_code               1520313
_shelx_shelxl_version_number     2014/7
_shelx_space_group_comment
; 
The symmetry employed for this shelxl refinement is uniquely defined 
by the following loop, which should always be used as a source of 
symmetry information in preference to the above space-group names. 
They are only intended as comments. 
;
_shelx_estimated_absorpt_t_min   0.971
_shelx_estimated_absorpt_t_max   0.987
_shelx_res_file
; 
  
    JR2103A_0m.res created by SHELXL-2014/7 
  
  
TITL JR2103A_0m_a.res in P-1 
REM Old TITL JR2103A_0m in P-1 
  
REM SHELXT solution in P-1 
REM R1 0.109,  Rweak 0.006,  Alpha 0.028,  Orientation as input 
REM Formula found by SHELXT:  C9 B N O5 F2 
  
CELL  0.71073   7.0022    7.7079   12.3657   83.232   83.476   76.265 
ZERR    2.000  0.0003    0.0004    0.0006    0.002    0.002    0.002 
LATT  1 
SFAC C H B N O F 
UNIT 20 32 2 2 8 4 
TEMP -173.150 
SIZE 0.11 0.24 0.25 
L.S. 10 
BOND $H 
conf 
LIST 4 
FMAP 2 
PLAN 10 
acta 
REM ##### 
WGHT    0.034300    0.252800 
FVAR       1.13853   0.52985 
F1    6    0.826661    0.134697    0.157361    11.00000    0.01795    0.01663 = 
         0.03757   -0.00133   -0.00241    0.00086 
O1    5    0.484168    0.226484    0.204831    11.00000    0.01882    0.01097 = 
         0.01780   -0.00298    0.00012   -0.00319 
N1    4    0.494480    0.681165    0.222591    11.00000    0.01658    0.01230 = 
         0.01970   -0.00163   -0.00039   -0.00179 
C1    1    0.163702    0.200369    0.496788    11.00000    0.04075    0.02520 = 
         0.03179    0.00209    0.00650   -0.00839 
AFIX  93 
H1A   2    0.097217    0.311976    0.522936    11.00000   -1.20000 
H1B   2    0.116642    0.095304    0.521312    11.00000   -1.20000 
AFIX   0 
B1    3    0.652627    0.246865    0.129327    11.00000    0.01773    0.01216 = 
         0.02141   -0.00281   -0.00029   -0.00249 
F2    6    0.625417    0.234001    0.022032    11.00000    0.02781    0.02553 = 
         0.01915   -0.00656    0.00237   -0.00737 
O2    5    0.049572    0.518752    0.291937    11.00000    0.01879    0.02439 = 
         0.02579   -0.00397    0.00202   -0.00140 
C2    1    0.320565    0.191330    0.426782    11.00000    0.03165    0.01648 = 
         0.01671    0.00066   -0.00387   -0.00366 
AFIX  43 
H2    2    0.383150    0.077462    0.402455    11.00000   -1.20000 
AFIX   0 
O3    5    0.663579    0.442805    0.139138    11.00000    0.01518    0.01337 = 
         0.02102   -0.00138    0.00048   -0.00235 
C3    1    0.408435    0.348145    0.382276    11.00000    0.02436    0.01529 = 
         0.01481   -0.00143   -0.00230   -0.00280 
AFIX  13 
H3    2    0.331094    0.457022    0.417154    11.00000   -1.20000 
AFIX   0 
O4    5    0.336650    0.750190    0.296012    11.00000    0.02165    0.01454 = 
         0.01753   -0.00233    0.00072    0.00081 
C4    1    0.395256    0.382503    0.257281    11.00000    0.01770    0.00996 = 
         0.01622   -0.00160   -0.00073   -0.00240 
C5    1    0.178732    0.449698    0.226886    11.00000    0.01739    0.01230 = 
         0.01953    0.00223   -0.00011   -0.00571 
C6    1    0.144165    0.423266    0.113472    11.00000    0.01737    0.03103 = 
         0.02013    0.00069   -0.00367   -0.00574 
AFIX 137 
H6A   2    0.018999    0.502570    0.093735    11.00000   -1.50000 
H6B   2    0.138571    0.298180    0.110160    11.00000   -1.50000 
H6C   2    0.252265    0.451721    0.062172    11.00000   -1.50000 
AFIX   0 
C7    1    0.623934    0.312461    0.409735    11.00000    0.03027    0.02573 = 
         0.02023    0.00142   -0.00857   -0.00521 
AFIX 137 
H7A   2    0.703776    0.212644    0.370624    11.00000   -1.50000 
H7B   2    0.630157    0.281736    0.488644    11.00000   -1.50000 
H7C   2    0.675189    0.420262    0.387434    11.00000   -1.50000 
AFIX   0 
C8    1    0.518979    0.514381    0.204597    11.00000    0.01460    0.01437 = 
         0.01418    0.00054   -0.00550   -0.00134 
C9    1    0.629709    0.796616    0.180502    11.00000    0.02073    0.01471 = 
         0.03431   -0.00219   -0.00106   -0.00616 
PART 1 
AFIX 137 
H9A   2    0.570697    0.884214    0.122581    21.00000   -1.50000 
H9B   2    0.754557    0.723190    0.150816    21.00000   -1.50000 
H9C   2    0.654500    0.859817    0.239900    21.00000   -1.50000 
AFIX 137 
PART 2 
H9D   2    0.624733    0.822989    0.101249   -21.00000   -1.50000 
H9E   2    0.764370    0.735331    0.196527   -21.00000   -1.50000 
H9F   2    0.590650    0.908900    0.215522   -21.00000   -1.50000 
AFIX   0 
PART 0 
C10   1    0.191490    0.886241    0.238970    11.00000    0.02122    0.01544 = 
         0.02644   -0.00001   -0.00097    0.00255 
AFIX 137 
H10A  2    0.246074    0.991620    0.214551    11.00000   -1.50000 
H10B  2    0.072145    0.920850    0.288457    11.00000   -1.50000 
H10C  2    0.158382    0.837980    0.175445    11.00000   -1.50000 
AFIX   0 
HKLF 4 
  
REM  JR2103A_0m_a.res in P-1 
REM R1 =  0.0297 for    2121 Fo > 4sig(Fo)  and  0.0333 for all    2327 data 
REM    168 parameters refined using      0 restraints 
  
END 
  
WGHT      0.0347      0.2533 
  
REM Highest difference peak  0.335,  deepest hole -0.171,  1-sigma level  0.037 
Q1    1   0.4027  0.3675  0.3223  11.00000  0.05    0.34 
Q2    1   0.2913  0.4146  0.2407  11.00000  0.05    0.31 
Q3    1   0.4425  0.4594  0.2356  11.00000  0.05    0.29 
Q4    1   0.3645  0.2755  0.4007  11.00000  0.05    0.23 
Q5    1   0.4411  0.3061  0.2324  11.00000  0.05    0.21 
Q6    1   0.5027  0.3353  0.3952  11.00000  0.05    0.20 
Q7    1   0.2030  0.2162  0.4232  11.00000  0.05    0.19 
Q8    1   0.7222  0.3820  0.4136  11.00000  0.05    0.18 
Q9    1   0.5648  0.7390  0.2048  11.00000  0.05    0.18 
Q10   1   0.1773  0.4456  0.1682  11.00000  0.05    0.18 
;
_shelx_res_checksum              1725
_shelx_hkl_file
; 
  -1   0   0 5409.59 126.674   3 
  -1   0   0 5681.42 128.220   1 
   1   0   0 5255.98 126.027   2 
   1   0   0 5443.94 128.067   1 
   1   0   0 5069.76 126.616   3 
  -2   0   0 6.28616 0.86900   1 
  -2   0   0 5.67418 0.35063   2 
   2   0   0 6.77295 0.58674   3 
   2   0   0 5.37682 0.41869   2 
   2   0   0 4.33661 0.72497   1 
  -3   0   0 12.5551 0.61152   2 
  -4   0   0 1000.41 25.5190   1 
  -4   0   0 1047.83 24.1253   2 
  -4   0   0 1024.95 24.5917   3 
   4   0   0 1008.32 25.7136   1 
   4   0   0 1020.59 24.3196   2 
   4   0   0 1008.05 24.8020   3 
  -5   0   0 53.1918 1.70556   2 
  -5   0   0 53.2483 2.22661   3 
  -5   0   0 49.8731 3.02159   1 
   5   0   0 49.2417 2.47519   3 
   5   0   0 50.3504 3.32344   1 
  -6   0   0 1093.73 25.6258   2 
  -6   0   0 1069.96 26.4020   3 
  -6   0   0 1085.85 27.8699   1 
   6   0   0 1069.74 26.8710   3 
   6   0   0 1057.63 28.2958   1 
  -7   0   0 279.937 9.73757   1 
  -7   0   0 278.894 7.09999   2 
  -7   0   0 275.626 8.15190   3 
   7   0   0 293.595 10.5404   1 
   7   0   0 272.902 8.68721   3 
  -8   0   0 3.94782 3.02730   1 
  -8   0   0 5.93824 1.90327   3 
   8   0   0 3.68421 2.29768   3 
   7  -1   0 6.21181 2.82137   1 
   7  -1   0 3.36759 1.72035   3 
  -7   1   0 2.62893 2.31695   1 
  -7   1   0 4.24061 1.36129   3 
  -7   1   0 4.13966 0.88351   2 
   6  -1   0 150.825 6.67232   1 
   6  -1   0 158.338 5.30902   3 
   6  -1   0 150.273 4.38807   2 
  -6   1   0 151.960 5.04595   3 
  -6   1   0 151.290 4.30302   2 
  -6   1   0 152.489 6.20712   1 
   5  -1   0 420.480 12.3546   1 
   5  -1   0 421.549 10.9648   3 
   5  -1   0 410.051 10.3239   2 
  -5   1   0 404.601 11.9381   1 
  -5   1   0 418.413 10.8652   3 
  -5   1   0 412.808 10.3191   2 
   4  -1   0 104.672 2.88785   2 
   4  -1   0 102.276 3.32927   3 
  -4   1   0 100.474 3.25788   3 
  -4   1   0 99.5039 4.02361   1 
  -4   1   0 100.780 2.92990   2 
   3  -1   0 79.2437 3.29149   1 
   3  -1   0 84.8443 2.31104   2 
   3  -1   0 81.0113 2.59070   3 
  -3   1   0 83.8637 2.39333   2 
  -3   1   0 84.9313 3.24852   1 
  -3   1   0 81.4994 2.62556   3 
   2  -1   0 82.8086 3.01525   1 
   2  -1   0 87.9145 2.35882   2 
   2  -1   0 82.0717 2.51631   3 
  -2   1   0 83.4081 2.95346   1 
  -2   1   0 88.1728 2.44709   2 
  -2   1   0 87.7226 2.59197   3 
   1  -1   0 19.4080 0.83505   3 
   1  -1   0 19.5938 1.01445   1 
   1  -1   0 19.6198 0.77532   2 
  -1   1   0 19.0712 0.79760   2 
  -1   1   0 19.6659 0.98887   1 
  -1   1   0 19.7869 0.86354   3 
   0  -1   0 3077.08 74.6702   3 
   0  -1   0 3137.17 74.6395   2 
   0  -1   0 3049.26 74.0134   1 
   0   1   0 3168.16 74.8526   3 
   0   1   0 3165.41 74.9208   2 
   0   1   0 3150.96 74.0339   1 
  -1  -1   0 1213.39 28.7258   2 
  -2  -1   0 2061.79 46.9020   1 
  -2  -1   0 2005.21 47.0998   3 
   2   1   0 1927.27 46.8990   1 
   2   1   0 1907.74 46.7404   3 
  -3  -1   0 323.123 8.12464   2 
  -3  -1   0 326.564 8.85878   1 
  -3  -1   0 339.545 8.43537   3 
   3   1   0 325.170 8.54739   3 
   3   1   0 324.684 8.95088   1 
  -4  -1   0 158.842 4.65353   3 
  -4  -1   0 159.740 5.32476   1 
  -4  -1   0 159.490 4.23235   2 
   4   1   0 163.826 4.92865   3 
   4   1   0 164.433 5.47960   1 
  -5  -1   0 79.4008 3.88691   1 
  -5  -1   0 85.8993 3.01955   3 
  -5  -1   0 85.9533 2.50333   2 
   5   1   0 91.1673 4.23087   1 
   5   1   0 91.3320 3.51654   3 
  -6  -1   0 90.5535 3.38405   3 
  -6  -1   0 89.5140 4.51923   1 
  -6  -1   0 89.7895 2.62505   2 
   6   1   0 88.7162 3.95112   3 
  -7  -1   0 57.5415 4.43740   1 
  -7  -1   0 58.6879 2.00565   2 
  -7  -1   0 52.8821 2.37847   2 
  -7  -1   0 60.1508 3.00648   3 
   7   1   0 60.3089 3.77053   3 
  -8  -1   0 67.5546 5.65438   1 
  -8  -1   0 66.7654 3.72514   3 
   7  -2   0 65.8821 5.99315   1 
   7  -2   0 57.5283 2.57182   2 
  -7   2   0 55.0245 2.59265   2 
  -7   2   0 51.2362 4.89151   1 
   6  -2   0 113.130 5.84921   1 
   6  -2   0 98.5239 3.32829   2 
   6  -2   0 106.269 4.16804   3 
  -6   2   0 102.367 5.33446   1 
  -6   2   0 108.484 4.27956   3 
  -6   2   0 108.734 3.58000   2 
   5  -2   0 7.45011 1.90109   1 
   5  -2   0 10.2325 1.03559   2 
   5  -2   0 8.73086 1.14852   3 
  -5   2   0 11.9222 1.13802   2 
  -5   2   0 8.46763 1.27897   3 
  -5   2   0 8.23157 1.68281   1 
   4  -2   0 1695.62 39.7052   2 
   4  -2   0 1646.68 41.4578   1 
   4  -2   0 1660.68 40.1492   3 
  -4   2   0 1707.60 40.0071   2 
  -4   2   0 1650.23 41.1400   1 
  -4   2   0 1707.18 40.3660   3 
   3  -2   0 142.610 4.99713   1 
   3  -2   0 145.025 4.23583   3 
   3  -2   0 150.593 3.98127   2 
  -3   2   0 148.542 4.40762   3 
  -3   2   0 144.500 4.18235   2 
  -3   2   0 147.894 4.90159   1 
   2  -2   0 626.047 14.8880   2 
   2  -2   0 603.864 15.5286   1 
   2  -2   0 608.560 15.0259   3 
  -2   2   0 615.601 15.1771   3 
  -2   2   0 608.331 15.4394   1 
  -2   2   0 618.017 15.0314   2 
   1  -2   0 1489.30 35.3405   1 
   1  -2   0 1479.68 35.2372   3 
   1  -2   0 1518.37 35.1693   2 
  -1   2   0 1494.81 35.3092   3 
  -1   2   0 1462.15 35.2165   2 
  -1   2   0 1443.13 35.2411   1 
   0  -2   0 2204.14 50.7962   1 
   0  -2   0 2069.83 50.5469   2 
   0  -2   0 2184.68 51.1100   3 
   0   2   0 2125.46 50.6764   1 
   0   2   0 2114.82 51.1219   3 
   0   2   0 2143.14 50.6122   2 
  -1  -2   0 7234.60 169.927   2 
  -1  -2   0 7049.52 170.619   3 
  -1  -2   0 7247.10 168.288   1 
   1   2   0 6972.22 169.338   2 
   1   2   0 7131.76 168.728   1 
  -2  -2   0 1470.95 35.0662   2 
  -3  -2   0 174.125 5.11629   3 
  -3  -2   0 176.451 5.27002   1 
  -3  -2   0 177.774 4.93825   2 
  -4  -2   0 154.875 4.54982   2 
  -4  -2   0 152.367 5.13777   1 
  -4  -2   0 159.278 4.49399   2 
  -4  -2   0 158.679 4.81814   3 
  -5  -2   0 14.0215 1.38190   2 
  -5  -2   0 14.2988 1.46340   3 
  -5  -2   0 12.4578 1.82144   1 
  -5  -2   0 14.3636 1.17779   2 
  -6  -2   0 20.5783 1.75957   2 
  -6  -2   0 26.3264 2.81760   1 
  -6  -2   0 24.0499 1.94733   3 
  -6  -2   0 24.9580 1.38182   2 
  -7  -2   0 57.5935 3.04118   3 
  -7  -2   0 56.1792 2.62795   2 
  -7  -2   0 61.2566 4.57246   1 
  -7  -2   0 60.6857 2.13096   2 
  -8  -2   0 0.43159 1.13184   2 
  -8  -2   0 -0.2342 1.51945   3 
  -8  -2   0 -1.2455 2.87789   1 
  -8  -2   0 0.11091 0.72190   2 
   7  -3   0 15.3506 3.98289   1 
   7  -3   0 13.5758 1.53268   2 
   7  -3   0 14.4744 2.16635   3 
  -7   3   0 16.9798 2.58628   3 
  -7   3   0 19.8737 1.85387   2 
  -7   3   0 20.4198 3.81524   1 
   6  -3   0 133.928 4.12168   2 
   6  -3   0 136.610 4.96153   3 
   6  -3   0 124.220 6.88696   1 
  -6   3   0 136.145 5.29295   3 
  -6   3   0 131.980 6.21917   1 
  -6   3   0 128.153 4.60391   2 
   5  -3   0 56.4243 2.71996   3 
   5  -3   0 48.3367 3.96488   1 
   5  -3   0 51.9025 2.10385   2 
  -5   3   0 54.4774 3.02138   3 
  -5   3   0 52.9311 2.64282   2 
  -5   3   0 53.5480 3.62047   1 
   4  -3   0 7.83814 1.07437   3 
   4  -3   0 8.77633 1.67950   1 
   4  -3   0 7.87950 0.86433   2 
  -4   3   0 9.73823 1.64325   1 
  -4   3   0 8.71276 1.14693   2 
  -4   3   0 6.84283 1.17879   3 
   3  -3   0 286.136 7.47178   2 
   3  -3   0 288.483 7.73833   3 
   3  -3   0 287.138 8.57817   1 
  -3   3   0 280.503 7.99542   3 
  -3   3   0 280.646 8.30202   1 
  -3   3   0 291.372 7.80751   2 
   2  -3   0 154.106 4.37133   2 
   2  -3   0 154.753 4.89820   1 
   2  -3   0 141.346 4.45077   3 
  -2   3   0 153.627 4.74075   1 
  -2   3   0 148.179 4.65831   3 
  -2   3   0 150.538 4.55258   2 
   1  -3   0 112.315 3.55396   1 
   1  -3   0 110.487 3.46784   2 
   1  -3   0 107.958 3.54012   3 
  -1   3   0 115.608 3.70831   3 
  -1   3   0 107.626 3.55464   2 
  -1   3   0 113.145 3.44117   1 
   0  -3   0 2359.94 55.5158   1 
   0  -3   0 2362.51 55.6326   3 
   0  -3   0 2310.46 55.5107   2 
   0   3   0 2368.57 56.0740   1 
   0   3   0 2297.95 55.6484   3 
   0   3   0 2336.85 55.6108   2 
  -1  -3   0 979.750 23.1087   1 
  -1  -3   0 986.227 23.7473   2 
  -1  -3   0 965.003 23.8558   3 
   1   3   0 989.588 23.2278   1 
   1   3   0 947.085 23.7793   2 
  -2  -3   0 1838.52 43.6918   2 
  -2  -3   0 1876.68 43.3064   1 
  -2  -3   0 1765.12 43.8310   3 
  -3  -3   0 101.702 3.50643   1 
  -3  -3   0 102.492 3.45002   2 
  -4  -3   0 3.25753 0.93006   1 
  -4  -3   0 2.10074 0.76122   2 
  -4  -3   0 1.80025 0.81082   3 
  -5  -3   0 114.119 4.58841   1 
  -5  -3   0 114.810 3.89924   2 
  -5  -3   0 113.574 4.21566   3 
  -5  -3   0 118.298 3.99348   2 
  -6  -3   0 495.431 12.9414   2 
  -6  -3   0 491.865 12.7151   2 
  -6  -3   0 498.711 14.0964   1 
  -6  -3   0 500.978 13.3307   3 
  -7  -3   0 197.955 5.95613   2 
  -7  -3   0 169.501 6.94320   3 
  -7  -3   0 190.992 5.44228   2 
  -7  -3   0 190.667 7.53870   1 
  -8  -3   0 30.7441 2.74011   2 
  -8  -3   0 27.5235 3.06293   3 
  -8  -3   0 28.1845 1.82218   2 
  -8  -3   0 22.9715 3.51087   1 
   6  -4   0 90.0222 4.12165   3 
   6  -4   0 91.5833 6.72412   1 
   6  -4   0 88.6429 3.41103   2 
  -6   4   0 90.3283 4.20875   2 
  -6   4   0 86.6887 4.87784   3 
  -6   4   0 90.6653 5.85893   1 
   5  -4   0 68.9803 3.38802   3 
   5  -4   0 73.9350 2.84201   2 
   5  -4   0 66.7627 4.95677   1 
  -5   4   0 73.4098 3.55854   2 
  -5   4   0 73.5241 4.52309   1 
  -5   4   0 72.5267 4.02746   3 
   4  -4   0 174.875 5.11560   2 
   4  -4   0 170.440 5.45122   3 
   4  -4   0 167.504 6.72573   1 
  -4   4   0 176.720 5.70765   2 
  -4   4   0 173.952 6.33880   1 
  -4   4   0 174.519 5.98231   3 
   3  -4   0 392.799 10.3576   2 
   3  -4   0 391.721 11.4533   1 
   3  -4   0 406.354 10.6508   3 
  -3   4   0 404.095 11.1470   1 
  -3   4   0 400.578 10.8318   2 
  -3   4   0 392.006 11.0190   3 
   2  -4   0 53.9190 2.33045   2 
   2  -4   0 53.4639 2.72254   1 
   2  -4   0 52.4054 2.46109   3 
  -2   4   0 53.8526 2.58574   2 
  -2   4   0 52.2472 2.65853   3 
  -2   4   0 50.0700 2.47919   1 
   1  -4   0 786.346 19.8635   2 
   1  -4   0 758.649 19.9733   3 
   1  -4   0 806.849 19.9000   1 
  -1   4   0 813.741 20.1151   2 
  -1   4   0 820.997 19.7139   1 
  -1   4   0 809.388 20.2053   3 
   0  -4   0 543.031 14.5925   3 
   0  -4   0 569.351 14.0645   1 
   0  -4   0 571.672 14.5032   2 
   0   4   0 585.533 14.6791   2 
   0   4   0 560.723 14.6940   3 
   0   4   0 571.592 13.9161   1 
  -1  -4   0 73.4750 2.24873   1 
  -1  -4   0 71.7556 3.03112   3 
  -1  -4   0 71.0798 2.84045   2 
   1   4   0 70.0894 3.00984   3 
   1   4   0 72.0661 2.28615   1 
   1   4   0 69.6469 2.96930   2 
  -2  -4   0 444.644 10.5517   1 
  -2  -4   0 436.003 11.5530   3 
  -2  -4   0 411.289 11.2651   2 
   2   4   0 412.469 11.3696   2 
  -3  -4   0 563.386 14.1238   1 
  -3  -4   0 559.097 14.8613   3 
  -3  -4   0 563.394 14.5645   2 
  -4  -4   0 80.2241 3.62878   3 
  -4  -4   0 86.0431 3.41455   2 
  -4  -4   0 88.5469 3.50784   1 
  -4  -4   0 85.6909 3.43925   1 
  -5  -4   0 460.239 12.7592   3 
  -5  -4   0 454.371 12.4022   2 
  -5  -4   0 476.101 12.8723   1 
  -6  -4   0 34.8964 2.57688   2 
  -6  -4   0 40.9534 3.37583   1 
  -6  -4   0 41.0722 2.97555   3 
  -6  -4   0 35.8863 2.72087   2 
  -7  -4   0 121.012 5.10138   3 
  -7  -4   0 122.361 4.80278   2 
  -7  -4   0 121.022 4.50750   2 
  -7  -4   0 119.135 5.88972   1 
  -8  -4   0 32.0614 4.14871   1 
  -8  -4   0 35.3401 3.25344   2 
  -8  -4   0 30.8371 2.57815   2 
  -8  -4   0 33.8652 3.65972   3 
   5  -5   0 17.1929 1.79475   2 
   5  -5   0 15.2463 3.30753   1 
   5  -5   0 16.6300 2.12072   3 
  -5   5   0 19.5632 3.03226   1 
  -5   5   0 18.6440 2.32145   2 
  -5   5   0 18.8649 2.70024   3 
   4  -5   0 945.314 25.6323   1 
   4  -5   0 980.710 24.2312   3 
   4  -5   0 951.893 23.7374   2 
  -4   5   0 959.370 24.4874   2 
  -4   5   0 951.856 24.8140   3 
  -4   5   0 978.907 25.0088   1 
   3  -5   0 2.91097 1.42076   1 
   3  -5   0 -0.1472 0.85359   2 
   3  -5   0 -1.4612 0.90394   3 
  -3   5   0 1.80436 1.27400   3 
  -3   5   0 -0.0534 1.23358   2 
  -3   5   0 -0.9864 1.15696   1 
   2  -5   0 534.610 14.0099   2 
   2  -5   0 532.784 14.2345   3 
   2  -5   0 544.656 14.5087   1 
  -2   5   0 542.521 14.0908   1 
  -2   5   0 535.959 14.5900   3 
  -2   5   0 532.810 14.4142   2 
   1  -5   0 284.246 8.51606   3 
   1  -5   0 299.262 8.35796   1 
   1  -5   0 293.923 8.39734   2 
  -1   5   0 306.910 8.85942   3 
  -1   5   0 290.387 8.66266   2 
  -1   5   0 291.405 8.00291   1 
   0  -5   0 6.21508 1.14558   3 
   0  -5   0 6.92728 0.92797   1 
   0  -5   0 4.38136 0.96230   2 
   0   5   0 4.29163 1.18643   2 
   0   5   0 5.14231 0.68720   1 
   0   5   0 6.27713 1.27955   3 
  -1  -5   0 7.26168 1.23050   2 
  -1  -5   0 3.44398 1.16224   3 
  -1  -5   0 4.60500 0.66640   1 
   1   5   0 4.86686 0.67620   1 
   1   5   0 6.47693 1.36764   2 
  -2  -5   0 2579.58 62.6221   2 
  -2  -5   0 2649.92 61.8737   1 
  -2  -5   0 2576.87 62.9048   3 
   2   5   0 2642.25 62.8608   2 
  -3  -5   0 637.317 16.9678   2 
  -3  -5   0 660.422 16.0486   1 
  -3  -5   0 659.915 17.3523   3 
  -4  -5   0 128.433 5.28916   3 
  -4  -5   0 127.352 4.27618   1 
  -4  -5   0 130.853 4.60460   1 
  -4  -5   0 133.822 4.83078   2 
  -5  -5   0 33.3755 3.34910   3 
  -5  -5   0 25.7097 2.87984   3 
  -5  -5   0 30.4313 2.62200   2 
  -5  -5   0 31.2285 2.70771   1 
  -5  -5   0 29.5806 2.48518   1 
  -6  -5   0 114.518 4.76219   2 
  -6  -5   0 118.363 5.26669   3 
  -6  -5   0 115.848 5.14075   1 
  -6  -5   0 120.863 5.23916   1 
  -6  -5   0 111.751 4.80532   2 
  -7  -5   0 8.16500 1.97411   2 
  -7  -5   0 5.18801 1.84862   2 
  -7  -5   0 3.19888 2.27278   1 
  -7  -5   0 2.12526 2.06807   1 
  -7  -5   0 2.50654 1.86462   3 
   4  -6   0 46.8154 4.84401   1 
   4  -6   0 52.2676 3.07301   2 
   4  -6   0 48.7526 3.54720   3 
  -4   6   0 39.8441 4.00031   2 
  -4   6   0 45.4725 4.05778   1 
  -4   6   0 47.1359 4.56144   3 
   3  -6   0 3.40751 1.55509   3 
   3  -6   0 2.82956 2.17502   2 
  -3   6   0 3.66294 1.81528   3 
   2  -6   0 26.9457 2.83207   1 
   2  -6   0 27.9988 2.74694   3 
   2  -6   0 32.4502 2.54804   2 
  -2   6   0 29.9909 3.14700   3 
  -2   6   0 28.2595 3.02468   2 
  -2   6   0 33.4225 2.44299   1 
   1  -6   0 495.482 13.6585   3 
   1  -6   0 496.949 13.2814   1 
   1  -6   0 497.181 13.4121   2 
  -1   6   0 489.290 13.8842   3 
  -1   6   0 492.736 12.8144   1 
  -1   6   0 489.041 13.8059   2 
   0  -6   0 32.5677 2.68951   3 
   0  -6   0 33.1398 2.12007   1 
   0  -6   0 34.4210 2.45047   2 
   0   6   0 37.7693 2.96882   3 
   0   6   0 32.4304 1.73295   1 
   0   6   0 30.9013 2.84999   2 
  -1  -6   0 196.526 6.78294   3 
  -1  -6   0 194.159 6.51599   2 
  -1  -6   0 198.669 5.61903   1 
   1   6   0 195.751 5.58949   1 
   1   6   0 202.647 6.87940   2 
  -2  -6   0 334.780 9.91819   2 
  -2  -6   0 340.211 10.2721   3 
  -2  -6   0 339.590 8.73492   1 
   2   6   0 340.741 9.13676   1 
   2   6   0 339.112 10.1785   2 
  -3  -6   0 344.007 8.82158   1 
  -3  -6   0 358.675 10.6114   3 
  -3  -6   0 331.477 10.0566   2 
  -4  -6   0 191.742 5.57562   1 
  -4  -6   0 197.901 6.64420   2 
  -4  -6   0 198.447 7.23051   3 
  -4  -6   0 191.860 6.11149   1 
  -5  -6   0 30.6437 2.21641   1 
  -5  -6   0 31.3411 2.92002   1 
  -5  -6   0 33.9887 3.39222   3 
  -5  -6   0 25.4077 2.97083   2 
  -5  -6   0 33.4807 3.50174   3 
  -6  -6   0 163.175 6.33102   1 
  -6  -6   0 162.107 7.34893   3 
  -6  -6   0 155.554 5.92608   1 
  -6  -6   0 179.807 6.36613   2 
  -6  -6   0 158.205 6.81070   3 
  -7  -6   0 0.20143 2.03597   2 
  -7  -6   0 8.12916 2.51232   1 
  -7  -6   0 11.0941 3.62759   3 
  -7  -6   0 7.57900 2.37565   1 
  -7  -6   0 4.15948 2.45165   3 
  -7  -6   0 3.67743 2.25779   2 
   3  -7   0 75.9886 4.23297   2 
   3  -7   0 77.4275 4.66387   3 
   3  -7   0 82.6403 5.59154   1 
  -3   7   0 83.6125 5.61707   3 
  -3   7   0 81.8493 5.28596   2 
  -3   7   0 80.5481 4.54213   1 
   2  -7   0 201.820 7.04692   2 
   2  -7   0 192.480 7.30160   1 
   2  -7   0 205.619 7.36039   3 
  -2   7   0 200.132 7.82146   3 
  -2   7   0 217.729 7.98907   2 
  -2   7   0 202.284 6.64149   1 
   1  -7   0 635.227 17.0012   1 
   1  -7   0 635.609 17.1915   2 
   1  -7   0 657.298 17.5462   3 
  -1   7   0 629.994 16.3734   1 
  -1   7   0 647.566 17.9417   3 
  -1   7   0 636.379 17.8121   2 
   0  -7   0 60.7217 3.07058   1 
   0  -7   0 59.2430 3.86887   3 
   0  -7   0 50.4261 3.37372   2 
   0   7   0 65.4971 4.15266   2 
   0   7   0 58.1850 2.59930   1 
   0   7   0 59.3203 4.19803   3 
  -1  -7   0 1.92439 1.50429   3 
  -1  -7   0 0.09624 0.85828   1 
  -1  -7   0 0.70262 1.33562   2 
   1   7   0 -0.4281 0.81430   1 
   1   7   0 0.64560 1.33029   2 
  -2  -7   0 167.182 6.23837   2 
  -2  -7   0 165.934 4.87803   1 
  -2  -7   0 162.309 6.49450   3 
   2   7   0 162.126 5.25044   1 
   2   7   0 166.716 6.52320   2 
  -3  -7   0 3.42919 0.79376   1 
  -3  -7   0 5.16401 1.78772   2 
  -3  -7   0 5.30610 1.96987   3 
  -4  -7   0 -2.6134 1.90632   3 
  -4  -7   0 -1.1367 1.23848   1 
  -4  -7   0 0.86019 0.73115   1 
  -4  -7   0 0.07940 1.59093   2 
  -5  -7   0 166.336 6.74788   2 
  -5  -7   0 174.131 6.19197   1 
  -5  -7   0 166.502 7.38775   3 
  -5  -7   0 175.745 5.31874   1 
  -5  -7   0 175.340 7.52174   3 
  -6  -7   0 5.26059 2.11784   1 
  -6  -7   0 -0.3703 2.52347   3 
  -6  -7   0 11.4085 3.09490   3 
  -6  -7   0 6.05935 1.57403   1 
  -6  -7   0 7.32145 2.52618   2 
   2  -8   0 5.97969 2.09185   2 
   2  -8   0 7.32881 2.67646   1 
   2  -8   0 5.15490 2.59267   3 
  -2   8   0 10.2373 3.15083   3 
  -2   8   0 3.00767 2.75677   2 
  -2   8   0 7.92306 1.83209   1 
   1  -8   0 7.04848 2.12415   2 
   1  -8   0 3.61153 2.15978   3 
   1  -8   0 6.15389 1.99534   1 
  -1   8   0 2.01273 2.71849   3 
  -1   8   0 4.05814 2.46984   2 
  -1   8   0 5.39323 1.41560   1 
   0  -8   0 18.6809 2.45137   2 
   0  -8   0 22.9504 2.90767   3 
   0  -8   0 23.7841 2.35212   1 
   0   8   0 27.6299 2.26904   1 
   0   8   0 22.0285 2.89521   2 
  -1  -8   0 0.32381 1.63510   2 
  -1  -8   0 2.34494 1.23785   1 
  -1  -8   0 -3.1310 2.01023   3 
   1   8   0 -0.0984 1.16459   1 
   1   8   0 -1.5492 2.08533   2 
  -2  -8   0 4.57252 1.17794   1 
  -2  -8   0 5.87811 1.90066   2 
  -2  -8   0 7.10883 2.20344   3 
  -3  -8   0 0.63851 0.92468   1 
  -3  -8   0 -3.7509 2.24614   3 
  -3  -8   0 5.36823 2.04883   2 
  -4  -8   0 63.3855 5.35586   3 
  -4  -8   0 73.1321 4.84372   2 
  -4  -8   0 64.8632 3.44231   1 
  -4  -8   0 62.2759 2.63089   1 
  -5  -8   0 32.8115 3.47609   2 
  -5  -8   0 29.8823 3.17658   1 
  -5  -8   0 32.5814 4.23381   3 
  -5  -8   0 28.4981 2.14709   1 
  -1  -9   0 42.0686 3.30235   1 
  -1  -9   0 28.2912 3.23749   2 
  -1  -9   0 36.0696 3.99697   3 
   1   9   0 39.9843 3.20077   1 
  -2  -9   0 2.84436 1.46117   1 
  -2  -9   0 0.76686 2.41390   2 
  -2  -9   0 9.72463 3.01609   3 
  -3  -9   0 28.7624 4.12521   3 
  -3  -9   0 21.6567 3.28138   2 
  -3  -9   0 20.7333 2.10813   1 
  -3  -9   1 3.49240 2.56665   2 
  -3  -9   1 3.62714 3.33793   3 
  -2  -9   1 12.3601 3.35441   3 
  -2  -9   1 3.92150 2.33278   2 
   1   9  -1 17.6893 1.79378   1 
   1   9  -1 12.9535 3.49257   2 
  -1  -9   1 13.1394 3.22704   3 
  -1  -9   1 13.9512 1.84835   1 
  -1  -9   1 17.1095 2.73965   2 
  -5  -8   1 36.0001 3.62632   2 
  -5  -8   1 47.7198 5.28602   3 
  -5  -8   1 47.2139 2.82457   1 
  -5  -8   1 39.5098 2.01416   1 
  -5  -8   1 50.0008 4.93342   3 
  -4  -8   1 3.97249 2.41281   2 
  -4  -8   1 7.57586 1.21039   1 
  -4  -8   1 12.3088 1.32554   1 
  -4  -8   1 10.8663 2.72037   3 
  -3  -8   1 3.18088 1.83245   2 
  -3  -8   1 5.24737 1.06575   1 
  -3  -8   1 4.65328 0.79459   1 
  -3  -8   1 6.88957 2.69442   3 
   2   8  -1 75.6750 5.14835   2 
  -2  -8   1 73.2480 4.37023   2 
  -2  -8   1 73.2348 5.04014   3 
  -2  -8   1 76.1937 2.75908   1 
   1   8  -1 1.11237 2.27710   2 
   1   8  -1 1.98574 1.07710   1 
  -1  -8   1 2.62224 1.83309   2 
  -1  -8   1 2.32124 1.15573   1 
  -1  -8   1 0.98588 2.11953   3 
   0   8  -1 75.8148 3.25785   1 
   0   8  -1 80.0122 5.65688   2 
   0  -8   1 78.5393 3.81042   1 
   0  -8   1 76.0592 4.77638   2 
   0  -8   1 84.0691 5.17315   3 
  -1   8  -1 9.58589 1.43560   1 
  -1   8  -1 11.3607 3.20848   2 
   1  -8   1 9.74625 2.22527   1 
   1  -8   1 5.35381 2.31240   3 
   1  -8   1 9.06487 2.25689   2 
  -2   8  -1 14.9790 3.66743   3 
  -2   8  -1 18.5331 3.36818   2 
   2  -8   1 23.3164 3.22444   3 
   2  -8   1 19.5563 2.79217   2 
  -6  -7   1 12.7745 3.12165   3 
  -6  -7   1 8.24317 1.54300   1 
  -6  -7   1 11.5493 3.49980   3 
  -6  -7   1 7.31515 2.04452   1 
  -6  -7   1 16.9071 2.63641   2 
  -5  -7   1 14.6563 1.77438   1 
  -5  -7   1 14.8860 2.90258   3 
  -5  -7   1 15.5252 2.97523   3 
  -5  -7   1 19.3884 2.61782   2 
  -5  -7   1 14.3757 1.60366   1 
  -4  -7   1 74.6272 4.90663   3 
  -4  -7   1 75.1680 4.44002   2 
  -4  -7   1 70.5801 2.96392   1 
  -4  -7   1 68.4622 2.42637   1 
  -3  -7   1 45.0788 1.76257   1 
  -3  -7   1 48.6001 3.48260   2 
  -3  -7   1 41.1716 2.14578   1 
  -3  -7   1 41.9075 3.79413   3 
   2   7  -1 240.658 8.32861   2 
  -2  -7   1 232.837 6.30753   1 
  -2  -7   1 240.914 7.82123   2 
  -2  -7   1 240.284 8.41707   3 
   1   7  -1 58.8754 2.46527   1 
   1   7  -1 57.9414 3.99009   2 
  -1  -7   1 56.9688 3.98537   3 
  -1  -7   1 57.0991 3.42845   2 
  -1  -7   1 61.7436 2.56767   1 
   0   7  -1 7.51417 0.99098   1 
   0   7  -1 9.36869 2.18962   2 
   0  -7   1 8.27851 1.33939   1 
   0  -7   1 5.13837 1.70565   3 
   0  -7   1 10.2123 1.75920   2 
  -1   7  -1 214.019 6.39258   1 
  -1   7  -1 210.575 7.88067   2 
  -1   7  -1 215.494 8.04384   3 
   1  -7   1 217.682 7.26518   2 
   1  -7   1 226.096 7.61569   3 
   1  -7   1 212.767 7.00899   1 
  -2   7  -1 494.999 14.7153   3 
  -2   7  -1 498.188 13.4163   1 
  -2   7  -1 509.492 14.6417   2 
   2  -7   1 488.006 14.1269   3 
   2  -7   1 504.596 14.3199   1 
   2  -7   1 496.356 13.8153   2 
  -3   7  -1 63.8896 4.90000   2 
  -3   7  -1 56.8854 5.08597   3 
  -3   7  -1 58.9223 4.07097   1 
   3  -7   1 65.5357 5.17669   1 
   3  -7   1 59.1898 4.12624   3 
   3  -7   1 60.7711 3.78358   2 
  -7  -6   1 30.0558 3.35410   1 
  -7  -6   1 26.6042 4.13740   3 
  -7  -6   1 33.1041 3.11836   2 
  -7  -6   1 26.5637 3.00026   2 
  -7  -6   1 29.5835 3.17765   1 
  -7  -6   1 37.8629 3.93343   3 
  -6  -6   1 2.81703 1.50349   1 
  -6  -6   1 3.20922 2.66504   3 
  -6  -6   1 5.43731 2.07084   2 
  -6  -6   1 7.51488 1.84323   1 
  -6  -6   1 3.24534 2.24270   3 
  -5  -6   1 27.5931 3.20231   3 
  -5  -6   1 32.7498 2.56677   1 
  -5  -6   1 28.9339 2.09363   1 
  -5  -6   1 31.9961 3.46718   3 
  -5  -6   1 32.2042 3.28860   2 
  -4  -6   1 815.512 22.2731   3 
  -4  -6   1 851.786 20.3827   1 
  -4  -6   1 833.503 21.6758   2 
  -4  -6   1 843.805 20.7630   1 
   3   6  -1 27.5404 2.83101   2 
  -3  -6   1 26.1516 1.73733   1 
  -3  -6   1 26.7591 2.51091   2 
  -3  -6   1 27.1021 3.20904   3 
  -3  -6   1 26.0944 1.23058   1 
   2   6  -1 141.838 5.43644   2 
  -2  -6   1 131.177 5.02310   2 
  -2  -6   1 132.214 3.75215   1 
  -2  -6   1 133.916 5.41640   3 
   1   6  -1 10.4742 0.97122   1 
   1   6  -1 10.9045 1.84019   2 
  -1  -6   1 9.39238 1.66889   3 
  -1  -6   1 10.6361 1.52971   2 
  -1  -6   1 10.9417 1.14327   1 
   0   6  -1 92.2282 4.25289   2 
   0   6  -1 98.5188 4.42388   3 
   0   6  -1 95.1046 3.05479   1 
   0  -6   1 95.4271 4.31161   3 
   0  -6   1 93.1617 3.42536   1 
   0  -6   1 86.2624 3.91466   2 
  -1   6  -1 3.53261 1.49659   2 
  -1   6  -1 4.66590 1.55498   3 
  -1   6  -1 3.17828 0.83390   1 
   1  -6   1 0.60288 1.22251   3 
   1  -6   1 0.66463 1.10146   1 
   1  -6   1 3.04331 1.31072   2 
  -2   6  -1 311.409 13.1931   2 
  -2   6  -1 372.923 10.1741   1 
  -2   6  -1 383.994 11.0394   3 
   2  -6   1 369.372 10.7286   1 
   2  -6   1 335.794 12.0310   2 
   2  -6   1 391.133 10.6993   3 
  -3   6  -1 189.132 6.38202   1 
  -3   6  -1 184.013 6.78131   2 
  -3   6  -1 151.966 7.38270   3 
   3  -6   1 173.026 5.82916   2 
   3  -6   1 184.581 6.99123   1 
   3  -6   1 165.781 6.92853   3 
  -4   6  -1 92.6330 5.03867   2 
  -4   6  -1 90.1173 4.95763   1 
  -4   6  -1 89.7458 5.21288   3 
   4  -6   1 83.6071 3.98935   2 
   4  -6   1 92.6432 4.46034   3 
   4  -6   1 87.5254 6.01987   1 
  -7  -5   1 117.541 5.62337   3 
  -7  -5   1 116.142 5.02976   2 
  -7  -5   1 131.010 5.18140   2 
  -7  -5   1 113.808 6.56475   1 
  -6  -5   1 6.03180 1.66235   2 
  -6  -5   1 9.47919 2.15066   3 
  -6  -5   1 6.92783 1.71857   1 
  -6  -5   1 8.96229 1.89170   1 
  -5  -5   1 75.7647 4.73042   3 
  -5  -5   1 91.2721 3.77877   1 
  -5  -5   1 90.2402 3.83421   1 
  -5  -5   1 83.2592 3.81895   2 
  -4  -5   1 2.01572 1.38618   3 
  -4  -5   1 7.35453 1.45597   3 
  -4  -5   1 4.25948 1.23458   2 
  -4  -5   1 6.57269 0.96520   1 
  -4  -5   1 5.66736 1.13753   1 
   3   5  -1 5.25284 1.28187   2 
  -3  -5   1 7.10667 0.76256   1 
  -3  -5   1 5.31253 1.20342   2 
  -3  -5   1 5.90159 0.95191   1 
  -3  -5   1 3.55923 1.35665   3 
   2   5  -1 154.552 5.40021   2 
  -2  -5   1 148.783 5.12638   2 
  -2  -5   1 155.855 5.49763   3 
  -2  -5   1 152.440 4.05018   1 
   1   5  -1 92.6107 2.77904   1 
   1   5  -1 92.7459 3.79788   2 
  -1  -5   1 88.0840 3.58073   2 
  -1  -5   1 93.1157 2.78387   1 
  -1  -5   1 92.2861 3.91117   3 
   0   5  -1 19.2341 1.13074   1 
   0   5  -1 19.3220 2.03896   3 
   0   5  -1 20.7120 2.03542   2 
   0  -5   1 13.9566 1.50726   2 
   0  -5   1 17.9879 1.91834   3 
   0  -5   1 17.6125 1.37652   1 
  -1   5  -1 113.247 3.73250   1 
  -1   5  -1 119.308 4.54103   3 
  -1   5  -1 112.325 4.42724   2 
   1  -5   1 113.456 4.27346   3 
   1  -5   1 118.814 4.18324   2 
   1  -5   1 105.056 3.93852   1 
  -2   5  -1 407.841 11.6733   3 
  -2   5  -1 409.145 11.1529   1 
  -2   5  -1 413.670 11.6404   2 
   2  -5   1 415.849 11.3849   3 
   2  -5   1 420.605 11.1814   2 
   2  -5   1 422.919 11.6193   1 
  -3   5  -1 8.74085 1.79620   3 
  -3   5  -1 7.04474 1.60583   2 
  -3   5  -1 9.24284 1.76960   1 
   3  -5   1 8.64028 1.72754   1 
   3  -5   1 11.0291 1.50963   3 
   3  -5   1 9.24497 1.31908   2 
  -4   5  -1 2.75759 1.55103   2 
  -4   5  -1 5.07378 1.67255   1 
  -4   5  -1 3.19523 1.71890   3 
   4  -5   1 3.42501 1.16010   2 
   4  -5   1 3.64211 1.98942   1 
   4  -5   1 1.34363 1.24502   3 
  -5   5  -1 5.80078 2.52894   1 
  -5   5  -1 3.71185 1.88553   2 
  -5   5  -1 5.56454 2.19592   3 
   5  -5   1 4.42177 2.72820   1 
   5  -5   1 6.75035 1.79120   3 
   5  -5   1 3.69001 1.32843   2 
  -8  -4   1 98.2165 6.43322   1 
  -8  -4   1 111.312 4.40989   2 
  -8  -4   1 106.687 3.90168   2 
  -8  -4   1 98.8567 5.17792   3 
  -7  -4   1 7.49723 1.38781   2 
  -7  -4   1 8.25181 1.79520   3 
  -7  -4   1 5.78290 2.13092   1 
  -7  -4   1 8.49115 1.66206   2 
  -6  -4   1 501.777 13.9901   3 
  -6  -4   1 505.689 13.2166   2 
  -6  -4   1 505.477 13.9761   1 
  -6  -4   1 487.670 13.2171   2 
  -5  -4   1 452.052 12.0025   2 
  -5  -4   1 448.443 12.6098   3 
  -5  -4   1 450.893 12.3232   1 
  -4  -4   1 77.3410 3.08979   2 
  -4  -4   1 73.7602 3.48377   3 
  -4  -4   1 73.4962 3.04514   1 
   3   4  -1 630.864 16.1919   2 
  -3  -4   1 631.269 15.5759   1 
  -3  -4   1 629.496 15.6418   1 
  -3  -4   1 624.820 16.0436   2 
   2   4  -1 1548.15 38.2338   2 
  -2  -4   1 1593.31 37.1437   1 
  -2  -4   1 1558.61 38.0929   2 
  -2  -4   1 1602.34 38.4890   3 
   1   4  -1 553.950 14.3951   2 
   1   4  -1 563.245 13.4312   1 
  -1  -4   1 565.455 13.3951   1 
  -1  -4   1 535.097 14.2074   2 
  -1  -4   1 557.605 14.5099   3 
   0   4  -1 201.656 5.35301   1 
   0   4  -1 205.860 6.27024   3 
   0   4  -1 199.440 6.17273   2 
   0  -4   1 209.512 6.20526   3 
   0  -4   1 204.998 6.01883   2 
   0  -4   1 212.287 5.56959   1 
  -1   4  -1 5.40452 1.00360   2 
  -1   4  -1 3.47939 0.89138   3 
  -1   4  -1 3.46348 0.68883   1 
   1  -4   1 3.51451 0.73594   2 
   1  -4   1 4.63384 0.87244   1 
   1  -4   1 3.81463 0.86555   3 
  -2   4  -1 101.688 3.72875   2 
  -2   4  -1 91.7135 3.73181   3 
  -2   4  -1 98.5069 3.63367   1 
   2  -4   1 103.205 3.88765   1 
   2  -4   1 97.5614 3.56921   3 
   2  -4   1 98.5284 3.43034   2 
  -3   4  -1 504.490 13.6663   3 
  -3   4  -1 525.251 13.8836   1 
  -3   4  -1 526.732 13.6426   2 
   3  -4   1 501.756 13.1397   2 
   3  -4   1 521.413 14.2651   1 
   3  -4   1 512.651 13.3153   3 
  -4   4  -1 80.1476 3.80675   3 
  -4   4  -1 83.1091 3.62908   2 
  -4   4  -1 83.4145 4.14704   1 
   4  -4   1 86.4803 3.34628   3 
   4  -4   1 85.3954 4.65550   1 
   4  -4   1 80.6609 3.07291   2 
  -5   4  -1 -1.4568 1.38644   3 
  -5   4  -1 -3.1252 1.76574   1 
  -5   4  -1 -0.7908 1.23581   2 
   5  -4   1 1.46146 2.28868   1 
   5  -4   1 -0.0947 1.07151   3 
   5  -4   1 1.37758 0.89803   2 
  -6   4  -1 96.1257 4.57711   2 
  -6   4  -1 94.2079 5.03411   3 
  -6   4  -1 92.2898 5.93202   1 
   6  -4   1 92.5593 3.68200   2 
   6  -4   1 101.006 4.26458   3 
   6  -4   1 112.215 7.06623   1 
  -8  -3   1 66.7130 2.36682   2 
  -8  -3   1 57.0143 5.44222   1 
  -8  -3   1 66.6365 2.89145   2 
  -8  -3   1 64.8624 4.01545   3 
  -7  -3   1 24.0911 2.90119   1 
  -7  -3   1 17.4567 2.05087   3 
  -7  -3   1 20.6915 2.01845   2 
  -7  -3   1 20.7316 1.64634   2 
  -6  -3   1 8.09711 1.82401   1 
  -6  -3   1 3.95424 1.01343   2 
  -6  -3   1 4.59040 1.04676   2 
  -6  -3   1 4.95759 1.25949   3 
  -5  -3   1 28.1944 1.80121   2 
  -5  -3   1 27.7056 2.13518   3 
  -5  -3   1 31.1595 2.39377   1 
  -5  -3   1 26.0219 1.83280   2 
  -4  -3   1 345.161 9.22176   2 
  -4  -3   1 351.847 9.54370   1 
  -4  -3   1 345.669 9.68762   3 
  -3  -3   1 77.3386 2.79926   2 
  -3  -3   1 79.4902 3.13323   3 
  -3  -3   1 79.1311 2.77924   1 
   2   3  -1 2418.58 56.9787   2 
  -2  -3   1 2397.50 56.4670   1 
  -2  -3   1 2339.40 56.8560   2 
  -2  -3   1 2425.06 57.4875   1 
   1   3  -1 245.391 6.00218   1 
   1   3  -1 238.912 6.68394   2 
  -1  -3   1 233.888 6.57012   2 
  -1  -3   1 246.308 5.88783   1 
  -1  -3   1 238.830 6.78369   3 
   0   3  -1 0.31499 0.55160   3 
   0   3  -1 0.55726 0.26544   1 
   0   3  -1 0.01970 0.45639   2 
   0  -3   1 0.28813 0.57811   3 
   0  -3   1 1.09405 0.33978   1 
   0  -3   1 0.65000 0.53407   2 
  -1   3  -1 74.4121 2.57455   1 
  -1   3  -1 73.3894 2.77564   2 
  -1   3  -1 80.5342 2.86476   3 
   1  -3   1 74.9978 2.74886   3 
   1  -3   1 84.8623 2.77284   1 
   1  -3   1 75.8388 2.67294   2 
  -2   3  -1 9.40444 1.08946   3 
  -2   3  -1 7.28684 1.02624   1 
  -2   3  -1 5.97940 0.84789   2 
   2  -3   1 9.41153 0.99973   2 
   2  -3   1 9.99414 1.01227   3 
   2  -3   1 7.40736 1.04335   1 
  -3   3  -1 74.9688 3.31467   1 
  -3   3  -1 72.7042 2.88892   2 
  -3   3  -1 74.7277 2.97053   3 
   3  -3   1 77.7020 3.48588   1 
   3  -3   1 76.8903 2.62557   2 
   3  -3   1 75.9735 2.72150   3 
  -4   3  -1 1.81194 1.25104   1 
  -4   3  -1 1.10299 0.90231   3 
  -4   3  -1 -1.1766 0.69879   2 
   4  -3   1 1.44236 0.68794   3 
   4  -3   1 -1.3411 1.19604   1 
   4  -3   1 -0.1552 0.59016   2 
  -5   3  -1 -0.5100 1.52760   1 
  -5   3  -1 0.22151 1.02075   3 
  -5   3  -1 -0.5554 1.04409   2 
   5  -3   1 -0.0955 0.66780   2 
   5  -3   1 0.28936 0.84911   3 
   5  -3   1 1.31407 1.73411   1 
  -6   3  -1 54.8806 3.05474   2 
  -6   3  -1 49.8999 4.49575   1 
  -6   3  -1 53.7840 3.30334   3 
   6  -3   1 54.3558 2.55456   2 
   6  -3   1 53.3356 5.04618   1 
   6  -3   1 54.8732 2.99698   3 
  -7   3  -1 37.0419 5.20712   3 
  -7   3  -1 53.4381 5.46349   1 
  -7   3  -1 46.8661 3.25807   2 
   7  -3   1 37.3615 2.82919   2 
   7  -3   1 39.7493 4.92374   1 
  -8  -2   1 67.2555 5.63864   1 
  -8  -2   1 70.6771 4.03429   3 
  -7  -2   1 4.38577 2.21390   1 
  -7  -2   1 6.05183 0.66715   2 
  -7  -2   1 6.71713 0.92154   2 
  -7  -2   1 5.09066 1.37850   3 
  -6  -2   1 643.938 15.5090   2 
  -6  -2   1 640.981 17.4148   1 
  -6  -2   1 644.873 16.5263   3 
  -6  -2   1 628.881 15.7649   2 
  -5  -2   1 769.441 18.6714   2 
  -5  -2   1 787.553 18.8287   2 
  -5  -2   1 785.895 19.9780   1 
  -5  -2   1 737.396 19.3316   3 
  -4  -2   1 200.694 5.42104   2 
  -4  -2   1 197.753 5.83139   3 
  -4  -2   1 193.442 6.02072   1 
  -3  -2   1 381.176 9.59077   2 
  -3  -2   1 387.679 9.99278   3 
  -3  -2   1 367.279 9.87076   1 
   2   2  -1 2112.73 49.5962   2 
  -2  -2   1 2133.61 49.4785   1 
  -2  -2   1 1994.28 49.4993   2 
  -2  -2   1 2134.02 49.8501   3 
   1   2  -1 2233.78 51.3983   2 
  -1  -2   1 2204.35 51.3758   1 
  -1  -2   1 2078.73 51.2903   2 
   0   2  -1 199.315 5.45007   2 
   0   2  -1 205.144 5.05036   1 
   0   2  -1 201.114 5.48986   3 
   0  -2   1 204.393 5.40877   2 
   0  -2   1 197.707 5.47690   3 
   0  -2   1 212.748 5.11561   1 
  -1   2  -1 201.902 5.35275   2 
  -1   2  -1 198.440 5.36679   3 
  -1   2  -1 192.876 5.32900   1 
   1  -2   1 203.324 5.33046   3 
   1  -2   1 199.060 5.40379   1 
   1  -2   1 191.607 5.24902   2 
  -2   2  -1 1373.55 33.8485   1 
  -2   2  -1 1425.45 33.5256   3 
  -2   2  -1 1402.94 33.4918   2 
   2  -2   1 1375.74 34.0009   1 
   2  -2   1 1416.96 33.3836   3 
   2  -2   1 1422.05 33.3430   2 
  -3   2  -1 429.795 11.7249   1 
  -3   2  -1 442.986 11.1305   3 
  -3   2  -1 442.880 11.0504   2 
   3  -2   1 427.944 10.7998   2 
   3  -2   1 444.979 11.9687   1 
   3  -2   1 432.126 10.9037   3 
  -4   2  -1 661.504 17.4096   1 
  -4   2  -1 662.860 16.3220   2 
  -4   2  -1 663.343 16.4899   3 
   4  -2   1 644.086 16.0061   2 
   4  -2   1 656.253 17.6762   1 
   4  -2   1 659.635 16.2565   3 
  -5   2  -1 63.7310 2.78119   3 
  -5   2  -1 60.2287 3.66408   1 
  -5   2  -1 61.4651 2.54495   2 
   5  -2   1 62.1769 2.60640   3 
   5  -2   1 63.6402 3.98390   1 
   5  -2   1 62.2440 2.33149   2 
  -6   2  -1 10.9620 1.25105   2 
  -6   2  -1 8.61880 2.05567   1 
  -6   2  -1 9.32508 1.49975   3 
   6  -2   1 8.74712 1.37993   3 
   6  -2   1 12.7715 2.72419   1 
   6  -2   1 10.1106 1.18276   2 
  -7   2  -1 14.0646 2.82690   1 
  -7   2  -1 16.5548 1.74409   2 
  -7   2  -1 15.8422 2.09313   3 
   7  -2   1 16.8286 2.12854   3 
   7  -2   1 17.0054 3.64035   1 
   7  -2   1 15.2294 1.65045   2 
   8   1  -1 137.641 6.55379   3 
  -8  -1   1 129.710 5.21991   3 
  -8  -1   1 124.318 7.15659   1 
  -7  -1   1 41.0904 4.68812   3 
  -7  -1   1 49.6740 4.15152   1 
   6   1  -1 66.4764 3.57237   3 
   6   1  -1 70.9631 4.42611   1 
  -6  -1   1 65.9355 3.95983   1 
  -6  -1   1 69.2150 2.19232   2 
  -6  -1   1 68.0319 1.94551   2 
  -6  -1   1 67.5004 2.99067   3 
   5   1  -1 8.67526 1.63408   1 
   5   1  -1 9.35730 1.38986   3 
  -5  -1   1 12.3240 0.64374   2 
  -5  -1   1 6.48161 1.43029   1 
  -5  -1   1 10.0046 0.92772   2 
  -5  -1   1 9.16062 1.11241   3 
   4   1  -1 15.4195 1.42277   3 
   4   1  -1 11.0369 1.41641   1 
  -4  -1   1 14.0969 1.61435   1 
  -4  -1   1 12.7890 1.19337   3 
  -4  -1   1 10.4889 0.84590   2 
  -4  -1   1 12.5583 0.71381   2 
   3   1  -1 289.937 8.30038   1 
   3   1  -1 296.564 8.10458   3 
  -3  -1   1 314.173 7.55591   2 
  -3  -1   1 317.288 8.00113   3 
  -3  -1   1 303.510 8.24404   1 
  -3  -1   1 302.914 7.50910   2 
   2   1  -1 438.657 10.8942   3 
   2   1  -1 422.931 10.8652   1 
  -2  -1   1 447.511 10.4936   2 
  -2  -1   1 431.978 10.8027   3 
  -2  -1   1 418.092 10.7978   1 
   1   1  -1 8.81934 0.50863   1 
   1   1  -1 8.47374 0.53733   2 
  -1  -1   1 8.87238 0.50256   1 
  -1  -1   1 7.82966 0.53313   2 
   0   1  -1 243.461 5.85789   2 
   0   1  -1 239.280 5.63173   1 
   0  -1   1 225.546 5.81191   2 
   0  -1   1 228.186 5.86083   3 
   0  -1   1 236.284 5.64368   1 
  -1   1  -1 584.008 14.2337   1 
  -1   1  -1 610.704 14.0188   3 
  -1   1  -1 582.111 14.0291   2 
   1  -1   1 552.505 14.2354   1 
   1  -1   1 575.169 13.9638   3 
   1  -1   1 596.268 13.9969   2 
  -2   1  -1 1106.44 26.3558   1 
  -2   1  -1 1090.85 25.7443   2 
  -2   1  -1 1097.22 25.7572   3 
   2  -1   1 1091.14 25.6814   2 
   2  -1   1 1080.78 25.6782   3 
   2  -1   1 1040.54 26.3672   1 
  -3   1  -1 0.98967 0.33975   2 
  -3   1  -1 1.57712 0.69310   1 
  -3   1  -1 1.04092 0.38730   3 
   3  -1   1 1.26169 0.36090   3 
   3  -1   1 1.39682 0.31520   2 
   3  -1   1 1.41446 0.79219   1 
  -4   1  -1 114.103 3.37960   3 
  -4   1  -1 107.153 4.26786   1 
  -4   1  -1 110.319 3.18591   2 
   4  -1   1 107.820 3.16428   2 
   4  -1   1 102.990 4.36046   1 
   4  -1   1 107.601 3.35223   3 
  -5   1  -1 505.178 12.5211   2 
  -5   1  -1 506.972 14.1576   1 
  -5   1  -1 509.286 12.8393   3 
   5  -1   1 508.921 12.9145   3 
   5  -1   1 493.674 12.5465   2 
   5  -1   1 497.932 14.4179   1 
  -6   1  -1 3.36454 0.83632   2 
  -6   1  -1 3.96921 1.06078   3 
  -6   1  -1 1.85231 1.77041   1 
   6  -1   1 2.31022 1.85112   1 
   6  -1   1 3.31423 0.95711   2 
   6  -1   1 1.78967 1.11055   3 
  -7   1  -1 -0.0897 1.10996   3 
  -7   1  -1 -0.6407 0.91516   2 
  -7   1  -1 -1.5763 2.11825   1 
   7  -1   1 -0.1720 1.57971   3 
   8   0  -1 103.883 5.74471   3 
  -8   0   1 90.1836 6.63442   1 
  -8   0   1 94.9995 4.55178   3 
   7   0  -1 1.33499 2.42952   1 
  -7   0   1 3.80327 2.28328   3 
  -7   0   1 -0.6622 2.18578   1 
   6   0  -1 97.9533 5.20984   1 
   6   0  -1 103.904 4.33415   3 
  -6   0   1 99.9435 3.73377   3 
  -6   0   1 99.1526 4.85756   1 
   5   0  -1 172.498 6.37382   1 
   5   0  -1 168.056 5.48165   3 
  -5   0   1 170.868 5.19700   3 
  -5   0   1 175.213 4.32311   2 
  -5   0   1 177.742 6.14427   1 
   4   0  -1 41.0403 1.95709   3 
   4   0  -1 38.9031 2.44751   1 
  -4   0   1 40.3512 1.78893   3 
  -4   0   1 38.3151 2.36046   1 
  -4   0   1 39.7591 1.16963   2 
   3   0  -1 3.25497 0.60298   3 
   3   0  -1 2.75227 0.80706   1 
  -3   0   1 3.32359 0.54964   3 
  -3   0   1 3.37283 0.80335   1 
  -3   0   1 3.38961 0.28639   2 
   2   0  -1 353.578 8.89786   3 
   2   0  -1 353.571 9.21398   1 
  -2   0   1 352.116 9.15224   1 
  -2   0   1 357.978 8.83632   3 
   1   0  -1 72.9812 2.06420   3 
   1   0  -1 73.6916 2.16090   1 
  -1   0   1 72.1776 2.02595   3 
  -1   0   1 72.5891 2.13729   1 
  -1   0  -1 904.982 21.2604   3 
  -1   0  -1 916.249 21.6806   2 
  -1   0  -1 894.870 21.4617   1 
   1   0   1 810.115 21.1272   2 
   1   0   1 925.956 21.3111   3 
  -2   0  -1 415.846 9.74276   3 
  -2   0  -1 403.605 9.74899   2 
  -2   0  -1 372.687 10.3303   1 
   2   0   1 409.405 9.79513   3 
   2   0   1 415.821 10.4674   1 
   2   0   1 410.977 9.82518   2 
  -3   0  -1 494.320 11.7768   3 
  -3   0  -1 485.073 12.6654   1 
  -3   0  -1 493.491 11.6795   2 
   3   0   1 488.166 11.9006   3 
   3   0   1 489.249 11.8130   2 
   3   0   1 448.890 12.6810   1 
  -4   0  -1 4.32641 1.09322   1 
  -4   0  -1 3.74333 0.47507   2 
  -4   0  -1 4.99362 0.60913   3 
   4   0   1 4.27926 1.18627   1 
   4   0   1 5.07252 0.64399   2 
   4   0   1 4.18227 0.67023   3 
  -5   0  -1 91.2665 3.07347   3 
  -5   0  -1 97.1627 4.31739   1 
  -5   0  -1 91.4882 2.76054   2 
   5   0   1 90.5106 3.36928   3 
   5   0   1 91.9705 3.07701   2 
   5   0   1 98.9803 4.52713   1 
  -6   0  -1 76.1310 2.94416   3 
  -6   0  -1 78.6654 2.55240   2 
  -6   0  -1 70.9907 4.21709   1 
   6   0   1 79.4567 3.42095   3 
  -7   0  -1 77.0031 5.00604   1 
  -7   0  -1 79.2979 2.70266   2 
  -7   0  -1 76.6492 3.30278   3 
   7   0   1 76.6243 3.95029   3 
  -8   0  -1 -2.2854 2.72135   1 
  -8   0  -1 1.24282 1.06398   2 
  -8   0  -1 1.33357 1.49059   3 
   8   0   1 3.92991 2.23123   3 
   7  -1  -1 46.1823 5.06623   1 
   7  -1  -1 37.7583 3.47451   3 
  -7   1   1 39.4334 4.34036   1 
  -7   1   1 41.2009 3.08108   3 
   6  -1  -1 282.376 8.41532   3 
   6  -1  -1 284.663 9.86416   1 
  -6   1   1 275.917 8.15910   3 
  -6   1   1 286.731 9.38877   1 
   5  -1  -1 111.194 4.95591   1 
   5  -1  -1 107.541 2.99830   2 
   5  -1  -1 110.982 3.88862   3 
  -5   1   1 103.627 3.71215   3 
  -5   1   1 109.927 3.00425   2 
  -5   1   1 102.949 4.61987   1 
   4  -1  -1 229.573 5.74208   2 
   4  -1  -1 225.784 7.38658   1 
   4  -1  -1 227.117 6.47973   3 
  -4   1   1 224.825 7.12414   1 
  -4   1   1 236.170 5.83102   2 
  -4   1   1 242.348 6.46940   3 
   3  -1  -1 101.901 2.55994   2 
   3  -1  -1 96.2388 3.68070   1 
  -3   1   1 98.3016 2.67290   2 
  -3   1   1 95.7941 3.08009   3 
  -3   1   1 98.0743 3.58105   1 
   2  -1  -1 96.0442 2.43120   2 
   2  -1  -1 97.5273 2.78596   3 
   2  -1  -1 95.7584 3.20919   1 
  -2   1   1 91.5037 2.77208   3 
  -2   1   1 88.0973 3.06719   1 
  -2   1   1 93.5313 2.51223   2 
   1  -1  -1 1196.75 28.9046   3 
   1  -1  -1 1215.73 29.1104   1 
   1  -1  -1 1241.11 28.9364   2 
  -1   1   1 1236.50 28.7891   2 
  -1   1   1 1204.29 28.9426   3 
  -1   1   1 1232.92 29.0770   1 
   0  -1  -1 920.232 22.2504   1 
   0   1   1 898.572 21.9804   3 
   0   1   1 957.649 22.4229   1 
  -1  -1  -1 2693.32 64.0752   3 
  -1  -1  -1 2653.96 64.2129   1 
  -2  -1  -1 458.686 11.2582   3 
  -2  -1  -1 468.112 11.6820   1 
  -2  -1  -1 451.528 11.2358   2 
  -3  -1  -1 1165.61 27.2209   2 
  -3  -1  -1 1106.31 27.9923   1 
  -3  -1  -1 1156.55 27.3289   3 
  -4  -1  -1 10.1741 0.79741   2 
  -4  -1  -1 8.53293 0.92261   3 
  -4  -1  -1 12.9765 1.51999   1 
   4   1   1 10.6690 1.14481   3 
  -5  -1  -1 51.1992 2.04915   3 
  -5  -1  -1 49.2258 1.77738   2 
  -5  -1  -1 50.8191 3.09788   1 
   5   1   1 50.4841 2.48882   3 
  -6  -1  -1 20.5899 1.21263   2 
  -6  -1  -1 22.4467 1.72229   3 
  -6  -1  -1 19.8174 2.86234   1 
   6   1   1 21.3949 2.19686   3 
  -7  -1  -1 10.4856 1.49270   3 
  -7  -1  -1 12.2053 2.59768   1 
  -7  -1  -1 11.9305 1.20285   2 
  -8  -1  -1 160.891 4.61036   2 
  -8  -1  -1 162.027 5.11739   2 
  -8  -1  -1 160.404 7.85799   1 
  -8  -1  -1 159.135 6.18115   3 
   7  -2  -1 2.28124 2.90806   1 
   7  -2  -1 3.05361 1.74041   3 
  -7   2   1 2.09414 2.72752   1 
  -7   2   1 2.01310 1.66126   3 
   6  -2  -1 117.047 4.54308   3 
   6  -2  -1 111.814 6.16768   1 
   6  -2  -1 113.647 3.32034   2 
  -6   2   1 114.003 3.42934   2 
  -6   2   1 111.273 4.57694   3 
  -6   2   1 119.242 5.55233   1 
   5  -2  -1 225.195 5.76379   2 
   5  -2  -1 197.821 10.0975   1 
   5  -2  -1 235.435 6.69190   3 
  -5   2   1 229.277 6.78537   3 
  -5   2   1 220.581 6.00336   2 
   4  -2  -1 171.391 5.06642   3 
   4  -2  -1 166.508 6.04680   1 
   4  -2  -1 165.100 4.38797   2 
  -4   2   1 168.891 4.67308   2 
  -4   2   1 173.431 5.85582   1 
  -4   2   1 165.708 5.16729   3 
   3  -2  -1 324.945 8.06132   2 
   3  -2  -1 312.581 9.23930   1 
   3  -2  -1 325.013 8.50013   3 
  -3   2   1 329.315 8.29964   2 
  -3   2   1 325.196 9.10941   1 
  -3   2   1 336.072 8.71105   3 
   2  -2  -1 357.702 8.93031   2 
   2  -2  -1 353.850 9.63852   1 
   2  -2  -1 359.276 9.16600   3 
  -2   2   1 356.765 9.05807   2 
  -2   2   1 361.063 9.30596   3 
  -2   2   1 355.099 9.49704   1 
   1  -2  -1 108.213 3.18898   3 
   1  -2  -1 106.342 3.27545   1 
   1  -2  -1 103.560 3.07054   2 
  -1   2   1 106.082 3.20633   1 
  -1   2   1 104.737 3.11134   2 
  -1   2   1 108.627 3.26163   3 
   0  -2  -1 906.635 21.8090   2 
   0  -2  -1 858.041 21.8117   3 
   0  -2  -1 887.773 21.6212   1 
   0   2   1 940.096 21.8617   2 
   0   2   1 918.801 21.8898   3 
   0   2   1 922.471 21.6043   1 
  -1  -2  -1 247.062 6.54977   2 
  -1  -2  -1 259.943 6.30294   1 
  -1  -2  -1 263.668 6.60113   3 
   1   2   1 228.468 6.52405   3 
   1   2   1 246.090 6.39539   1 
  -2  -2  -1 1351.22 32.4798   1 
  -3  -2  -1 29.6430 1.79256   1 
  -3  -2  -1 27.7434 1.44681   2 
  -3  -2  -1 28.5461 1.49424   3 
  -4  -2  -1 735.000 18.0627   2 
  -4  -2  -1 693.354 18.8288   1 
  -4  -2  -1 779.347 18.2956   3 
  -5  -2  -1 0.64889 0.60602   3 
  -5  -2  -1 -1.1428 0.98644   1 
  -5  -2  -1 1.18531 0.58617   2 
  -6  -2  -1 267.639 7.56382   3 
  -6  -2  -1 266.638 7.02964   2 
  -6  -2  -1 260.075 8.72251   1 
  -7  -2  -1 277.519 9.61999   1 
  -7  -2  -1 279.735 7.87350   2 
  -7  -2  -1 269.429 7.20473   2 
  -7  -2  -1 274.082 7.93325   3 
  -8  -2  -1 114.859 4.69159   3 
  -8  -2  -1 116.993 4.51256   2 
  -8  -2  -1 119.097 3.66871   2 
  -8  -2  -1 116.101 6.84206   1 
   7  -3  -1 41.0041 2.11137   2 
   7  -3  -1 47.6541 5.28369   1 
   7  -3  -1 45.0641 3.87997   3 
  -7   3   1 44.0598 4.23031   3 
  -7   3   1 45.5191 4.46394   1 
   6  -3  -1 29.1618 1.70287   2 
   6  -3  -1 32.1363 2.88578   3 
   6  -3  -1 30.3727 3.57667   1 
  -6   3   1 26.2781 3.17762   1 
  -6   3   1 32.7721 3.21421   3 
  -6   3   1 26.5283 2.17266   2 
   5  -3  -1 381.144 9.55748   2 
   5  -3  -1 384.683 12.0382   1 
   5  -3  -1 382.445 10.4387   3 
  -5   3   1 377.152 10.0275   2 
  -5   3   1 392.203 10.8674   3 
  -5   3   1 369.305 11.4239   1 
   4  -3  -1 193.112 6.89870   1 
   4  -3  -1 198.486 5.82938   3 
   4  -3  -1 191.915 5.19167   2 
  -4   3   1 191.969 5.62818   2 
  -4   3   1 196.047 6.14451   3 
  -4   3   1 187.153 6.49765   1 
   3  -3  -1 7.77908 1.01444   3 
   3  -3  -1 4.60028 1.11019   1 
   3  -3  -1 6.65434 0.77851   2 
  -3   3   1 6.12320 1.00109   3 
  -3   3   1 6.33356 0.91860   2 
  -3   3   1 8.12754 1.28503   1 
   2  -3  -1 8.03562 1.13798   1 
   2  -3  -1 6.12118 0.79074   3 
   2  -3  -1 6.72870 0.77179   2 
  -2   3   1 6.47561 0.95304   1 
  -2   3   1 7.82854 1.03215   3 
  -2   3   1 8.03441 0.99241   2 
   1  -3  -1 776.895 19.4393   3 
   1  -3  -1 781.504 19.3200   2 
   1  -3  -1 799.278 19.4787   1 
  -1   3   1 778.776 19.4024   2 
  -1   3   1 794.726 19.3531   1 
  -1   3   1 797.692 19.5849   3 
   0  -3  -1 1605.64 38.2431   2 
   0  -3  -1 1616.69 38.3142   3 
   0  -3  -1 1629.27 37.9812   1 
   0   3   1 1557.10 38.3481   3 
   0   3   1 1567.11 37.8695   1 
   0   3   1 1606.42 38.3071   2 
  -1  -3  -1 41.1083 1.93729   3 
  -1  -3  -1 38.9117 1.83848   2 
  -1  -3  -1 40.0609 1.42293   1 
   1   3   1 39.3911 1.85634   2 
   1   3   1 38.9876 1.52143   1 
   1   3   1 39.0603 1.88234   3 
  -2  -3  -1 1305.45 31.8576   3 
  -2  -3  -1 1287.65 31.7808   2 
  -2  -3  -1 1349.87 31.4897   1 
  -3  -3  -1 507.730 12.9259   1 
  -3  -3  -1 498.553 12.8080   2 
  -3  -3  -1 484.648 12.8946   3 
  -4  -3  -1 1953.44 45.7772   3 
  -4  -3  -1 1845.88 45.9646   1 
  -4  -3  -1 1945.66 45.6543   2 
  -4  -3  -1 1852.79 45.5027   2 
  -5  -3  -1 28.9978 1.97308   2 
  -5  -3  -1 25.1668 2.45874   1 
  -5  -3  -1 27.7447 1.84671   2 
  -5  -3  -1 26.8907 2.05324   3 
  -6  -3  -1 12.3127 1.63827   2 
  -6  -3  -1 12.6495 2.07171   1 
  -6  -3  -1 14.0555 1.38536   2 
  -6  -3  -1 12.2756 1.50882   3 
  -7  -3  -1 16.9008 1.95091   3 
  -7  -3  -1 19.3659 1.83552   2 
  -7  -3  -1 16.4240 1.90092   2 
  -7  -3  -1 18.0372 2.76454   1 
  -8  -3  -1 13.0685 1.95434   3 
  -8  -3  -1 11.5021 1.29872   2 
  -8  -3  -1 11.7816 1.91112   2 
  -8  -3  -1 11.5816 3.41540   1 
   6  -4  -1 99.9872 4.38293   3 
   6  -4  -1 96.1609 6.89735   1 
   6  -4  -1 91.3233 3.29659   2 
  -6   4   1 104.649 5.92661   1 
  -6   4   1 92.2483 4.15141   2 
  -6   4   1 89.6584 5.09787   3 
   5  -4  -1 98.3362 5.88527   3 
   5  -4  -1 115.632 5.92993   1 
   5  -4  -1 113.816 3.57845   2 
  -5   4   1 117.151 5.48453   1 
  -5   4   1 110.101 4.27005   2 
  -5   4   1 90.5717 6.78635   3 
   4  -4  -1 138.152 4.59330   3 
   4  -4  -1 132.243 4.02539   2 
   4  -4  -1 101.313 7.34562   1 
  -4   4   1 129.673 4.48983   2 
  -4   4   1 128.808 5.00399   3 
   3  -4  -1 62.2646 2.50277   2 
   3  -4  -1 62.5083 2.79779   3 
   3  -4  -1 61.1071 3.40857   1 
  -3   4   1 62.1737 2.89682   2 
  -3   4   1 62.2839 3.15316   3 
  -3   4   1 65.0702 3.22182   1 
   2  -4  -1 17.4310 1.41716   2 
   2  -4  -1 16.4289 1.55284   3 
   2  -4  -1 14.5426 1.64010   1 
  -2   4   1 17.2433 1.66589   1 
  -2   4   1 18.1076 1.76276   3 
  -2   4   1 18.5477 1.68257   2 
   1  -4  -1 85.7568 3.32547   3 
   1  -4  -1 91.8960 3.32447   1 
   1  -4  -1 93.7527 3.31121   2 
  -1   4   1 87.8342 3.39533   2 
  -1   4   1 92.1586 3.55540   3 
  -1   4   1 91.5649 3.13022   1 
   0  -4  -1 1014.87 24.8537   3 
   0  -4  -1 1017.70 24.3931   1 
   0  -4  -1 1007.64 24.7379   2 
   0   4   1 962.518 24.8944   3 
   0   4   1 989.010 24.2099   1 
   0   4   1 1034.30 24.8987   2 
  -1  -4  -1 2066.89 51.5000   3 
  -1  -4  -1 2200.09 51.5301   2 
  -1  -4  -1 2124.45 50.7939   1 
   1   4   1 2231.00 51.7205   3 
   1   4   1 2143.34 51.5580   2 
   1   4   1 2123.42 50.8640   1 
  -2  -4  -1 0.75978 0.65181   2 
  -2  -4  -1 0.47277 0.34147   1 
  -2  -4  -1 0.15762 0.69788   3 
   2   4   1 -0.2623 0.54403   1 
  -3  -4  -1 -0.3331 0.76955   3 
  -3  -4  -1 -0.1788 0.77433   2 
  -3  -4  -1 -0.2073 0.48495   1 
  -4  -4  -1 162.353 5.46987   1 
  -4  -4  -1 156.899 5.30490   1 
  -4  -4  -1 166.192 5.60460   3 
  -4  -4  -1 165.431 5.35907   2 
  -5  -4  -1 5.66251 1.58716   1 
  -5  -4  -1 5.14623 1.26776   2 
  -5  -4  -1 3.36729 1.19959   3 
  -5  -4  -1 5.30537 1.20094   2 
  -6  -4  -1 98.4525 4.96490   1 
  -6  -4  -1 102.712 4.32416   3 
  -6  -4  -1 100.170 4.19491   2 
  -6  -4  -1 100.235 4.03944   2 
  -7  -4  -1 367.795 10.3401   2 
  -7  -4  -1 370.649 10.9258   3 
  -7  -4  -1 391.181 12.0341   1 
  -7  -4  -1 376.067 10.7483   2 
  -8  -4  -1 34.7777 2.88613   2 
  -8  -4  -1 25.1627 3.81630   1 
  -8  -4  -1 34.2560 2.83554   2 
  -8  -4  -1 33.4493 3.60680   3 
   5  -5  -1 92.7068 5.96200   1 
   5  -5  -1 87.8221 3.42966   2 
   5  -5  -1 91.5050 4.34449   3 
  -5   5   1 82.5579 5.03763   3 
  -5   5   1 76.0680 5.17022   1 
  -5   5   1 89.0534 4.43392   2 
   4  -5  -1 495.328 12.7865   2 
   4  -5  -1 484.688 13.4759   3 
   4  -5  -1 494.103 14.6913   1 
  -4   5   1 502.892 14.0403   1 
  -4   5   1 475.118 14.1250   3 
  -4   5   1 496.236 13.4746   2 
   3  -5  -1 171.971 6.37924   1 
   3  -5  -1 172.328 5.71168   3 
   3  -5  -1 170.406 5.36823   2 
  -3   5   1 165.547 6.17563   3 
  -3   5   1 163.539 5.83136   2 
  -3   5   1 168.518 5.99502   1 
   2  -5  -1 170.401 5.97718   1 
   2  -5  -1 175.503 5.50397   2 
   2  -5  -1 173.796 5.72122   3 
  -2   5   1 176.913 5.62062   1 
  -2   5   1 164.808 5.96380   3 
  -2   5   1 173.724 5.88070   2 
   1  -5  -1 1.04452 0.91615   2 
   1  -5  -1 3.18613 0.86968   1 
   1  -5  -1 1.69738 0.87700   3 
  -1   5   1 0.56597 1.17594   3 
  -1   5   1 1.40282 0.69462   1 
  -1   5   1 1.99269 1.13401   2 
   0  -5  -1 5.45058 1.07033   2 
   0  -5  -1 5.03147 1.13710   3 
   0  -5  -1 6.48781 0.96707   1 
   0   5   1 5.76763 0.82432   1 
   0   5   1 6.27186 1.28930   3 
   0   5   1 5.81433 1.15417   2 
  -1  -5  -1 0.97025 0.88047   2 
  -1  -5  -1 1.77802 1.05432   3 
  -1  -5  -1 0.24318 0.51773   1 
   1   5   1 -0.5452 0.76882   2 
   1   5   1 0.45278 0.93659   3 
   1   5   1 0.36325 0.52699   1 
  -2  -5  -1 54.8302 2.03420   1 
  -2  -5  -1 54.6425 2.98887   3 
  -2  -5  -1 53.3998 2.76943   2 
   2   5   1 53.6290 2.39440   1 
  -3  -5  -1 419.546 11.5597   3 
  -3  -5  -1 390.080 11.2173   2 
  -3  -5  -1 404.952 10.4144   1 
  -4  -5  -1 21.2115 2.21743   2 
  -4  -5  -1 19.4862 2.26753   3 
  -4  -5  -1 23.4828 1.75894   1 
  -5  -5  -1 41.4370 3.08060   1 
  -5  -5  -1 41.2355 2.76359   1 
  -5  -5  -1 37.1317 3.37783   3 
  -5  -5  -1 42.4265 2.93960   2 
  -5  -5  -1 40.9952 3.13731   3 
  -6  -5  -1 -1.4943 1.42193   3 
  -6  -5  -1 1.00901 1.59088   2 
  -6  -5  -1 -0.8242 1.43772   1 
  -6  -5  -1 2.52552 1.66359   1 
  -6  -5  -1 0.89728 1.38841   2 
  -6  -5  -1 -0.0916 1.79596   3 
  -7  -5  -1 3.08621 1.77046   2 
  -7  -5  -1 5.01984 1.87508   2 
  -7  -5  -1 4.63565 1.85671   3 
  -7  -5  -1 0.92919 2.38389   3 
  -7  -5  -1 3.69191 2.27824   1 
  -7  -5  -1 4.25252 2.09437   1 
   4  -6  -1 24.8444 2.56239   3 
   4  -6  -1 25.6174 2.61330   2 
   4  -6  -1 31.9024 3.74249   1 
  -4   6   1 27.3920 4.93722   2 
  -4   6   1 27.6446 3.14687   3 
  -4   6   1 36.0258 3.89717   1 
   3  -6  -1 23.4481 2.77445   1 
   3  -6  -1 29.5027 2.79246   3 
   3  -6  -1 26.6147 2.45104   2 
  -3   6   1 26.9345 2.98082   1 
  -3   6   1 27.4993 3.05892   3 
  -3   6   1 34.2322 3.40000   2 
   2  -6  -1 109.873 6.09431   3 
   2  -6  -1 126.903 5.27986   1 
   2  -6  -1 134.349 4.85353   2 
  -2   6   1 125.042 5.24501   2 
  -2   6   1 133.088 4.72183   1 
  -2   6   1 104.629 7.32011   3 
   1  -6  -1 36.9349 2.63229   1 
   1  -6  -1 31.5941 2.49649   2 
   1  -6  -1 34.5932 2.76775   3 
  -1   6   1 38.0437 3.08441   2 
  -1   6   1 34.7476 2.14202   1 
  -1   6   1 34.4659 2.98172   3 
   0  -6  -1 396.448 10.6836   1 
   0  -6  -1 398.140 11.2225   2 
   0  -6  -1 396.886 11.3538   3 
   0   6   1 403.862 11.5243   2 
   0   6   1 390.532 11.5571   3 
   0   6   1 389.489 10.3631   1 
  -1  -6  -1 598.991 15.2314   1 
  -1  -6  -1 575.950 16.0281   2 
  -1  -6  -1 628.738 16.4013   3 
   1   6   1 601.939 16.5129   3 
   1   6   1 598.415 15.2130   1 
   1   6   1 622.001 16.4171   2 
  -2  -6  -1 280.574 8.92703   3 
  -2  -6  -1 288.998 7.70749   1 
  -2  -6  -1 297.932 8.77651   2 
   2   6   1 285.295 8.13170   1 
  -3  -6  -1 2.93847 1.50867   3 
  -3  -6  -1 2.22377 0.64804   1 
  -3  -6  -1 0.96634 1.04729   2 
  -4  -6  -1 110.096 3.80143   1 
  -4  -6  -1 115.671 4.86930   2 
  -5  -6  -1 8.32573 2.52742   2 
  -5  -6  -1 10.6678 2.13490   3 
  -5  -6  -1 10.7434 1.91197   1 
  -5  -6  -1 8.37734 2.06975   3 
  -5  -6  -1 12.5681 1.65075   1 
  -6  -6  -1 4.16298 2.06352   1 
  -6  -6  -1 2.02176 2.34716   3 
  -6  -6  -1 6.11757 1.93076   2 
  -6  -6  -1 4.86071 1.62085   1 
  -6  -6  -1 -1.5434 1.85558   3 
  -7  -6  -1 14.7532 2.93647   3 
  -7  -6  -1 17.6022 3.60385   3 
  -7  -6  -1 15.9549 2.63058   2 
  -7  -6  -1 16.1984 2.83035   1 
  -7  -6  -1 12.3536 2.52769   2 
  -7  -6  -1 11.5867 2.94596   1 
   3  -7  -1 60.2959 3.78097   2 
   3  -7  -1 60.4688 5.00202   1 
   3  -7  -1 54.9308 4.10442   3 
  -3   7   1 52.2030 4.66539   2 
  -3   7   1 61.5339 4.10594   1 
  -3   7   1 60.8189 5.10674   3 
   2  -7  -1 85.5081 4.58223   3 
   2  -7  -1 76.2523 6.32308   1 
   2  -7  -1 83.4860 4.27860   2 
  -2   7   1 78.8662 4.93755   2 
  -2   7   1 70.8700 4.80686   1 
  -2   7   1 83.6030 5.30129   3 
   1  -7  -1 7.90369 1.81149   1 
   1  -7  -1 7.15985 1.70290   2 
   1  -7  -1 4.50883 1.61108   3 
  -1   7   1 7.72560 1.42586   1 
  -1   7   1 8.08667 2.06831   2 
  -1   7   1 4.56739 1.92591   3 
   0  -7  -1 108.559 4.34047   1 
   0  -7  -1 105.603 4.94693   3 
   0  -7  -1 103.964 4.67916   2 
   0   7   1 108.202 3.87918   1 
   0   7   1 105.901 5.13158   2 
   0   7   1 113.992 5.43023   3 
  -1  -7  -1 12.1341 2.02779   3 
  -1  -7  -1 12.7970 1.40397   1 
  -1  -7  -1 9.89690 1.97796   2 
   1   7   1 10.0455 1.30290   1 
   1   7   1 11.8824 1.86152   3 
   1   7   1 14.0065 2.14933   2 
  -2  -7  -1 106.386 3.71141   1 
  -2  -7  -1 106.068 4.80406   2 
  -2  -7  -1 106.783 5.15126   3 
   2   7   1 107.521 4.14346   1 
  -3  -7  -1 142.801 5.74102   2 
  -3  -7  -1 140.671 4.41143   1 
  -3  -7  -1 143.877 6.12558   3 
  -4  -7  -1 61.1440 2.60963   1 
  -4  -7  -1 57.9181 3.91538   2 
  -4  -7  -1 70.2847 4.67584   3 
  -5  -7  -1 0.88017 1.91810   2 
  -5  -7  -1 1.95069 1.05985   1 
  -5  -7  -1 -1.4557 1.70618   1 
  -5  -7  -1 -0.6017 2.13685   3 
  -6  -7  -1 10.4546 2.59235   3 
  -6  -7  -1 10.2319 2.52086   2 
  -6  -7  -1 11.5172 2.66725   1 
  -6  -7  -1 7.51549 1.76073   1 
  -6  -7  -1 14.4636 3.26884   3 
   2  -8  -1 203.538 8.15846   1 
   2  -8  -1 201.102 7.48133   2 
   2  -8  -1 201.637 7.86847   3 
  -2   8   1 202.048 6.96100   1 
  -2   8   1 182.400 8.67197   3 
  -2   8   1 199.920 8.49493   2 
   1  -8  -1 2.42017 2.12098   3 
   1  -8  -1 4.38796 1.98496   2 
   1  -8  -1 1.75260 1.99159   1 
  -1   8   1 0.01368 2.49906   3 
  -1   8   1 -0.0753 1.25536   1 
  -1   8   1 -2.9191 2.43834   2 
   0  -8  -1 10.4094 2.32205   2 
   0  -8  -1 13.4325 1.97519   1 
   0  -8  -1 10.2634 2.36891   3 
   0   8   1 7.98733 2.78879   3 
   0   8   1 11.8082 1.67380   1 
   0   8   1 11.5762 2.54572   2 
  -1  -8  -1 210.497 7.63409   2 
  -1  -8  -1 205.645 6.51013   1 
  -1  -8  -1 199.832 7.72128   3 
   1   8   1 201.192 6.45057   1 
  -2  -8  -1 177.527 7.14026   3 
  -2  -8  -1 166.990 6.76086   2 
  -2  -8  -1 165.828 5.43177   1 
   2   8   1 166.688 5.82179   1 
  -3  -8  -1 67.2653 4.87826   3 
  -3  -8  -1 69.9602 4.52866   2 
  -3  -8  -1 63.5904 2.91570   1 
  -4  -8  -1 46.8745 4.90247   3 
  -4  -8  -1 55.0544 4.59988   2 
  -4  -8  -1 54.5191 2.59219   1 
  -5  -8  -1 25.2651 2.20355   1 
  -5  -8  -1 27.6144 2.94349   1 
  -5  -8  -1 23.1069 3.17047   2 
  -5  -8  -1 28.5854 3.93933   3 
  -1  -9  -1 22.2977 3.09882   2 
  -1  -9  -1 31.9847 3.47326   1 
  -1  -9  -1 36.3550 3.97973   3 
   1   9   1 27.4127 3.18431   1 
  -2  -9  -1 153.823 5.43935   1 
  -2  -9  -1 156.394 7.44848   3 
  -2  -9  -1 145.458 6.96973   2 
   2   9   1 156.770 5.93940   1 
  -3  -9  -1 235.897 9.47873   3 
  -3  -9  -1 235.101 9.03921   2 
  -3  -9  -1 229.263 6.99317   1 
  -5  -8   2 37.0244 4.21238   3 
  -5  -8   2 42.4219 4.55652   3 
  -5  -8   2 41.3949 3.80327   2 
  -4  -8   2 46.8829 4.28870   2 
  -4  -8   2 48.2704 4.69372   3 
   3   8  -2 72.0857 5.25292   2 
  -3  -8   2 59.0839 4.40322   2 
  -3  -8   2 72.0685 5.38808   3 
   2   8  -2 3.25841 2.34759   2 
  -2  -8   2 2.10091 2.26339   3 
  -2  -8   2 2.03468 1.72200   2 
   1   8  -2 51.0207 4.81739   2 
  -1  -8   2 56.3825 4.65478   3 
  -1  -8   2 52.4346 4.10568   2 
  -1  -8   2 47.1491 2.20060   1 
   0   8  -2 37.9683 2.19829   1 
   0   8  -2 32.1465 3.47981   2 
   0  -8   2 34.7123 3.40195   3 
   0  -8   2 37.6839 3.70647   2 
   0  -8   2 31.8738 2.84343   1 
  -1   8  -2 12.7880 3.01376   2 
  -1   8  -2 15.5838 1.58609   1 
   1  -8   2 15.2531 2.69330   3 
   1  -8   2 13.6634 2.41805   2 
   1  -8   2 13.9113 2.32035   1 
  -2   8  -2 3.20793 1.55082   1 
  -2   8  -2 3.85055 3.14520   2 
   2  -8   2 -0.1939 2.57739   1 
   2  -8   2 0.21751 1.98615   2 
   2  -8   2 -0.6776 2.54024   3 
  -6  -7   2 36.8294 4.71486   3 
  -6  -7   2 31.0807 3.00517   1 
  -6  -7   2 29.7436 3.69654   3 
  -6  -7   2 33.4118 2.52227   1 
  -6  -7   2 33.6981 3.19380   2 
  -5  -7   2 59.2114 4.05943   2 
  -5  -7   2 56.9210 5.21173   3 
  -5  -7   2 55.4917 2.14565   1 
  -5  -7   2 51.8898 2.61113   1 
  -5  -7   2 55.3000 4.76309   3 
  -4  -7   2 40.5084 4.12847   3 
  -4  -7   2 37.6618 1.56211   1 
  -4  -7   2 41.5989 4.17515   3 
  -4  -7   2 36.7348 3.40744   2 
   3   7  -2 -0.2524 1.69346   2 
  -3  -7   2 -2.0375 1.36973   2 
  -3  -7   2 0.18559 1.80627   3 
   2   7  -2 128.043 5.75570   2 
  -2  -7   2 133.396 5.88692   3 
  -2  -7   2 122.492 5.14628   2 
   1   7  -2 57.4769 2.17266   1 
   1   7  -2 54.0936 4.03463   2 
  -1  -7   2 60.1211 3.99939   3 
  -1  -7   2 58.3777 2.24095   1 
  -1  -7   2 65.0230 3.58479   2 
   0   7  -2 155.615 4.63018   1 
   0   7  -2 164.471 6.52058   2 
   0  -7   2 161.562 6.00192   2 
   0  -7   2 160.857 6.35972   3 
   0  -7   2 160.734 5.07340   1 
  -1   7  -2 1.40389 0.96973   1 
  -1   7  -2 -1.3662 1.71109   2 
   1  -7   2 -0.8478 1.28698   2 
   1  -7   2 2.72839 1.37673   1 
   1  -7   2 -1.5966 1.48507   3 
  -2   7  -2 97.0967 5.49567   2 
  -2   7  -2 96.9340 4.14702   1 
  -2   7  -2 93.3073 5.47266   3 
   2  -7   2 93.5244 4.49196   2 
   2  -7   2 95.3127 5.05052   1 
   2  -7   2 95.6636 4.93211   3 
  -3   7  -2 -0.8942 2.30342   3 
  -3   7  -2 -2.1223 1.58748   1 
  -3   7  -2 -2.1664 2.26695   2 
   3  -7   2 0.35053 1.76331   3 
   3  -7   2 0.73952 2.44245   1 
   3  -7   2 0.13927 1.84389   2 
  -7  -6   2 11.5786 2.23330   2 
  -7  -6   2 12.0702 2.81879   3 
  -7  -6   2 13.3795 2.48323   1 
  -7  -6   2 13.5671 2.47914   1 
  -6  -6   2 86.7296 4.15283   1 
  -6  -6   2 90.6897 4.18967   1 
  -6  -6   2 95.4244 5.55580   3 
  -6  -6   2 84.9859 4.56607   2 
  -5  -6   2 63.0468 4.73698   3 
  -5  -6   2 65.2173 2.73840   1 
  -5  -6   2 60.8163 4.36099   2 
  -5  -6   2 62.9089 2.99976   1 
  -4  -6   2 207.780 5.81437   1 
  -4  -6   2 206.073 7.53371   3 
  -4  -6   2 216.721 7.85621   3 
  -4  -6   2 211.894 6.99749   2 
  -4  -6   2 211.876 5.55426   1 
   3   6  -2 20.7757 2.42862   2 
  -3  -6   2 21.2053 2.14502   2 
  -3  -6   2 21.0642 1.03789   1 
  -3  -6   2 20.1911 2.34614   3 
   2   6  -2 352.565 10.5912   2 
  -2  -6   2 348.491 10.1408   2 
  -2  -6   2 353.147 10.6838   3 
   1   6  -2 2.51224 0.57515   1 
   1   6  -2 3.40067 1.35562   2 
  -1  -6   2 1.84119 0.59254   1 
  -1  -6   2 1.05434 1.50918   3 
  -1  -6   2 0.05298 0.98517   2 
   0   6  -2 186.898 6.54855   2 
   0   6  -2 172.878 4.83643   1 
   0  -6   2 181.637 5.24048   1 
   0  -6   2 164.313 5.88674   2 
   0  -6   2 179.893 6.36890   3 
  -1   6  -2 100.896 6.09439   2 
  -1   6  -2 111.719 3.65302   1 
  -1   6  -2 106.570 4.76147   3 
   1  -6   2 106.126 4.07308   1 
   1  -6   2 102.626 4.56339   3 
  -2   6  -2 219.452 6.73637   1 
  -2   6  -2 226.553 7.64563   3 
  -2   6  -2 212.194 7.57838   2 
   2  -6   2 217.135 7.25550   1 
   2  -6   2 218.961 6.87883   2 
   2  -6   2 208.437 7.13027   3 
  -3   6  -2 16.5502 2.59139   3 
  -3   6  -2 16.4099 2.31693   2 
  -3   6  -2 21.1109 2.26225   1 
   3  -6   2 17.0707 2.10261   3 
   3  -6   2 19.9221 2.09144   2 
   3  -6   2 23.0782 2.83915   1 
  -4   6  -2 9.95276 2.48462   3 
  -4   6  -2 11.5045 2.31098   1 
  -4   6  -2 8.09670 2.53858   2 
   4  -6   2 8.44261 2.85395   1 
   4  -6   2 11.8109 1.93000   2 
   4  -6   2 12.8322 1.95918   3 
  -7  -5   2 -1.0834 1.82105   3 
  -7  -5   2 -4.4957 1.96805   1 
  -7  -5   2 2.17332 1.75400   2 
  -7  -5   2 0.02605 1.50222   2 
  -6  -5   2 59.5905 3.54085   1 
  -6  -5   2 57.8453 3.38910   2 
  -6  -5   2 58.5172 4.14158   3 
  -5  -5   2 -0.2961 1.05476   1 
  -5  -5   2 1.29243 1.36533   3 
  -5  -5   2 -0.9640 1.01411   1 
  -5  -5   2 3.26822 1.32902   2 
  -4  -5   2 587.283 14.8036   1 
  -4  -5   2 609.443 15.5680   2 
  -4  -5   2 590.927 14.8336   1 
  -4  -5   2 577.343 16.0893   3 
   3   5  -2 25.2941 2.40028   2 
  -3  -5   2 24.6789 2.66146   3 
  -3  -5   2 22.4838 0.98244   1 
  -3  -5   2 22.4100 1.27428   1 
  -3  -5   2 23.5041 1.98342   2 
   2   5  -2 531.794 14.3825   2 
  -2  -5   2 543.683 14.6407   3 
  -2  -5   2 531.324 14.0986   2 
   1   5  -2 38.2792 1.35917   1 
   1   5  -2 42.0861 2.64059   2 
  -1  -5   2 37.1152 1.35564   1 
  -1  -5   2 39.3977 2.30002   2 
  -1  -5   2 37.6522 2.64621   3 
   0   5  -2 1495.53 35.9877   2 
   0   5  -2 1450.76 34.5642   1 
   0  -5   2 1405.52 35.5302   2 
   0  -5   2 1475.09 34.8584   1 
   0  -5   2 1458.38 35.8591   3 
  -1   5  -2 88.9016 3.95385   3 
  -1   5  -2 90.1125 3.90603   2 
  -1   5  -2 91.9201 3.18137   1 
   1  -5   2 95.0519 3.51801   1 
   1  -5   2 90.5663 3.60804   2 
   1  -5   2 90.3749 3.79771   3 
  -2   5  -2 284.800 8.62558   3 
  -2   5  -2 286.214 8.14754   1 
  -2   5  -2 286.106 8.63538   2 
   2  -5   2 278.877 8.11928   2 
   2  -5   2 286.506 8.52454   1 
   2  -5   2 284.682 8.33337   3 
  -3   5  -2 38.0015 2.95892   2 
  -3   5  -2 42.6261 2.97512   1 
  -3   5  -2 43.3475 3.10314   3 
   3  -5   2 36.3539 2.50791   3 
   3  -5   2 38.4594 3.36896   1 
   3  -5   2 39.2610 2.42530   2 
  -4   5  -2 190.341 7.01272   1 
  -4   5  -2 191.437 6.77377   2 
  -4   5  -2 192.877 6.77498   3 
   4  -5   2 196.519 6.03695   2 
   4  -5   2 192.489 7.54209   1 
   4  -5   2 190.338 6.13817   3 
  -5   5  -2 63.6918 4.42547   3 
  -5   5  -2 74.6772 4.46565   2 
  -5   5  -2 69.5016 4.98804   1 
   5  -5   2 79.6545 6.05242   1 
   5  -5   2 74.8466 3.77301   3 
   5  -5   2 66.7264 3.40660   2 
  -7  -4   2 9.58127 2.30621   1 
  -7  -4   2 13.2421 2.18149   3 
  -7  -4   2 10.3362 1.47675   2 
  -7  -4   2 9.15364 1.45576   2 
  -6  -4   2 181.437 5.75821   2 
  -6  -4   2 183.914 6.55484   3 
  -6  -4   2 188.682 6.50134   1 
  -5  -4   2 272.146 8.00409   1 
  -5  -4   2 273.661 8.41591   3 
  -5  -4   2 272.504 7.75807   2 
  -4  -4   2 295.159 8.18039   2 
  -4  -4   2 293.235 8.76235   3 
  -4  -4   2 285.923 7.97595   1 
   3   4  -2 9.32003 1.31051   2 
  -3  -4   2 11.3637 1.05421   1 
  -3  -4   2 12.3033 1.02972   1 
  -3  -4   2 8.21166 1.28487   3 
  -3  -4   2 11.3861 1.22779   2 
   2   4  -2 -0.0621 0.74349   2 
  -2  -4   2 0.58007 0.69701   2 
  -2  -4   2 0.42358 0.29050   1 
  -2  -4   2 -0.3499 0.80400   3 
  -2  -4   2 0.03743 0.18394   1 
   1   4  -2 9.66904 1.28738   2 
  -1  -4   2 9.51192 1.09302   2 
  -1  -4   2 12.0440 1.40254   3 
   0   4  -2 573.055 13.9680   1 
   0   4  -2 581.049 14.9892   2 
   0  -4   2 579.406 14.1724   1 
   0  -4   2 588.703 14.7976   2 
   0  -4   2 573.914 14.9787   3 
  -1   4  -2 113.910 3.53815   1 
  -1   4  -2 113.189 4.04660   3 
  -1   4  -2 113.022 4.03268   2 
   1  -4   2 115.212 3.82878   2 
   1  -4   2 106.824 3.89226   3 
   1  -4   2 112.799 3.73351   1 
  -2   4  -2 836.566 20.6950   2 
  -2   4  -2 813.878 20.6001   3 
  -2   4  -2 810.341 20.4331   1 
   2  -4   2 804.821 20.3924   3 
   2  -4   2 828.881 20.7631   1 
   2  -4   2 813.634 20.2628   2 
  -3   4  -2 33.5790 2.33838   2 
  -3   4  -2 33.5546 2.42198   1 
  -3   4  -2 29.0680 2.26833   3 
   3  -4   2 31.0940 1.90547   2 
   3  -4   2 31.3201 2.81497   1 
   3  -4   2 35.7376 2.01420   3 
  -4   4  -2 0.60170 1.10906   3 
  -4   4  -2 1.08361 1.12557   2 
  -4   4  -2 0.69009 1.35992   1 
   4  -4   2 0.39377 0.81350   2 
   4  -4   2 -1.2678 0.85497   3 
   4  -4   2 1.64143 1.64720   1 
  -5   4  -2 88.5412 4.14252   2 
  -5   4  -2 85.9649 4.11059   3 
  -5   4  -2 90.4614 4.98501   1 
   5  -4   2 92.3120 3.58929   3 
   5  -4   2 87.3427 3.42803   2 
   5  -4   2 89.9563 5.70233   1 
  -6   4  -2 23.1833 2.55530   3 
  -6   4  -2 29.8680 3.60962   1 
  -6   4  -2 29.4796 2.75804   2 
   6  -4   2 27.4766 4.15589   1 
   6  -4   2 23.5827 2.48190   2 
   6  -4   2 23.7688 2.44042   3 
  -8  -3   2 40.6679 3.67448   3 
  -8  -3   2 48.5620 4.45529   1 
  -7  -3   2 73.5122 3.87134   3 
  -7  -3   2 80.7591 2.70772   2 
  -7  -3   2 81.4759 4.80237   1 
  -7  -3   2 78.2952 2.87433   2 
  -6  -3   2 26.3651 1.84266   2 
  -6  -3   2 24.9519 2.92807   1 
  -6  -3   2 31.1763 1.88517   2 
  -5  -3   2 26.1621 2.20803   3 
  -5  -3   2 28.0448 2.34276   1 
  -5  -3   2 30.4756 1.80560   2 
  -4  -3   2 15.6122 1.33960   2 
  -4  -3   2 15.9502 1.61986   1 
  -4  -3   2 15.3278 1.68392   3 
   3   3  -2 137.960 4.29580   2 
  -3  -3   2 135.203 4.57573   3 
  -3  -3   2 130.978 3.98540   1 
  -3  -3   2 135.888 4.13277   2 
   2   3  -2 102.898 3.52975   2 
  -2  -3   2 107.691 2.90846   1 
  -2  -3   2 107.785 2.94932   1 
  -2  -3   2 104.746 3.41028   2 
   1   3  -2 2253.89 54.4150   2 
  -1  -3   2 2279.94 54.5743   3 
  -1  -3   2 2325.81 54.3229   2 
   0   3  -2 562.908 13.4572   1 
   0   3  -2 554.939 14.1904   2 
   0  -3   2 565.740 14.0756   2 
   0  -3   2 573.228 13.5865   1 
   0  -3   2 551.628 14.2219   3 
  -1   3  -2 93.6634 3.02074   1 
  -1   3  -2 93.6234 3.24895   3 
  -1   3  -2 97.3200 3.28998   2 
   1  -3   2 91.9047 3.09541   2 
   1  -3   2 96.8859 3.14691   1 
   1  -3   2 100.137 3.24488   3 
  -2   3  -2 8.22284 1.10735   1 
  -2   3  -2 8.11125 1.02251   3 
  -2   3  -2 8.83662 1.03269   2 
   2  -3   2 7.07009 0.83082   2 
   2  -3   2 6.36303 0.81708   3 
   2  -3   2 7.83177 1.10021   1 
  -3   3  -2 30.7248 2.15480   1 
  -3   3  -2 30.3093 1.86275   3 
  -3   3  -2 29.6513 1.85191   2 
   3  -3   2 29.1447 1.56697   2 
   3  -3   2 29.2306 1.58422   3 
   3  -3   2 29.6499 2.35106   1 
  -4   3  -2 115.945 4.06388   2 
  -4   3  -2 121.049 4.79606   1 
  -4   3  -2 113.611 4.09167   3 
   4  -3   2 118.194 3.75388   3 
   4  -3   2 116.468 3.70461   2 
   4  -3   2 119.352 5.13261   1 
  -5   3  -2 199.857 6.30552   3 
  -5   3  -2 194.294 7.29927   1 
  -5   3  -2 200.602 6.25279   2 
   5  -3   2 199.296 5.86044   3 
   5  -3   2 217.102 7.90667   1 
   5  -3   2 200.120 5.81503   2 
  -6   3  -2 33.9838 2.87344   3 
  -6   3  -2 29.7908 3.29380   1 
  -6   3  -2 29.5771 2.45093   2 
   6  -3   2 29.7811 3.58156   1 
   6  -3   2 33.7567 2.24507   2 
   6  -3   2 32.3907 2.43513   3 
  -7   3  -2 45.2948 3.94454   3 
  -7   3  -2 43.9996 3.53794   2 
  -7   3  -2 49.6677 4.90763   1 
   7  -3   2 45.0591 3.36326   3 
   7  -3   2 36.2047 2.98464   2 
  -8  -2   2 6.74424 3.11835   1 
  -8  -2   2 7.94549 2.05470   3 
  -7  -2   2 33.4833 2.78518   3 
  -7  -2   2 36.0178 3.58072   1 
   6   2  -2 2.89778 1.54472   3 
   6   2  -2 1.73430 1.61814   1 
  -6  -2   2 0.28114 1.36893   1 
  -6  -2   2 0.73952 0.98657   3 
  -6  -2   2 1.08322 0.58790   2 
  -6  -2   2 0.95954 0.47275   2 
   5   2  -2 100.671 4.52349   1 
   5   2  -2 108.962 4.46819   3 
  -5  -2   2 105.489 3.14851   2 
  -5  -2   2 108.163 3.15441   2 
  -5  -2   2 102.229 3.86900   3 
  -5  -2   2 103.025 4.22611   1 
   4   2  -2 771.642 19.5717   1 
   4   2  -2 779.080 19.6844   3 
  -4  -2   2 741.056 19.2892   1 
  -4  -2   2 776.892 18.5975   2 
  -4  -2   2 769.653 19.2870   3 
   3   2  -2 461.335 12.0142   1 
  -3  -2   2 468.139 11.5773   2 
  -3  -2   2 482.369 12.1599   3 
  -3  -2   2 456.934 11.8790   1 
   2   2  -2 13.7013 0.98792   2 
   2   2  -2 12.5602 0.88044   1 
  -2  -2   2 12.1524 0.86953   2 
  -2  -2   2 10.9700 0.79085   1 
  -2  -2   2 11.9129 1.11054   3 
   1   2  -2 1540.79 36.1919   2 
  -1  -2   2 1498.04 36.0931   2 
   0   2  -2 328.600 7.74748   1 
   0   2  -2 308.331 8.18949   2 
   0  -2   2 320.555 8.13067   2 
   0  -2   2 319.105 8.26185   3 
  -1   2  -2 317.132 8.00603   1 
  -1   2  -2 303.193 8.02483   2 
  -1   2  -2 313.840 7.99185   3 
   1  -2   2 307.295 8.04769   1 
   1  -2   2 315.819 7.92293   2 
   1  -2   2 312.363 7.95585   3 
  -2   2  -2 755.346 19.8329   1 
  -2   2  -2 833.395 19.5065   3 
  -2   2  -2 808.849 19.5658   2 
   2  -2   2 811.672 20.0248   1 
   2  -2   2 800.282 19.3446   3 
   2  -2   2 806.889 19.4120   2 
  -3   2  -2 324.501 9.03961   1 
  -3   2  -2 314.651 8.32344   2 
  -3   2  -2 316.005 8.26124   3 
   3  -2   2 320.130 9.16101   1 
   3  -2   2 314.031 8.13291   2 
   3  -2   2 319.545 8.06238   3 
  -4   2  -2 -0.0867 0.56008   3 
  -4   2  -2 0.55739 0.58753   2 
  -4   2  -2 0.50321 1.08202   1 
   4  -2   2 -0.3255 0.44601   2 
   4  -2   2 -0.1257 0.45639   3 
   4  -2   2 0.36967 1.27224   1 
  -5   2  -2 2.77836 1.51547   1 
  -5   2  -2 2.28956 0.89784   2 
  -5   2  -2 2.92539 0.89685   3 
   5  -2   2 2.26321 0.77892   2 
   5  -2   2 1.85999 1.71361   1 
   5  -2   2 3.28417 0.84227   3 
  -6   2  -2 5.58578 1.08759   2 
  -6   2  -2 -0.8018 1.80721   1 
  -6   2  -2 5.62330 1.24379   3 
   6  -2   2 3.63655 1.05630   2 
   6  -2   2 4.21872 2.08178   1 
   6  -2   2 3.89628 1.07912   3 
  -7   2  -2 17.1187 1.90179   2 
  -7   2  -2 14.2901 2.01672   3 
  -7   2  -2 19.6318 3.36215   1 
   7  -2   2 17.5861 1.87367   2 
   7  -2   2 15.6088 2.00933   3 
   8   1  -2 37.0414 3.96820   3 
  -8  -1   2 49.4760 3.64441   3 
  -8  -1   2 39.3222 4.39138   1 
   7   1  -2 211.721 8.66379   1 
   7   1  -2 197.465 7.50957   3 
  -7  -1   2 204.582 7.97758   1 
  -7  -1   2 214.062 6.85255   3 
   6   1  -2 452.805 14.3122   1 
   6   1  -2 487.838 13.3981   3 
  -6  -1   2 470.877 12.7138   3 
  -6  -1   2 496.934 14.3566   1 
   5   1  -2 18.4882 2.02475   3 
   5   1  -2 21.7309 2.51569   1 
  -5  -1   2 22.5580 2.21863   1 
  -5  -1   2 19.1528 1.62004   3 
   4   1  -2 94.8522 3.56323   3 
   4   1  -2 94.4367 3.83641   1 
  -4  -1   2 96.9156 3.32610   3 
  -4  -1   2 93.2286 3.62887   1 
  -4  -1   2 97.9179 2.54688   2 
  -4  -1   2 95.1188 2.50447   2 
   3   1  -2 164.342 5.09629   1 
   3   1  -2 169.765 5.01322   3 
  -3  -1   2 169.405 4.20175   2 
  -3  -1   2 164.698 4.80213   3 
  -3  -1   2 160.397 4.92103   1 
   2   1  -2 1682.08 40.0376   1 
   2   1  -2 1684.65 40.1791   3 
   2   1  -2 1715.49 39.6675   2 
  -2  -1   2 1630.06 40.0441   3 
  -2  -1   2 1678.43 39.9545   1 
  -2  -1   2 1710.07 39.9045   2 
   1   1  -2 70.2694 2.07857   2 
   1   1  -2 73.6050 2.02636   1 
   1   1  -2 74.2281 2.33963   3 
  -1  -1   2 73.0208 2.03605   2 
  -1  -1   2 69.9846 1.97084   1 
  -1  -1   2 70.3730 2.28418   3 
   0   1  -2 1485.39 34.9761   1 
   0   1  -2 1448.40 34.6623   2 
   0  -1   2 1471.33 35.1217   2 
  -1   1  -2 791.129 19.6809   1 
  -1   1  -2 829.140 19.3754   3 
  -1   1  -2 798.544 19.4809   2 
   1  -1   2 833.822 19.4589   2 
   1  -1   2 824.483 19.3513   3 
  -2   1  -2 4630.95 106.615   3 
  -2   1  -2 4557.21 107.381   2 
  -2   1  -2 4505.03 108.462   1 
   2  -1   2 4500.83 106.566   3 
   2  -1   2 4479.91 107.997   1 
   2  -1   2 4325.94 106.596   2 
  -3   1  -2 904.136 22.0857   2 
  -3   1  -2 921.318 21.9820   3 
  -3   1  -2 898.406 22.9766   1 
   3  -1   2 921.812 21.8908   3 
   3  -1   2 930.406 22.0565   2 
   3  -1   2 938.219 23.1653   1 
  -4   1  -2 38.6773 2.53549   1 
  -4   1  -2 38.0887 1.63133   3 
  -4   1  -2 39.2733 1.62526   2 
   4  -1   2 34.1675 2.57129   1 
   4  -1   2 41.3382 1.61375   3 
   4  -1   2 38.6393 1.64120   2 
  -5   1  -2 387.699 10.0140   3 
  -5   1  -2 385.613 9.94886   2 
  -5   1  -2 386.586 11.4824   1 
   5  -1   2 393.825 10.0702   3 
   5  -1   2 384.312 11.8125   1 
   5  -1   2 391.648 10.0443   2 
  -6   1  -2 40.2434 2.23195   3 
  -6   1  -2 37.9063 2.01534   2 
  -6   1  -2 38.4368 3.64555   1 
   6  -1   2 41.9508 2.41055   3 
   6  -1   2 39.9797 2.21745   2 
  -7   1  -2 21.4336 2.30124   3 
  -7   1  -2 19.4705 1.68562   2 
  -7   1  -2 21.2193 2.99058   1 
   7  -1   2 22.8566 2.38460   2 
   7  -1   2 20.0401 2.13332   3 
   7   0  -2 8.44510 2.91366   1 
   7   0  -2 7.56356 1.99959   3 
  -7   0   2 9.89580 2.53673   1 
  -7   0   2 6.85248 1.51853   3 
   6   0  -2 462.079 13.1559   3 
   6   0  -2 485.594 14.2753   1 
  -6   0   2 481.873 13.7889   1 
  -6   0   2 472.198 12.6898   3 
   5   0  -2 322.778 8.94048   3 
   5   0  -2 298.819 9.61561   1 
  -5   0   2 301.584 8.49793   3 
  -5   0   2 315.273 9.37071   1 
   4   0  -2 982.394 25.8846   1 
   4   0  -2 1043.13 25.3229   3 
  -4   0   2 1038.71 25.0635   3 
  -4   0   2 1048.20 25.7358   1 
   3   0  -2 159.792 4.68818   3 
   3   0  -2 157.109 5.04807   1 
  -3   0   2 159.833 4.56842   3 
  -3   0   2 161.947 4.93997   1 
   2   0  -2 222.311 6.01669   1 
   2   0  -2 215.767 5.78547   3 
  -2   0   2 210.682 5.69449   3 
  -2   0   2 219.098 5.91499   1 
   1   0  -2 686.040 16.1154   2 
   1   0  -2 634.085 16.2358   3 
   1   0  -2 683.142 16.3027   1 
  -1   0   2 694.882 16.2648   1 
  -1   0   2 682.259 15.9900   2 
  -1   0   2 677.018 16.2276   3 
   0   0  -2 5250.56 120.987   2 
   0   0  -2 5006.49 121.006   3 
   0   0  -2 4684.46 121.109   1 
   0   0   2 5380.78 121.600   1 
   0   0   2 5149.78 120.953   3 
   0   0   2 5263.11 121.081   2 
   1   0   2 4612.60 109.726   2 
  -2   0  -2 4730.89 108.927   2 
  -2   0  -2 4335.10 107.440   1 
  -2   0  -2 4697.86 107.333   3 
   2   0   2 4587.48 107.509   3 
   2   0   2 4465.23 108.375   2 
  -3   0  -2 1533.51 36.9300   2 
  -3   0  -2 1570.76 37.9307   1 
  -3   0  -2 1589.57 37.1573   3 
   3   0   2 1557.67 36.9142   3 
   3   0   2 1559.53 37.0864   2 
  -4   0  -2 57.7284 1.89714   3 
  -4   0  -2 54.8027 2.91437   1 
  -4   0  -2 55.6352 1.90830   2 
   4   0   2 58.0286 2.15000   2 
   4   0   2 57.0889 2.07702   3 
  -5   0  -2 40.4897 1.71217   3 
  -5   0  -2 40.9043 1.66090   2 
  -5   0  -2 41.8623 2.98411   1 
   5   0   2 37.3176 1.92662   3 
   5   0   2 38.1163 1.97111   2 
  -6   0  -2 11.9099 1.19247   2 
  -6   0  -2 9.81179 1.88332   1 
  -6   0  -2 10.3377 1.10546   3 
   6   0   2 10.5012 1.36736   3 
   6   0   2 12.5488 1.34667   2 
  -7   0  -2 341.322 9.34193   3 
  -7   0  -2 335.801 8.98282   2 
  -7   0  -2 360.849 11.5899   1 
   7   0   2 342.676 9.86330   3 
  -8   0  -2 1.21963 1.41162   3 
  -8   0  -2 0.00258 2.95162   1 
  -8   0  -2 0.22408 1.20948   2 
   7  -1  -2 100.533 6.58957   1 
   7  -1  -2 109.538 5.10501   3 
  -7   1   2 101.963 5.77320   1 
  -7   1   2 98.1864 4.53008   3 
   6  -1  -2 167.498 7.26365   1 
   6  -1  -2 166.797 5.92897   3 
  -6   1   2 167.992 5.69398   3 
  -6   1   2 176.913 6.67358   1 
   5  -1  -2 13.8977 1.96400   1 
   5  -1  -2 16.8804 1.80042   3 
  -5   1   2 22.9048 2.43042   1 
  -5   1   2 19.0711 1.74086   3 
   4  -1  -2 459.013 12.0322   3 
   4  -1  -2 459.380 12.8741   1 
  -4   1   2 462.484 11.9388   3 
  -4   1   2 466.475 12.6142   1 
   3  -1  -2 -0.0481 0.35974   3 
   3  -1  -2 0.49859 0.68305   1 
  -3   1   2 0.22427 0.40264   3 
  -3   1   2 0.17157 0.64280   1 
   2  -1  -2 1382.58 33.3296   3 
   2  -1  -2 1435.89 32.9163   2 
   2  -1  -2 1415.57 33.7649   1 
  -2   1   2 1384.18 33.6434   1 
  -2   1   2 1377.80 33.3721   3 
   1  -1  -2 322.475 8.55565   1 
   1  -1  -2 346.066 8.23925   2 
  -1   1   2 333.238 8.52721   1 
  -1   1   2 345.723 8.45745   3 
   0  -1  -2 381.775 9.50906   3 
   0  -1  -2 388.796 9.53769   2 
   0  -1  -2 383.107 9.53542   1 
   0   1   2 402.518 9.54619   1 
   0   1   2 397.109 9.55405   3 
  -1  -1  -2 725.922 17.1800   1 
  -1  -1  -2 707.199 16.8841   3 
  -1  -1  -2 692.178 17.0184   2 
   1   1   2 717.470 17.0893   2 
   1   1   2 665.792 17.1873   1 
   1   1   2 734.635 16.9215   3 
  -2  -1  -2 228.809 5.99112   2 
  -2  -1  -2 238.924 5.87459   3 
   2   1   2 225.271 6.06874   2 
  -3  -1  -2 782.367 18.9473   3 
  -3  -1  -2 812.401 19.9432   1 
  -3  -1  -2 802.554 19.0499   2 
   3   1   2 757.387 19.2098   2 
  -4  -1  -2 213.687 5.71728   2 
  -4  -1  -2 219.572 6.88142   1 
  -4  -1  -2 214.753 5.71422   3 
   4   1   2 218.315 6.05587   2 
  -5  -1  -2 18.0018 1.15335   2 
  -5  -1  -2 20.4524 2.27196   1 
  -5  -1  -2 18.7357 1.20512   3 
  -6  -1  -2 26.1107 1.46099   2 
  -6  -1  -2 27.2184 1.70068   3 
  -6  -1  -2 20.3067 4.11166   1 
  -7  -1  -2 178.845 5.13183   2 
  -7  -1  -2 179.450 5.51960   3 
  -7  -1  -2 186.224 7.53229   1 
  -8  -1  -2 67.2868 3.35644   3 
  -8  -1  -2 71.9016 5.88291   1 
  -8  -1  -2 63.5017 2.82867   2 
   7  -2  -2 1.28560 1.85452   3 
   7  -2  -2 4.91354 3.27787   1 
  -7   2   2 -2.9073 2.36593   1 
  -7   2   2 2.71296 1.79589   3 
   6  -2  -2 121.673 6.16177   1 
   6  -2  -2 100.624 5.21147   3 
  -6   2   2 124.476 5.54719   1 
   5  -2  -2 1222.88 29.4749   2 
   5  -2  -2 1298.01 30.8587   3 
   5  -2  -2 1252.36 32.2431   1 
  -5   2   2 1243.10 30.8445   3 
  -5   2   2 1237.37 31.6813   1 
   4  -2  -2 38.4614 2.69804   1 
   4  -2  -2 37.7392 2.03259   3 
   4  -2  -2 39.0752 1.27939   2 
  -4   2   2 36.9845 1.53812   2 
  -4   2   2 37.4749 2.53956   1 
  -4   2   2 42.1822 2.22280   3 
   3  -2  -2 10.7268 0.68752   2 
   3  -2  -2 11.0002 1.12901   3 
   3  -2  -2 9.94068 1.33981   1 
  -3   2   2 8.91019 1.27165   1 
  -3   2   2 11.0424 1.19651   3 
  -3   2   2 10.7077 0.92892   2 
   2  -2  -2 1.14356 0.38128   2 
   2  -2  -2 2.17663 0.79437   1 
   2  -2  -2 1.02987 0.42699   3 
  -2   2   2 1.47341 0.52397   3 
  -2   2   2 1.50495 0.45690   2 
  -2   2   2 0.64264 0.59659   1 
   1  -2  -2 708.245 17.6379   1 
   1  -2  -2 683.743 17.4668   3 
   1  -2  -2 732.449 17.3947   2 
  -1   2   2 740.019 17.6063   3 
  -1   2   2 723.108 17.5745   1 
   0  -2  -2 837.220 20.5062   2 
   0  -2  -2 849.468 20.3912   1 
   0  -2  -2 858.404 20.5185   3 
   0   2   2 857.663 20.5669   3 
   0   2   2 838.657 20.3653   1 
  -1  -2  -2 3353.40 78.6428   1 
  -1  -2  -2 3065.34 76.7415   3 
   1   2   2 3292.03 78.9119   1 
   1   2   2 3284.46 78.1211   3 
  -2  -2  -2 103.322 3.15175   3 
  -2  -2  -2 95.8490 3.30807   1 
  -2  -2  -2 100.544 3.18623   2 
  -3  -2  -2 248.636 6.71037   2 
  -4  -2  -2 676.680 17.7114   1 
  -4  -2  -2 698.847 16.8780   3 
  -4  -2  -2 662.214 16.7838   2 
  -5  -2  -2 3.10591 0.69886   2 
  -5  -2  -2 0.92654 1.25707   1 
  -5  -2  -2 2.16328 0.75440   3 
  -6  -2  -2 1.56773 1.61250   1 
  -6  -2  -2 0.73525 0.65939   2 
  -6  -2  -2 0.10423 0.73390   3 
  -7  -2  -2 2.24962 1.02896   3 
  -7  -2  -2 2.03074 2.30695   1 
  -7  -2  -2 3.13400 0.83979   2 
  -8  -2  -2 6.00952 1.64128   3 
  -8  -2  -2 6.08909 1.13561   2 
  -8  -2  -2 5.04390 2.92287   1 
   6  -3  -2 45.3470 3.19859   3 
   6  -3  -2 36.4235 4.01912   1 
   6  -3  -2 35.4148 1.54438   2 
  -6   3   2 35.3931 3.67303   1 
  -6   3   2 32.6434 3.30061   3 
   5  -3  -2 9.68794 0.94827   2 
   5  -3  -2 8.53930 1.36948   3 
   5  -3  -2 8.70502 1.86533   1 
  -5   3   2 12.2248 2.04014   1 
  -5   3   2 9.63659 1.14386   2 
  -5   3   2 9.46481 1.78948   3 
   4  -3  -2 89.9628 2.72425   2 
   4  -3  -2 90.9729 4.42007   1 
   4  -3  -2 86.2276 3.43659   3 
  -4   3   2 87.7783 3.70669   3 
  -4   3   2 89.2363 3.11892   2 
  -4   3   2 91.3532 4.08490   1 
   3  -3  -2 73.4860 2.87430   3 
   3  -3  -2 76.8070 3.52339   1 
   3  -3  -2 73.1437 2.45996   2 
  -3   3   2 75.2750 3.13360   3 
  -3   3   2 70.7067 3.25276   1 
  -3   3   2 74.1872 2.72276   2 
   2  -3  -2 135.856 4.20923   3 
   2  -3  -2 136.186 3.98486   2 
   2  -3  -2 134.751 4.60539   1 
  -2   3   2 131.718 4.11412   2 
  -2   3   2 130.547 4.37143   3 
  -2   3   2 135.297 4.41146   1 
   1  -3  -2 336.496 8.81903   3 
   1  -3  -2 329.449 8.85679   1 
   1  -3  -2 323.943 8.66941   2 
  -1   3   2 337.703 8.96119   3 
  -1   3   2 323.228 8.70274   1 
  -1   3   2 337.498 8.77613   2 
   0  -3  -2 8.35615 0.96782   2 
   0  -3  -2 9.51555 1.01120   3 
   0  -3  -2 9.39828 0.84320   1 
   0   3   2 9.52557 1.09520   3 
   0   3   2 8.91551 0.79345   1 
  -1  -3  -2 1196.60 28.0876   1 
  -1  -3  -2 1216.93 28.5176   3 
  -1  -3  -2 1145.01 28.4961   2 
   1   3   2 1138.13 28.5074   3 
   1   3   2 1175.97 28.2194   1 
  -2  -3  -2 681.256 17.1457   3 
  -2  -3  -2 678.491 17.2049   2 
  -2  -3  -2 710.230 16.9804   1 
   2   3   2 674.039 17.2590   1 
  -3  -3  -2 115.875 3.99759   1 
  -3  -3  -2 115.583 3.89972   3 
  -4  -3  -2 15.6990 1.51588   2 
  -4  -3  -2 13.0264 1.56646   1 
  -4  -3  -2 20.6579 1.75224   3 
  -4  -3  -2 18.1850 1.64347   3 
  -5  -3  -2 57.5202 2.68259   2 
  -5  -3  -2 59.9817 3.46972   1 
  -5  -3  -2 59.9688 2.78795   3 
  -6  -3  -2 158.250 5.18175   3 
  -6  -3  -2 157.254 4.93230   2 
  -6  -3  -2 149.625 6.25992   1 
  -7  -3  -2 167.717 5.21353   2 
  -7  -3  -2 166.859 5.60519   3 
  -7  -3  -2 168.318 5.82461   2 
  -7  -3  -2 168.371 7.25309   1 
  -8  -3  -2 5.40164 2.09211   2 
  -8  -3  -2 7.84726 1.96057   3 
  -8  -3  -2 8.47895 1.37453   2 
  -8  -3  -2 9.37477 3.17068   1 
   6  -4  -2 0.38200 1.50726   3 
   6  -4  -2 4.47172 2.71719   1 
   6  -4  -2 0.50748 0.86942   2 
  -6   4   2 1.64823 2.00015   3 
  -6   4   2 -2.5503 2.47724   1 
   5  -4  -2 344.349 11.5666   1 
   5  -4  -2 339.337 9.93144   3 
   5  -4  -2 340.089 8.82323   2 
  -5   4   2 355.016 10.9328   1 
  -5   4   2 348.858 10.5288   3 
  -5   4   2 336.482 9.39877   2 
   4  -4  -2 1298.66 33.4262   1 
   4  -4  -2 1320.33 31.4352   2 
   4  -4  -2 1339.54 32.2011   3 
  -4   4   2 1302.80 32.6663   3 
  -4   4   2 1280.70 31.8891   2 
  -4   4   2 1304.59 32.8918   1 
   3  -4  -2 23.8060 1.94686   3 
   3  -4  -2 26.0302 1.62139   2 
   3  -4  -2 25.2651 2.50768   1 
  -3   4   2 25.9555 2.04098   2 
  -3   4   2 25.4007 2.26099   1 
  -3   4   2 26.1164 2.27810   3 
   2  -4  -2 10.4199 1.29249   3 
   2  -4  -2 11.0485 1.53937   1 
   2  -4  -2 11.1556 1.16975   2 
  -2   4   2 11.3377 1.51087   3 
  -2   4   2 7.32319 1.14696   2 
  -2   4   2 10.0713 1.33871   1 
   1  -4  -2 59.0277 2.60265   3 
   1  -4  -2 57.8724 2.51400   2 
   1  -4  -2 58.8122 2.57050   1 
  -1   4   2 59.1932 2.42593   1 
  -1   4   2 56.0504 2.73020   3 
  -1   4   2 59.5135 2.63942   2 
   0  -4  -2 531.523 13.3625   1 
   0  -4  -2 530.378 13.7079   3 
   0  -4  -2 528.672 13.6497   2 
   0   4   2 507.546 13.1799   1 
   0   4   2 536.668 13.8594   3 
  -1  -4  -2 1.77714 0.72015   3 
  -1  -4  -2 2.47018 0.75571   2 
  -1  -4  -2 2.42663 0.49791   1 
   1   4   2 3.75328 0.68476   1 
   1   4   2 4.54535 0.99934   3 
  -2  -4  -2 381.765 10.4664   2 
  -2  -4  -2 397.777 9.89203   1 
  -2  -4  -2 387.328 10.4735   3 
   2   4   2 382.167 10.2732   1 
   2   4   2 374.867 10.4673   3 
  -3  -4  -2 41.9276 2.34235   2 
  -3  -4  -2 40.5253 1.97482   1 
  -3  -4  -2 37.5296 2.38891   3 
  -4  -4  -2 17.7749 2.00682   3 
  -4  -4  -2 18.1160 1.89451   2 
  -4  -4  -2 18.5151 1.83920   1 
  -5  -4  -2 220.885 6.81719   2 
  -5  -4  -2 219.992 7.33631   1 
  -5  -4  -2 212.076 7.09296   3 
  -5  -4  -2 223.760 6.95961   2 
  -5  -4  -2 220.979 7.41976   1 
  -5  -4  -2 217.131 6.89572   3 
  -6  -4  -2 2.52644 1.81786   1 
  -6  -4  -2 2.48382 1.22993   2 
  -6  -4  -2 4.01024 1.46429   2 
  -6  -4  -2 1.30053 1.63958   3 
  -6  -4  -2 1.90662 1.31961   3 
  -7  -4  -2 26.9262 2.63181   2 
  -7  -4  -2 19.9148 2.15529   3 
  -7  -4  -2 24.8123 3.31254   1 
  -7  -4  -2 26.4798 2.54513   2 
  -8  -4  -2 2.97676 1.83714   3 
  -8  -4  -2 2.09110 3.10055   1 
  -8  -4  -2 4.47743 1.52460   2 
  -8  -4  -2 5.13143 2.05921   2 
   5  -5  -2 30.4124 2.18494   2 
   5  -5  -2 31.2676 3.71312   1 
   5  -5  -2 32.9219 3.27995   3 
  -5   5   2 26.1968 3.17961   1 
  -5   5   2 36.7320 4.13780   3 
   4  -5  -2 354.217 9.34551   2 
   4  -5  -2 347.809 9.98040   3 
   4  -5  -2 343.060 11.2973   1 
  -4   5   2 349.384 9.97644   2 
  -4   5   2 325.934 10.5914   3 
  -4   5   2 352.064 10.6959   1 
   3  -5  -2 408.526 10.9637   2 
   3  -5  -2 411.341 11.3400   3 
   3  -5  -2 421.162 12.2602   1 
  -3   5   2 406.260 11.4289   2 
  -3   5   2 403.194 11.8929   3 
  -3   5   2 413.726 11.7230   1 
   2  -5  -2 44.5280 2.48507   2 
   2  -5  -2 43.8770 2.64149   3 
   2  -5  -2 48.7461 2.95776   1 
  -2   5   2 44.9224 3.05617   3 
  -2   5   2 44.4138 2.60545   1 
  -2   5   2 45.3221 2.77439   2 
   1  -5  -2 188.159 6.08281   3 
   1  -5  -2 184.721 6.01210   1 
   1  -5  -2 192.869 6.00578   2 
  -1   5   2 185.101 6.13278   2 
  -1   5   2 195.148 6.39513   3 
  -1   5   2 193.009 5.75044   1 
   0  -5  -2 98.9623 3.54413   1 
   0  -5  -2 100.736 3.82991   2 
   0  -5  -2 100.897 3.94429   3 
   0   5   2 100.879 3.36866   1 
   0   5   2 99.9624 4.10356   3 
   0   5   2 97.4344 3.98231   2 
  -1  -5  -2 1131.37 28.2602   3 
  -1  -5  -2 1141.36 27.5053   1 
  -1  -5  -2 1135.61 28.2295   2 
   1   5   2 1126.92 27.5648   1 
   1   5   2 1132.65 28.4001   3 
  -2  -5  -2 211.231 5.84583   1 
  -2  -5  -2 203.133 6.62569   3 
  -2  -5  -2 214.273 6.67084   2 
   2   5   2 205.686 6.72933   3 
   2   5   2 214.696 6.33728   1 
  -3  -5  -2 599.220 15.0556   1 
  -3  -5  -2 586.188 15.7732   2 
  -3  -5  -2 605.380 15.9349   3 
  -4  -5  -2 45.4156 2.84322   2 
  -4  -5  -2 47.2836 3.14231   3 
  -4  -5  -2 49.8582 2.50926   1 
  -5  -5  -2 67.5377 3.81544   3 
  -5  -5  -2 73.0693 3.75909   2 
  -5  -5  -2 69.9374 3.51511   1 
  -5  -5  -2 68.2040 3.93119   1 
  -5  -5  -2 67.0891 3.97225   3 
  -6  -5  -2 80.6754 4.72497   1 
  -6  -5  -2 69.8528 4.08175   3 
  -6  -5  -2 75.0911 4.03224   2 
  -6  -5  -2 64.8908 4.58819   3 
  -6  -5  -2 72.7058 4.24042   1 
  -6  -5  -2 65.0092 3.85278   2 
  -7  -5  -2 3.41064 2.00320   1 
  -7  -5  -2 10.3546 2.12559   3 
  -7  -5  -2 -0.6201 3.42983   2 
  -7  -5  -2 1.18308 2.45653   3 
  -7  -5  -2 2.39533 2.10588   2 
  -7  -5  -2 7.04451 2.37356   1 
   4  -6  -2 0.71374 2.23514   1 
   4  -6  -2 6.35185 1.45968   2 
   4  -6  -2 3.33298 1.62836   3 
  -4   6   2 5.77420 2.62513   3 
  -4   6   2 3.48961 1.91703   2 
  -4   6   2 5.60006 2.21605   1 
   3  -6  -2 3.20738 1.27236   2 
   3  -6  -2 1.49946 1.44301   3 
   3  -6  -2 0.80606 1.85005   1 
  -3   6   2 0.32615 1.53943   2 
  -3   6   2 3.29715 1.90745   3 
  -3   6   2 3.47263 1.46030   1 
   2  -6  -2 466.799 12.9984   3 
   2  -6  -2 460.086 13.3062   1 
   2  -6  -2 467.523 12.7700   2 
  -2   6   2 473.533 13.6088   3 
  -2   6   2 463.465 12.7565   1 
  -2   6   2 469.716 13.1848   2 
   1  -6  -2 -0.5342 0.96954   2 
   1  -6  -2 0.33993 1.15427   3 
   1  -6  -2 -0.5982 0.93579   1 
  -1   6   2 -0.0128 0.75782   1 
  -1   6   2 -2.4340 1.25859   3 
  -1   6   2 -0.3806 1.31875   2 
   0  -6  -2 157.320 5.60220   3 
   0  -6  -2 158.874 5.57635   2 
   0  -6  -2 154.489 5.14000   1 
   0   6   2 152.272 4.86296   1 
   0   6   2 149.827 5.79998   3 
  -1  -6  -2 77.5623 3.83432   3 
  -1  -6  -2 74.4745 3.56634   2 
  -1  -6  -2 74.5060 3.02120   1 
   1   6   2 79.1795 3.97248   3 
   1   6   2 77.7144 3.04715   1 
  -2  -6  -2 197.738 5.64444   1 
  -2  -6  -2 197.168 6.72328   3 
  -2  -6  -2 181.470 6.49696   2 
   2   6   2 193.638 6.07650   1 
  -3  -6  -2 322.259 9.77908   2 
  -3  -6  -2 319.873 8.69487   1 
  -3  -6  -2 333.337 9.99399   3 
  -4  -6  -2 451.912 12.8509   2 
  -4  -6  -2 444.240 11.7990   1 
  -4  -6  -2 444.701 12.9600   3 
  -5  -6  -2 169.098 6.47595   1 
  -5  -6  -2 176.739 6.89671   3 
  -5  -6  -2 174.338 6.45593   2 
  -5  -6  -2 160.713 5.72567   1 
  -6  -6  -2 70.0784 4.04093   1 
  -6  -6  -2 68.3107 4.49550   2 
  -6  -6  -2 64.9676 4.29639   2 
  -6  -6  -2 86.0556 5.19078   3 
  -6  -6  -2 75.1664 4.70030   3 
  -6  -6  -2 74.7810 4.98055   1 
  -7  -6  -2 3.56748 2.32469   3 
  -7  -6  -2 4.15194 2.10097   1 
  -7  -6  -2 4.20680 2.14607   2 
  -7  -6  -2 5.01102 2.75262   1 
  -7  -6  -2 6.02225 2.90599   3 
  -7  -6  -2 3.43225 2.21158   2 
   3  -7  -2 208.156 7.48338   3 
   3  -7  -2 204.505 8.24998   1 
   3  -7  -2 210.640 7.10997   2 
  -3   7   2 196.426 8.40314   3 
  -3   7   2 205.986 7.38555   1 
   2  -7  -2 3.56916 2.10977   1 
   2  -7  -2 6.29470 1.84238   3 
   2  -7  -2 7.66701 1.80165   2 
  -2   7   2 1.45250 2.11967   3 
  -2   7   2 4.63903 1.42717   1 
  -2   7   2 7.71400 2.16326   2 
   1  -7  -2 229.323 7.53073   2 
   1  -7  -2 223.758 7.56597   1 
   1  -7  -2 225.089 7.74955   3 
  -1   7   2 221.169 8.30044   3 
  -1   7   2 227.071 7.01554   1 
   0  -7  -2 156.082 6.00254   3 
   0  -7  -2 153.652 5.91812   2 
   0  -7  -2 147.896 5.38992   1 
   0   7   2 158.324 6.44126   3 
   0   7   2 149.067 5.08939   1 
  -1  -7  -2 279.591 8.80953   2 
  -1  -7  -2 275.079 8.97116   3 
  -1  -7  -2 272.771 7.97739   1 
   1   7   2 262.521 9.18019   3 
   1   7   2 281.321 8.02233   1 
  -2  -7  -2 516.923 14.6414   3 
  -2  -7  -2 506.412 14.3985   2 
  -2  -7  -2 514.502 13.3550   1 
   2   7   2 515.446 13.8330   1 
  -3  -7  -2 126.935 5.39085   2 
  -3  -7  -2 129.730 4.29441   1 
  -3  -7  -2 130.341 5.73668   3 
  -4  -7  -2 1.92777 0.98060   1 
  -4  -7  -2 1.49499 1.57457   2 
  -4  -7  -2 4.22682 2.06673   3 
  -5  -7  -2 131.381 4.74630   1 
  -5  -7  -2 126.442 6.00091   2 
  -5  -7  -2 136.992 6.46111   3 
  -6  -7  -2 0.41236 1.54173   1 
  -6  -7  -2 0.92971 2.70200   3 
  -6  -7  -2 2.07465 2.58030   1 
  -6  -7  -2 1.99436 2.18098   2 
  -6  -7  -2 0.10276 2.34318   3 
   2  -8  -2 7.67019 2.43357   3 
   2  -8  -2 9.14377 2.63212   1 
   2  -8  -2 7.61701 2.46067   2 
  -2   8   2 12.9337 3.33036   3 
  -2   8   2 5.88169 1.92850   1 
   1  -8  -2 10.8569 2.44262   1 
   1  -8  -2 9.70774 2.35409   2 
   1  -8  -2 6.06510 2.23176   3 
  -1   8   2 7.34128 2.61292   3 
  -1   8   2 10.3340 1.72226   1 
   0  -8  -2 142.380 6.17217   2 
   0  -8  -2 142.697 5.73078   1 
   0  -8  -2 144.373 6.36270   3 
   0   8   2 144.342 5.23602   1 
   0   8   2 136.622 6.82314   3 
  -1  -8  -2 18.8407 2.06847   1 
  -1  -8  -2 18.1226 2.66761   3 
  -1  -8  -2 20.9351 2.55700   2 
   1   8   2 21.6174 2.15564   1 
   1   8   2 21.6844 3.04330   3 
  -2  -8  -2 130.276 5.98532   2 
  -2  -8  -2 127.006 4.62259   1 
  -2  -8  -2 117.239 5.90889   3 
   2   8   2 127.228 5.16126   1 
  -3  -8  -2 24.1007 3.08645   3 
  -3  -8  -2 18.8386 2.14843   1 
  -3  -8  -2 19.3611 2.73117   2 
  -4  -8  -2 8.09892 2.53715   3 
  -4  -8  -2 10.0136 1.38857   1 
  -4  -8  -2 9.07663 2.35740   2 
  -5  -8  -2 20.3053 1.97870   1 
  -5  -8  -2 25.8351 3.70784   3 
  -5  -8  -2 17.6381 3.06150   2 
  -1  -9  -2 15.4313 3.11437   2 
  -1  -9  -2 18.7595 2.92594   3 
  -1  -9  -2 23.2603 2.54863   1 
   1   9   2 25.1419 2.63777   1 
  -2  -9  -2 1.78544 1.54834   1 
  -2  -9  -2 0.53318 2.42997   3 
  -2  -9  -2 8.09451 2.68993   2 
   2   9   2 -0.7053 1.83411   1 
  -3  -9  -2 11.3623 2.96602   2 
  -3  -9  -2 8.19970 2.83473   3 
  -3  -9  -2 11.8291 1.89805   1 
  -4  -8   3 34.6338 4.17295   3 
  -4  -8   3 29.7958 3.01089   2 
  -4  -8   3 30.7791 3.68875   3 
   3   8  -3 5.20060 2.61547   2 
  -3  -8   3 4.19378 2.18711   2 
  -3  -8   3 3.34037 2.89796   3 
   2   8  -3 1.70476 2.47723   2 
  -2  -8   3 2.96342 2.08043   2 
  -2  -8   3 -2.7789 2.27018   3 
   1   8  -3 110.164 6.23124   2 
  -1  -8   3 111.425 6.27719   3 
  -1  -8   3 109.205 5.22196   2 
   0   8  -3 3.95913 2.44380   2 
   0   8  -3 4.15427 0.93978   1 
   0  -8   3 4.65412 2.51045   3 
   0  -8   3 4.89361 1.87830   2 
  -1   8  -3 115.360 4.00989   1 
  -1   8  -3 126.146 6.80532   2 
   1  -8   3 114.840 6.16937   3 
   1  -8   3 112.100 5.56094   2 
  -6  -7   3 8.03132 3.74160   3 
  -6  -7   3 1.34360 1.07686   1 
  -6  -7   3 0.60625 2.96614   3 
  -6  -7   3 -2.3222 1.30235   1 
  -6  -7   3 -2.1011 2.10444   2 
  -5  -7   3 57.9697 4.91636   3 
  -5  -7   3 45.1736 3.93597   2 
  -5  -7   3 48.4031 5.43652   3 
   4   7  -3 67.9832 4.84760   2 
  -4  -7   3 72.7692 4.97523   3 
  -4  -7   3 66.5126 5.38176   3 
  -4  -7   3 72.5720 4.26743   2 
   3   7  -3 1.19190 1.87889   2 
  -3  -7   3 3.13735 1.65351   2 
  -3  -7   3 0.39922 2.03696   3 
   2   7  -3 832.515 22.3905   2 
  -2  -7   3 817.074 21.7229   2 
  -2  -7   3 847.761 22.5196   3 
   1   7  -3 346.028 10.9133   2 
  -1  -7   3 330.325 10.2331   2 
  -1  -7   3 356.706 10.9980   3 
   0   7  -3 -0.9372 1.84485   2 
   0   7  -3 0.62055 0.62036   1 
   0  -7   3 -1.0927 1.40647   2 
   0  -7   3 2.41724 1.75189   3 
  -1   7  -3 114.590 5.80097   2 
  -1   7  -3 114.144 3.84028   1 
   1  -7   3 117.340 4.60772   1 
   1  -7   3 113.591 4.93370   2 
   1  -7   3 122.486 5.51060   3 
  -2   7  -3 24.0665 2.97624   2 
  -2   7  -3 28.2438 2.53477   1 
   2  -7   3 26.8248 2.93920   1 
   2  -7   3 27.1239 2.83699   3 
   2  -7   3 28.9264 2.70498   2 
  -3   7  -3 1.88010 2.40820   1 
  -3   7  -3 2.35115 2.70233   2 
   3  -7   3 2.02113 1.90623   2 
   3  -7   3 3.90422 2.05427   3 
   3  -7   3 1.17132 3.35632   1 
  -6  -6   3 1.41318 1.74514   2 
  -6  -6   3 4.15429 1.53778   1 
  -6  -6   3 1.52142 1.37809   1 
  -6  -6   3 0.15292 2.19420   3 
  -5  -6   3 230.130 8.20608   3 
  -5  -6   3 218.956 6.16016   1 
  -5  -6   3 219.231 6.24602   1 
   4   6  -3 8.88630 2.32832   2 
  -4  -6   3 14.3933 2.17763   3 
  -4  -6   3 14.2102 2.11383   2 
  -4  -6   3 17.4821 2.68206   3 
   3   6  -3 39.1184 3.41217   2 
  -3  -6   3 35.5674 2.75528   2 
  -3  -6   3 33.8178 3.51212   3 
   2   6  -3 465.001 13.1115   2 
  -2  -6   3 422.144 14.9929   3 
  -2  -6   3 453.857 12.4313   2 
   1   6  -3 694.916 24.0656   2 
  -1  -6   3 842.606 22.7140   2 
  -1  -6   3 951.664 22.2208   3 
   0   6  -3 168.091 4.49956   1 
   0   6  -3 173.453 6.38407   2 
   0  -6   3 173.888 4.89891   1 
   0  -6   3 164.058 5.92985   2 
   0  -6   3 165.225 6.20412   3 
  -1   6  -3 119.009 5.14345   2 
  -1   6  -3 118.274 3.85140   1 
   1  -6   3 120.381 4.57057   2 
   1  -6   3 120.205 4.95009   3 
   1  -6   3 121.715 4.37772   1 
  -2   6  -3 73.6096 4.33522   2 
  -2   6  -3 73.5104 3.37371   1 
   2  -6   3 75.1373 3.87444   3 
   2  -6   3 75.1013 3.57005   2 
   2  -6   3 78.2818 3.96734   1 
  -3   6  -3 23.8828 2.40004   1 
  -3   6  -3 24.8690 2.87562   2 
  -3   6  -3 25.5107 2.83704   3 
   3  -6   3 29.6121 3.10638   1 
   3  -6   3 28.1557 2.74751   2 
   3  -6   3 24.5337 2.50500   3 
  -4   6  -3 -0.1802 2.10522   2 
  -4   6  -3 5.36191 2.69126   3 
  -4   6  -3 -1.4077 1.89343   1 
   4  -6   3 2.98277 1.53761   2 
   4  -6   3 -1.2510 1.92523   3 
   4  -6   3 3.15394 2.65517   1 
  -7  -5   3 19.6375 2.80936   1 
  -7  -5   3 29.9670 2.87124   2 
  -7  -5   3 19.1772 2.41010   2 
  -7  -5   3 21.8195 2.90294   3 
  -6  -5   3 16.7490 1.93046   2 
  -6  -5   3 14.9537 2.00795   1 
  -6  -5   3 16.1709 2.50525   3 
  -5  -5   3 40.4973 2.67279   2 
  -5  -5   3 46.0106 3.63599   3 
  -5  -5   3 46.2207 2.56618   1 
   4   5  -3 167.559 5.94434   2 
  -4  -5   3 170.740 4.79516   1 
  -4  -5   3 174.015 4.85120   1 
  -4  -5   3 152.138 7.51034   3 
  -4  -5   3 175.587 5.63554   2 
   3   5  -3 415.999 11.8102   2 
  -3  -5   3 424.094 11.4493   2 
  -3  -5   3 418.320 12.0786   3 
   2   5  -3 58.3606 3.13986   2 
  -2  -5   3 58.3351 2.81287   2 
  -2  -5   3 59.4932 3.39566   3 
   1   5  -3 296.111 8.68064   2 
  -1  -5   3 282.425 8.26863   2 
  -1  -5   3 282.705 8.65021   3 
   0   5  -3 2.84675 0.43603   1 
   0   5  -3 1.62159 1.07791   2 
   0  -5   3 2.49485 0.83826   2 
   0  -5   3 3.00799 0.65185   1 
   0  -5   3 2.57435 1.12521   3 
  -1   5  -3 575.649 14.3810   1 
  -1   5  -3 581.309 15.4601   2 
   1  -5   3 579.639 14.9846   2 
   1  -5   3 569.656 15.2027   3 
   1  -5   3 570.481 14.7157   1 
  -2   5  -3 157.067 5.19416   1 
  -2   5  -3 157.592 5.63003   3 
  -2   5  -3 162.153 5.75476   2 
   2  -5   3 153.116 5.51613   1 
   2  -5   3 162.189 5.39873   3 
   2  -5   3 161.185 5.26527   2 
  -3   5  -3 28.3329 2.71103   2 
  -3   5  -3 21.8942 2.13454   1 
  -3   5  -3 29.1902 2.72196   3 
   3  -5   3 28.6392 3.07368   1 
   3  -5   3 27.3408 2.38451   3 
   3  -5   3 25.2843 2.19038   2 
  -4   5  -3 11.1209 2.10240   1 
  -4   5  -3 11.1677 1.92284   3 
  -4   5  -3 10.0050 1.86302   2 
   4  -5   3 10.7839 1.59804   2 
   4  -5   3 6.33620 2.34636   1 
   4  -5   3 13.2538 1.60555   3 
  -5   5  -3 2.91853 1.97085   3 
  -5   5  -3 6.44588 2.14017   2 
  -5   5  -3 -0.6065 2.49729   1 
   5  -5   3 3.19985 1.37691   2 
   5  -5   3 2.89862 2.83173   1 
   5  -5   3 6.50312 1.64523   3 
  -7  -4   3 28.2011 2.40845   2 
  -7  -4   3 27.3878 3.06147   1 
  -7  -4   3 21.6383 2.64981   3 
  -7  -4   3 28.3917 2.26065   2 
  -6  -4   3 5.49516 1.64724   1 
  -6  -4   3 4.31192 1.50993   3 
  -6  -4   3 7.03969 1.20603   2 
  -5  -4   3 195.619 7.82017   3 
  -5  -4   3 220.620 6.53944   1 
  -5  -4   3 220.808 6.33636   2 
   4   4  -3 30.2949 2.28046   2 
  -4  -4   3 32.6550 2.03780   2 
  -4  -4   3 32.4496 2.52766   3 
  -4  -4   3 30.6793 1.82659   1 
   3   4  -3 577.903 14.9763   2 
  -3  -4   3 578.042 13.9235   1 
  -3  -4   3 564.611 14.6761   2 
  -3  -4   3 576.068 15.3062   3 
  -3  -4   3 572.485 14.0587   1 
   2   4  -3 48.0289 2.48199   2 
  -2  -4   3 45.3201 2.26146   2 
   1   4  -3 65.8682 2.84831   2 
  -1  -4   3 64.0310 3.00431   3 
  -1  -4   3 63.4340 2.65120   2 
   0   4  -3 148.581 3.85714   1 
   0   4  -3 142.665 4.89176   2 
   0  -4   3 150.438 4.70088   2 
   0  -4   3 152.982 4.99137   3 
  -1   4  -3 243.430 7.24539   2 
  -1   4  -3 241.767 6.59771   1 
   1  -4   3 252.753 7.15429   3 
   1  -4   3 241.497 6.90606   2 
   1  -4   3 243.895 6.83841   1 
  -2   4  -3 49.3017 2.66045   2 
  -2   4  -3 53.2961 2.52644   1 
  -2   4  -3 52.3245 2.66283   3 
   2  -4   3 50.3353 2.68124   1 
   2  -4   3 53.0455 2.46060   3 
   2  -4   3 48.9881 2.36047   2 
  -3   4  -3 9.70212 1.51944   1 
  -3   4  -3 9.91449 1.49155   2 
  -3   4  -3 10.1768 1.45191   3 
   3  -4   3 11.2170 1.22605   3 
   3  -4   3 8.42265 1.11761   2 
   3  -4   3 8.77466 1.60721   1 
  -4   4  -3 -0.1846 1.08520   3 
  -4   4  -3 1.28539 1.42992   1 
  -4   4  -3 -1.3484 1.01343   2 
   4  -4   3 -1.1710 0.85317   2 
   4  -4   3 0.50271 1.88269   1 
   4  -4   3 -1.3719 0.82016   3 
  -5   4  -3 82.0642 4.16265   2 
  -5   4  -3 77.8759 3.88721   3 
  -5   4  -3 86.4220 4.93014   1 
   5  -4   3 78.7054 5.44199   1 
   5  -4   3 88.7505 3.34795   3 
   5  -4   3 81.5773 3.41764   2 
  -6   4  -3 2.41251 2.75688   1 
  -6   4  -3 7.74703 2.08418   2 
  -6   4  -3 1.48583 2.00757   3 
   6  -4   3 4.92473 1.52063   2 
   6  -4   3 6.85919 1.39352   3 
  -7  -3   3 25.6973 2.52711   3 
  -7  -3   3 27.5494 1.44724   2 
  -7  -3   3 27.4330 3.11634   1 
  -7  -3   3 28.6247 1.47172   2 
  -6  -3   3 71.1071 2.80010   2 
  -6  -3   3 78.7062 3.74319   3 
  -6  -3   3 69.1108 3.91282   1 
  -6  -3   3 76.8298 2.67317   2 
  -5  -3   3 208.246 5.88961   2 
  -5  -3   3 216.148 6.68748   1 
  -5  -3   3 214.888 6.84193   3 
  -4  -3   3 -0.0770 0.69809   1 
  -4  -3   3 0.35900 0.63050   2 
  -4  -3   3 1.51496 0.88706   3 
   3   3  -3 1228.28 29.7510   2 
  -3  -3   3 1185.59 30.1596   3 
  -3  -3   3 1235.83 29.3267   1 
  -3  -3   3 1249.68 29.5659   2 
   2   3  -3 1231.66 30.0143   2 
  -2  -3   3 1256.84 29.1064   1 
  -2  -3   3 1225.20 30.2838   3 
  -2  -3   3 1233.27 29.8116   2 
   1   3  -3 608.427 15.4157   2 
  -1  -3   3 613.793 15.2256   2 
   0   3  -3 525.878 12.5680   1 
   0   3  -3 518.406 13.3731   2 
   0  -3   3 529.322 13.2069   2 
   0  -3   3 522.829 13.4092   3 
  -1   3  -3 720.180 17.7545   2 
  -1   3  -3 705.359 17.3641   1 
   1  -3   3 697.949 17.4726   2 
   1  -3   3 710.800 17.6085   3 
  -2   3  -3 1348.96 33.4364   2 
  -2   3  -3 1381.43 33.2568   3 
  -2   3  -3 1359.67 33.4722   1 
   2  -3   3 1395.18 33.1434   3 
   2  -3   3 1405.61 33.1863   2 
   2  -3   3 1383.17 33.6903   1 
  -3   3  -3 544.230 13.7864   3 
  -3   3  -3 529.025 14.3719   1 
  -3   3  -3 545.096 14.0073   2 
   3  -3   3 547.765 14.6875   1 
   3  -3   3 543.100 13.6383   2 
   3  -3   3 537.419 13.4836   3 
  -4   3  -3 22.7301 2.55093   1 
  -4   3  -3 19.4258 1.84879   2 
  -4   3  -3 18.7656 1.78030   3 
   4  -3   3 19.9116 1.38669   3 
   4  -3   3 19.7073 2.22595   1 
   4  -3   3 18.8108 1.54919   2 
  -5   3  -3 116.152 5.38958   1 
  -5   3  -3 117.318 4.49930   2 
  -5   3  -3 121.119 4.23009   3 
   5  -3   3 118.314 4.00723   2 
   5  -3   3 117.420 5.85086   1 
   5  -3   3 118.191 3.81355   3 
  -6   3  -3 84.7135 5.30302   1 
  -6   3  -3 86.6140 3.91361   2 
  -6   3  -3 80.4108 3.81720   3 
   6  -3   3 83.7758 3.33904   3 
   6  -3   3 76.0704 3.41378   2 
   7   2  -3 48.6223 4.25313   3 
   7   2  -3 51.1386 4.98225   1 
  -7  -2   3 43.1690 3.19809   3 
  -7  -2   3 47.7912 4.19722   1 
   6   2  -3 23.7083 2.74508   1 
   6   2  -3 24.7264 2.77778   3 
  -6  -2   3 25.0929 2.93564   1 
  -6  -2   3 23.9668 2.30126   3 
   5   2  -3 8.08024 1.43539   3 
   5   2  -3 8.40814 1.58345   1 
  -5  -2   3 6.87896 1.36892   1 
  -5  -2   3 8.30032 1.30512   3 
  -5  -2   3 9.47480 0.85497   2 
  -5  -2   3 9.12153 0.86244   2 
   4   2  -3 191.873 6.21146   3 
   4   2  -3 189.074 6.01549   1 
  -4  -2   3 191.065 5.03774   2 
  -4  -2   3 191.825 5.78542   1 
  -4  -2   3 186.345 5.82814   3 
   3   2  -3 -0.4663 0.51705   2 
   3   2  -3 0.25173 0.66040   3 
   3   2  -3 -0.3587 0.53524   1 
  -3  -2   3 0.48542 0.38572   2 
  -3  -2   3 0.49982 0.56477   3 
  -3  -2   3 0.34721 0.47833   1 
   2   2  -3 2913.07 68.9265   1 
   2   2  -3 2893.55 68.5753   2 
  -2  -2   3 2892.32 69.0680   2 
  -2  -2   3 2892.07 68.9597   3 
  -2  -2   3 2940.94 68.8470   1 
   1   2  -3 889.556 20.0493   1 
   1   2  -3 833.670 20.6176   2 
  -1  -2   3 869.233 20.0028   1 
  -1  -2   3 858.781 20.5271   2 
  -1  -2   3 801.064 20.7777   3 
   0   2  -3 15.5219 0.75785   1 
   0   2  -3 15.6723 0.72895   1 
   0   2  -3 15.4147 1.01159   2 
   0  -2   3 14.7164 0.91687   2 
  -1   2  -3 619.407 15.2691   1 
  -1   2  -3 612.539 15.2777   2 
   1  -2   3 630.912 15.1557   3 
   1  -2   3 611.806 15.1501   2 
  -2   2  -3 1857.92 43.7634   3 
  -2   2  -3 1816.31 44.3106   1 
  -2   2  -3 1817.88 43.9636   2 
   2  -2   3 1875.07 43.6637   3 
   2  -2   3 1862.99 43.8237   2 
  -3   2  -3 711.863 17.1753   3 
  -3   2  -3 712.448 18.1269   1 
  -3   2  -3 696.612 17.4175   2 
   3  -2   3 711.263 16.9572   3 
   3  -2   3 707.352 18.2780   1 
   3  -2   3 677.880 17.2056   2 
  -4   2  -3 1.17156 1.08513   1 
  -4   2  -3 0.55738 0.66521   2 
  -4   2  -3 0.12330 0.59176   3 
   4  -2   3 2.63380 0.57658   3 
   4  -2   3 0.32056 0.55696   2 
  -5   2  -3 100.046 4.85816   1 
  -5   2  -3 95.0526 3.36671   3 
  -5   2  -3 93.6098 3.44648   2 
   5  -2   3 92.2549 3.08157   3 
   5  -2   3 92.5994 3.32314   2 
  -6   2  -3 -0.9151 1.06355   2 
  -6   2  -3 2.82718 1.06169   3 
  -6   2  -3 1.37177 1.89510   1 
   6  -2   3 -0.0630 1.02699   2 
   6  -2   3 0.43416 0.88686   3 
  -7   2  -3 31.5757 3.98487   1 
  -7   2  -3 38.1721 3.00473   2 
  -7   2  -3 36.5427 2.87530   3 
   7  -2   3 32.8779 2.87687   2 
   7  -2   3 35.5942 2.90682   3 
   7   1  -3 57.7596 4.98937   1 
   7   1  -3 51.4088 4.20333   3 
  -7  -1   3 52.2346 3.41937   3 
  -7  -1   3 51.1153 4.47638   1 
   6   1  -3 437.001 16.2422   3 
  -6  -1   3 520.805 13.7962   3 
  -6  -1   3 473.530 16.4442   1 
   5   1  -3 208.919 6.55779   3 
   5   1  -3 198.885 6.88686   1 
  -5  -1   3 196.237 6.53304   1 
  -5  -1   3 186.706 5.95699   3 
   4   1  -3 9.92657 1.37398   1 
   4   1  -3 11.6324 1.42480   3 
  -4  -1   3 9.93887 1.27033   1 
  -4  -1   3 13.0221 1.30283   3 
   3   1  -3 1632.90 38.7620   1 
   3   1  -3 1596.13 37.8356   2 
   3   1  -3 1513.65 38.7098   3 
  -3  -1   3 1607.80 37.8021   2 
  -3  -1   3 1626.92 38.5712   3 
  -3  -1   3 1656.13 38.5895   1 
   2   1  -3 2198.02 52.6393   3 
   2   1  -3 2249.65 52.2642   2 
   2   1  -3 2189.47 52.3924   1 
  -2  -1   3 2193.38 52.4792   3 
  -2  -1   3 2253.16 52.6098   2 
  -2  -1   3 2185.01 52.2681   1 
   1   1  -3 168.353 4.45027   1 
   1   1  -3 173.839 4.83985   3 
   1   1  -3 178.733 4.52377   2 
  -1  -1   3 171.496 4.43966   2 
  -1  -1   3 179.295 4.41727   1 
  -1  -1   3 169.964 4.74580   3 
   0   1  -3 3083.47 73.8117   2 
   0   1  -3 3063.43 72.9010   1 
   0  -1   3 3129.10 73.7106   2 
   0  -1   3 2966.33 73.3633   1 
   0  -1   3 3103.17 74.0069   3 
  -1   1  -3 4051.84 98.9511   2 
   1  -1   3 4124.56 98.1662   3 
   1  -1   3 4221.99 99.2594   2 
  -2   1  -3 328.577 8.35252   2 
  -2   1  -3 339.545 8.03531   3 
  -2   1  -3 329.412 8.90114   1 
   2  -1   3 325.193 8.30965   2 
   2  -1   3 329.257 7.94219   3 
  -3   1  -3 10.7871 1.34477   1 
  -3   1  -3 9.80970 0.88132   2 
  -3   1  -3 11.6552 0.74376   3 
   3  -1   3 10.8592 0.89906   2 
   3  -1   3 10.8133 0.59519   3 
  -4   1  -3 1017.96 23.9565   3 
  -4   1  -3 1011.61 25.4750   1 
  -4   1  -3 998.230 24.2092   2 
   4  -1   3 985.165 23.8764   3 
   4  -1   3 989.268 24.2250   2 
  -5   1  -3 16.0528 1.35150   2 
  -5   1  -3 15.0628 1.21539   3 
  -5   1  -3 14.7567 2.02902   1 
   5  -1   3 14.6819 1.47303   2 
   5  -1   3 13.6789 1.24836   3 
  -6   1  -3 42.4795 2.20594   2 
  -6   1  -3 38.6732 2.11215   3 
  -6   1  -3 41.8165 3.75103   1 
   6  -1   3 38.7151 2.21147   3 
   6  -1   3 33.7998 2.29300   2 
  -7   1  -3 43.8638 2.59682   3 
  -7   1  -3 42.0905 4.49005   1 
  -7   1  -3 44.6958 2.61167   2 
   7  -1   3 37.1727 2.80978   3 
   7  -1   3 41.0815 3.01863   2 
   7   0  -3 8.61340 2.12788   3 
   7   0  -3 11.4826 2.90728   1 
  -7   0   3 6.84143 2.43897   1 
  -7   0   3 11.5030 1.82255   3 
   6   0  -3 1304.16 31.8376   1 
  -6   0   3 1271.74 31.1370   1 
  -6   0   3 1070.70 31.8912   3 
   5   0  -3 148.896 5.11477   3 
   5   0  -3 137.431 5.58558   1 
  -5   0   3 143.814 4.71095   3 
  -5   0   3 133.003 5.26819   1 
   4   0  -3 34.5135 2.04960   3 
   4   0  -3 29.8002 2.28763   1 
  -4   0   3 33.4102 2.20738   1 
  -4   0   3 34.5754 1.84901   3 
   3   0  -3 1070.01 25.8364   3 
   3   0  -3 1032.94 26.1020   1 
  -3   0   3 1047.41 25.9336   1 
  -3   0   3 1080.46 25.6757   3 
   2   0  -3 447.899 11.2084   3 
   2   0  -3 450.245 11.3154   1 
   2   0  -3 439.609 10.4950   2 
  -2   0   3 449.094 10.5009   2 
  -2   0   3 423.952 11.1852   1 
   1   0  -3 822.474 19.5059   2 
   1   0  -3 812.960 19.8674   1 
   1   0  -3 818.206 19.8745   3 
  -1   0   3 832.577 19.5347   2 
  -1   0   3 817.620 19.8072   1 
  -1   0   3 853.166 19.8457   3 
   0   0  -3 3217.07 74.5958   3 
   0   0  -3 3027.58 73.9844   1 
   0   0  -3 3130.85 74.2460   2 
   0   0   3 3105.53 74.8774   1 
   0   0   3 3003.22 73.8941   3 
   0   0   3 3137.58 74.3367   2 
  -1   0  -3 2111.50 46.6525   3 
  -1   0  -3 1836.13 46.6303   1 
  -1   0  -3 1772.25 46.4732   2 
   1   0   3 2065.45 46.5135   3 
   1   0   3 2053.29 47.5834   2 
  -2   0  -3 18.0475 0.85888   2 
   2   0   3 15.8258 0.92119   2 
  -3   0  -3 3394.20 78.1050   3 
  -3   0  -3 3307.79 78.4291   2 
  -3   0  -3 3202.64 78.7423   1 
   3   0   3 3334.19 78.8607   2 
  -4   0  -3 12.9852 1.61803   1 
  -4   0  -3 13.0906 0.94987   2 
  -4   0  -3 14.5813 0.78052   3 
   4   0   3 11.9758 1.13991   2 
   4   0   3 13.7418 0.98062   3 
  -5   0  -3 0.11764 0.40968   3 
  -5   0  -3 0.39538 0.47673   2 
  -5   0  -3 0.32824 1.15017   1 
   5   0   3 0.29046 0.65238   2 
   5   0   3 0.53124 0.62681   3 
  -6   0  -3 64.6806 4.13260   1 
  -6   0  -3 57.8612 2.31800   3 
  -6   0  -3 62.7796 2.41827   2 
   6   0   3 64.9109 3.01300   2 
  -7   0  -3 71.9978 2.96412   2 
  -7   0  -3 78.2141 5.16660   1 
  -7   0  -3 68.0580 2.86014   3 
   7   0   3 74.4719 3.72141   2 
  -8   0  -3 13.9885 1.63368   2 
  -8   0  -3 16.5300 3.46682   1 
  -8   0  -3 15.6800 1.85520   3 
   7  -1  -3 35.5187 3.98985   3 
   7  -1  -3 43.7096 4.84214   1 
  -7   1   3 38.5729 3.40501   3 
  -7   1   3 39.0976 3.99272   1 
   6  -1  -3 0.84317 1.37802   3 
   6  -1  -3 0.59395 1.75343   1 
  -6   1   3 1.59867 1.85889   1 
  -6   1   3 0.41678 1.07710   3 
   5  -1  -3 41.6509 3.28672   1 
   5  -1  -3 39.4069 2.54083   3 
  -5   1   3 39.4890 2.86016   1 
  -5   1   3 41.2138 2.39396   3 
   4  -1  -3 370.081 10.6871   1 
   4  -1  -3 372.701 9.97765   3 
  -4   1   3 369.352 10.4107   1 
  -4   1   3 360.030 9.85940   3 
   3  -1  -3 308.872 9.06889   1 
   3  -1  -3 318.920 8.56196   3 
  -3   1   3 334.013 8.59421   3 
  -3   1   3 325.452 8.93168   1 
   2  -1  -3 336.710 9.01281   1 
   2  -1  -3 341.923 8.14361   2 
   2  -1  -3 337.929 8.08912   2 
   2  -1  -3 341.278 8.68531   3 
  -2   1   3 337.457 8.69654   3 
  -2   1   3 322.642 8.86656   1 
   1  -1  -3 167.967 4.28769   2 
   1  -1  -3 153.394 4.61794   1 
   1  -1  -3 173.189 4.53257   3 
  -1   1   3 169.344 4.62282   1 
  -1   1   3 166.972 4.54544   3 
   0  -1  -3 4520.89 111.570   3 
   0  -1  -3 4608.45 111.436   1 
   0  -1  -3 4686.16 111.942   2 
   0   1   3 4763.29 111.817   3 
   0   1   3 4853.09 112.112   2 
  -1  -1  -3 207.463 5.29602   2 
  -1  -1  -3 203.399 5.07063   3 
  -1  -1  -3 198.729 5.41131   1 
   1   1   3 199.155 5.33746   2 
   1   1   3 196.576 5.10487   3 
   1   1   3 198.850 5.53291   1 
  -2  -1  -3 127.190 3.38327   3 
  -2  -1  -3 121.564 4.09038   1 
  -2  -1  -3 135.401 3.68784   2 
   2   1   3 131.929 3.79313   2 
  -3  -1  -3 137.870 3.54744   3 
  -3  -1  -3 123.820 3.75428   2 
   3   1   3 131.532 3.99177   2 
  -4  -1  -3 135.336 3.66109   3 
  -4  -1  -3 129.578 3.84241   2 
  -4  -1  -3 131.772 4.89871   1 
   4   1   3 134.375 4.24082   2 
  -5  -1  -3 210.534 5.54164   3 
  -5  -1  -3 208.853 7.19549   1 
  -5  -1  -3 203.411 5.67690   2 
   5   1   3 208.041 6.19372   2 
  -6  -1  -3 90.7888 3.00601   3 
  -6  -1  -3 88.5708 3.04771   2 
  -6  -1  -3 86.5723 4.72004   1 
  -7  -1  -3 0.47744 2.05235   1 
  -7  -1  -3 1.90224 0.81936   2 
  -7  -1  -3 0.47793 0.78171   3 
  -8  -1  -3 0.54384 2.95079   1 
  -8  -1  -3 -0.2097 1.15857   3 
  -8  -1  -3 1.21555 1.08061   2 
   7  -2  -3 3.52052 2.07246   3 
   7  -2  -3 1.81135 3.24750   1 
  -7   2   3 2.21480 1.93356   3 
  -7   2   3 4.17274 2.67245   1 
   6  -2  -3 27.5822 2.73948   3 
   6  -2  -3 18.5469 2.89130   1 
  -6   2   3 25.3727 2.70588   3 
  -6   2   3 19.3635 2.77845   1 
   5  -2  -3 232.885 7.29895   3 
   5  -2  -3 236.308 8.42643   1 
  -5   2   3 231.506 7.29980   3 
  -5   2   3 253.894 8.10558   1 
   4  -2  -3 5.60843 1.38273   1 
   4  -2  -3 6.29554 1.04065   3 
   4  -2  -3 6.35943 0.46682   2 
  -4   2   3 6.53242 1.42996   1 
  -4   2   3 6.61922 1.15162   3 
   3  -2  -3 297.746 7.35062   2 
   3  -2  -3 308.122 8.80014   1 
   3  -2  -3 289.440 8.05637   3 
  -3   2   3 288.608 8.49130   1 
  -3   2   3 307.854 8.25078   3 
   2  -2  -3 1896.73 44.3328   2 
   2  -2  -3 1901.06 44.7143   3 
   2  -2  -3 1865.13 45.1599   1 
  -2   2   3 1820.91 44.8122   3 
  -2   2   3 1895.47 45.0026   1 
   1  -2  -3 45.9545 1.91925   1 
   1  -2  -3 45.6936 1.77280   3 
   1  -2  -3 44.1835 1.72204   2 
  -1   2   3 43.0367 1.84421   3 
  -1   2   3 44.8825 1.83295   1 
   0  -2  -3 11.6051 0.90867   3 
   0  -2  -3 11.4986 0.81988   1 
   0   2   3 11.9180 0.83728   1 
   0   2   3 10.9426 0.94260   3 
  -1  -2  -3 0.92039 0.42158   3 
  -1  -2  -3 1.79287 0.44517   1 
  -1  -2  -3 0.84277 0.46284   2 
   1   2   3 1.04699 0.41718   3 
   1   2   3 1.18018 0.45721   1 
  -2  -2  -3 482.298 12.3392   1 
  -2  -2  -3 478.613 12.1619   2 
  -2  -2  -3 487.248 11.9705   3 
   2   2   3 476.333 12.0055   3 
  -3  -2  -3 251.643 7.31924   1 
  -3  -2  -3 240.231 6.52776   3 
  -3  -2  -3 242.659 6.69385   2 
  -4  -2  -3 1059.30 25.1690   3 
  -4  -2  -3 1040.06 25.2666   2 
  -4  -2  -3 1000.90 26.2138   1 
  -4  -2  -3 1055.13 25.2592   3 
  -5  -2  -3 48.9376 2.04244   3 
  -5  -2  -3 45.0445 2.07179   2 
  -5  -2  -3 45.2011 3.09681   1 
  -6  -2  -3 18.9384 1.52153   2 
  -6  -2  -3 16.3039 1.46818   3 
  -7  -2  -3 19.6326 2.92853   1 
  -7  -2  -3 23.0580 1.74574   2 
  -7  -2  -3 23.6299 1.87074   3 
  -8  -2  -3 66.8531 3.28597   3 
  -8  -2  -3 66.7590 3.01367   2 
  -8  -2  -3 62.7163 5.85034   1 
   6  -3  -3 224.968 7.47254   3 
   6  -3  -3 219.898 9.08640   1 
  -6   3   3 212.535 7.59518   3 
  -6   3   3 216.213 8.35522   1 
   5  -3  -3 3.36413 1.29734   3 
   5  -3  -3 2.92089 1.87208   1 
   5  -3  -3 3.47328 0.50431   2 
  -5   3   3 1.64047 1.77536   1 
  -5   3   3 4.87430 1.48619   3 
   4  -3  -3 386.891 10.3690   3 
   4  -3  -3 382.640 9.34964   2 
   4  -3  -3 380.405 11.3962   1 
  -4   3   3 383.797 10.6687   3 
  -4   3   3 351.911 10.8269   1 
   3  -3  -3 85.4670 3.82837   1 
   3  -3  -3 83.0521 2.65844   2 
   3  -3  -3 83.9212 3.17464   3 
  -3   3   3 77.2755 3.48947   1 
  -3   3   3 79.5768 3.36740   3 
   2  -3  -3 548.232 13.6215   2 
   2  -3  -3 557.651 14.3704   1 
   2  -3  -3 530.927 13.8822   3 
  -2   3   3 539.150 14.1165   1 
  -2   3   3 550.726 14.1784   3 
   1  -3  -3 56.8405 2.26223   2 
   1  -3  -3 57.7250 2.37631   1 
   1  -3  -3 57.5424 2.32113   3 
  -1   3   3 57.0325 2.24814   1 
  -1   3   3 51.3099 2.37359   3 
   0  -3  -3 981.964 24.0115   3 
   0  -3  -3 997.905 23.8919   1 
   0  -3  -3 991.319 24.0571   2 
   0   3   3 1001.13 24.1569   3 
   0   3   3 942.946 23.7786   1 
  -1  -3  -3 3343.67 77.5419   3 
  -1  -3  -3 3287.79 78.4860   1 
   1   3   3 3334.84 78.6282   1 
   1   3   3 3146.14 77.5576   3 
  -2  -3  -3 88.8720 3.08966   1 
  -2  -3  -3 94.1328 3.24613   3 
   2   3   3 99.0417 3.47241   1 
   2   3   3 96.1015 3.31475   3 
  -3  -3  -3 13.3473 1.37510   1 
  -3  -3  -3 13.2977 1.40471   2 
  -3  -3  -3 13.3718 1.36227   3 
  -4  -3  -3 317.099 8.73970   2 
  -4  -3  -3 319.653 8.76474   3 
  -4  -3  -3 317.165 9.36317   1 
  -5  -3  -3 441.707 11.6984   2 
  -5  -3  -3 437.819 11.6668   3 
  -5  -3  -3 447.548 11.9113   3 
  -5  -3  -3 445.906 12.8031   1 
  -6  -3  -3 1.04833 0.97274   2 
  -6  -3  -3 -0.5362 0.81822   3 
  -6  -3  -3 -0.0793 1.76030   1 
  -7  -3  -3 66.5218 3.06793   2 
  -7  -3  -3 71.7801 5.25678   1 
  -7  -3  -3 65.4963 3.09605   3 
  -8  -3  -3 -0.8249 1.19177   2 
  -8  -3  -3 0.87456 1.31335   3 
  -8  -3  -3 0.74374 2.79554   1 
   6  -4  -3 7.95816 3.06152   1 
   6  -4  -3 12.1827 1.28549   2 
   6  -4  -3 11.8754 2.23682   3 
  -6   4   3 15.2628 2.59574   3 
  -6   4   3 13.3712 3.00964   1 
   5  -4  -3 9.44700 0.96477   2 
   5  -4  -3 10.4470 1.72891   3 
   5  -4  -3 10.7819 2.44193   1 
  -5   4   3 9.73119 1.96695   3 
  -5   4   3 11.8646 2.27953   1 
   4  -4  -3 723.667 16.7170   2 
   4  -4  -3 585.949 19.2683   3 
   4  -4  -3 710.110 18.8808   1 
  -4   4   3 634.680 20.5305   3 
  -4   4   3 723.800 18.3722   1 
   3  -4  -3 333.303 9.58424   3 
   3  -4  -3 342.827 9.11528   2 
   3  -4  -3 350.888 10.4171   1 
  -3   4   3 361.631 10.1218   1 
  -3   4   3 340.667 10.0451   3 
   2  -4  -3 120.867 3.99935   2 
   2  -4  -3 115.854 4.46803   1 
   2  -4  -3 120.584 4.17856   3 
  -2   4   3 120.445 4.50654   3 
  -2   4   3 119.542 4.26028   1 
   1  -4  -3 715.029 18.1140   3 
   1  -4  -3 733.224 18.0421   2 
   1  -4  -3 721.112 18.2055   1 
  -1   4   3 703.734 17.9410   1 
  -1   4   3 706.167 18.3544   3 
   0  -4  -3 64.6786 2.76785   3 
   0  -4  -3 63.0918 2.72457   2 
   0  -4  -3 61.9165 2.53282   1 
   0   4   3 64.3030 2.42033   1 
   0   4   3 59.8975 2.83405   3 
  -1  -4  -3 669.393 17.0746   3 
  -1  -4  -3 684.181 16.6608   1 
  -1  -4  -3 688.662 17.1682   2 
   1   4   3 678.994 16.7946   1 
   1   4   3 634.773 17.1171   3 
  -2  -4  -3 1126.87 27.3424   3 
  -2  -4  -3 1090.13 27.3988   2 
  -2  -4  -3 1102.57 26.8749   1 
   2   4   3 1109.81 27.3226   1 
   2   4   3 1108.21 27.4272   3 
  -3  -4  -3 461.355 12.3596   1 
  -3  -4  -3 484.004 12.7262   2 
  -3  -4  -3 474.400 12.5832   3 
  -4  -4  -3 4.93380 1.10380   1 
  -4  -4  -3 4.08975 1.16886   2 
  -4  -4  -3 4.19672 1.14511   3 
  -5  -4  -3 1.40220 1.43499   1 
  -5  -4  -3 0.26804 1.09348   1 
  -5  -4  -3 0.28457 0.95968   2 
  -5  -4  -3 0.33500 1.00224   3 
  -5  -4  -3 1.91576 1.26673   3 
  -6  -4  -3 9.27778 1.62433   3 
  -6  -4  -3 5.97158 1.70018   1 
  -6  -4  -3 6.15062 1.78696   3 
  -6  -4  -3 8.14306 1.44914   2 
  -6  -4  -3 7.60384 2.23437   1 
  -7  -4  -3 52.1260 4.77487   1 
  -7  -4  -3 46.2055 3.72127   2 
  -7  -4  -3 56.1989 4.24173   3 
  -7  -4  -3 51.9768 3.25750   2 
  -7  -4  -3 55.0987 3.33051   3 
  -7  -4  -3 58.8921 4.85474   1 
  -8  -4  -3 144.081 6.76159   2 
  -8  -4  -3 148.094 5.67914   3 
  -8  -4  -3 152.714 5.58071   2 
  -8  -4  -3 148.668 7.00822   3 
  -8  -4  -3 157.514 8.00159   1 
   5  -5  -3 -1.7765 1.63918   3 
   5  -5  -3 -1.2910 2.70314   1 
   5  -5  -3 -0.3669 0.96636   2 
  -5   5   3 3.27963 2.15421   3 
  -5   5   3 3.17638 2.42799   1 
   4  -5  -3 444.297 13.8464   1 
   4  -5  -3 471.218 12.7320   3 
   4  -5  -3 451.080 11.8102   2 
  -4   5   3 460.021 13.2769   1 
  -4   5   3 440.050 13.2435   3 
   3  -5  -3 803.013 20.4809   3 
   3  -5  -3 765.443 21.4434   1 
   3  -5  -3 814.807 19.9105   2 
  -3   5   3 806.624 20.9508   1 
  -3   5   3 765.323 21.1146   3 
   2  -5  -3 40.4313 2.88159   1 
   2  -5  -3 40.9232 2.58898   3 
   2  -5  -3 38.6835 2.39898   2 
  -2   5   3 39.5915 2.53213   1 
  -2   5   3 36.9078 2.87115   3 
   1  -5  -3 116.863 4.32826   2 
   1  -5  -3 116.438 4.45467   3 
   1  -5  -3 123.170 4.47170   1 
  -1   5   3 123.320 4.80146   3 
  -1   5   3 118.095 4.15880   1 
   0  -5  -3 63.7082 3.05670   3 
   0  -5  -3 64.4421 3.04775   2 
   0  -5  -3 67.6821 2.82895   1 
   0   5   3 68.4042 2.70067   1 
   0   5   3 66.7352 3.34329   3 
  -1  -5  -3 5.05047 1.08321   2 
  -1  -5  -3 5.64224 0.85792   1 
  -1  -5  -3 5.96298 1.13865   3 
   1   5   3 6.18062 0.93400   1 
   1   5   3 5.61633 1.26127   3 
  -2  -5  -3 1.59803 0.92653   3 
  -2  -5  -3 0.44530 0.58633   1 
  -2  -5  -3 0.61199 0.85980   2 
   2   5   3 0.64815 0.96460   3 
   2   5   3 0.98984 0.78031   1 
  -3  -5  -3 256.863 7.40466   1 
  -3  -5  -3 266.143 8.10544   3 
  -3  -5  -3 273.474 8.17009   2 
  -4  -5  -3 7.18257 1.56902   3 
  -4  -5  -3 2.93539 1.36458   2 
  -4  -5  -3 4.04992 1.04230   1 
  -5  -5  -3 29.5827 3.07114   3 
  -5  -5  -3 30.2620 2.99823   2 
  -5  -5  -3 31.9088 2.82326   2 
  -5  -5  -3 33.0366 2.61356   1 
  -6  -5  -3 -0.7349 2.38523   1 
  -6  -5  -3 1.34112 1.74227   2 
  -6  -5  -3 -0.9263 1.51775   3 
  -6  -5  -3 0.95821 1.50622   1 
  -6  -5  -3 1.65763 1.63390   2 
  -6  -5  -3 2.69684 1.89506   3 
  -7  -5  -3 0.75407 1.80764   3 
  -7  -5  -3 2.53566 2.21517   3 
  -7  -5  -3 2.13561 2.60325   1 
  -7  -5  -3 2.06960 1.71568   2 
  -7  -5  -3 -1.3913 1.94760   1 
  -7  -5  -3 1.80440 2.19448   2 
   4  -6  -3 33.5378 3.67353   1 
   4  -6  -3 33.7516 3.45752   3 
   4  -6  -3 33.4432 2.82689   2 
  -4   6   3 29.5282 3.53241   3 
  -4   6   3 37.7782 4.01322   1 
   3  -6  -3 5.81396 1.51367   2 
   3  -6  -3 5.65965 1.78256   3 
   3  -6  -3 3.56266 2.06513   1 
  -3   6   3 3.57890 1.57630   1 
  -3   6   3 4.15680 1.92205   3 
   2  -6  -3 1.07651 1.28463   3 
   2  -6  -3 0.44241 1.46489   1 
   2  -6  -3 -0.6033 1.12584   2 
  -2   6   3 0.49116 1.07168   1 
  -2   6   3 -0.3625 1.43793   3 
   1  -6  -3 10.8819 1.59909   1 
   1  -6  -3 9.98858 1.69362   2 
   1  -6  -3 13.7542 2.15758   3 
  -1   6   3 9.70295 1.34177   1 
  -1   6   3 11.7336 2.41029   3 
   0  -6  -3 68.2104 3.21141   1 
   0  -6  -3 70.5059 3.54242   2 
   0  -6  -3 71.7096 3.62775   3 
   0   6   3 65.4271 3.78167   3 
   0   6   3 73.5302 3.03592   1 
  -1  -6  -3 12.3832 1.41892   1 
  -1  -6  -3 17.0165 1.85470   2 
  -1  -6  -3 15.9663 1.80674   3 
   1   6   3 13.2242 1.90746   3 
   1   6   3 17.2671 1.72409   1 
  -2  -6  -3 393.821 10.3083   1 
  -2  -6  -3 379.688 11.1721   3 
  -2  -6  -3 379.884 11.1748   2 
   2   6   3 391.752 11.4701   3 
   2   6   3 386.539 10.7522   1 
  -3  -6  -3 15.1376 1.91566   2 
  -3  -6  -3 17.3497 1.52204   1 
  -3  -6  -3 16.1042 2.18039   3 
  -4  -6  -3 -0.7891 0.75266   1 
  -4  -6  -3 3.39003 1.73719   3 
  -4  -6  -3 1.17065 2.19578   2 
  -5  -6  -3 84.7029 4.49540   2 
  -5  -6  -3 83.7510 4.74348   3 
  -5  -6  -3 75.8777 3.72008   1 
  -6  -6  -3 4.21510 2.83847   1 
  -6  -6  -3 1.50215 1.77896   2 
  -6  -6  -3 3.31904 2.74981   1 
  -6  -6  -3 2.01333 2.28995   3 
  -6  -6  -3 4.75463 2.10500   2 
  -6  -6  -3 2.30425 1.92989   3 
  -7  -6  -3 10.0645 2.62548   2 
  -7  -6  -3 9.60911 3.02128   3 
  -7  -6  -3 8.98098 2.33024   3 
  -7  -6  -3 10.5408 3.08916   1 
  -7  -6  -3 8.63772 2.25719   1 
  -7  -6  -3 9.94770 2.34937   2 
   3  -7  -3 5.58507 2.03131   3 
   3  -7  -3 2.39531 1.82055   2 
   3  -7  -3 3.90564 2.54185   1 
  -3   7   3 -2.3283 1.79054   1 
  -3   7   3 1.43455 2.48099   3 
   2  -7  -3 94.6556 5.20678   1 
   2  -7  -3 97.7171 4.84145   3 
   2  -7  -3 90.3828 4.55865   2 
  -2   7   3 90.0719 4.37005   1 
  -2   7   3 93.2845 5.62383   3 
   1  -7  -3 2.87377 1.68844   3 
   1  -7  -3 3.94008 1.58314   1 
   1  -7  -3 0.50313 1.61661   2 
  -1   7   3 3.24653 1.30667   1 
  -1   7   3 1.18778 1.97837   3 
   0  -7  -3 178.380 6.51461   3 
   0  -7  -3 177.831 6.57798   2 
   0  -7  -3 180.954 6.13260   1 
   0   7   3 172.979 5.77993   1 
   0   7   3 164.544 6.85220   3 
  -1  -7  -3 71.9661 3.30648   1 
  -1  -7  -3 65.0210 3.80380   2 
  -1  -7  -3 69.6499 3.91700   3 
   1   7   3 64.2355 4.10201   3 
   1   7   3 62.6981 3.24412   1 
  -2  -7  -3 0.53677 1.34645   2 
  -2  -7  -3 0.14066 0.86043   1 
  -2  -7  -3 -1.8255 1.41543   3 
   2   7   3 3.45550 1.92256   3 
   2   7   3 1.03620 1.25588   1 
  -3  -7  -3 62.1885 3.99612   3 
  -3  -7  -3 58.8009 3.88472   2 
  -3  -7  -3 60.0985 2.83430   1 
  -4  -7  -3 4.93901 2.06913   3 
  -4  -7  -3 3.60523 1.71135   2 
  -4  -7  -3 3.76998 1.09504   1 
  -5  -7  -3 5.84885 2.17100   2 
  -5  -7  -3 7.36287 1.40654   1 
  -5  -7  -3 8.36181 2.57634   3 
  -6  -7  -3 24.5517 3.17150   2 
  -6  -7  -3 29.5288 3.58350   1 
  -6  -7  -3 24.2396 2.55907   1 
  -6  -7  -3 33.4132 3.95020   3 
  -6  -7  -3 22.7653 2.93799   2 
  -6  -7  -3 16.3772 3.11031   3 
   2  -8  -3 16.7539 2.71816   2 
   2  -8  -3 14.0559 3.05282   1 
   2  -8  -3 16.4140 2.71500   3 
  -2   8   3 13.6086 3.44096   3 
  -2   8   3 15.2894 2.40429   1 
   1  -8  -3 65.1508 4.81677   3 
   1  -8  -3 66.9532 4.65728   1 
   1  -8  -3 62.4851 4.40634   2 
  -1   8   3 66.1955 3.81454   1 
  -1   8   3 66.5324 5.53836   3 
   0  -8  -3 197.592 7.51091   2 
   0  -8  -3 192.299 7.30380   1 
   0  -8  -3 188.901 7.35943   3 
   0   8   3 186.124 8.07811   3 
   0   8   3 193.369 7.14006   1 
  -1  -8  -3 15.3144 2.06997   1 
  -1  -8  -3 20.5286 2.87917   2 
  -1  -8  -3 13.8715 2.34574   3 
   1   8   3 24.9364 2.71605   1 
   1   8   3 18.1411 3.17457   3 
  -2  -8  -3 11.9856 1.72602   1 
  -2  -8  -3 11.0744 2.29164   3 
  -2  -8  -3 11.2363 2.18585   2 
   2   8   3 11.1894 2.01176   1 
  -3  -8  -3 193.820 7.71760   3 
  -3  -8  -3 195.421 7.60018   2 
  -3  -8  -3 186.169 6.12283   1 
  -4  -8  -3 28.3013 3.57182   3 
  -4  -8  -3 19.1074 2.74879   2 
  -4  -8  -3 16.5380 1.84521   1 
  -5  -8  -3 3.00447 2.51822   3 
  -5  -8  -3 2.95970 2.39037   2 
  -5  -8  -3 0.12190 1.39039   1 
  -1  -9  -3 1.71516 2.48923   3 
  -1  -9  -3 0.78057 2.01783   1 
  -1  -9  -3 8.96508 2.77472   2 
   1   9   3 4.21014 3.34346   3 
   1   9   3 1.86365 2.14953   1 
  -2  -9  -3 -0.0747 2.50304   2 
  -2  -9  -3 0.45279 1.71471   1 
  -2  -9  -3 -2.9622 2.37604   3 
   2   9   3 -0.1622 2.20762   1 
  -3  -9  -3 19.9785 2.25684   1 
  -3  -9  -3 17.5888 3.42560   3 
  -3  -9  -3 6.58407 2.76152   2 
   4   8  -4 1.43090 2.88171   2 
  -4  -8   4 2.44751 2.70948   3 
  -4  -8   4 0.49366 2.36186   2 
  -4  -8   4 3.79096 3.28216   3 
   3   8  -4 13.4181 3.32157   2 
  -3  -8   4 8.15254 2.41210   2 
  -3  -8   4 14.1772 3.35973   3 
  -3  -8   4 5.83301 3.04611   3 
   2   8  -4 89.2279 6.13130   2 
  -2  -8   4 88.6356 4.99585   2 
  -2  -8   4 85.0242 6.03383   3 
   1   8  -4 4.46945 2.51401   2 
  -1  -8   4 2.56272 1.84787   2 
  -1  -8   4 3.88533 2.56014   3 
   0   8  -4 39.6301 4.02366   2 
   0  -8   4 37.6668 3.75340   3 
   0  -8   4 45.5288 3.78230   2 
  -1   8  -4 18.9692 3.35059   2 
  -1   8  -4 22.1377 1.86044   1 
   1  -8   4 26.3437 2.83836   2 
   1  -8   4 23.1352 3.31449   3 
  -5  -7   4 8.65968 3.20199   3 
  -5  -7   4 2.96022 2.56820   3 
  -5  -7   4 5.51108 2.08694   2 
   4   7  -4 99.1134 5.60024   2 
  -4  -7   4 102.373 4.91148   2 
  -4  -7   4 86.2550 5.99124   3 
  -4  -7   4 99.6818 5.70646   3 
   3   7  -4 5.86816 2.23968   2 
  -3  -7   4 10.2550 2.51781   3 
  -3  -7   4 6.05527 1.83615   2 
  -3  -7   4 5.39011 2.18463   3 
   2   7  -4 4.57945 1.89245   2 
  -2  -7   4 3.12012 2.16301   3 
  -2  -7   4 1.56113 1.63733   2 
   1   7  -4 66.0042 4.49107   2 
  -1  -7   4 55.8807 3.55888   2 
  -1  -7   4 60.8733 4.55501   3 
   0   7  -4 91.8422 5.21747   2 
   0  -7   4 95.4224 5.20510   3 
   0  -7   4 95.3342 4.45445   2 
  -1   7  -4 24.6518 1.72123   1 
  -1   7  -4 20.5806 2.73328   2 
   1  -7   4 22.3492 2.34166   2 
   1  -7   4 19.2029 2.70544   3 
  -2   7  -4 56.9577 3.21240   1 
  -2   7  -4 61.7670 4.92538   2 
   2  -7   4 54.5915 4.14986   3 
   2  -7   4 58.4243 3.91224   2 
  -3   7  -4 35.4311 3.56030   1 
  -3   7  -4 32.9341 3.79151   2 
   3  -7   4 28.2377 3.03555   3 
   3  -7   4 34.2044 3.10007   2 
  -6  -6   4 83.9959 5.32666   3 
  -6  -6   4 80.7683 3.61171   1 
  -6  -6   4 84.7441 3.82719   1 
  -6  -6   4 85.2464 4.32030   2 
  -5  -6   4 2.02487 0.83314   1 
  -5  -6   4 0.91766 1.91138   3 
  -5  -6   4 1.66664 1.54428   2 
  -5  -6   4 1.14312 0.72993   1 
   4   6  -4 101.750 5.20012   2 
  -4  -6   4 113.067 5.73939   3 
  -4  -6   4 99.2070 4.64909   2 
  -4  -6   4 113.242 5.32916   3 
   3   6  -4 96.6171 4.83863   2 
  -3  -6   4 95.1888 4.41533   2 
  -3  -6   4 94.2844 4.90175   3 
  -3  -6   4 105.100 5.28853   3 
   2   6  -4 33.2784 3.18183   2 
  -2  -6   4 36.3777 3.50311   3 
  -2  -6   4 39.5736 2.69093   2 
   1   6  -4 171.417 6.56577   2 
  -1  -6   4 176.084 6.66776   3 
  -1  -6   4 180.998 6.00067   2 
   0   6  -4 14.7146 0.78421   1 
   0   6  -4 12.6363 1.84329   2 
   0  -6   4 12.0766 1.57145   2 
   0  -6   4 13.1655 2.07445   3 
  -1   6  -4 38.8094 3.26909   2 
  -1   6  -4 35.9985 1.91845   1 
   1  -6   4 40.0352 2.60889   2 
   1  -6   4 38.2915 3.18107   3 
  -2   6  -4 1.96878 1.73606   2 
  -2   6  -4 2.55122 1.22432   1 
   2  -6   4 4.56019 1.52056   3 
   2  -6   4 2.39711 1.29890   2 
  -3   6  -4 1.14139 1.50899   1 
  -3   6  -4 -2.2697 1.84354   2 
   3  -6   4 0.95070 1.48629   3 
   3  -6   4 -0.2424 1.42691   2 
  -4   6  -4 1.41967 2.15696   2 
  -4   6  -4 4.45208 2.26256   1 
   4  -6   4 6.29938 1.79089   3 
   4  -6   4 2.39353 1.81742   2 
  -7  -5   4 19.9876 3.11483   3 
  -7  -5   4 20.9200 2.73996   1 
  -7  -5   4 22.6335 2.06439   2 
  -6  -5   4 22.3026 2.04799   2 
  -6  -5   4 17.7490 1.92484   1 
  -6  -5   4 23.9257 2.86068   3 
  -5  -5   4 81.9068 3.64437   2 
  -5  -5   4 82.4838 3.15704   1 
  -5  -5   4 75.4983 4.32658   3 
   4   5  -4 198.419 6.61455   2 
  -4  -5   4 179.382 4.94346   1 
  -4  -5   4 189.369 5.11546   1 
  -4  -5   4 188.066 6.03637   2 
   3   5  -4 3.99680 1.37118   2 
  -3  -5   4 1.69156 1.18769   3 
  -3  -5   4 1.63251 1.07710   2 
   2   5  -4 7.52743 1.37553   2 
  -2  -5   4 8.76394 1.64878   3 
  -2  -5   4 8.66039 1.62692   3 
  -2  -5   4 6.34675 1.30041   2 
   1   5  -4 56.5631 3.08177   2 
  -1  -5   4 50.8835 2.62853   2 
  -1  -5   4 55.1556 3.24967   3 
   0   5  -4 59.0052 3.16591   2 
   0   5  -4 53.5707 1.62867   1 
   0  -5   4 55.3843 3.13758   3 
   0  -5   4 54.5727 2.70244   2 
  -1   5  -4 41.9880 1.97666   1 
  -1   5  -4 45.1743 2.85729   2 
   1  -5   4 45.3960 2.83012   3 
   1  -5   4 41.5987 2.38353   2 
  -2   5  -4 94.0686 3.69778   1 
  -2   5  -4 96.8628 4.66500   2 
   2  -5   4 89.1771 3.81189   2 
   2  -5   4 99.2093 3.91794   3 
  -3   5  -4 2.28367 1.57198   2 
  -3   5  -4 1.19782 1.34451   1 
   3  -5   4 0.19482 1.07252   2 
   3  -5   4 0.29991 1.10480   3 
  -4   5  -4 66.2368 4.22513   1 
  -4   5  -4 57.2187 3.98923   2 
  -4   5  -4 55.9065 3.69950   3 
   4  -5   4 53.1677 3.00778   3 
   4  -5   4 54.8507 3.20225   2 
  -5   5  -4 187.064 7.46899   2 
  -5   5  -4 201.949 7.91153   1 
  -5   5  -4 201.037 7.09399   3 
   5  -5   4 201.034 6.25890   3 
   5  -5   4 194.368 6.53188   2 
  -7  -4   4 93.8798 5.09902   3 
  -7  -4   4 95.0450 3.33349   2 
  -7  -4   4 94.2642 3.72240   2 
  -7  -4   4 97.2022 5.27045   1 
  -6  -4   4 125.029 5.38175   3 
  -6  -4   4 124.619 4.99314   1 
  -6  -4   4 131.246 4.24890   2 
  -5  -4   4 35.8072 2.91388   3 
  -5  -4   4 36.1212 2.37054   1 
  -5  -4   4 37.0958 2.22493   2 
   4   4  -4 161.106 5.45766   2 
  -4  -4   4 163.619 5.85977   3 
  -4  -4   4 156.836 4.69949   1 
  -4  -4   4 168.128 5.09513   2 
   3   4  -4 162.448 5.29125   2 
  -3  -4   4 157.050 4.93706   2 
  -3  -4   4 156.026 5.53154   3 
  -3  -4   4 155.319 4.06588   1 
   2   4  -4 -0.5983 0.76824   2 
  -2  -4   4 -0.1641 0.95165   3 
  -2  -4   4 0.53044 0.61719   2 
   1   4  -4 104.903 3.97412   2 
  -1  -4   4 111.680 4.23186   3 
  -1  -4   4 107.455 3.68344   2 
   0   4  -4 661.291 17.2846   2 
   0   4  -4 666.710 16.1477   1 
   0   4  -4 676.694 16.0210   1 
   0  -4   4 688.908 17.3251   3 
   0  -4   4 668.700 16.9470   2 
  -1   4  -4 85.0052 2.82499   1 
  -1   4  -4 80.3465 3.37235   2 
   1  -4   4 74.7028 2.99793   2 
   1  -4   4 81.5580 3.30467   3 
  -2   4  -4 103.356 3.98921   2 
  -2   4  -4 100.907 3.74329   1 
   2  -4   4 106.629 3.74906   3 
   2  -4   4 100.734 3.65932   2 
  -3   4  -4 117.677 4.20344   3 
  -3   4  -4 114.645 4.44895   2 
  -3   4  -4 109.609 4.48404   1 
   3  -4   4 119.986 3.90519   3 
   3  -4   4 109.210 3.95404   2 
  -4   4  -4 10.7135 1.65035   2 
  -4   4  -4 8.89695 1.85185   1 
  -4   4  -4 12.9776 1.64260   3 
   4  -4   4 10.8509 1.23064   3 
   4  -4   4 11.6776 1.47554   2 
  -5   4  -4 59.7989 3.41368   3 
  -5   4  -4 65.4016 4.52952   1 
  -5   4  -4 67.8175 3.85548   2 
   5  -4   4 62.6321 3.09191   2 
   5  -4   4 65.5266 2.82154   3 
  -6   4  -4 58.6786 5.37755   1 
  -6   4  -4 44.5684 4.08499   2 
  -6   4  -4 44.8300 3.67233   3 
   6  -4   4 53.6348 2.74502   3 
   6  -4   4 51.9089 3.43223   2 
  -7  -3   4 8.43445 2.29364   1 
  -7  -3   4 7.44440 1.84536   3 
  -6  -3   4 0.03193 0.87697   2 
  -6  -3   4 0.95502 0.61681   2 
  -6  -3   4 -0.1356 1.31149   3 
  -6  -3   4 2.84214 1.49794   1 
   5   3  -4 215.293 7.14550   1 
  -5  -3   4 225.028 6.80551   1 
  -5  -3   4 221.960 5.97716   2 
   4   3  -4 25.4737 1.85985   2 
   4   3  -4 25.9658 1.99771   1 
  -4  -3   4 24.9842 1.49804   2 
  -4  -3   4 22.8715 1.69087   1 
  -4  -3   4 24.5105 2.01582   3 
   3   3  -4 70.4656 2.54035   1 
   3   3  -4 68.5917 2.78487   2 
  -3  -3   4 69.4707 2.31027   1 
  -3  -3   4 66.1770 3.00825   3 
  -3  -3   4 68.0669 2.51336   2 
   2   3  -4 154.566 4.76657   2 
  -2  -3   4 155.983 3.84366   1 
  -2  -3   4 150.509 4.50407   2 
  -2  -3   4 153.863 5.03760   3 
   1   3  -4 723.565 18.3504   2 
  -1  -3   4 742.031 18.1383   2 
  -1  -3   4 740.505 18.5379   3 
   0   3  -4 11.3946 0.74954   1 
   0   3  -4 11.9898 0.70563   1 
   0   3  -4 13.4448 1.23253   2 
   0  -3   4 13.3094 1.40069   3 
   0  -3   4 11.2541 1.09367   2 
  -1   3  -4 11.9755 1.25503   2 
  -1   3  -4 12.7356 1.09730   1 
   1  -3   4 11.0370 1.08312   2 
   1  -3   4 9.94956 1.08156   3 
  -2   3  -4 85.7353 3.29720   1 
  -2   3  -4 82.6214 3.22110   2 
   2  -3   4 87.5983 2.96635   3 
   2  -3   4 86.4290 3.00756   2 
  -3   3  -4 56.4527 2.65514   2 
  -3   3  -4 53.9655 2.96336   1 
  -3   3  -4 55.4354 2.40060   3 
   3  -3   4 56.4769 2.13294   3 
   3  -3   4 54.5739 2.34664   2 
  -4   3  -4 86.9701 3.52158   2 
  -4   3  -4 83.5476 3.12653   3 
  -4   3  -4 82.8304 4.12696   1 
   4  -3   4 78.6392 3.10108   2 
   4  -3   4 85.7175 2.76143   3 
  -5   3  -4 190.149 7.15564   1 
  -5   3  -4 180.873 6.10671   2 
  -5   3  -4 190.218 5.71082   3 
   5  -3   4 186.285 5.77603   2 
   5  -3   4 190.732 5.28888   3 
  -6   3  -4 133.724 4.65383   3 
  -6   3  -4 133.706 5.97989   2 
  -6   3  -4 128.069 6.49494   1 
   6  -3   4 134.916 4.28895   3 
   6  -3   4 130.369 4.93583   2 
   7   2  -4 4.38688 2.53760   1 
   7   2  -4 5.06509 2.31177   3 
  -7  -2   4 3.83384 1.66887   3 
  -7  -2   4 1.76704 2.06552   1 
   6   2  -4 65.9804 4.13764   3 
   6   2  -4 62.9370 4.36720   1 
  -6  -2   4 68.6048 3.38609   3 
  -6  -2   4 58.4985 3.89187   1 
   5   2  -4 447.548 12.7779   3 
   5   2  -4 447.247 12.6881   1 
  -5  -2   4 456.794 10.8456   2 
  -5  -2   4 448.010 12.2664   1 
  -5  -2   4 442.567 12.2024   3 
   4   2  -4 42.1971 2.70296   3 
   4   2  -4 44.6743 2.52319   1 
  -4  -2   4 39.1637 2.18053   1 
  -4  -2   4 42.6319 1.54500   2 
  -4  -2   4 46.3563 2.37336   3 
   3   2  -4 507.909 12.8057   1 
   3   2  -4 507.872 12.5145   2 
   3   2  -4 486.641 13.2823   3 
  -3  -2   4 489.386 12.9934   3 
  -3  -2   4 502.552 12.2433   2 
  -3  -2   4 499.097 12.5591   1 
   2   2  -4 332.403 8.27728   1 
   2   2  -4 315.811 8.40609   2 
   2   2  -4 313.219 8.95935   3 
  -2  -2   4 331.340 8.80000   3 
  -2  -2   4 329.618 8.10323   1 
  -2  -2   4 325.069 8.21251   2 
   1   2  -4 279.101 7.65627   2 
   1   2  -4 284.104 7.14004   1 
  -1  -2   4 301.449 7.53588   2 
  -1  -2   4 298.937 7.90818   3 
  -1  -2   4 292.453 7.15552   1 
   0   2  -4 365.376 9.64631   2 
   0   2  -4 385.299 9.22590   1 
   0  -2   4 366.869 9.53368   2 
   0  -2   4 391.548 9.71182   3 
  -1   2  -4 161.883 4.66479   2 
  -1   2  -4 155.988 4.63899   1 
   1  -2   4 162.959 4.53887   2 
   1  -2   4 159.322 4.52755   3 
  -2   2  -4 144.724 4.62548   1 
  -2   2  -4 138.488 4.25678   2 
   2  -2   4 145.604 3.94342   3 
   2  -2   4 140.456 4.14090   2 
  -3   2  -4 35.1534 2.33545   1 
  -3   2  -4 36.2480 1.81024   2 
  -3   2  -4 34.6070 1.51931   3 
   3  -2   4 35.5576 1.30631   3 
   3  -2   4 32.6960 1.63404   2 
  -4   2  -4 107.123 3.67808   2 
  -4   2  -4 107.341 3.27895   3 
  -4   2  -4 104.265 4.52664   1 
   4  -2   4 108.836 3.56208   2 
   4  -2   4 103.681 3.00654   3 
  -5   2  -4 1.56129 0.74012   3 
  -5   2  -4 0.37215 0.80178   2 
   5  -2   4 0.58613 0.57542   3 
   5  -2   4 0.26989 0.86140   2 
  -6   2  -4 151.783 5.12712   2 
  -6   2  -4 150.146 4.66693   3 
  -6   2  -4 154.623 6.79949   1 
   6  -2   4 144.059 5.13721   2 
   6  -2   4 149.299 4.54056   3 
  -7   2  -4 27.7981 3.67628   1 
  -7   2  -4 26.6733 2.50906   2 
  -7   2  -4 24.7148 2.57161   3 
   7  -2   4 25.7928 2.49266   2 
   7  -2   4 30.7702 2.48650   3 
   7   1  -4 21.8764 3.37824   1 
   7   1  -4 37.9630 4.19512   3 
  -7  -1   4 25.3119 3.16180   1 
  -7  -1   4 30.8399 3.04934   3 
   6   1  -4 35.3367 3.90157   1 
   6   1  -4 35.0446 3.21903   3 
  -6  -1   4 42.7772 2.72676   3 
  -6  -1   4 33.9777 3.26021   1 
   5   1  -4 -1.3455 1.07400   1 
   5   1  -4 -0.6452 0.95248   3 
  -5  -1   4 -0.3687 0.81726   3 
  -5  -1   4 -0.7762 1.08625   1 
   4   1  -4 300.890 8.88418   1 
   4   1  -4 298.048 8.82014   3 
  -4  -1   4 307.316 8.43971   3 
  -4  -1   4 309.851 8.61814   1 
   3   1  -4 17.9309 1.53185   3 
   3   1  -4 16.8999 0.93224   2 
   3   1  -4 17.6256 1.49548   1 
  -3  -1   4 15.6660 1.30266   3 
  -3  -1   4 17.5812 0.73730   2 
  -3  -1   4 15.5738 1.36226   1 
   2   1  -4 133.054 3.62952   2 
   2   1  -4 122.844 4.13978   3 
   2   1  -4 131.332 3.93743   1 
  -2  -1   4 131.165 4.03356   3 
  -2  -1   4 135.998 3.48857   2 
  -2  -1   4 136.473 3.83441   1 
   1   1  -4 31.6536 1.29261   2 
   1   1  -4 33.7739 1.56230   3 
   1   1  -4 31.3407 1.26504   1 
  -1  -1   4 32.2629 1.21646   2 
  -1  -1   4 32.7782 1.22285   1 
  -1  -1   4 34.4891 1.49331   3 
   0   1  -4 354.880 8.60767   1 
   0   1  -4 354.281 8.75015   2 
   0   1  -4 352.824 8.84552   3 
   0  -1   4 351.277 8.78232   1 
   0  -1   4 328.342 8.64187   2 
   0  -1   4 349.487 8.74762   3 
  -1   1  -4 155.573 4.62040   1 
  -1   1  -4 159.349 4.39238   2 
   1  -1   4 166.641 4.38454   2 
   1  -1   4 159.788 4.16011   3 
  -2   1  -4 5.07311 0.90460   1 
  -2   1  -4 5.94824 0.65540   2 
   2  -1   4 5.85155 0.45646   3 
   2  -1   4 5.19049 0.41016   3 
   2  -1   4 6.29940 0.69296   2 
  -3   1  -4 103.002 4.02583   1 
  -3   1  -4 100.401 3.22516   2 
   3  -1   4 106.813 3.26856   2 
   3  -1   4 104.700 2.60838   3 
  -4   1  -4 1.94399 0.60420   2 
  -4   1  -4 2.47077 0.44654   3 
  -4   1  -4 0.94149 0.97445   1 
   4  -1   4 2.92850 0.69732   2 
   4  -1   4 1.87098 0.37749   3 
  -5   1  -4 56.6433 2.45501   2 
  -5   1  -4 60.4174 2.06902   3 
  -5   1  -4 54.7231 3.62225   1 
   5  -1   4 57.2692 2.06139   3 
   5  -1   4 57.0083 2.64465   2 
  -6   1  -4 68.5691 4.46639   1 
  -6   1  -4 67.7193 2.53064   3 
  -6   1  -4 65.1514 2.86504   2 
   6  -1   4 68.2047 2.57971   3 
   6  -1   4 62.4022 3.09940   2 
  -7   1  -4 64.2536 5.34453   1 
  -7   1  -4 65.4536 2.83681   3 
  -7   1  -4 64.9218 3.24041   2 
   7  -1   4 68.9880 3.73693   2 
   7   0  -4 14.9989 3.32389   1 
   7   0  -4 14.9335 2.69472   3 
  -7   0   4 15.4960 2.86166   1 
  -7   0   4 15.4193 2.19696   3 
   6   0  -4 47.5134 3.34347   3 
   6   0  -4 40.7075 3.90706   1 
  -6   0   4 43.1168 3.67794   1 
  -6   0   4 44.7055 2.90977   3 
   5   0  -4 5.88258 1.29168   3 
   5   0  -4 6.14336 1.59977   1 
  -5   0   4 7.01364 1.56402   1 
  -5   0   4 7.65330 1.29372   3 
   4   0  -4 471.478 12.9757   1 
   4   0  -4 474.195 12.6106   3 
  -4   0   4 482.751 12.7208   1 
  -4   0   4 457.229 12.2875   3 
   3   0  -4 45.4943 2.36220   1 
   3   0  -4 43.5494 2.13768   3 
  -3   0   4 48.3031 2.24702   1 
  -3   0   4 47.1588 2.05268   3 
   2   0  -4 412.534 10.5912   1 
   2   0  -4 404.945 9.80691   2 
   2   0  -4 411.146 10.5455   3 
  -2   0   4 418.952 9.84995   2 
  -2   0   4 410.403 10.4824   1 
  -2   0   4 392.300 10.3873   3 
   1   0  -4 231.395 6.11705   1 
   1   0  -4 229.527 5.76072   2 
   1   0  -4 233.327 6.14810   3 
  -1   0   4 222.679 6.02446   1 
  -1   0   4 235.894 5.82231   2 
  -1   0   4 236.105 6.08651   3 
   0   0  -4 280.279 7.25678   3 
   0   0  -4 294.242 7.31922   1 
   0   0  -4 300.604 7.21865   2 
   0   0   4 294.505 7.22733   3 
   0   0   4 280.348 7.37079   1 
   0   0   4 286.058 7.24627   2 
  -1   0  -4 698.530 17.3692   2 
  -1   0  -4 727.438 17.7276   1 
  -1   0  -4 736.891 17.1493   3 
   1   0   4 699.050 17.8935   1 
   1   0   4 717.359 17.0978   3 
   1   0   4 754.054 17.4958   2 
  -2   0  -4 375.786 9.78808   2 
   2   0   4 407.416 9.95841   2 
  -3   0  -4 939.078 23.4351   1 
  -3   0  -4 938.686 22.4264   2 
   3   0   4 908.593 22.5781   2 
  -4   0  -4 26.0040 0.91940   3 
  -4   0  -4 24.4159 1.35020   2 
  -4   0  -4 26.6110 2.32576   1 
   4   0   4 26.6381 1.60727   2 
  -5   0  -4 41.0596 3.12199   1 
  -5   0  -4 41.5992 1.51529   3 
  -5   0  -4 40.2570 1.91338   2 
   5   0   4 44.3053 2.31056   2 
  -6   0  -4 65.2138 2.66665   2 
  -6   0  -4 60.8712 4.27900   1 
  -6   0  -4 67.0938 2.32863   3 
   6   0   4 66.1402 3.24029   2 
  -7   0  -4 82.5052 3.02214   3 
  -7   0  -4 80.4450 3.29156   2 
  -7   0  -4 90.2061 5.73266   1 
   7   0   4 83.1505 4.12800   2 
  -8   0  -4 0.72964 1.26593   3 
  -8   0  -4 1.17536 1.34093   2 
  -8   0  -4 -2.5464 3.04657   1 
   7  -1  -4 6.81186 2.53195   3 
   7  -1  -4 9.58873 3.53002   1 
  -7   1   4 9.80699 2.76750   1 
  -7   1   4 13.0022 2.26306   3 
   6  -1  -4 65.5524 3.78682   3 
   6  -1  -4 57.4776 4.65921   1 
  -6   1   4 66.3390 4.30158   1 
  -6   1   4 59.3932 3.40025   3 
   5  -1  -4 255.394 10.1463   1 
   5  -1  -4 267.170 7.90465   3 
  -5   1   4 232.921 10.2664   1 
  -5   1   4 263.191 7.71844   3 
   4  -1  -4 395.133 10.7443   3 
   4  -1  -4 398.295 11.4300   1 
  -4   1   4 386.363 10.6035   3 
  -4   1   4 399.944 11.0996   1 
   3  -1  -4 1.94817 0.82837   1 
   3  -1  -4 2.89577 0.74560   3 
  -3   1   4 1.47712 0.55539   3 
  -3   1   4 1.53958 0.78287   1 
   2  -1  -4 0.74453 0.50302   1 
   2  -1  -4 0.34424 0.20702   2 
   2  -1  -4 0.14717 0.39006   3 
  -2   1   4 1.01502 0.63333   1 
  -2   1   4 0.90292 0.45329   3 
   1  -1  -4 135.361 3.95229   3 
   1  -1  -4 142.526 3.70519   2 
   1  -1  -4 137.228 4.10674   1 
  -1   1   4 140.558 4.01785   3 
  -1   1   4 140.069 3.82840   2 
  -1   1   4 142.065 4.06735   1 
   0  -1  -4 895.563 22.0384   1 
   0  -1  -4 913.636 21.9150   2 
   0  -1  -4 906.162 21.9009   3 
   0   1   4 918.443 21.9589   3 
   0   1   4 933.958 22.0348   2 
   0   1   4 925.220 22.1037   1 
  -1  -1  -4 25.5350 1.28727   1 
  -1  -1  -4 26.9404 1.01489   3 
  -1  -1  -4 27.2283 1.21771   2 
   1   1   4 28.8436 1.49891   1 
   1   1   4 26.2713 1.08502   3 
   1   1   4 28.0202 1.34165   2 
  -2  -1  -4 1623.58 40.2514   2 
  -2  -1  -4 1725.45 40.8972   1 
  -2  -1  -4 1736.15 40.2255   3 
   2   1   4 1634.75 40.4433   2 
   2   1   4 1755.03 40.1165   3 
  -3  -1  -4 759.152 18.8696   2 
  -3  -1  -4 799.713 18.4306   3 
  -3  -1  -4 773.404 18.4326   3 
   3   1   4 764.367 19.1438   2 
  -4  -1  -4 23.7996 1.38675   2 
  -4  -1  -4 25.4872 1.02707   3 
  -4  -1  -4 24.2350 1.22209   3 
  -4  -1  -4 22.6628 2.21186   1 
   4   1   4 24.6247 1.73924   2 
  -5  -1  -4 5.89394 0.85790   2 
  -5  -1  -4 6.18546 0.63965   3 
  -5  -1  -4 6.27625 1.59357   1 
   5   1   4 7.15586 1.21641   2 
  -6  -1  -4 180.148 5.38170   2 
  -6  -1  -4 186.811 5.05048   3 
  -6  -1  -4 188.200 7.22194   1 
   6   1   4 185.224 6.10184   2 
  -7  -1  -4 1.11689 0.73168   3 
  -7  -1  -4 2.64854 1.02468   2 
  -7  -1  -4 -0.7685 2.23412   1 
  -8  -1  -4 41.6673 2.69058   2 
  -8  -1  -4 43.7407 2.52416   3 
  -8  -1  -4 43.4462 4.41031   1 
   7  -2  -4 44.0756 4.95818   1 
   7  -2  -4 46.3706 4.42207   3 
  -7   2   4 47.0934 5.20933   1 
  -7   2   4 43.5679 3.99632   3 
   6  -2  -4 103.234 4.79788   3 
   6  -2  -4 106.682 6.01174   1 
  -6   2   4 102.050 5.53570   1 
  -6   2   4 102.357 4.72016   3 
   5  -2  -4 131.719 5.90216   1 
   5  -2  -4 137.855 5.59403   3 
  -5   2   4 135.752 5.50657   1 
  -5   2   4 116.269 6.84832   3 
   4  -2  -4 29.0076 2.69946   1 
   4  -2  -4 30.9040 2.01604   3 
  -4   2   4 31.3988 2.50649   1 
  -4   2   4 31.6366 2.18022   3 
   3  -2  -4 26.7666 1.09224   2 
   3  -2  -4 29.3390 1.77815   3 
   3  -2  -4 27.2462 2.13300   1 
   3  -2  -4 28.6451 1.17205   2 
  -3   2   4 24.4806 1.73263   3 
  -3   2   4 28.4830 2.03936   1 
   2  -2  -4 717.949 17.6907   3 
   2  -2  -4 715.892 17.2473   2 
   2  -2  -4 717.357 18.1143   1 
   2  -2  -4 725.085 17.2904   2 
  -2   2   4 703.958 17.9112   1 
  -2   2   4 694.950 17.7903   3 
   1  -2  -4 38.6813 1.84882   1 
   1  -2  -4 35.2230 1.64441   3 
   1  -2  -4 38.4624 1.59077   2 
  -1   2   4 39.5368 1.82669   3 
  -1   2   4 36.2993 1.72086   1 
   0  -2  -4 48.1596 1.92274   2 
   0  -2  -4 48.8558 1.91331   1 
   0  -2  -4 46.1807 1.82937   3 
   0   2   4 47.4084 1.90154   1 
   0   2   4 50.4517 1.95388   3 
  -1  -2  -4 521.869 13.1276   3 
  -1  -2  -4 543.076 13.3484   2 
  -1  -2  -4 495.334 13.2523   1 
   1   2   4 557.397 13.5273   1 
   1   2   4 545.444 13.2670   3 
  -2  -2  -4 711.535 18.4816   2 
  -2  -2  -4 759.900 18.2404   3 
  -2  -2  -4 754.680 18.7111   1 
   2   2   4 767.023 18.3188   3 
   2   2   4 759.560 19.0652   1 
  -3  -2  -4 916.698 23.6237   1 
  -3  -2  -4 962.415 22.7302   3 
  -3  -2  -4 943.508 23.0115   2 
  -4  -2  -4 413.524 10.7934   2 
  -4  -2  -4 423.463 10.6036   3 
  -4  -2  -4 410.128 10.5119   3 
  -5  -2  -4 259.846 6.83282   3 
  -5  -2  -4 255.336 8.44706   1 
  -5  -2  -4 251.866 7.04479   3 
  -5  -2  -4 252.858 7.07620   2 
  -6  -2  -4 142.896 6.27988   1 
  -6  -2  -4 144.422 4.53955   2 
  -6  -2  -4 140.507 4.25472   3 
  -6  -2  -4 145.741 4.76123   3 
  -7  -2  -4 20.5319 1.86395   2 
  -7  -2  -4 15.3721 2.86479   1 
  -7  -2  -4 17.8300 1.68632   3 
  -8  -2  -4 82.0219 6.70620   1 
  -8  -2  -4 78.8343 3.44439   2 
  -8  -2  -4 72.3190 3.27311   3 
   6  -3  -4 5.71595 1.98391   3 
   6  -3  -4 5.41288 2.55502   1 
  -6   3   4 2.42489 1.94180   3 
  -6   3   4 2.15399 2.09806   1 
   5  -3  -4 38.3997 2.73583   3 
   5  -3  -4 37.4257 3.90640   1 
  -5   3   4 39.7288 3.41540   1 
  -5   3   4 37.1358 3.12729   3 
   4  -3  -4 -0.1509 0.91265   3 
   4  -3  -4 0.60758 0.41749   2 
   4  -3  -4 -1.1002 1.52210   1 
  -4   3   4 -0.0928 1.10270   3 
  -4   3   4 1.08117 1.35999   1 
   3  -3  -4 0.06275 0.46481   2 
   3  -3  -4 1.28638 1.01500   1 
   3  -3  -4 1.03665 0.89661   3 
  -3   3   4 1.69269 0.94069   1 
  -3   3   4 -0.0728 0.80849   3 
   2  -3  -4 1217.95 29.8957   1 
   2  -3  -4 1160.43 29.3672   3 
   2  -3  -4 1204.48 29.0864   2 
  -2   3   4 1222.30 29.6864   3 
  -2   3   4 1226.23 29.6439   1 
   1  -3  -4 327.000 8.92222   1 
   1  -3  -4 334.651 8.69530   2 
   1  -3  -4 321.694 8.71474   3 
  -1   3   4 330.193 8.77798   1 
  -1   3   4 312.764 8.89300   3 
   0  -3  -4 63.0199 2.42244   1 
   0  -3  -4 62.4972 2.44072   3 
   0   3   4 58.9881 2.32095   1 
   0   3   4 60.0574 2.54629   3 
  -1  -3  -4 6.74290 0.88920   3 
  -1  -3  -4 6.61397 0.80314   1 
   1   3   4 5.25167 0.71822   1 
   1   3   4 6.66673 0.95518   3 
  -2  -3  -4 593.000 14.8007   3 
  -2  -3  -4 600.949 14.8952   1 
  -2  -3  -4 563.402 14.9796   2 
   2   3   4 575.836 15.2593   1 
   2   3   4 608.307 14.9345   3 
  -3  -3  -4 41.8119 2.23218   1 
  -3  -3  -4 42.7729 2.01852   3 
  -3  -3  -4 38.9122 2.10610   2 
  -4  -3  -4 120.966 4.10982   3 
  -4  -3  -4 127.498 4.80703   1 
  -4  -3  -4 124.150 4.25808   2 
  -5  -3  -4 268.488 8.89729   1 
  -5  -3  -4 276.939 7.67239   3 
  -5  -3  -4 271.135 7.78229   2 
  -5  -3  -4 270.096 7.77498   3 
  -5  -3  -4 277.854 8.88440   1 
  -6  -3  -4 8.74858 2.12328   1 
  -6  -3  -4 7.40819 1.35173   2 
  -6  -3  -4 7.31273 1.45747   3 
  -6  -3  -4 8.10998 1.24141   3 
  -7  -3  -4 24.2336 2.29779   2 
  -7  -3  -4 24.2872 3.54629   1 
  -7  -3  -4 22.5072 2.42284   3 
  -7  -3  -4 18.0891 2.00703   3 
  -8  -3  -4 1.75426 2.23982   3 
  -8  -3  -4 -1.7237 1.45272   2 
  -8  -3  -4 1.48490 1.30416   3 
  -8  -3  -4 1.67835 3.10763   1 
   6  -4  -4 6.67742 3.04248   1 
   6  -4  -4 2.72384 1.87210   3 
  -6   4   4 6.78306 2.64175   1 
  -6   4   4 7.08207 2.45170   3 
   5  -4  -4 109.088 3.25301   2 
   5  -4  -4 113.662 4.85052   3 
   5  -4  -4 112.301 6.23142   1 
  -5   4   4 115.284 5.45774   1 
  -5   4   4 114.951 5.47402   3 
   4  -4  -4 35.4660 1.78484   2 
   4  -4  -4 32.0913 3.43296   1 
   4  -4  -4 38.5043 2.75609   3 
  -4   4   4 37.8079 3.11750   3 
  -4   4   4 34.3516 3.18988   1 
   3  -4  -4 24.3488 2.10669   3 
   3  -4  -4 30.6811 2.72689   1 
   3  -4  -4 25.6355 1.70676   2 
  -3   4   4 25.7254 2.39243   3 
  -3   4   4 26.6103 2.44247   1 
   2  -4  -4 -0.0737 0.82390   3 
   2  -4  -4 -0.6303 0.81740   1 
   2  -4  -4 0.06776 0.69983   2 
  -2   4   4 1.77744 0.85112   3 
  -2   4   4 1.17437 0.89666   1 
   1  -4  -4 154.833 4.96839   2 
   1  -4  -4 154.031 5.03002   3 
   1  -4  -4 158.573 5.18181   1 
  -1   4   4 160.492 5.00430   1 
  -1   4   4 159.211 5.34525   3 
   0  -4  -4 37.9450 2.19002   2 
   0  -4  -4 38.3642 2.08486   3 
   0  -4  -4 38.7233 1.98031   1 
   0   4   4 37.5240 1.89131   1 
   0   4   4 35.5204 2.21392   3 
  -1  -4  -4 70.4585 3.00444   2 
  -1  -4  -4 70.8483 2.91041   3 
  -1  -4  -4 72.4507 2.67512   1 
   1   4   4 69.5364 3.06593   3 
   1   4   4 68.5657 2.77411   1 
  -2  -4  -4 56.1316 2.35220   1 
  -2  -4  -4 57.1037 2.63272   3 
   2   4   4 58.0857 2.76219   3 
   2   4   4 58.0258 2.76425   1 
  -3  -4  -4 26.7134 1.78405   1 
  -3  -4  -4 24.7785 1.94185   3 
  -3  -4  -4 23.0614 1.94222   2 
  -4  -4  -4 1140.67 28.5596   2 
  -4  -4  -4 1162.37 28.4254   3 
  -4  -4  -4 1143.98 28.7510   1 
  -5  -4  -4 13.9962 1.76802   3 
  -5  -4  -4 18.5254 1.83932   3 
  -5  -4  -4 14.1153 1.71426   2 
  -5  -4  -4 17.2231 2.25400   1 
  -6  -4  -4 49.5451 3.34464   3 
  -6  -4  -4 56.8888 3.14797   2 
  -6  -4  -4 48.1989 3.80628   1 
  -6  -4  -4 53.1934 4.41961   1 
  -6  -4  -4 53.5298 3.11898   3 
  -7  -4  -4 53.9442 4.76664   1 
  -7  -4  -4 48.4505 3.10017   3 
  -7  -4  -4 56.8845 5.20076   1 
  -7  -4  -4 49.2022 3.88450   2 
  -7  -4  -4 55.0652 3.90959   3 
  -8  -4  -4 60.2144 6.45643   1 
  -8  -4  -4 59.0760 3.64325   2 
  -8  -4  -4 59.4931 5.03619   2 
  -8  -4  -4 62.0597 3.63563   3 
  -8  -4  -4 60.7456 6.08468   1 
  -8  -4  -4 56.9842 5.00225   3 
   5  -5  -4 5.01653 1.09378   2 
   5  -5  -4 1.89455 1.84673   3 
   5  -5  -4 8.43356 2.85073   1 
  -5   5   4 3.57187 2.25353   1 
  -5   5   4 5.02797 2.41330   3 
   4  -5  -4 18.2056 2.35558   3 
   4  -5  -4 19.0195 1.90984   2 
   4  -5  -4 18.1754 2.90224   1 
  -4   5   4 16.5025 2.51959   3 
  -4   5   4 19.9477 2.70159   1 
   3  -5  -4 -0.0258 1.09675   3 
   3  -5  -4 0.18934 0.94381   2 
   3  -5  -4 2.15797 1.39026   1 
  -3   5   4 1.99587 1.35282   3 
  -3   5   4 1.71270 1.23657   1 
   2  -5  -4 12.2746 1.59248   2 
   2  -5  -4 8.57067 1.38310   3 
   2  -5  -4 10.8505 1.63458   1 
  -2   5   4 9.30356 1.40127   1 
  -2   5   4 10.9045 1.76355   3 
   1  -5  -4 178.844 5.87371   2 
   1  -5  -4 185.229 5.97311   3 
   1  -5  -4 175.240 6.01417   1 
  -1   5   4 186.035 5.78931   1 
  -1   5   4 186.763 6.37681   3 
   0  -5  -4 65.4256 3.02762   3 
   0  -5  -4 59.3150 3.00846   2 
   0  -5  -4 58.8364 2.75465   1 
   0   5   4 59.4166 3.18496   3 
   0   5   4 58.6586 2.65417   1 
  -1  -5  -4 1.99221 0.92051   3 
  -1  -5  -4 3.18472 1.11618   2 
  -1  -5  -4 0.93558 0.64820   1 
   1   5   4 1.57954 0.80012   1 
   1   5   4 1.09927 0.89449   3 
  -2  -5  -4 78.5155 3.47880   3 
  -2  -5  -4 75.1502 2.95657   1 
  -2  -5  -4 77.0115 3.61562   2 
   2   5   4 76.0207 3.34837   1 
   2   5   4 80.9852 3.67293   3 
  -3  -5  -4 187.539 6.30663   3 
  -3  -5  -4 198.395 5.92712   1 
  -3  -5  -4 192.517 6.47200   2 
   3   5   4 193.027 6.62979   1 
  -4  -5  -4 3.79576 1.12404   1 
  -4  -5  -4 2.60537 1.21111   2 
  -4  -5  -4 1.50594 1.20303   2 
  -4  -5  -4 0.22909 1.09799   3 
  -5  -5  -4 8.07695 1.68381   2 
  -5  -5  -4 13.8905 1.91556   2 
  -5  -5  -4 9.87208 1.65716   1 
  -5  -5  -4 12.4469 1.89605   3 
  -6  -5  -4 5.65024 1.65801   2 
  -6  -5  -4 3.94933 1.90780   3 
  -6  -5  -4 2.20356 1.62978   1 
  -6  -5  -4 4.67945 1.76720   2 
  -6  -5  -4 6.00547 2.20463   1 
  -6  -5  -4 4.83093 1.68265   3 
  -7  -5  -4 3.81552 3.22799   3 
  -7  -5  -4 2.23009 2.33486   1 
  -7  -5  -4 6.84897 1.89966   2 
  -7  -5  -4 6.01055 2.91603   1 
  -7  -5  -4 2.95047 2.05229   2 
   4  -6  -4 41.3000 3.84540   3 
   4  -6  -4 35.8054 3.98834   1 
   4  -6  -4 41.9990 2.92500   2 
  -4   6   4 43.2149 4.17783   1 
  -4   6   4 39.7314 3.93290   3 
   3  -6  -4 7.10638 1.88557   3 
   3  -6  -4 9.71550 1.57770   2 
   3  -6  -4 8.28779 2.34663   1 
  -3   6   4 7.23280 2.44044   3 
  -3   6   4 9.88097 2.02562   1 
   2  -6  -4 293.840 8.72732   2 
   2  -6  -4 300.199 9.01971   3 
   2  -6  -4 289.634 9.43264   1 
  -2   6   4 272.746 9.51166   3 
  -2   6   4 298.175 8.87664   1 
   1  -6  -4 66.8501 3.46570   3 
   1  -6  -4 66.7761 3.58167   2 
   1  -6  -4 71.4890 3.67606   1 
  -1   6   4 69.4178 3.33259   1 
  -1   6   4 70.8039 3.98529   3 
   0  -6  -4 75.6946 3.35050   1 
   0  -6  -4 64.7528 4.08305   3 
   0  -6  -4 70.9750 3.60555   2 
   0   6   4 65.8085 3.98545   3 
   0   6   4 66.7256 3.08691   1 
  -1  -6  -4 18.5151 1.94416   2 
  -1  -6  -4 23.6391 1.92863   1 
  -1  -6  -4 22.1704 2.31283   3 
   1   6   4 27.1084 2.10881   1 
   1   6   4 24.0581 2.48637   3 
  -2  -6  -4 2.38369 1.21974   2 
  -2  -6  -4 3.62676 0.92370   1 
  -2  -6  -4 2.05825 1.20488   3 
   2   6   4 2.40244 1.12685   1 
   2   6   4 3.99359 1.44832   3 
  -3  -6  -4 258.944 7.43440   1 
  -3  -6  -4 247.069 8.91542   2 
  -3  -6  -4 260.242 8.26499   3 
   3   6   4 260.078 8.30335   1 
  -4  -6  -4 731.635 19.5557   3 
  -4  -6  -4 740.730 19.7646   2 
  -4  -6  -4 733.487 18.8747   1 
  -5  -6  -4 1334.78 33.5353   2 
  -5  -6  -4 1296.83 32.7814   1 
  -5  -6  -4 1325.11 33.4131   2 
  -6  -6  -4 26.2396 3.30098   1 
  -6  -6  -4 36.7049 3.82100   3 
  -6  -6  -4 24.8491 2.88691   2 
  -6  -6  -4 32.6122 3.27231   1 
  -6  -6  -4 33.9915 3.39143   3 
  -6  -6  -4 29.1392 2.99476   2 
  -7  -6  -4 8.36105 2.84782   3 
  -7  -6  -4 3.45893 2.29244   3 
  -7  -6  -4 4.36265 2.56239   2 
  -7  -6  -4 5.25464 2.46658   2 
  -7  -6  -4 7.29501 3.15184   1 
  -7  -6  -4 4.21688 2.28851   1 
   3  -7  -4 5.69218 2.04556   2 
   3  -7  -4 1.09608 2.66896   1 
   3  -7  -4 4.44502 2.19469   3 
  -3   7   4 2.45012 2.81273   3 
  -3   7   4 3.12674 1.94730   1 
   2  -7  -4 3.31573 2.10543   1 
   2  -7  -4 2.07717 1.67274   2 
   2  -7  -4 -0.9503 1.66860   3 
  -2   7   4 3.36189 2.63139   3 
  -2   7   4 2.86901 1.48581   1 
   1  -7  -4 233.816 7.84420   1 
   1  -7  -4 218.313 7.68889   2 
   1  -7  -4 227.373 7.78207   3 
  -1   7   4 217.650 7.21468   1 
  -1   7   4 227.182 8.47158   3 
   0  -7  -4 147.050 5.60312   1 
   0  -7  -4 139.731 5.80340   2 
   0  -7  -4 154.075 5.94026   3 
   0   7   4 150.007 5.38753   1 
   0   7   4 147.096 6.38217   3 
  -1  -7  -4 7.75686 1.52101   1 
  -1  -7  -4 3.02037 1.55089   3 
  -1  -7  -4 8.84023 1.84298   2 
   1   7   4 3.72558 1.35329   1 
   1   7   4 5.11920 1.82312   3 
  -2  -7  -4 29.5845 3.01101   2 
  -2  -7  -4 27.9555 2.27711   1 
  -2  -7  -4 26.1827 2.87677   3 
   2   7   4 32.5908 3.35015   3 
   2   7   4 32.9484 2.80059   1 
  -3  -7  -4 186.975 7.07294   3 
  -3  -7  -4 190.787 6.00636   1 
  -3  -7  -4 179.227 6.99050   2 
   3   7   4 189.315 6.89294   1 
  -4  -7  -4 10.3521 2.16381   2 
  -4  -7  -4 9.00374 1.52560   1 
  -4  -7  -4 12.4735 2.40242   3 
  -5  -7  -4 361.482 11.4207   2 
  -5  -7  -4 361.657 11.4403   3 
  -5  -7  -4 356.134 11.3808   2 
  -5  -7  -4 347.160 10.9936   1 
  -6  -7  -4 113.499 6.18669   2 
  -6  -7  -4 108.186 6.28502   3 
  -6  -7  -4 123.296 6.18716   2 
  -6  -7  -4 111.838 5.09674   1 
   2  -8  -4 21.0578 2.93431   3 
   2  -8  -4 18.2730 3.19823   1 
   2  -8  -4 14.2297 2.72268   2 
  -2   8   4 17.8315 3.48769   3 
   1  -8  -4 1.20563 2.11090   1 
   1  -8  -4 -0.3774 1.93664   3 
   1  -8  -4 -0.8883 2.11118   2 
  -1   8   4 -0.8137 1.59133   1 
  -1   8   4 3.94960 2.60354   3 
   0  -8  -4 26.8948 3.17377   2 
   0  -8  -4 25.2924 2.73063   1 
   0  -8  -4 22.1941 2.84480   3 
   0   8   4 27.1155 3.07886   1 
   0   8   4 22.1696 3.13606   3 
  -1  -8  -4 182.321 7.19678   2 
  -1  -8  -4 169.345 7.08727   1 
  -1  -8  -4 174.422 7.07696   3 
   1   8   4 172.769 7.78295   1 
   1   8   4 188.977 7.67877   3 
  -2  -8  -4 -0.4126 2.01547   3 
  -2  -8  -4 0.78315 1.47573   1 
  -2  -8  -4 0.25515 1.89723   2 
   2   8   4 2.19826 1.74544   1 
   2   8   4 3.70904 2.48238   3 
  -3  -8  -4 84.5932 5.00508   2 
  -3  -8  -4 84.1451 5.28190   3 
  -3  -8  -4 86.1103 3.96856   1 
   3   8   4 88.3664 4.96794   1 
  -4  -8  -4 108.483 5.96240   3 
  -4  -8  -4 97.9466 5.68934   2 
  -4  -8  -4 102.358 4.34652   1 
  -5  -8  -4 4.56487 1.58114   1 
  -5  -8  -4 7.57493 2.80792   3 
  -5  -8  -4 4.89709 2.65177   2 
  -1  -9  -4 17.5790 3.20528   3 
  -1  -9  -4 21.7047 3.41989   2 
  -1  -9  -4 19.7095 2.73456   1 
   1   9   4 7.42821 3.24089   3 
   1   9   4 16.2805 2.66358   1 
  -2  -9  -4 1.07689 2.47884   3 
  -2  -9  -4 -4.7727 2.53745   2 
  -2  -9  -4 4.55883 2.05503   1 
   2   9   4 1.77218 2.24158   1 
  -3  -9  -4 34.6086 3.67598   1 
  -3  -9  -4 37.2639 4.00821   3 
  -3  -9  -4 33.6443 3.92718   2 
   3   8  -5 8.21020 3.32538   2 
  -3  -8   5 9.04530 3.33363   3 
  -3  -8   5 2.42706 3.05708   3 
  -3  -8   5 5.37932 2.34581   2 
   2   8  -5 39.3410 4.36332   2 
  -2  -8   5 34.1011 4.14585   3 
  -2  -8   5 45.4077 3.97310   2 
  -2  -8   5 47.8689 5.43522   3 
   1   8  -5 39.8364 4.17507   2 
  -1  -8   5 35.4779 3.70596   2 
  -1  -8   5 35.4947 4.34510   3 
   0   8  -5 21.3701 3.77535   2 
   0  -8   5 20.5451 2.50792   2 
   0  -8   5 20.6571 3.39015   3 
  -5  -7   5 0.29423 2.68740   3 
  -5  -7   5 -0.0343 1.96298   2 
  -5  -7   5 5.80947 3.52278   3 
   4   7  -5 12.8491 3.02471   2 
  -4  -7   5 8.40573 2.46892   3 
  -4  -7   5 10.2292 3.29745   3 
  -4  -7   5 6.76678 1.90062   2 
   3   7  -5 37.7441 3.85263   2 
  -3  -7   5 33.9940 3.73627   3 
  -3  -7   5 33.1498 3.29786   2 
  -3  -7   5 34.4325 3.93771   3 
   2   7  -5 202.008 7.91917   2 
  -2  -7   5 204.637 8.18470   3 
  -2  -7   5 203.171 8.03892   3 
  -2  -7   5 203.523 7.06854   2 
   1   7  -5 526.282 15.0382   2 
  -1  -7   5 508.316 14.9329   3 
  -1  -7   5 482.845 13.9397   2 
   0   7  -5 25.0298 3.06167   2 
   0  -7   5 30.8097 2.93869   2 
   0  -7   5 31.6824 3.20324   3 
  -1   7  -5 185.648 7.66908   2 
  -1   7  -5 188.135 5.18095   1 
   1  -7   5 194.187 7.30299   3 
   1  -7   5 178.689 6.68944   2 
  -2   7  -5 129.546 6.62947   2 
  -2   7  -5 123.257 4.59271   1 
   2  -7   5 124.058 5.48720   2 
   2  -7   5 130.288 5.74833   3 
  -6  -6   5 128.370 6.35779   3 
  -6  -6   5 129.803 5.15822   2 
  -6  -6   5 120.499 4.19522   1 
  -6  -6   5 125.852 4.52279   1 
  -5  -6   5 -1.5200 1.38333   2 
  -5  -6   5 3.14170 2.23952   3 
   4   6  -5 101.731 5.19607   2 
  -4  -6   5 106.716 5.36452   3 
  -4  -6   5 97.3414 4.35613   2 
   3   6  -5 10.0126 1.97214   2 
  -3  -6   5 9.38765 1.96826   3 
  -3  -6   5 13.4491 2.43206   3 
  -3  -6   5 9.08114 1.59353   2 
   2   6  -5 31.2042 3.32053   2 
  -2  -6   5 27.3715 2.92047   3 
  -2  -6   5 32.7322 2.60036   2 
  -2  -6   5 36.9237 3.35264   3 
   1   6  -5 260.979 8.52506   2 
  -1  -6   5 241.308 9.52711   3 
  -1  -6   5 263.013 7.89727   2 
   0   6  -5 798.566 21.0193   2 
   0  -6   5 775.557 20.2180   2 
   0  -6   5 789.751 20.8928   3 
  -1   6  -5 130.843 3.98843   1 
  -1   6  -5 139.751 5.80985   2 
   1  -6   5 134.740 5.53722   3 
   1  -6   5 129.036 5.05927   2 
  -2   6  -5 204.138 6.49152   1 
  -2   6  -5 222.165 7.90864   2 
   2  -6   5 212.613 6.99478   2 
   2  -6   5 214.216 7.10042   3 
  -3   6  -5 18.8766 2.87496   2 
  -3   6  -5 22.8928 2.51450   1 
   3  -6   5 19.7789 2.30335   3 
   3  -6   5 15.2031 1.99442   2 
  -4   6  -5 86.2943 5.25854   1 
  -4   6  -5 90.6728 5.83758   2 
   4  -6   5 76.3757 4.44938   2 
   4  -6   5 85.6430 4.19914   3 
  -6  -5   5 21.5324 1.91719   2 
  -6  -5   5 17.1025 2.67418   3 
  -6  -5   5 19.4757 2.09029   1 
  -5  -5   5 35.8954 2.00779   1 
  -5  -5   5 32.3158 2.47680   2 
  -5  -5   5 27.9360 3.06925   3 
   4   5  -5 26.9132 2.52736   2 
  -4  -5   5 33.4485 3.23838   3 
  -4  -5   5 32.4027 1.35419   1 
  -4  -5   5 32.2682 2.38075   2 
  -4  -5   5 31.2286 1.15745   1 
   3   5  -5 1.32803 1.33984   2 
  -3  -5   5 0.10877 0.91627   2 
  -3  -5   5 -0.4699 1.20110   3 
   2   5  -5 82.6725 3.90613   2 
  -2  -5   5 76.5458 3.92631   3 
  -2  -5   5 83.8039 3.42233   2 
   1   5  -5 4.45733 1.37776   2 
  -1  -5   5 5.20755 1.62275   3 
  -1  -5   5 4.08602 1.04749   2 
   0   5  -5 10.5175 1.74299   2 
   0  -5   5 8.57957 1.24250   2 
   0  -5   5 7.65226 1.58237   3 
  -1   5  -5 161.520 4.56749   1 
   1  -5   5 125.488 6.29593   2 
   1  -5   5 166.382 5.56362   3 
  -2   5  -5 119.158 5.05189   2 
  -2   5  -5 127.339 4.34274   1 
   2  -5   5 117.152 4.42375   2 
   2  -5   5 120.015 4.55492   3 
  -3   5  -5 33.5194 3.17247   2 
  -3   5  -5 35.2158 2.95960   1 
   3  -5   5 37.2932 2.63806   2 
   3  -5   5 36.4536 2.57911   3 
  -4   5  -5 2.80184 1.94463   1 
  -4   5  -5 -2.2010 1.67011   2 
   4  -5   5 -0.0065 1.14910   3 
   4  -5   5 1.78363 1.37394   2 
  -5   5  -5 13.9175 2.91497   1 
  -5   5  -5 7.10260 2.44737   2 
   5  -5   5 17.7838 1.81785   3 
   5  -5   5 10.4269 1.96057   2 
  -7  -4   5 37.2734 3.37910   1 
  -7  -4   5 34.4486 2.56543   2 
  -7  -4   5 27.3545 2.98479   3 
  -7  -4   5 35.1377 2.04017   2 
  -6  -4   5 1.84193 0.92215   2 
  -6  -4   5 1.65174 1.58235   1 
  -6  -4   5 -0.4230 1.45917   3 
  -5  -4   5 0.34951 0.88081   2 
  -5  -4   5 0.07051 0.96979   1 
  -5  -4   5 0.28302 1.30580   3 
   4   4  -5 357.657 9.92678   2 
  -4  -4   5 348.277 8.99178   1 
  -4  -4   5 352.115 9.37236   2 
  -4  -4   5 338.872 10.4945   3 
   3   4  -5 19.1300 2.02415   2 
  -3  -4   5 17.1025 1.91897   3 
  -3  -4   5 19.7531 0.82189   1 
  -3  -4   5 19.0340 1.64567   2 
   2   4  -5 60.3265 2.97305   2 
  -2  -4   5 64.0020 2.69568   2 
  -2  -4   5 67.2436 3.25258   3 
   1   4  -5 117.953 4.32046   2 
  -1  -4   5 113.762 4.37139   3 
  -1  -4   5 118.770 3.96535   2 
   0   4  -5 81.0375 2.24200   1 
   0   4  -5 81.4730 3.42634   2 
   0   4  -5 79.7476 2.27410   1 
   0  -4   5 83.2367 3.52797   3 
   0  -4   5 81.3004 3.11249   2 
  -1   4  -5 18.1617 1.83803   2 
  -1   4  -5 14.7332 1.30551   1 
   1  -4   5 17.7744 1.70921   3 
   1  -4   5 16.8046 1.53790   2 
  -2   4  -5 314.639 8.73307   1 
  -2   4  -5 323.350 9.18013   2 
   2  -4   5 300.739 8.59380   3 
   2  -4   5 310.472 8.65089   2 
  -3   4  -5 55.7513 3.16956   2 
  -3   4  -5 50.0373 3.10527   1 
   3  -4   5 50.1829 2.43803   3 
   3  -4   5 51.0788 2.63123   2 
  -4   4  -5 133.050 5.65834   1 
  -4   4  -5 139.294 5.40289   2 
   4  -4   5 132.756 4.74334   2 
   4  -4   5 140.729 4.27380   3 
  -5   4  -5 67.7433 4.12808   2 
  -5   4  -5 67.2747 4.75646   1 
   5  -4   5 67.9845 3.49100   2 
   5  -4   5 66.7451 2.73906   3 
  -6   4  -5 0.45590 2.69400   1 
  -6   4  -5 -0.3393 2.17401   2 
   6  -4   5 -2.2603 1.54292   2 
   6  -4   5 0.81366 1.17858   3 
  -7  -3   5 0.82845 2.15013   1 
  -7  -3   5 -0.5029 1.65057   3 
   6   3  -5 353.106 11.0899   1 
  -6  -3   5 366.771 8.91927   2 
  -6  -3   5 366.183 10.4683   1 
  -6  -3   5 341.122 10.5558   3 
   5   3  -5 19.8300 2.16513   1 
  -5  -3   5 16.1598 1.88414   3 
  -5  -3   5 18.9155 2.14487   1 
  -5  -3   5 21.6030 1.38045   2 
   4   3  -5 81.0262 3.33911   2 
   4   3  -5 93.2092 3.61556   1 
  -4  -3   5 92.6801 2.97669   2 
  -4  -3   5 92.2480 3.20790   1 
  -4  -3   5 86.0121 3.79068   3 
   3   3  -5 1.10138 0.74594   2 
   3   3  -5 0.10388 0.63744   1 
  -3  -3   5 1.67926 0.55498   2 
  -3  -3   5 0.32678 0.83889   3 
  -3  -3   5 1.31937 0.47238   1 
   2   3  -5 32.9325 1.26397   1 
   2   3  -5 29.1780 1.85459   2 
  -2  -3   5 30.1319 1.08167   1 
  -2  -3   5 30.1067 2.07918   3 
  -2  -3   5 35.0677 1.66859   2 
   1   3  -5 30.7198 1.79838   2 
  -1  -3   5 31.9579 1.94433   3 
  -1  -3   5 28.8523 1.62495   2 
   0   3  -5 221.169 5.48975   1 
   0   3  -5 218.186 5.63153   1 
   0   3  -5 214.727 6.32942   2 
   0  -3   5 215.489 6.06493   2 
   0  -3   5 213.819 6.31435   3 
  -1   3  -5 470.683 11.9785   1 
  -1   3  -5 471.407 12.3486   2 
   1  -3   5 475.526 12.0653   2 
   1  -3   5 462.797 12.1252   3 
  -2   3  -5 308.962 8.69407   2 
  -2   3  -5 309.802 8.72974   1 
   2  -3   5 315.745 8.41761   2 
   2  -3   5 314.456 8.28088   3 
  -3   3  -5 42.7769 2.44672   2 
  -3   3  -5 42.5325 2.77644   1 
   3  -3   5 44.5312 2.19004   2 
   3  -3   5 45.5567 1.88242   3 
  -4   3  -5 3.11261 0.98305   2 
  -4   3  -5 -0.1404 1.34483   1 
   4  -3   5 1.28670 0.82408   2 
   4  -3   5 3.71705 0.64750   3 
  -5   3  -5 -0.0235 0.94264   3 
  -5   3  -5 -0.2009 2.32482   2 
  -5   3  -5 1.43630 1.78316   1 
   5  -3   5 -0.3319 1.19079   2 
   5  -3   5 0.63323 0.64170   3 
  -6   3  -5 5.07645 2.61972   1 
  -6   3  -5 7.76026 1.40241   3 
  -6   3  -5 7.62722 1.80050   2 
   6  -3   5 7.62427 1.09228   3 
   6  -3   5 7.56102 1.75570   2 
   7   2  -5 19.6173 3.16656   1 
   7   2  -5 23.5213 3.56042   3 
  -7  -2   5 23.6954 2.87183   1 
  -7  -2   5 19.5083 2.42877   3 
   6   2  -5 160.729 6.67833   1 
   6   2  -5 158.922 6.68158   3 
  -6  -2   5 172.759 6.17530   1 
  -6  -2   5 147.920 5.69895   3 
   5   2  -5 167.714 6.32450   3 
   5   2  -5 158.741 6.09059   1 
  -5  -2   5 168.050 5.85171   3 
  -5  -2   5 171.664 4.29928   2 
  -5  -2   5 173.739 5.76011   1 
   4   2  -5 15.9905 1.79596   1 
   4   2  -5 18.5287 1.41413   2 
   4   2  -5 17.4564 1.97864   3 
  -4  -2   5 16.8520 0.98774   2 
  -4  -2   5 13.6648 1.53383   3 
  -4  -2   5 15.1138 1.63343   1 
   3   2  -5 122.430 4.03597   1 
   3   2  -5 126.073 3.82151   2 
   3   2  -5 115.967 4.47732   3 
  -3  -2   5 128.655 3.53256   2 
  -3  -2   5 118.111 4.21948   3 
  -3  -2   5 127.562 3.83141   1 
   2   2  -5 30.5268 1.43700   1 
   2   2  -5 28.3482 1.51177   2 
   2   2  -5 28.3198 1.96743   3 
  -2  -2   5 30.6305 1.76687   3 
  -2  -2   5 31.8665 1.27493   1 
  -2  -2   5 29.3969 1.35117   2 
   1   2  -5 13.4626 1.13603   2 
   1   2  -5 15.6106 0.83045   1 
  -1  -2   5 15.5904 1.01134   2 
  -1  -2   5 16.7613 0.85101   1 
  -1  -2   5 16.4384 1.26441   3 
   0   2  -5 661.735 15.9691   2 
   0   2  -5 655.936 15.4705   1 
   0  -2   5 635.607 15.9352   3 
   0  -2   5 613.112 15.7452   2 
  -1   2  -5 248.294 6.69311   2 
  -1   2  -5 245.086 6.67404   1 
  -1   2  -5 238.512 6.72321   1 
   1  -2   5 243.802 6.45584   3 
   1  -2   5 245.796 6.54199   3 
   1  -2   5 236.522 6.51987   2 
  -2   2  -5 119.786 4.21283   1 
  -2   2  -5 126.433 3.92213   2 
   2  -2   5 122.794 3.49219   3 
   2  -2   5 117.428 3.73522   2 
  -3   2  -5 57.7760 2.98905   1 
  -3   2  -5 55.6670 2.43254   2 
   3  -2   5 59.4052 1.77860   3 
   3  -2   5 56.9323 2.30005   2 
  -4   2  -5 65.6728 2.83431   2 
  -4   2  -5 63.7621 3.63192   1 
   4  -2   5 66.6143 1.91391   3 
   4  -2   5 66.5135 2.76523   2 
  -5   2  -5 216.367 6.54160   2 
  -5   2  -5 213.500 5.63207   3 
  -5   2  -5 209.358 7.80560   1 
   5  -2   5 217.314 6.45404   2 
   5  -2   5 212.104 5.49260   3 
  -6   2  -5 9.03174 1.60888   2 
  -6   2  -5 10.3048 2.55827   1 
  -6   2  -5 9.96358 1.07549   3 
   6  -2   5 11.8985 1.75021   2 
   6  -2   5 11.0710 1.01866   3 
  -7   2  -5 2.16653 1.04329   3 
  -7   2  -5 0.67965 1.68963   2 
  -7   2  -5 3.40729 3.02903   1 
   7  -2   5 -3.1346 1.66931   2 
   7   1  -5 18.1220 3.35355   1 
   7   1  -5 18.0360 3.00615   3 
  -7  -1   5 18.0559 2.41044   3 
  -7  -1   5 19.1770 2.97612   1 
   6   1  -5 55.4349 4.33286   1 
   6   1  -5 54.2512 4.01834   3 
  -6  -1   5 52.6762 3.20069   3 
  -6  -1   5 57.0277 3.84827   1 
   5   1  -5 2.93130 1.40048   1 
  -5  -1   5 4.22616 1.42138   1 
  -5  -1   5 0.09024 1.19866   3 
   4   1  -5 970.705 24.3807   3 
   4   1  -5 976.582 24.2930   1 
  -4  -1   5 918.118 23.8150   3 
  -4  -1   5 958.813 23.9101   1 
  -4  -1   5 968.626 22.5837   2 
   3   1  -5 551.379 14.0372   1 
   3   1  -5 544.190 14.2463   3 
   3   1  -5 544.091 13.2009   2 
  -3  -1   5 540.201 13.8909   3 
  -3  -1   5 532.450 13.7406   1 
  -3  -1   5 529.900 12.9651   2 
   2   1  -5 1080.37 27.8999   3 
   2   1  -5 1122.94 27.5623   1 
   2   1  -5 1146.83 27.2476   2 
  -2  -1   5 1162.52 27.7413   3 
  -2  -1   5 1172.38 27.4260   1 
  -2  -1   5 1157.00 27.0865   2 
   1   1  -5 33.2737 1.39125   1 
   1   1  -5 33.5646 1.36998   2 
   1   1  -5 30.3215 1.65090   3 
  -1  -1   5 35.2950 1.35855   2 
  -1  -1   5 34.6197 1.35856   1 
  -1  -1   5 36.6131 1.60901   3 
   0   1  -5 7.81449 0.89687   3 
   0   1  -5 7.42529 0.65544   1 
   0   1  -5 5.43749 0.60786   2 
   0  -1   5 7.67837 0.70828   2 
   0  -1   5 7.63063 0.75888   3 
   0  -1   5 7.40219 0.84690   1 
  -1   1  -5 136.961 3.91355   2 
  -1   1  -5 135.995 4.08941   1 
   1  -1   5 133.805 3.85716   2 
   1  -1   5 131.511 3.60525   3 
  -2   1  -5 1112.69 27.6169   2 
   2  -1   5 1184.97 27.0310   3 
   2  -1   5 1174.62 26.9682   3 
   2  -1   5 1114.14 27.6040   2 
  -3   1  -5 862.262 21.3921   2 
  -3   1  -5 899.538 22.3464   1 
   3  -1   5 864.444 21.3950   2 
  -4   1  -5 111.530 3.68920   2 
  -4   1  -5 115.475 4.78241   1 
   4  -1   5 113.867 3.83446   2 
  -5   1  -5 37.4185 2.11755   2 
  -5   1  -5 40.3722 3.40061   1 
   5  -1   5 37.5606 2.34956   2 
  -6   1  -5 85.7126 3.47418   2 
  -6   1  -5 86.4873 5.16323   1 
  -6   1  -5 81.7128 2.44772   3 
   6  -1   5 75.4292 3.64444   2 
  -7   1  -5 38.6156 4.32716   1 
  -7   1  -5 38.5885 1.85066   3 
  -7   1  -5 34.0868 4.12999   2 
   7   0  -5 23.1923 3.70561   1 
   7   0  -5 27.0050 3.46785   3 
  -7   0   5 24.6784 2.64767   3 
  -7   0   5 20.0401 3.20824   1 
   6   0  -5 58.9160 3.90903   3 
   6   0  -5 52.5418 4.48356   1 
  -6   0   5 57.1277 3.28309   3 
  -6   0   5 60.6275 4.23398   1 
   5   0  -5 55.0129 3.56985   1 
   5   0  -5 44.1950 4.94431   3 
  -5   0   5 35.2094 3.95603   3 
  -5   0   5 56.1087 3.32090   1 
   4   0  -5 44.9539 2.81726   1 
   4   0  -5 44.1400 2.55440   3 
  -4   0   5 43.6131 2.59167   1 
  -4   0   5 39.7226 2.23938   3 
   3   0  -5 574.202 13.5163   2 
   3   0  -5 559.923 14.6736   3 
   3   0  -5 570.005 14.8084   1 
  -3   0   5 583.969 13.5506   2 
  -3   0   5 560.900 14.5713   1 
  -3   0   5 552.345 14.4213   3 
   2   0  -5 202.532 6.03259   3 
   2   0  -5 216.510 5.36769   2 
   2   0  -5 222.815 6.11653   1 
  -2   0   5 217.054 5.42501   2 
  -2   0   5 202.575 5.88860   1 
  -2   0   5 211.657 5.93040   3 
   1   0  -5 266.933 6.79695   2 
   1   0  -5 262.099 7.14223   1 
   1   0  -5 261.564 7.20142   3 
  -1   0   5 279.066 7.10252   1 
  -1   0   5 275.088 7.13392   3 
  -1   0   5 275.522 6.90037   2 
   0   0  -5 748.778 17.6855   1 
   0   0  -5 726.774 17.5383   2 
   0   0  -5 753.551 17.6611   3 
   0   0   5 697.613 17.7742   1 
   0   0   5 715.891 17.5340   3 
   0   0   5 719.799 17.6153   2 
  -1   0  -5 9999.99 233.251   2 
  -1   0  -5 9817.95 231.880   3 
  -1   0  -5 9994.84 234.904   1 
   1   0   5 9753.54 233.328   2 
   1   0   5 9765.39 231.488   3 
   1   0   5 9647.67 234.671   1 
  -2   0  -5 205.900 6.27885   1 
  -2   0  -5 211.105 5.69189   2 
   2   0   5 218.147 5.85980   2 
  -3   0  -5 142.697 4.14882   2 
   3   0   5 139.698 4.32679   2 
  -4   0  -5 98.5663 3.27635   2 
  -4   0  -5 100.554 4.42890   1 
   4   0   5 101.906 3.55855   2 
  -5   0  -5 177.028 6.69424   1 
  -5   0  -5 172.150 5.18707   2 
   5   0   5 176.660 5.59895   2 
  -6   0  -5 5.42593 1.02478   2 
  -6   0  -5 3.38841 1.80702   1 
  -6   0  -5 5.66211 0.60138   3 
   6   0   5 5.85498 1.34689   2 
  -7   0  -5 422.955 10.6278   3 
  -7   0  -5 440.264 11.5563   2 
  -7   0  -5 420.059 13.8013   1 
   7   0   5 435.341 12.2940   2 
   7  -1  -5 28.8322 3.82123   1 
   7  -1  -5 28.2449 3.39010   3 
  -7   1   5 31.6653 3.58199   1 
  -7   1   5 34.9021 3.75250   3 
   6  -1  -5 3.27967 2.09664   1 
   6  -1  -5 4.49300 1.85514   3 
  -6   1   5 0.39034 1.55619   3 
  -6   1   5 2.70900 1.97534   1 
   5  -1  -5 0.04429 1.09381   3 
   5  -1  -5 0.41253 1.63261   1 
  -5   1   5 0.65242 0.98811   3 
  -5   1   5 1.23110 1.49315   1 
   4  -1  -5 3.27928 0.97843   3 
   4  -1  -5 2.66734 1.22854   1 
  -4   1   5 1.65469 1.07648   1 
  -4   1   5 2.60780 0.80016   3 
   3  -1  -5 46.4044 1.37903   2 
   3  -1  -5 47.5156 2.63165   1 
   3  -1  -5 47.9808 2.32362   3 
   3  -1  -5 45.7025 1.26570   2 
  -3   1   5 44.5908 2.16474   3 
  -3   1   5 46.7121 2.44191   1 
   2  -1  -5 99.5987 2.68230   2 
   2  -1  -5 102.740 3.58117   1 
   2  -1  -5 98.3257 3.31366   3 
  -2   1   5 100.413 3.34476   3 
  -2   1   5 93.4852 3.33843   1 
   1  -1  -5 955.734 23.1278   3 
   1  -1  -5 928.289 22.7608   2 
   1  -1  -5 988.461 23.3588   1 
  -1   1   5 931.909 23.1330   3 
  -1   1   5 988.536 23.0167   2 
  -1   1   5 935.030 23.1829   1 
   0  -1  -5 257.999 6.56327   1 
   0  -1  -5 238.425 6.31799   2 
   0  -1  -5 245.414 6.34153   3 
   0   1   5 240.234 6.49547   2 
   0   1   5 237.695 6.38714   3 
  -1  -1  -5 982.619 24.9327   1 
  -1  -1  -5 1061.06 24.7766   2 
  -1  -1  -5 1030.67 24.4826   3 
   1   1   5 1032.69 24.9554   2 
   1   1   5 1047.00 25.2224   1 
   1   1   5 1021.27 24.5729   3 
  -2  -1  -5 1.40426 0.48526   2 
  -2  -1  -5 3.93028 0.84176   1 
   2   1   5 1.51328 0.40214   3 
   2   1   5 0.34592 0.51008   2 
  -3  -1  -5 0.09005 0.63718   1 
  -3  -1  -5 0.39782 0.41317   2 
  -3  -1  -5 0.24485 0.23934   3 
   3   1   5 0.45446 0.64261   2 
  -4  -1  -5 -0.0204 0.21626   3 
  -4  -1  -5 0.30832 0.31258   3 
  -4  -1  -5 0.14851 0.43793   2 
   4   1   5 1.00427 0.80468   2 
  -5  -1  -5 15.0267 2.17067   1 
  -5  -1  -5 13.3270 0.75025   3 
  -5  -1  -5 12.3589 1.02951   3 
  -5  -1  -5 15.2734 1.34738   2 
   5   1   5 13.5854 1.63019   2 
  -6  -1  -5 133.728 3.61723   3 
  -6  -1  -5 131.641 3.90257   3 
  -6  -1  -5 129.207 4.31244   2 
  -6  -1  -5 136.988 6.19860   1 
   6   1   5 130.444 5.06725   2 
  -7  -1  -5 32.1398 3.45317   1 
  -7  -1  -5 32.7422 2.17340   3 
  -7  -1  -5 39.3365 2.39485   2 
  -7  -1  -5 34.8369 1.66255   3 
   7   1   5 31.9896 3.37910   2 
  -8  -1  -5 4.89558 3.36493   1 
  -8  -1  -5 -0.3156 1.44939   3 
  -8  -1  -5 2.13637 1.02209   3 
  -8  -1  -5 1.01817 1.34205   2 
   6  -2  -5 27.2926 3.43611   1 
   6  -2  -5 29.7445 2.98703   3 
  -6   2   5 30.5278 2.89204   3 
  -6   2   5 28.2618 3.06770   1 
   5  -2  -5 81.6085 4.76806   1 
   5  -2  -5 86.1966 3.93905   3 
  -5   2   5 79.7603 3.93284   3 
  -5   2   5 77.8401 4.29424   1 
   4  -2  -5 5.65250 1.15965   3 
   4  -2  -5 2.53341 1.39162   1 
  -4   2   5 6.77622 1.33346   1 
  -4   2   5 6.24334 1.28954   3 
   3  -2  -5 147.128 3.93005   2 
   3  -2  -5 144.712 3.82838   2 
   3  -2  -5 151.269 5.35914   1 
   3  -2  -5 142.623 4.74766   3 
  -3   2   5 146.009 4.86404   3 
  -3   2   5 148.168 5.01846   1 
   2  -2  -5 1577.46 37.0035   3 
   2  -2  -5 1531.26 37.4158   1 
   2  -2  -5 1557.23 36.4275   2 
   2  -2  -5 1545.94 36.5832   2 
  -2   2   5 1496.98 37.1017   3 
  -2   2   5 1500.95 37.1601   1 
   1  -2  -5 606.298 14.8813   2 
   1  -2  -5 593.361 15.0651   3 
   1  -2  -5 609.126 15.3296   1 
  -1   2   5 582.047 15.1770   3 
  -1   2   5 629.196 15.2462   1 
   0  -2  -5 396.896 10.0944   3 
   0  -2  -5 404.732 10.1601   2 
   0  -2  -5 379.038 10.2185   1 
   0   2   5 396.070 10.2354   3 
   0   2   5 391.946 10.2709   1 
  -1  -2  -5 366.703 9.72394   2 
  -1  -2  -5 380.440 9.53212   3 
  -1  -2  -5 395.579 9.83890   1 
   1   2   5 352.464 9.93266   1 
   1   2   5 385.998 9.69035   3 
  -2  -2  -5 529.911 13.4050   2 
  -2  -2  -5 518.148 13.0153   3 
  -2  -2  -5 534.176 13.6590   1 
   2   2   5 533.384 13.1777   3 
   2   2   5 529.495 14.0298   1 
   2   2   5 530.816 13.6366   2 
  -3  -2  -5 909.849 21.6373   3 
  -3  -2  -5 903.951 22.7480   1 
  -3  -2  -5 904.473 22.0855   2 
   3   2   5 871.288 22.3715   2 
  -4  -2  -5 43.8986 2.86721   1 
  -4  -2  -5 41.8804 2.04463   2 
  -4  -2  -5 42.9279 1.80016   3 
  -4  -2  -5 44.8903 1.80392   3 
   4   2   5 42.5335 2.39987   2 
  -5  -2  -5 241.073 6.95224   2 
  -5  -2  -5 244.052 6.65662   3 
  -5  -2  -5 250.472 6.48915   3 
  -5  -2  -5 252.678 8.50461   1 
  -6  -2  -5 1.92455 0.98698   2 
  -6  -2  -5 1.44148 0.91954   3 
  -6  -2  -5 0.88326 1.68886   1 
  -6  -2  -5 1.60295 0.62873   3 
  -7  -2  -5 108.646 4.00146   3 
  -7  -2  -5 108.553 6.16118   1 
  -7  -2  -5 103.060 3.87538   2 
  -7  -2  -5 102.177 3.35542   3 
  -8  -2  -5 103.890 3.55514   3 
  -8  -2  -5 104.383 7.08347   1 
  -8  -2  -5 105.167 4.20240   2 
  -8  -2  -5 102.369 4.40886   3 
   6  -3  -5 7.00613 2.05820   3 
   6  -3  -5 4.23397 2.70546   1 
  -6   3   5 3.02062 2.03625   3 
  -6   3   5 8.89669 2.45000   1 
   5  -3  -5 181.601 6.38345   3 
   5  -3  -5 175.794 7.49806   1 
  -5   3   5 186.591 6.99994   1 
  -5   3   5 178.380 6.66227   3 
   4  -3  -5 34.6860 1.55212   2 
   4  -3  -5 37.2161 1.38677   2 
   4  -3  -5 39.4949 2.65192   3 
   4  -3  -5 35.9772 3.20265   1 
  -4   3   5 35.0406 2.74641   3 
  -4   3   5 37.5247 2.94254   1 
   3  -3  -5 66.9214 3.61478   1 
   3  -3  -5 74.4596 2.52807   2 
   3  -3  -5 71.0211 2.54880   2 
   3  -3  -5 71.0904 3.09112   3 
  -3   3   5 74.7468 3.45776   1 
  -3   3   5 66.8541 3.26217   3 
   2  -3  -5 0.30892 0.64767   3 
   2  -3  -5 1.06227 0.56334   2 
   2  -3  -5 0.46226 0.71122   1 
   2  -3  -5 0.21052 0.55572   2 
  -2   3   5 0.95900 0.66763   3 
  -2   3   5 -0.2643 0.64102   1 
   1  -3  -5 223.407 6.24465   2 
   1  -3  -5 225.838 6.59751   1 
   1  -3  -5 225.111 6.31892   2 
   1  -3  -5 214.507 6.31782   3 
  -1   3   5 215.467 6.52275   3 
  -1   3   5 222.239 6.40755   1 
   0  -3  -5 597.249 14.8566   3 
   0  -3  -5 556.769 14.8607   2 
   0  -3  -5 592.284 14.9429   1 
   0   3   5 614.267 14.9553   1 
   0   3   5 579.558 15.0407   3 
  -1  -3  -5 1308.38 30.5458   3 
  -1  -3  -5 1223.22 30.6915   2 
  -1  -3  -5 1261.42 30.5724   1 
   1   3   5 1255.39 30.6966   3 
   1   3   5 1261.78 30.8069   1 
  -2  -3  -5 0.86989 0.50823   1 
  -2  -3  -5 1.23350 0.74491   2 
  -2  -3  -5 1.17305 0.57275   3 
   2   3   5 0.40181 0.79315   1 
   2   3   5 0.72023 0.65109   3 
  -3  -3  -5 5.33507 0.85095   3 
  -3  -3  -5 6.48741 1.10919   1 
  -3  -3  -5 3.27149 0.80517   2 
   3   3   5 8.35143 0.99805   3 
  -4  -3  -5 69.3964 2.75627   3 
  -4  -3  -5 67.8955 3.42139   1 
  -4  -3  -5 67.9699 2.95609   2 
  -5  -3  -5 40.8643 2.18997   3 
  -5  -3  -5 41.8690 2.36997   3 
  -5  -3  -5 42.2790 2.46764   2 
  -5  -3  -5 40.6590 3.09549   1 
  -6  -3  -5 3.49828 1.12744   2 
  -6  -3  -5 3.59618 1.92912   1 
  -6  -3  -5 4.21791 1.07279   3 
  -6  -3  -5 4.10376 1.31341   3 
  -6  -3  -5 1.98586 1.62537   1 
  -7  -3  -5 112.807 3.95438   3 
  -7  -3  -5 114.794 6.61800   1 
  -7  -3  -5 122.382 4.71999   3 
  -7  -3  -5 114.522 6.41670   1 
  -7  -3  -5 100.277 5.09656   2 
  -8  -3  -5 26.4281 4.52505   1 
  -8  -3  -5 21.2450 2.01726   2 
  -8  -3  -5 23.5360 2.60659   3 
  -8  -3  -5 19.9525 1.79988   3 
  -8  -3  -5 24.5879 4.08680   1 
   5  -4  -5 0.55814 1.50772   3 
   5  -4  -5 -0.9681 0.77616   2 
   5  -4  -5 0.54940 0.55200   2 
   5  -4  -5 -2.1306 2.26510   1 
  -5   4   5 0.29807 1.58161   1 
  -5   4   5 1.06693 2.02687   3 
   4  -4  -5 123.942 3.98864   2 
   4  -4  -5 121.223 3.70830   2 
   4  -4  -5 119.928 4.82119   3 
  -4   4   5 121.434 5.32128   3 
  -4   4   5 116.370 5.21625   1 
   3  -4  -5 298.852 7.55071   2 
   3  -4  -5 232.507 9.79568   3 
   3  -4  -5 256.186 9.41296   1 
  -3   4   5 283.738 8.65722   1 
   2  -4  -5 206.901 6.87911   1 
   2  -4  -5 214.082 6.22943   2 
   2  -4  -5 208.033 6.45223   3 
  -2   4   5 207.855 6.54787   1 
  -2   4   5 213.440 6.84339   3 
   1  -4  -5 1015.00 24.4534   2 
   1  -4  -5 942.074 24.6293   1 
   1  -4  -5 1000.37 24.4920   3 
  -1   4   5 969.631 24.7985   3 
  -1   4   5 995.270 24.4789   1 
   0  -4  -5 30.3382 1.82915   1 
   0  -4  -5 25.0984 1.86558   2 
   0  -4  -5 29.4593 1.89158   3 
   0   4   5 27.2728 2.05477   3 
   0   4   5 26.8914 1.73458   1 
  -1  -4  -5 86.1971 3.38697   3 
  -1  -4  -5 96.2377 3.32522   1 
   1   4   5 89.5230 3.58909   3 
   1   4   5 92.1181 3.41529   1 
  -2  -4  -5 57.6306 2.81887   2 
  -2  -4  -5 58.6728 2.67475   3 
  -2  -4  -5 63.9022 2.62464   1 
   2   4   5 62.2981 2.96468   1 
   2   4   5 59.3091 2.88370   3 
  -3  -4  -5 324.762 8.98735   1 
  -3  -4  -5 321.855 8.86498   3 
  -3  -4  -5 316.051 9.10026   2 
   3   4   5 307.005 8.95711   3 
  -4  -4  -5 6.75687 1.29675   2 
  -4  -4  -5 6.66845 1.25084   1 
  -4  -4  -5 7.60786 1.26771   3 
  -5  -4  -5 10.2282 1.53385   3 
  -5  -4  -5 7.40920 1.54580   1 
  -5  -4  -5 7.91731 1.43050   2 
  -6  -4  -5 70.1847 4.50196   1 
  -6  -4  -5 81.3295 3.85883   3 
  -6  -4  -5 76.5076 3.51542   3 
  -6  -4  -5 61.0164 4.74835   2 
  -6  -4  -5 72.3798 4.98342   1 
  -7  -4  -5 1.81957 1.28067   3 
  -7  -4  -5 3.18588 2.22702   1 
  -7  -4  -5 4.02441 1.95317   3 
  -7  -4  -5 4.95080 2.79615   1 
  -7  -4  -5 3.81214 1.46896   2 
  -8  -4  -5 45.6860 3.25836   3 
  -8  -4  -5 50.8222 5.16663   1 
  -8  -4  -5 46.0084 3.54015   2 
  -8  -4  -5 37.0938 4.44840   1 
  -8  -4  -5 44.5776 4.46360   3 
   5  -5  -5 78.1514 2.86882   2 
   5  -5  -5 75.7089 3.60493   2 
   5  -5  -5 88.9257 4.90332   3 
   5  -5  -5 73.7109 6.28071   1 
  -5   5   5 82.7734 5.51735   1 
  -5   5   5 79.2775 5.60552   3 
   4  -5  -5 44.4414 4.32069   1 
   4  -5  -5 42.7316 2.50720   2 
   4  -5  -5 41.7190 3.53088   3 
  -4   5   5 49.5415 4.01554   3 
  -4   5   5 51.6071 3.75904   1 
   3  -5  -5 808.428 20.3863   2 
   3  -5  -5 814.422 21.9105   1 
   3  -5  -5 838.434 21.0753   3 
  -3   5   5 791.035 21.2497   1 
  -3   5   5 813.609 21.6866   3 
   2  -5  -5 105.046 4.11956   2 
   2  -5  -5 100.260 5.27844   1 
   2  -5  -5 109.538 4.36697   3 
  -2   5   5 112.918 5.18034   1 
  -2   5   5 108.935 4.77780   3 
   1  -5  -5 72.6586 3.55113   1 
   1  -5  -5 77.3524 3.50902   3 
   1  -5  -5 79.7336 3.52948   2 
  -1   5   5 78.4569 3.87030   3 
  -1   5   5 78.2806 3.37083   1 
   0  -5  -5 31.8791 2.36895   2 
   0  -5  -5 32.4903 2.32640   3 
   0  -5  -5 29.2225 2.19373   1 
   0   5   5 31.3888 2.08579   1 
   0   5   5 31.9078 2.58798   3 
  -1  -5  -5 113.224 4.55967   2 
  -1  -5  -5 111.942 4.26489   3 
  -1  -5  -5 112.603 4.04042   1 
   1   5   5 116.201 4.63582   3 
   1   5   5 118.999 4.26226   1 
  -2  -5  -5 309.477 9.15750   2 
  -2  -5  -5 306.559 8.53356   1 
  -2  -5  -5 310.381 8.90687   3 
   2   5   5 301.687 9.09158   3 
   2   5   5 296.342 9.00734   1 
  -3  -5  -5 834.764 21.3309   2 
  -3  -5  -5 806.958 21.0380   3 
  -3  -5  -5 827.112 20.8434   1 
   3   5   5 822.925 21.6687   1 
   3   5   5 832.641 21.3148   3 
  -4  -5  -5 160.870 5.50376   1 
  -4  -5  -5 160.221 5.60051   3 
  -4  -5  -5 151.384 5.71931   2 
  -5  -5  -5 37.5813 3.04951   2 
  -5  -5  -5 39.7118 3.01582   3 
  -5  -5  -5 41.6217 2.96525   1 
  -6  -5  -5 27.0963 3.06472   3 
  -6  -5  -5 33.1240 3.14785   2 
  -6  -5  -5 26.7698 2.72201   3 
  -6  -5  -5 34.9530 3.35813   1 
  -7  -5  -5 131.084 5.99298   3 
  -7  -5  -5 133.486 6.33486   2 
  -7  -5  -5 135.000 7.32267   1 
  -7  -5  -5 132.444 5.51452   2 
  -7  -5  -5 123.965 6.52544   1 
  -7  -5  -5 132.824 5.59902   3 
   4  -6  -5 1.22099 1.47483   2 
   4  -6  -5 4.71502 2.12408   3 
   4  -6  -5 -0.6968 2.48379   1 
  -4   6   5 0.97573 2.00298   1 
  -4   6   5 -1.4922 2.43724   3 
   3  -6  -5 1.72205 1.53212   3 
   3  -6  -5 4.89565 2.06727   1 
   3  -6  -5 3.02384 1.43479   2 
  -3   6   5 1.13645 1.62870   1 
  -3   6   5 1.94141 2.03403   3 
   2  -6  -5 -0.9621 1.45741   1 
   2  -6  -5 -1.1936 1.23340   3 
   2  -6  -5 1.23706 1.49158   2 
  -2   6   5 -3.2430 1.41621   3 
  -2   6   5 0.77358 1.26128   1 
   1  -6  -5 40.8225 3.04902   2 
   1  -6  -5 41.8956 4.82607   1 
   1  -6  -5 50.0318 3.20254   3 
  -1   6   5 38.6057 4.00947   1 
  -1   6   5 46.6205 3.67726   3 
   0  -6  -5 103.567 4.58572   2 
   0  -6  -5 105.635 4.30522   1 
   0  -6  -5 107.641 4.57227   3 
   0   6   5 108.679 4.24453   1 
   0   6   5 101.884 4.84725   3 
  -1  -6  -5 3.35396 1.16458   3 
  -1  -6  -5 4.17106 1.05389   1 
  -1  -6  -5 2.83282 1.27226   2 
   1   6   5 2.33183 1.43126   3 
   1   6   5 5.63115 1.24601   1 
  -2  -6  -5 2.06282 1.30509   2 
  -2  -6  -5 -0.3038 0.82237   1 
  -2  -6  -5 0.47639 1.11777   3 
   2   6   5 0.45910 1.09354   1 
   2   6   5 -0.0587 1.27220   3 
  -3  -6  -5 1.93007 0.95680   1 
  -3  -6  -5 -0.7030 1.27996   3 
  -3  -6  -5 -2.3680 1.38120   2 
   3   6   5 -1.5689 1.34645   3 
   3   6   5 0.42642 1.44343   1 
  -4  -6  -5 8.56741 1.63645   2 
  -4  -6  -5 13.9772 1.69150   1 
  -4  -6  -5 14.8998 2.11032   3 
  -4  -6  -5 12.1640 2.12973   2 
  -5  -6  -5 36.2902 3.58157   1 
  -5  -6  -5 45.3631 3.92242   2 
  -5  -6  -5 46.1463 3.76709   2 
  -5  -6  -5 41.6275 4.50534   3 
  -6  -6  -5 10.2326 2.49132   2 
  -6  -6  -5 5.62313 1.93440   1 
  -6  -6  -5 5.26366 2.22627   3 
  -6  -6  -5 6.40884 1.99102   2 
  -7  -6  -5 43.8774 4.24284   1 
  -7  -6  -5 49.3093 4.44785   3 
  -7  -6  -5 35.4702 4.51167   1 
  -7  -6  -5 44.2639 4.86811   3 
  -7  -6  -5 41.3260 4.11386   2 
  -7  -6  -5 47.6692 4.50960   2 
   3  -7  -5 10.3443 3.28389   1 
   3  -7  -5 12.4267 2.08786   2 
   3  -7  -5 11.5374 2.76519   3 
  -3   7   5 9.50042 2.33683   1 
  -3   7   5 9.37663 3.28074   3 
   2  -7  -5 54.0344 3.97946   2 
   2  -7  -5 60.4741 4.15969   3 
   2  -7  -5 62.5587 4.74035   1 
  -2   7   5 59.1506 3.96362   1 
  -2   7   5 63.2647 5.02221   3 
   1  -7  -5 181.893 7.01530   1 
   1  -7  -5 184.980 6.84661   3 
   1  -7  -5 181.186 6.87443   2 
  -1   7   5 191.718 6.52202   1 
  -1   7   5 182.618 7.57684   3 
   0  -7  -5 78.3958 4.04473   1 
   0  -7  -5 76.8747 4.20329   3 
   0  -7  -5 74.9196 4.31212   2 
   0   7   5 69.2022 4.54506   3 
   0   7   5 68.7611 3.80415   1 
  -1  -7  -5 0.19588 1.20320   1 
  -1  -7  -5 1.81789 1.43023   2 
  -1  -7  -5 -0.6603 1.34730   3 
   1   7   5 0.28577 1.78869   3 
   1   7   5 -1.7205 1.25850   1 
  -2  -7  -5 -0.8109 1.01671   1 
  -2  -7  -5 0.28037 1.42499   2 
  -2  -7  -5 1.98705 1.42880   3 
   2   7   5 2.41504 1.70670   3 
   2   7   5 1.69895 1.47971   1 
  -3  -7  -5 5.18858 1.81801   3 
  -3  -7  -5 4.65472 1.19371   1 
  -3  -7  -5 3.54212 1.58504   2 
   3   7   5 5.71251 1.91524   1 
   3   7   5 6.83010 2.11799   3 
  -4  -7  -5 76.4447 4.77099   3 
  -4  -7  -5 79.4799 4.77079   2 
  -4  -7  -5 72.2037 3.92403   1 
  -5  -7  -5 6.17710 2.21809   3 
  -5  -7  -5 4.83525 1.53354   1 
  -5  -7  -5 11.8094 2.43934   2 
  -5  -7  -5 5.71481 2.32669   2 
  -6  -7  -5 130.866 6.77737   2 
  -6  -7  -5 140.388 6.80261   3 
  -6  -7  -5 128.869 6.89102   2 
  -6  -7  -5 135.839 5.77130   1 
   1  -8  -5 6.25518 2.46954   2 
   1  -8  -5 2.29110 2.14233   1 
   1  -8  -5 2.32247 2.10561   3 
  -1   8   5 4.02033 2.60442   3 
  -1   8   5 3.48940 2.03476   1 
   0  -8  -5 20.3495 2.81553   3 
   0  -8  -5 17.4848 2.45838   1 
   0  -8  -5 13.8938 2.61238   2 
   0   8   5 15.4742 2.30712   1 
   0   8   5 15.0606 2.99381   3 
  -1  -8  -5 46.4241 4.27475   2 
  -1  -8  -5 48.0257 3.56174   1 
  -1  -8  -5 46.3626 4.00156   3 
   1   8   5 46.4598 3.76282   1 
   1   8   5 47.2374 4.72140   3 
  -2  -8  -5 58.0380 4.47293   2 
  -2  -8  -5 52.2676 3.55139   1 
  -2  -8  -5 50.8587 4.28545   3 
   2   8   5 54.2773 4.08879   1 
   2   8   5 44.8133 4.84541   3 
  -3  -8  -5 58.5709 4.60530   2 
  -3  -8  -5 60.9017 4.50681   3 
  -3  -8  -5 61.7372 3.53534   1 
   3   8   5 65.7193 4.77301   1 
  -4  -8  -5 28.6802 2.88852   1 
  -4  -8  -5 28.9203 3.38554   2 
  -4  -8  -5 31.9501 3.75016   3 
  -5  -8  -5 10.6139 3.08049   3 
  -5  -8  -5 12.4266 2.85580   2 
  -5  -8  -5 9.08093 1.88221   1 
  -5  -8  -5 7.66174 2.95461   2 
  -2  -9  -5 23.9903 2.83292   1 
  -2  -9  -5 19.4811 3.57505   2 
  -2  -9  -5 20.8779 3.51238   3 
   2   9   5 19.7688 3.29264   1 
   2   9   5 24.6866 4.13583   3 
   4   7  -6 10.1636 2.98922   2 
  -4  -7   6 16.0528 2.28079   2 
  -4  -7   6 19.2200 3.96823   3 
  -4  -7   6 10.3271 3.06888   3 
   3   7  -6 33.3701 3.46780   2 
  -3  -7   6 31.9792 3.59450   3 
  -3  -7   6 32.8755 2.97528   2 
  -3  -7   6 30.8427 3.92395   3 
   2   7  -6 -3.5655 2.10080   2 
  -2  -7   6 -2.9934 2.17863   3 
  -2  -7   6 2.21194 2.42470   3 
  -2  -7   6 -0.4133 1.69024   2 
   1   7  -6 218.134 8.47926   2 
  -1  -7   6 209.583 7.26227   2 
  -1  -7   6 210.297 8.30266   3 
  -1  -7   6 231.050 8.61243   3 
   0   7  -6 38.6542 3.86950   2 
   0  -7   6 30.7850 3.26469   2 
   0  -7   6 28.0317 3.26300   3 
  -1   7  -6 57.2593 4.87033   2 
  -1   7  -6 52.0914 2.28039   1 
  -1   7  -6 52.9088 1.96162   1 
   1  -7   6 59.3835 4.66725   3 
   1  -7   6 56.2500 3.78288   2 
  -2   7  -6 78.7964 3.48911   1 
  -2   7  -6 68.2657 5.70485   2 
   2  -7   6 72.0403 4.44145   2 
   2  -7   6 77.2684 4.87122   3 
   5   6  -6 -0.0852 2.14828   2 
  -5  -6   6 4.35739 2.26713   3 
  -5  -6   6 -0.5746 1.51143   2 
   4   6  -6 13.5345 2.53385   2 
  -4  -6   6 22.8211 3.03014   3 
  -4  -6   6 19.1828 2.12476   2 
   3   6  -6 94.3165 5.03355   2 
  -3  -6   6 91.8843 5.11419   3 
  -3  -6   6 93.2574 4.25504   2 
  -3  -6   6 101.917 5.60730   3 
   2   6  -6 92.5922 4.81088   2 
  -2  -6   6 86.5592 3.95809   2 
  -2  -6   6 82.9594 5.16793   3 
  -2  -6   6 94.3516 4.88475   3 
   1   6  -6 6.20038 2.00750   2 
  -1  -6   6 6.31069 1.98158   3 
  -1  -6   6 6.74498 1.40555   2 
  -1  -6   6 9.85240 2.20228   3 
   0   6  -6 12.4685 2.22741   2 
   0  -6   6 12.2796 3.37952   3 
   0  -6   6 10.2270 1.64483   2 
  -1   6  -6 -0.9604 1.56423   2 
  -1   6  -6 1.47056 0.80953   1 
  -1   6  -6 0.12554 0.82176   1 
   1  -6   6 3.32302 1.74914   3 
   1  -6   6 0.07487 1.32201   2 
  -2   6  -6 134.600 6.19193   2 
  -2   6  -6 137.836 4.84780   1 
   2  -6   6 136.930 5.29049   2 
   2  -6   6 139.415 5.56740   3 
  -3   6  -6 256.752 9.22959   2 
  -3   6  -6 255.501 8.22545   1 
   3  -6   6 268.578 8.20186   3 
   3  -6   6 247.547 8.17998   2 
  -6  -5   6 51.9751 3.21790   2 
  -6  -5   6 55.9710 4.38465   3 
  -6  -5   6 57.1518 3.13278   1 
   5   5  -6 58.7202 3.95735   2 
  -5  -5   6 65.5448 3.19880   2 
  -5  -5   6 68.5572 4.34198   3 
  -5  -5   6 64.3185 2.44826   1 
   4   5  -6 80.2641 4.24825   2 
  -4  -5   6 78.5106 3.50862   2 
  -4  -5   6 83.9028 4.49502   3 
   3   5  -6 26.8771 2.66521   2 
  -3  -5   6 26.1569 2.24156   2 
  -3  -5   6 25.0324 2.66514   3 
   2   5  -6 0.21264 1.27148   2 
  -2  -5   6 0.42920 0.90368   2 
  -2  -5   6 1.90991 1.39646   3 
   1   5  -6 13.0657 1.99948   2 
  -1  -5   6 11.5476 1.91853   3 
  -1  -5   6 11.6414 1.50893   2 
  -1  -5   6 13.4103 1.85793   3 
   0   5  -6 193.078 6.70800   2 
   0  -5   6 195.387 6.35724   2 
   0  -5   6 197.564 6.68699   3 
   0  -5   6 198.917 6.75564   3 
  -1   5  -6 -0.3166 1.02791   2 
  -1   5  -6 0.08832 0.73558   1 
  -1   5  -6 0.31552 0.80382   1 
   1  -5   6 0.81378 1.31731   3 
   1  -5   6 0.13752 1.06661   2 
  -2   5  -6 36.9569 2.48351   1 
  -2   5  -6 36.4368 2.98925   2 
   2  -5   6 34.5835 2.74539   3 
   2  -5   6 38.3375 2.61179   2 
  -3   5  -6 68.0677 4.10448   2 
  -3   5  -6 62.8333 3.75744   1 
   3  -5   6 60.5766 3.42291   2 
   3  -5   6 67.0307 3.23447   3 
  -4   5  -6 8.44321 2.30468   1 
  -4   5  -6 7.25745 1.97178   2 
   4  -5   6 5.65491 1.33434   3 
   4  -5   6 6.57282 1.62851   2 
  -6  -4   6 73.2810 2.93506   2 
  -6  -4   6 68.8254 4.20580   3 
  -6  -4   6 80.4919 3.90036   1 
   5   4  -6 73.7170 3.63466   2 
  -5  -4   6 74.6021 4.09008   3 
  -5  -4   6 74.4767 3.07860   1 
  -5  -4   6 75.2795 3.01481   2 
   4   4  -6 463.675 12.6304   2 
  -4  -4   6 470.084 11.6063   1 
  -4  -4   6 452.656 13.0845   3 
  -4  -4   6 473.622 12.0740   2 
   3   4  -6 88.0275 3.80573   2 
  -3  -4   6 89.1924 3.38713   2 
  -3  -4   6 94.5382 4.15925   3 
  -3  -4   6 90.6795 2.49141   1 
   2   4  -6 13.3075 1.64636   2 
  -2  -4   6 13.4190 1.31876   2 
  -2  -4   6 16.8643 1.95847   3 
   1   4  -6 1123.30 27.6647   2 
  -1  -4   6 1089.08 27.1606   2 
  -1  -4   6 1109.12 27.6881   3 
   0   4  -6 155.521 4.18801   1 
   0   4  -6 161.553 4.07954   1 
   0   4  -6 165.115 5.49904   2 
   0  -4   6 159.014 5.52573   3 
   0  -4   6 164.134 5.09612   2 
   0  -4   6 157.875 5.37017   3 
  -1   4  -6 59.8971 2.43661   1 
  -1   4  -6 57.9135 2.45374   1 
  -1   4  -6 63.2960 3.15766   2 
   1  -4   6 55.8553 2.64855   2 
   1  -4   6 61.2349 2.94829   3 
  -2   4  -6 157.059 5.58690   2 
  -2   4  -6 156.736 5.19214   1 
   2  -4   6 154.881 5.09120   2 
   2  -4   6 159.267 5.05883   3 
  -3   4  -6 423.863 11.9505   1 
  -3   4  -6 420.864 12.0202   2 
   3  -4   6 430.997 11.4917   2 
   3  -4   6 423.445 11.0635   3 
  -4   4  -6 156.390 5.85560   2 
  -4   4  -6 145.935 5.99863   1 
   4  -4   6 145.279 4.38172   3 
   4  -4   6 145.938 5.12379   2 
  -5   4  -6 0.50960 1.80705   2 
  -5   4  -6 -1.0338 2.16887   1 
   5  -4   6 -0.6671 0.84272   3 
   5  -4   6 1.34543 1.50227   2 
   7   3  -6 15.5878 3.46788   1 
  -7  -3   6 13.6370 2.33803   3 
  -7  -3   6 15.5013 2.73362   1 
   6   3  -6 70.4476 4.62772   1 
  -6  -3   6 72.1153 2.29455   2 
  -6  -3   6 68.3509 3.96043   1 
  -6  -3   6 69.8452 4.00865   3 
   5   3  -6 1.65795 1.50621   1 
  -5  -3   6 4.15774 1.27775   1 
  -5  -3   6 3.35762 0.73357   2 
  -5  -3   6 1.52043 1.39115   3 
   4   3  -6 111.183 4.04037   1 
   4   3  -6 103.695 3.84347   2 
  -4  -3   6 86.7703 5.86909   3 
  -4  -3   6 105.413 3.56635   1 
  -4  -3   6 111.141 3.38690   2 
   3   3  -6 253.375 7.50043   2 
   3   3  -6 269.130 7.23935   1 
  -3  -3   6 266.100 6.88787   1 
  -3  -3   6 275.079 8.00664   3 
  -3  -3   6 261.276 7.13217   2 
   2   3  -6 14.1875 1.44979   2 
   2   3  -6 10.9028 0.89109   1 
  -2  -3   6 9.46796 0.99495   2 
  -2  -3   6 12.1889 0.78606   1 
  -2  -3   6 9.41858 1.27153   3 
   1   3  -6 1043.67 25.4991   2 
   1   3  -6 1013.21 24.4155   1 
  -1  -3   6 1044.70 25.1343   2 
  -1  -3   6 1024.76 25.5556   3 
   0   3  -6 1534.60 36.4605   2 
   0   3  -6 1468.09 35.4334   1 
   0   3  -6 1487.58 35.6991   1 
   0  -3   6 1535.02 36.1072   2 
   0  -3   6 1470.30 36.2896   3 
  -1   3  -6 173.520 5.03258   1 
  -1   3  -6 175.128 5.11273   1 
  -1   3  -6 169.500 5.35922   2 
   1  -3   6 165.025 5.19006   3 
   1  -3   6 163.819 5.05618   2 
   1  -3   6 168.785 5.09360   3 
  -2   3  -6 1.17604 0.76585   2 
  -2   3  -6 3.58422 1.04429   1 
   2  -3   6 2.50783 0.78179   3 
   2  -3   6 1.10698 0.60885   2 
  -3   3  -6 82.3370 3.79572   1 
  -3   3  -6 74.2024 3.35004   2 
   3  -3   6 73.8409 3.06162   2 
   3  -3   6 72.5195 2.54993   3 
  -4   3  -6 163.410 6.24938   1 
   4  -3   6 164.555 4.32679   3 
   4  -3   6 149.826 6.56041   2 
  -5   3  -6 18.8937 2.62867   1 
  -5   3  -6 15.4549 1.96549   2 
   5  -3   6 19.9047 1.14845   3 
   5  -3   6 18.0091 1.79540   2 
  -6   3  -6 84.8069 4.58239   2 
  -6   3  -6 86.2758 5.83539   1 
   6  -3   6 84.4070 4.29838   2 
   7   2  -6 13.1175 3.23662   3 
   7   2  -6 7.48749 3.03826   1 
  -7  -2   6 8.57607 2.67386   1 
  -7  -2   6 13.0123 2.30786   3 
   6   2  -6 28.6516 5.41917   1 
   6   2  -6 38.2763 3.73791   3 
  -6  -2   6 33.2698 2.96238   3 
  -6  -2   6 32.1340 4.25359   1 
   5   2  -6 1119.28 28.7771   1 
   5   2  -6 1140.35 29.2095   3 
  -5  -2   6 1132.68 28.2248   1 
  -5  -2   6 1153.48 26.8339   2 
  -5  -2   6 1122.18 28.3801   3 
   4   2  -6 311.568 9.11164   1 
   4   2  -6 317.034 8.33377   2 
   4   2  -6 316.924 9.69586   3 
  -4  -2   6 312.184 9.10130   3 
  -4  -2   6 315.025 8.71795   1 
  -4  -2   6 323.040 7.95472   2 
   3   2  -6 53.6787 2.49330   1 
   3   2  -6 54.9470 2.98511   3 
   3   2  -6 54.5021 2.30120   2 
  -3  -2   6 54.2224 2.63304   3 
  -3  -2   6 57.0512 2.21453   1 
  -3  -2   6 54.0704 1.96674   2 
   2   2  -6 15.0660 1.69587   3 
   2   2  -6 12.9397 1.25851   2 
   2   2  -6 14.4844 1.13613   1 
  -2  -2   6 14.2910 0.95387   1 
  -2  -2   6 12.8183 1.33652   3 
  -2  -2   6 13.4165 1.01665   2 
   1   2  -6 0.15485 0.44557   2 
   1   2  -6 0.34775 0.38174   1 
  -1  -2   6 0.91092 0.47781   2 
  -1  -2   6 0.57076 0.37308   1 
  -1  -2   6 0.85616 0.63798   3 
   0   2  -6 115.799 3.73890   2 
   0   2  -6 122.109 3.34901   1 
   0  -2   6 118.316 3.73583   3 
   0  -2   6 111.075 3.57221   2 
  -1   2  -6 535.056 13.6063   2 
  -1   2  -6 543.161 13.5462   1 
   1  -2   6 535.633 13.2852   3 
   1  -2   6 523.375 13.4303   2 
  -2   2  -6 642.939 17.0742   1 
  -2   2  -6 654.863 17.0340   1 
  -2   2  -6 673.065 16.6624   2 
   2  -2   6 674.924 16.0625   3 
   2  -2   6 648.100 16.4790   2 
   2  -2   6 671.378 16.1156   3 
  -3   2  -6 162.864 5.09451   2 
  -3   2  -6 168.726 5.82264   1 
   3  -2   6 156.761 4.95797   2 
   3  -2   6 165.212 4.21987   3 
   3  -2   6 162.969 4.14657   3 
  -4   2  -6 3.73147 1.03116   2 
  -4   2  -6 3.57824 1.52388   1 
   4  -2   6 3.55796 1.02539   2 
  -5   2  -6 3.59675 1.17639   2 
  -5   2  -6 5.77738 2.07075   1 
   5  -2   6 3.61245 1.26586   2 
  -6   2  -6 2.72007 2.32891   1 
  -6   2  -6 -0.9801 1.29255   2 
   6  -2   6 -1.3441 1.43308   2 
  -7   2  -6 4.75383 1.95805   2 
  -7   2  -6 6.10519 2.98051   1 
   7  -2   6 3.14536 2.09559   2 
   7   1  -6 22.5033 3.85859   1 
   7   1  -6 26.3493 3.49228   3 
  -7  -1   6 20.2962 3.05230   1 
  -7  -1   6 17.0938 2.51563   3 
   6   1  -6 5.49154 2.16663   3 
   6   1  -6 13.6167 2.59993   1 
  -6  -1   6 7.29602 1.59275   3 
  -6  -1   6 10.0640 2.05289   1 
   5   1  -6 126.892 5.37509   1 
   5   1  -6 131.415 5.39678   3 
  -5  -1   6 125.673 4.96164   1 
  -5  -1   6 122.655 4.72685   3 
   4   1  -6 33.8049 2.55998   1 
   4   1  -6 32.8614 2.60081   3 
   4   1  -6 34.7361 1.41487   2 
  -4  -1   6 33.3870 1.24399   2 
  -4  -1   6 33.2643 2.19571   3 
  -4  -1   6 36.3950 2.41979   1 
   3   1  -6 36.7574 1.56569   2 
   3   1  -6 37.4331 2.39723   3 
   3   1  -6 41.7673 2.26203   1 
  -3  -1   6 38.0246 1.41145   2 
  -3  -1   6 37.2944 2.04030   3 
  -3  -1   6 34.4231 1.90952   1 
   2   1  -6 170.986 5.63424   3 
   2   1  -6 186.010 5.33370   1 
   2   1  -6 181.814 5.01172   2 
  -2  -1   6 185.864 5.15322   1 
  -2  -1   6 181.219 4.87645   2 
  -2  -1   6 191.243 5.47874   3 
   1   1  -6 1.38769 0.47562   1 
   1   1  -6 1.23805 0.44077   2 
   1   1  -6 0.94535 0.62602   3 
  -1  -1   6 0.97901 0.56237   3 
  -1  -1   6 0.88496 0.39822   2 
  -1  -1   6 1.14972 0.43424   1 
   0   1  -6 767.333 18.2763   1 
   0   1  -6 732.441 18.5215   3 
   0   1  -6 753.730 18.3914   2 
   0  -1   6 740.745 18.2976   2 
   0  -1   6 771.617 18.3588   3 
   0  -1   6 747.077 18.5779   1 
  -1   1  -6 481.952 12.3993   1 
  -1   1  -6 486.451 12.2737   2 
   1  -1   6 494.788 11.9312   3 
   1  -1   6 486.486 12.2601   2 
  -2   1  -6 -0.1124 0.39769   2 
  -2   1  -6 -0.0119 0.72643   1 
   2  -1   6 0.09312 0.21091   3 
   2  -1   6 0.52640 0.34754   3 
   2  -1   6 0.70455 0.55460   2 
  -3   1  -6 98.4660 4.15694   1 
  -3   1  -6 92.2101 3.21253   2 
   3  -1   6 92.7475 3.27160   2 
  -4   1  -6 58.8330 2.52320   2 
  -4   1  -6 60.1940 3.59003   1 
   4  -1   6 61.4447 2.72251   2 
  -5   1  -6 29.9319 2.04749   2 
  -5   1  -6 24.2158 3.14923   1 
   5  -1   6 24.5173 2.21969   2 
  -6   1  -6 -0.8167 1.97104   1 
  -6   1  -6 0.13017 2.10345   2 
  -7   1  -6 0.68775 2.84818   1 
  -7   1  -6 5.16401 1.62205   2 
   7  -1   6 5.11465 1.93732   2 
   7   0  -6 5.93533 2.75761   3 
   7   0  -6 2.94921 3.02005   1 
  -7   0   6 2.76876 1.83739   3 
  -7   0   6 4.50069 2.71580   1 
   6   0  -6 4.90149 2.15505   1 
   6   0  -6 7.76666 2.08714   3 
  -6   0   6 0.99503 1.87479   1 
  -6   0   6 2.43845 1.55122   3 
   5   0  -6 0.66644 1.47426   3 
   5   0  -6 0.38696 1.66152   1 
  -5   0   6 1.30123 1.57716   1 
  -5   0   6 0.05187 1.02823   3 
   4   0  -6 397.447 11.0716   3 
   4   0  -6 404.758 11.3048   1 
  -4   0   6 386.521 10.8724   1 
  -4   0   6 368.434 10.6245   3 
   3   0  -6 92.0122 3.65830   3 
   3   0  -6 96.7810 2.68941   2 
   3   0  -6 91.9583 3.77583   1 
  -3   0   6 96.3609 3.50084   3 
  -3   0   6 93.7023 3.51880   1 
  -3   0   6 100.409 2.77424   2 
   2   0  -6 3.08099 0.45598   2 
   2   0  -6 1.57610 0.68721   1 
   2   0  -6 2.08286 0.63649   3 
  -2   0   6 2.51671 0.64076   1 
  -2   0   6 2.73621 0.48574   2 
  -2   0   6 2.17524 0.58959   3 
   1   0  -6 2.33189 0.53395   1 
   1   0  -6 4.36428 0.76245   3 
   1   0  -6 2.94725 0.44401   2 
  -1   0   6 3.40581 0.63003   1 
  -1   0   6 2.33065 0.51345   3 
  -1   0   6 3.82737 0.61715   2 
  -1   0  -6 89.9224 2.84838   2 
  -1   0  -6 91.5654 2.69532   3 
  -1   0  -6 85.9018 3.03359   1 
   1   0   6 93.2624 3.38911   1 
   1   0   6 89.7587 2.59285   3 
   1   0   6 88.2053 2.96768   2 
  -2   0  -6 63.6282 2.31747   2 
  -2   0  -6 63.9148 1.81942   3 
  -2   0  -6 61.6152 2.74964   1 
   2   0   6 63.3941 2.46096   2 
   2   0   6 62.8475 1.76889   3 
  -3   0  -6 113.016 4.41523   1 
  -3   0  -6 110.928 3.54524   2 
   3   0   6 108.644 3.75290   2 
  -4   0  -6 69.8829 3.88208   1 
  -4   0  -6 67.5782 2.65151   2 
   4   0   6 67.9877 2.91741   2 
  -5   0  -6 0.85522 1.60496   1 
  -5   0  -6 1.04824 0.70230   2 
   5   0   6 -1.1724 0.84637   2 
  -6   0  -6 63.1610 4.59639   1 
  -6   0  -6 57.1546 2.81336   2 
   6   0   6 61.9835 3.54102   2 
  -7   0  -6 19.4825 1.86449   2 
  -7   0  -6 20.1519 3.49591   1 
   7   0   6 24.0989 2.71499   2 
   6  -1  -6 13.8572 2.23581   3 
   6  -1  -6 11.7424 2.72978   1 
  -6   1   6 11.4077 2.25887   1 
  -6   1   6 9.99947 2.10964   3 
   5  -1  -6 254.890 8.84636   1 
   5  -1  -6 252.710 8.16217   3 
  -5   1   6 259.634 8.30543   1 
  -5   1   6 249.153 7.89168   3 
   4  -1  -6 54.8061 3.36342   1 
   4  -1  -6 49.5286 2.78923   3 
  -4   1   6 51.6303 2.70116   3 
  -4   1   6 51.5026 2.99747   1 
   3  -1  -6 146.080 3.74119   2 
   3  -1  -6 142.996 4.92008   3 
   3  -1  -6 150.711 5.25812   1 
  -3   1   6 146.417 4.93266   1 
  -3   1   6 151.163 4.83514   3 
   2  -1  -6 330.883 8.03525   2 
   2  -1  -6 321.332 8.80334   3 
   2  -1  -6 319.820 9.01787   1 
  -2   1   6 320.526 8.76751   3 
  -2   1   6 330.216 8.84458   1 
   1  -1  -6 1.63643 0.64555   1 
   1  -1  -6 1.81344 0.55460   3 
   1  -1  -6 3.21712 0.49490   2 
  -1   1   6 2.31747 0.58020   1 
  -1   1   6 1.64597 0.55104   2 
  -1   1   6 1.00373 0.52677   3 
   0  -1  -6 25.2526 1.19074   2 
   0  -1  -6 21.1781 1.30573   1 
   0  -1  -6 21.3941 1.18639   3 
   0   1   6 23.2456 1.38396   2 
   0   1   6 21.2940 1.22218   3 
   0   1   6 20.6223 1.37181   1 
  -1  -1  -6 940.761 23.1421   2 
  -1  -1  -6 959.970 23.4312   1 
  -1  -1  -6 948.153 22.9003   3 
   1   1   6 959.502 23.7315   1 
   1   1   6 974.906 23.4417   2 
   1   1   6 960.232 23.0237   3 
  -2  -1  -6 1104.92 26.0631   3 
  -2  -1  -6 1077.19 27.1042   1 
   2   1   6 1115.46 26.2347   3 
   2   1   6 1107.37 26.9241   2 
  -3  -1  -6 494.948 13.2912   1 
  -3  -1  -6 481.694 12.3287   2 
  -3  -1  -6 478.199 11.5044   3 
   3   1   6 489.374 12.7418   2 
  -4  -1  -6 1.44498 0.60947   2 
  -4  -1  -6 3.17346 1.24020   1 
   4   1   6 1.54325 0.87357   2 
  -5  -1  -6 64.3442 2.63301   2 
  -5  -1  -6 60.2288 4.05309   1 
   5   1   6 58.4006 3.20134   2 
  -6  -1  -6 44.3891 4.10852   1 
  -6  -1  -6 36.7658 2.32927   2 
   6   1   6 34.3267 3.07115   2 
  -7  -1  -6 11.1067 1.52343   2 
  -7  -1  -6 10.7945 2.93030   1 
   7   1   6 7.46638 2.12950   2 
   6  -2  -6 3.33182 1.97882   3 
   6  -2  -6 0.16150 2.67557   1 
  -6   2   6 5.39700 2.33010   1 
  -6   2   6 3.20907 1.85907   3 
   5  -2  -6 149.988 6.57997   1 
   5  -2  -6 149.783 5.69782   3 
  -5   2   6 151.413 6.17687   1 
  -5   2   6 142.466 5.66127   3 
   4  -2  -6 25.2809 3.28170   1 
   4  -2  -6 29.9165 2.32786   3 
  -4   2   6 27.5332 2.35387   3 
  -4   2   6 27.9352 2.81459   1 
   3  -2  -6 0.46947 0.47834   2 
   3  -2  -6 0.18813 1.01063   1 
   3  -2  -6 0.90004 0.35388   2 
   3  -2  -6 0.35689 0.76113   3 
  -3   2   6 2.30651 0.91690   3 
  -3   2   6 1.50358 0.97478   1 
   2  -2  -6 529.119 13.6137   3 
   2  -2  -6 528.320 12.9372   2 
   2  -2  -6 522.790 13.9951   1 
  -2   2   6 531.642 13.7664   1 
  -2   2   6 522.136 13.7186   3 
   1  -2  -6 565.805 14.1253   2 
   1  -2  -6 560.692 14.7191   1 
   1  -2  -6 585.575 14.4517   3 
  -1   2   6 556.012 14.5486   3 
  -1   2   6 588.889 14.6147   1 
   0  -2  -6 273.129 7.22826   3 
   0  -2  -6 259.144 7.20880   2 
   0  -2  -6 262.318 7.43231   1 
   0   2   6 276.592 7.41073   3 
   0   2   6 280.793 7.55809   1 
  -1  -2  -6 182.922 5.01459   3 
  -1  -2  -6 174.907 5.18990   2 
  -1  -2  -6 179.177 5.30802   1 
   1   2   6 183.117 5.60434   1 
   1   2   6 185.005 5.50639   2 
   1   2   6 181.266 5.18641   3 
  -2  -2  -6 330.890 9.03009   2 
  -2  -2  -6 341.108 8.62433   3 
  -2  -2  -6 338.282 9.27484   1 
   2   2   6 346.659 9.39818   2 
   2   2   6 338.729 8.82094   3 
   2   2   6 347.110 9.78249   1 
  -3  -2  -6 129.152 4.31344   2 
  -3  -2  -6 138.330 4.87731   1 
  -3  -2  -6 139.716 3.83736   3 
   3   2   6 141.404 4.02497   3 
   3   2   6 137.923 4.71250   2 
  -4  -2  -6 3.31797 0.80612   2 
  -4  -2  -6 2.95098 0.55141   3 
  -4  -2  -6 5.02413 1.14480   1 
   4   2   6 2.67434 1.09873   2 
  -5  -2  -6 410.750 10.1271   3 
  -5  -2  -6 401.313 10.8468   2 
  -5  -2  -6 408.624 12.4129   1 
  -5  -2  -6 408.131 10.2136   3 
   5   2   6 421.294 11.6163   2 
  -6  -2  -6 211.797 6.55208   2 
  -6  -2  -6 225.554 8.52582   1 
  -6  -2  -6 223.096 5.68298   3 
  -6  -2  -6 220.933 8.41061   1 
  -6  -2  -6 220.385 5.92543   3 
  -7  -2  -6 61.8747 2.16041   3 
  -7  -2  -6 63.5101 3.11809   2 
  -7  -2  -6 63.2257 2.59505   3 
  -7  -2  -6 61.2421 5.21256   1 
  -8  -2  -6 50.7061 3.38820   2 
  -8  -2  -6 52.3489 2.77312   3 
  -8  -2  -6 59.2699 6.58211   1 
  -8  -2  -6 56.3176 2.20548   3 
   6  -3  -6 27.0503 2.95321   3 
   6  -3  -6 32.2466 4.09091   1 
  -6   3   6 39.7214 4.49669   1 
  -6   3   6 38.4694 3.76893   3 
   5  -3  -6 3.59832 1.61156   3 
   5  -3  -6 3.42882 2.29591   1 
  -5   3   6 0.35581 1.78234   1 
  -5   3   6 2.11214 1.52659   3 
   4  -3  -6 140.003 5.23393   3 
   4  -3  -6 148.756 3.87380   2 
   4  -3  -6 151.095 6.25929   1 
   4  -3  -6 142.711 3.82824   2 
  -4   3   6 145.786 5.59949   3 
  -4   3   6 145.551 5.64009   1 
   3  -3  -6 108.776 4.14583   3 
   3  -3  -6 105.491 4.63424   1 
   3  -3  -6 113.157 3.40391   2 
   3  -3  -6 108.939 3.47097   2 
  -3   3   6 110.674 4.42280   3 
  -3   3   6 114.116 4.44476   1 
   2  -3  -6 130.697 4.44437   3 
   2  -3  -6 126.427 4.16952   2 
   2  -3  -6 135.213 4.08249   2 
   2  -3  -6 135.657 4.91371   1 
  -2   3   6 134.104 4.63662   1 
  -2   3   6 127.403 4.65099   3 
   1  -3  -6 157.112 4.80166   2 
   1  -3  -6 164.491 4.99075   3 
   1  -3  -6 162.574 5.23693   1 
  -1   3   6 155.027 5.15198   3 
  -1   3   6 155.810 5.06388   1 
   0  -3  -6 5.80649 0.98619   2 
   0  -3  -6 3.66352 0.66057   3 
   0  -3  -6 4.62183 0.85811   1 
   0   3   6 3.40886 0.77687   1 
   0   3   6 4.19277 0.88209   3 
  -1  -3  -6 0.35247 0.62509   2 
  -1  -3  -6 1.06164 0.55760   3 
  -1  -3  -6 0.43212 0.48689   1 
   1   3   6 0.96774 0.74592   3 
   1   3   6 0.77367 0.60112   1 
  -2  -3  -6 21.0324 1.45998   3 
  -2  -3  -6 22.2341 1.72814   2 
  -2  -3  -6 24.9358 1.63640   1 
   2   3   6 23.7101 2.00071   1 
   2   3   6 21.6443 1.68026   3 
  -3  -3  -6 2.07013 0.81698   1 
  -3  -3  -6 2.23001 0.65824   3 
  -3  -3  -6 1.83675 0.79791   2 
   3   3   6 4.27588 0.85771   3 
  -4  -3  -6 52.9447 2.31658   3 
  -4  -3  -6 55.3069 2.67824   2 
  -4  -3  -6 57.6080 3.08289   1 
  -5  -3  -6 576.831 16.4319   1 
  -5  -3  -6 574.351 15.3116   2 
  -5  -3  -6 602.306 14.8653   3 
  -5  -3  -6 596.450 14.8210   3 
  -6  -3  -6 23.8144 3.10367   2 
  -6  -3  -6 22.2634 2.74397   1 
  -6  -3  -6 26.1712 1.80039   3 
  -6  -3  -6 20.5698 2.97668   1 
  -6  -3  -6 23.7510 2.14116   3 
  -7  -3  -6 4.78028 1.47012   2 
  -7  -3  -6 1.32468 2.25817   1 
  -7  -3  -6 3.83523 1.42323   3 
  -7  -3  -6 3.82556 1.01130   3 
  -7  -3  -6 4.04128 2.81918   1 
  -8  -3  -6 1.15908 3.25067   1 
  -8  -3  -6 4.84902 1.54469   2 
  -8  -3  -6 1.65177 3.47854   1 
  -8  -3  -6 1.25018 1.76456   3 
   5  -4  -6 6.80342 1.88323   3 
   5  -4  -6 3.27487 2.43142   1 
  -5   4   6 8.85155 2.23159   3 
  -5   4   6 11.6120 2.32040   1 
   4  -4  -6 24.7820 1.85467   2 
   4  -4  -6 26.9321 2.65865   3 
   4  -4  -6 28.8132 3.19924   1 
   4  -4  -6 25.8312 1.66929   2 
  -4   4   6 31.6282 2.99314   1 
  -4   4   6 27.9196 3.18100   3 
   3  -4  -6 65.8176 2.77784   2 
   3  -4  -6 61.3514 3.27282   3 
   3  -4  -6 65.4158 2.83468   2 
   3  -4  -6 61.5565 3.76158   1 
  -3   4   6 62.2090 3.36717   1 
  -3   4   6 61.6253 3.59904   3 
   2  -4  -6 105.021 3.82294   2 
   2  -4  -6 98.6758 3.75785   2 
   2  -4  -6 105.872 4.05947   3 
   2  -4  -6 107.472 4.46087   1 
  -2   4   6 106.295 4.09760   1 
  -2   4   6 101.409 4.35904   3 
   1  -4  -6 136.336 4.69818   2 
   1  -4  -6 140.846 5.04123   1 
   1  -4  -6 143.639 4.80704   3 
   1  -4  -6 138.819 4.80916   2 
  -1   4   6 142.370 5.12431   3 
  -1   4   6 148.082 4.87372   1 
   0  -4  -6 125.204 4.32122   3 
   0  -4  -6 129.927 4.46622   2 
   0  -4  -6 124.873 4.38998   1 
   0   4   6 133.606 4.71268   3 
   0   4   6 118.625 4.31560   1 
  -1  -4  -6 229.523 6.67303   3 
  -1  -4  -6 224.216 6.85105   2 
  -1  -4  -6 223.482 6.63614   1 
   1   4   6 215.745 6.80083   1 
   1   4   6 231.344 6.95477   3 
  -2  -4  -6 185.445 6.10142   2 
  -2  -4  -6 197.520 5.89934   1 
  -2  -4  -6 190.163 5.84740   3 
   2   4   6 191.068 6.09391   3 
   2   4   6 196.600 6.39123   1 
  -3  -4  -6 34.4301 2.36467   2 
  -3  -4  -6 34.9666 2.13599   3 
  -3  -4  -6 35.1958 2.22014   1 
   3   4   6 39.1662 2.40523   3 
   3   4   6 36.2451 2.85760   1 
  -4  -4  -6 46.4831 2.88413   1 
  -4  -4  -6 46.0020 2.50033   3 
  -4  -4  -6 46.0461 2.77139   2 
  -5  -4  -6 69.1653 5.78416   1 
  -5  -4  -6 81.3308 3.68875   2 
  -5  -4  -6 74.1447 3.29413   3 
  -6  -4  -6 4.25584 2.03842   1 
  -6  -4  -6 5.39755 1.48568   2 
  -6  -4  -6 5.46400 1.33242   3 
  -6  -4  -6 5.53185 1.36450   3 
  -7  -4  -6 98.9451 4.03377   3 
  -7  -4  -6 91.1443 6.02324   1 
  -7  -4  -6 107.595 4.57741   2 
  -7  -4  -6 95.4254 4.48601   3 
  -7  -4  -6 105.526 6.57716   1 
   4  -5  -6 26.6961 2.63778   2 
   4  -5  -6 23.2318 3.07226   1 
   4  -5  -6 29.5842 2.22488   2 
   4  -5  -6 31.6445 3.02154   3 
  -4   5   6 24.9302 3.26761   3 
  -4   5   6 25.4380 2.69552   1 
   3  -5  -6 19.1398 2.46580   1 
   3  -5  -6 18.6038 2.26492   3 
   3  -5  -6 21.9575 2.30983   2 
  -3   5   6 19.4409 2.44496   3 
  -3   5   6 13.0406 1.96358   1 
   2  -5  -6 26.4661 2.67972   1 
   2  -5  -6 25.0052 2.34747   2 
   2  -5  -6 23.5799 2.39692   3 
  -2   5   6 23.9866 2.32584   1 
  -2   5   6 21.1980 2.40229   3 
   1  -5  -6 147.212 5.42370   1 
   1  -5  -6 129.076 5.48965   3 
   1  -5  -6 142.459 5.10900   2 
  -1   5   6 139.452 5.01904   1 
  -1   5   6 150.413 5.96705   3 
   0  -5  -6 17.5553 1.93304   2 
   0  -5  -6 18.6571 1.96658   1 
   0  -5  -6 18.1928 1.90679   3 
   0   5   6 16.8649 2.08821   3 
   0   5   6 16.8262 1.88004   1 
  -1  -5  -6 33.1540 2.53246   2 
  -1  -5  -6 34.5279 2.62304   2 
  -1  -5  -6 35.6192 2.17493   1 
  -1  -5  -6 32.0583 2.37229   3 
   1   5   6 35.8813 2.69559   3 
   1   5   6 35.2509 2.38598   1 
  -2  -5  -6 107.181 4.43296   2 
  -2  -5  -6 107.309 3.94522   1 
  -2  -5  -6 103.834 4.18181   3 
   2   5   6 108.726 4.45616   1 
   2   5   6 105.000 4.48206   3 
  -3  -5  -6 10.0590 1.56648   2 
  -3  -5  -6 13.2332 1.62195   3 
  -3  -5  -6 10.6158 1.35460   1 
   3   5   6 8.13753 1.73523   1 
   3   5   6 10.8174 1.58645   3 
  -4  -5  -6 48.5824 2.88629   1 
  -4  -5  -6 50.6359 3.00905   3 
  -4  -5  -6 47.9934 4.68153   2 
  -5  -5  -6 96.0520 4.57195   2 
  -5  -5  -6 91.7714 4.42598   1 
  -5  -5  -6 97.2015 4.31104   3 
  -6  -5  -6 0.70849 1.71926   1 
  -6  -5  -6 5.05577 1.74870   2 
  -6  -5  -6 4.32860 1.78834   3 
  -6  -5  -6 3.99154 1.66768   3 
  -7  -5  -6 20.5625 3.85057   1 
  -7  -5  -6 26.1768 3.38560   1 
  -7  -5  -6 25.2835 2.84018   3 
  -7  -5  -6 21.8655 2.66275   2 
  -7  -5  -6 25.5987 2.66738   3 
   4  -6  -6 39.7432 3.05031   2 
   4  -6  -6 38.2078 4.39794   1 
   4  -6  -6 39.3151 3.65280   3 
   4  -6  -6 41.0200 3.70642   2 
  -4   6   6 42.0630 4.28177   1 
  -4   6   6 47.6988 5.11096   3 
   3  -6  -6 11.2336 1.83725   2 
   3  -6  -6 11.7636 2.26415   3 
   3  -6  -6 17.5180 2.88857   1 
  -3   6   6 14.5503 2.34502   1 
  -3   6   6 12.9919 2.59396   3 
   2  -6  -6 -0.2029 1.36535   2 
   2  -6  -6 -2.4540 1.70861   1 
   2  -6  -6 1.28429 1.46342   3 
  -2   6   6 -0.5122 1.39737   1 
  -2   6   6 1.65021 1.85244   3 
   1  -6  -6 563.153 15.3151   3 
   1  -6  -6 572.849 15.6845   1 
   1  -6  -6 557.254 15.3061   2 
  -1   6   6 548.085 15.9321   3 
  -1   6   6 564.460 15.1883   1 
   0  -6  -6 179.036 6.08107   3 
   0  -6  -6 148.981 6.17290   1 
   0  -6  -6 171.370 6.16090   2 
   0   6   6 168.243 6.44873   1 
   0   6   6 178.252 6.68657   3 
  -1  -6  -6 242.573 8.17953   3 
  -1  -6  -6 245.569 7.56154   1 
  -1  -6  -6 243.715 8.21381   2 
   1   6   6 225.998 9.07553   3 
   1   6   6 251.949 7.74147   1 
  -2  -6  -6 194.098 6.69438   3 
  -2  -6  -6 199.033 6.31613   1 
  -2  -6  -6 190.010 6.97607   2 
   2   6   6 199.616 6.87601   1 
   2   6   6 189.885 6.93998   3 
  -3  -6  -6 6.37431 1.64971   3 
  -3  -6  -6 5.05680 1.59277   2 
  -3  -6  -6 3.94908 1.63717   2 
  -3  -6  -6 5.52093 1.19141   1 
   3   6   6 3.59215 1.50721   1 
   3   6   6 4.17176 1.64085   3 
  -4  -6  -6 28.9270 3.01947   2 
  -4  -6  -6 33.0320 3.21986   2 
  -4  -6  -6 23.1845 2.47130   3 
  -4  -6  -6 18.5908 3.12361   1 
  -5  -6  -6 328.959 10.7582   2 
  -5  -6  -6 333.703 10.4588   2 
  -5  -6  -6 338.299 10.1064   1 
  -5  -6  -6 326.552 10.3988   3 
  -6  -6  -6 24.0308 2.86719   3 
  -6  -6  -6 18.6968 2.92643   2 
  -6  -6  -6 20.9488 2.65830   1 
  -6  -6  -6 21.1976 3.11649   2 
  -7  -6  -6 66.0919 4.96261   2 
  -7  -6  -6 63.7033 5.09619   3 
  -7  -6  -6 60.2493 5.61695   2 
  -7  -6  -6 66.0712 6.77712   1 
  -7  -6  -6 60.7528 5.00374   1 
  -7  -6  -6 48.5307 4.78192   3 
   2  -7  -6 27.4970 3.23584   1 
   2  -7  -6 20.8703 2.59266   3 
   2  -7  -6 28.1704 2.87729   2 
  -2   7   6 29.4834 3.65512   3 
  -2   7   6 24.5456 2.74767   1 
   1  -7  -6 8.82125 1.94232   3 
   1  -7  -6 15.4429 2.48625   1 
   1  -7  -6 10.0416 2.15570   2 
  -1   7   6 12.4139 2.57025   3 
  -1   7   6 8.63211 1.72417   1 
   0  -7  -6 15.2285 2.26516   3 
   0  -7  -6 17.0133 2.35395   2 
   0  -7  -6 15.2158 2.17273   1 
   0   7   6 13.3486 1.96672   1 
   0   7   6 15.1498 2.70205   3 
  -1  -7  -6 371.186 11.1816   3 
  -1  -7  -6 368.728 11.3921   2 
  -1  -7  -6 363.730 10.8599   1 
   1   7   6 363.849 11.0145   1 
   1   7   6 378.197 11.8052   3 
  -2  -7  -6 94.9693 4.83558   3 
  -2  -7  -6 95.2324 4.30182   1 
  -2  -7  -6 96.4280 4.98514   2 
   2   7   6 93.4478 4.78197   1 
   2   7   6 93.4815 5.23322   3 
  -3  -7  -6 35.2538 2.65536   1 
  -3  -7  -6 36.0053 3.52289   3 
  -3  -7  -6 38.3278 3.76934   2 
   3   7   6 30.4682 3.40361   3 
   3   7   6 41.7569 3.76017   1 
  -4  -7  -6 11.7973 2.33781   3 
  -4  -7  -6 8.95780 1.63543   1 
  -4  -7  -6 7.76858 2.39454   2 
  -4  -7  -6 8.98153 2.43632   2 
  -5  -7  -6 31.5792 3.15725   1 
  -5  -7  -6 34.4071 3.72958   2 
  -5  -7  -6 28.3614 3.33223   2 
  -5  -7  -6 29.2323 3.36325   3 
  -6  -7  -6 12.4218 3.38673   2 
  -6  -7  -6 11.9866 2.38602   1 
  -6  -7  -6 11.2574 2.63778   2 
  -6  -7  -6 8.98572 2.84473   3 
   1  -8  -6 21.3256 2.87858   3 
   1  -8  -6 21.2474 3.20839   1 
   1  -8  -6 30.5447 3.47083   2 
  -1   8   6 28.3322 3.15571   1 
  -1   8   6 27.5456 4.00349   3 
   0  -8  -6 136.604 6.40146   2 
   0  -8  -6 141.793 6.33132   1 
   0  -8  -6 142.241 6.30052   3 
   0   8   6 135.475 7.19368   3 
   0   8   6 135.495 6.16437   1 
  -1  -8  -6 11.9318 2.10770   1 
  -1  -8  -6 9.59485 2.30426   3 
  -1  -8  -6 15.3713 2.85520   2 
   1   8   6 11.3516 2.21250   1 
   1   8   6 7.37828 2.76198   3 
  -2  -8  -6 3.89510 2.22567   3 
  -2  -8  -6 7.97640 1.85374   1 
  -2  -8  -6 6.84880 2.38728   2 
   2   8   6 4.11950 2.16470   1 
   2   8   6 9.26561 2.56190   3 
  -3  -8  -6 4.87695 2.48100   2 
  -3  -8  -6 5.16346 1.56155   1 
  -3  -8  -6 2.77657 2.20738   3 
   3   8   6 8.62325 2.44411   1 
   3   8   6 5.99848 2.93270   3 
  -4  -8  -6 2.06484 2.28504   3 
  -4  -8  -6 -0.7029 1.49011   1 
  -4  -8  -6 -2.0412 2.43374   2 
  -4  -8  -6 -0.7166 2.26595   2 
  -5  -8  -6 -0.3267 2.90424   2 
  -5  -8  -6 -2.5868 1.67990   1 
  -5  -8  -6 0.41485 2.73673   2 
  -5  -8  -6 -4.3506 2.53895   3 
   3   7  -7 3.93077 2.67231   2 
  -3  -7   7 3.67409 2.06452   2 
  -3  -7   7 5.95822 2.67973   3 
  -3  -7   7 0.38085 3.25671   3 
   2   7  -7 9.33377 2.65465   2 
  -2  -7   7 6.32461 2.53731   3 
  -2  -7   7 5.72250 2.13728   2 
  -2  -7   7 10.6341 3.09556   3 
   1   7  -7 30.5985 3.62373   2 
  -1  -7   7 28.6881 3.54475   3 
  -1  -7   7 22.5183 2.54754   2 
  -1  -7   7 26.8046 3.40565   3 
   0   7  -7 6.71622 2.57408   2 
   0  -7   7 4.33534 2.34399   3 
   0  -7   7 5.16384 1.92437   2 
   0  -7   7 4.86229 2.61211   3 
  -1   7  -7 26.9983 3.35682   2 
   1  -7   7 34.2781 3.55694   3 
   1  -7   7 28.9183 2.78459   2 
   5   6  -7 4.46071 2.66423   2 
  -5  -6   7 5.25730 1.94514   2 
  -5  -6   7 4.21263 2.46843   3 
   4   6  -7 4.37548 2.22955   2 
  -4  -6   7 2.14236 1.67967   2 
  -4  -6   7 4.85953 2.28066   3 
   3   6  -7 7.31463 2.33276   2 
  -3  -6   7 9.58528 1.78551   2 
  -3  -6   7 11.0574 2.45801   3 
   2   6  -7 51.5578 4.23285   2 
  -2  -6   7 62.9591 4.90258   3 
  -2  -6   7 44.6581 4.03871   3 
  -2  -6   7 52.1127 3.37204   2 
   1   6  -7 36.2043 3.74773   2 
  -1  -6   7 37.0593 3.89509   3 
  -1  -6   7 25.6540 2.86576   3 
  -1  -6   7 39.4194 3.01092   2 
   0   6  -7 117.260 5.54665   2 
   0  -6   7 106.819 4.61088   2 
   0  -6   7 108.850 5.38312   3 
   0  -6   7 109.426 5.28018   3 
  -1   6  -7 265.630 6.93525   1 
  -1   6  -7 265.595 9.12632   2 
  -1   6  -7 269.299 6.89542   1 
   1  -6   7 267.778 8.82553   3 
   1  -6   7 254.584 8.73265   3 
   1  -6   7 264.076 8.23996   2 
  -2   6  -7 16.7292 2.67382   2 
  -2   6  -7 13.9428 1.86704   1 
  -2   6  -7 16.8666 1.90707   1 
   2  -6   7 15.0428 2.03477   2 
   2  -6   7 10.8777 2.13293   3 
  -3   6  -7 5.86840 2.13517   1 
  -3   6  -7 2.54234 2.31789   2 
   3  -6   7 7.23011 1.88787   3 
   3  -6   7 4.33300 2.04993   2 
   5   5  -7 1.68815 2.02909   2 
  -5  -5   7 1.61106 0.70533   1 
  -5  -5   7 3.02692 1.33464   2 
  -5  -5   7 3.12535 1.75504   3 
   4   5  -7 15.0995 2.31978   2 
  -4  -5   7 17.2470 1.84084   2 
  -4  -5   7 15.6813 2.28702   3 
   3   5  -7 12.0503 3.51592   2 
  -3  -5   7 12.8498 1.79767   2 
  -3  -5   7 12.7374 1.96955   3 
   2   5  -7 9.58787 1.71684   2 
  -2  -5   7 16.1704 2.31312   3 
  -2  -5   7 16.3163 1.80660   2 
   1   5  -7 81.1813 4.14443   2 
  -1  -5   7 88.1035 3.64618   2 
  -1  -5   7 86.2619 4.17000   3 
  -1  -5   7 85.0554 4.61127   3 
   0   5  -7 5.75367 1.55224   2 
   0  -5   7 7.20782 1.69707   3 
   0  -5   7 5.54039 1.15803   2 
   0  -5   7 4.70429 1.46764   3 
  -1   5  -7 581.990 14.3104   1 
  -1   5  -7 583.834 14.2926   1 
  -1   5  -7 560.976 15.7613   2 
   1  -5   7 565.070 15.0877   2 
   1  -5   7 570.741 15.3693   3 
   1  -5   7 567.612 15.4132   3 
  -2   5  -7 58.6186 3.24848   1 
  -2   5  -7 58.7340 3.12442   1 
  -2   5  -7 57.5162 3.73146   2 
   2  -5   7 60.2546 3.39755   3 
   2  -5   7 55.3627 3.12388   2 
  -3   5  -7 84.4537 5.01081   1 
  -3   5  -7 92.4816 4.80583   2 
   3  -5   7 92.7315 4.20206   2 
   3  -5   7 90.3623 3.82068   3 
  -4   5  -7 6.99395 2.42436   1 
  -4   5  -7 8.33093 2.42573   2 
   4  -5   7 6.72385 1.42218   3 
   4  -5   7 5.61084 1.66876   2 
  -6  -4   7 5.58372 1.58493   1 
  -6  -4   7 3.99823 2.00509   3 
  -6  -4   7 5.66010 1.24945   2 
   5   4  -7 0.48749 1.51829   2 
  -5  -4   7 0.92306 0.96131   1 
  -5  -4   7 0.47118 0.99761   2 
  -5  -4   7 -1.7644 1.41367   3 
   4   4  -7 56.3188 3.33276   2 
  -4  -4   7 51.4369 3.42693   3 
  -4  -4   7 55.0826 2.57625   2 
  -4  -4   7 52.9727 2.06927   1 
   3   4  -7 324.638 9.49807   2 
  -3  -4   7 318.201 8.05352   1 
  -3  -4   7 331.815 9.84666   3 
  -3  -4   7 330.834 8.93397   2 
   2   4  -7 54.9074 3.16226   2 
  -2  -4   7 57.5320 2.70087   2 
  -2  -4   7 59.3160 3.27853   3 
   1   4  -7 26.2910 2.27579   2 
  -1  -4   7 29.3351 2.44951   3 
  -1  -4   7 30.3858 1.99596   2 
   0   4  -7 41.0279 1.64902   1 
   0   4  -7 42.4875 1.42290   1 
   0   4  -7 37.2634 2.58054   2 
   0  -4   7 48.9851 3.00706   3 
   0  -4   7 42.6903 2.64108   3 
   0  -4   7 39.1766 2.27107   2 
  -1   4  -7 7.06913 1.08847   1 
  -1   4  -7 6.18951 1.99786   2 
  -1   4  -7 6.63210 0.99830   1 
   1  -4   7 5.39826 1.19429   3 
   1  -4   7 6.53546 1.38717   2 
   1  -4   7 4.31084 1.28425   3 
  -2   4  -7 9.62912 1.50704   1 
  -2   4  -7 9.56151 1.56800   2 
  -2   4  -7 11.8357 1.55088   1 
   2  -4   7 9.02249 1.37534   3 
   2  -4   7 10.3540 1.43948   3 
   2  -4   7 12.0409 1.60685   2 
  -3   4  -7 191.451 6.70536   2 
  -3   4  -7 192.985 6.65893   1 
   3  -4   7 196.992 6.20312   2 
   3  -4   7 189.987 5.65590   3 
   3  -4   7 189.765 5.84313   3 
  -4   4  -7 43.1839 4.46474   1 
  -4   4  -7 33.7722 3.03282   2 
   4  -4   7 24.5487 2.52667   2 
   4  -4   7 34.3046 1.79817   3 
  -5   4  -7 0.76923 2.23951   1 
  -5   4  -7 3.74218 2.05706   2 
   5  -4   7 2.55568 1.01305   3 
   5  -4   7 2.46674 0.71923   3 
   5  -4   7 -0.0135 1.62294   2 
   6   3  -7 6.32037 2.39610   1 
  -6  -3   7 7.56663 0.84381   2 
  -6  -3   7 6.52617 2.00761   3 
  -6  -3   7 6.74352 1.72134   1 
   5   3  -7 1.20514 1.11918   2 
   5   3  -7 -0.7123 1.55008   1 
  -5  -3   7 -1.8768 1.29700   3 
  -5  -3   7 0.48762 1.08561   1 
  -5  -3   7 -0.2373 0.67029   2 
   4   3  -7 6.05099 1.31665   2 
   4   3  -7 4.47349 1.17926   1 
  -4  -3   7 3.64464 0.84560   2 
  -4  -3   7 3.60152 0.89911   1 
  -4  -3   7 4.86511 1.31877   3 
   3   3  -7 197.151 6.11258   2 
   3   3  -7 200.059 5.76865   1 
  -3  -3   7 188.939 6.38902   3 
  -3  -3   7 197.043 5.37987   1 
  -3  -3   7 206.367 5.65799   2 
   2   3  -7 16.2130 1.20268   1 
   2   3  -7 17.4320 1.71736   2 
  -2  -3   7 16.9942 1.42475   2 
  -2  -3   7 19.6046 1.91566   3 
  -2  -3   7 15.8131 1.08469   1 
   1   3  -7 29.0282 1.25416   1 
   1   3  -7 31.5676 2.06920   2 
  -1  -3   7 25.6782 1.64418   2 
  -1  -3   7 26.4630 2.02691   3 
   0   3  -7 273.514 6.82578   1 
   0   3  -7 269.873 7.78609   2 
   0  -3   7 267.658 7.39516   2 
   0  -3   7 255.657 7.53806   3 
  -1   3  -7 3.51005 1.00348   2 
  -1   3  -7 3.09765 0.75077   1 
  -1   3  -7 2.99264 0.88856   1 
   1  -3   7 3.86027 0.87300   2 
   1  -3   7 3.00000 0.87038   3 
   1  -3   7 2.45824 0.95030   3 
  -2   3  -7 314.978 9.16848   1 
  -2   3  -7 322.609 9.22120   1 
  -2   3  -7 320.619 9.18252   2 
   2  -3   7 323.354 8.87802   2 
   2  -3   7 320.238 8.52598   3 
   2  -3   7 329.340 8.64877   3 
  -3   3  -7 2.50900 1.55829   2 
  -3   3  -7 4.10516 1.41893   1 
   3  -3   7 4.41695 1.69851   2 
   3  -3   7 4.95552 0.84219   3 
   3  -3   7 4.39307 0.79808   3 
  -4   3  -7 19.6211 2.04416   2 
  -4   3  -7 24.4125 2.69801   1 
   4  -3   7 22.5246 2.20438   2 
   4  -3   7 21.9409 1.03870   3 
   4  -3   7 20.7032 1.19519   3 
  -5   3  -7 30.1411 2.94964   2 
  -5   3  -7 27.0161 3.09508   1 
   5  -3   7 29.1783 2.65974   2 
  -6   3  -7 -1.0983 2.75137   1 
  -6   3  -7 0.67516 2.02156   2 
   6  -3   7 -1.0318 1.80414   2 
   6   2  -7 3.61281 2.20162   1 
   6   2  -7 7.66355 2.56015   3 
  -6  -2   7 3.21162 1.60353   3 
  -6  -2   7 6.97208 1.95232   1 
   5   2  -7 37.4935 3.24076   1 
   5   2  -7 35.5844 3.50517   3 
  -5  -2   7 34.3317 2.60927   3 
  -5  -2   7 31.5831 1.41299   2 
  -5  -2   7 33.9924 2.68596   1 
   4   2  -7 19.2848 1.62184   2 
   4   2  -7 18.9326 1.96272   1 
   4   2  -7 20.6219 2.43343   3 
  -4  -2   7 18.6226 1.18505   2 
  -4  -2   7 17.8966 1.79229   1 
  -4  -2   7 17.7465 2.03345   3 
   3   2  -7 130.986 5.08141   3 
   3   2  -7 132.049 4.43255   1 
   3   2  -7 122.166 4.12444   2 
  -3  -2   7 128.713 4.03211   1 
  -3  -2   7 132.163 3.81583   2 
  -3  -2   7 131.017 4.63809   3 
   2   2  -7 200.237 5.64370   1 
   2   2  -7 198.159 5.78849   2 
   2   2  -7 195.081 6.41904   3 
  -2  -2   7 200.371 6.08106   3 
  -2  -2   7 200.140 5.49860   2 
  -2  -2   7 199.742 5.47143   1 
   1   2  -7 6.33257 0.74176   1 
   1   2  -7 5.64487 0.85336   2 
  -1  -2   7 4.91108 0.72440   2 
  -1  -2   7 3.97666 0.84129   3 
  -1  -2   7 5.73873 0.80641   1 
   0   2  -7 534.560 13.8662   2 
   0   2  -7 547.669 13.4085   1 
   0  -2   7 551.546 13.7722   3 
   0  -2   7 538.708 13.6870   2 
  -1   2  -7 105.474 3.62047   2 
  -1   2  -7 105.737 3.50637   1 
   1  -2   7 103.828 3.49332   2 
   1  -2   7 107.990 3.32017   3 
  -2   2  -7 21.0191 1.59890   2 
  -2   2  -7 19.0825 2.05096   1 
  -2   2  -7 20.3388 1.89391   1 
   2  -2   7 21.2291 1.13486   3 
   2  -2   7 19.2296 1.36561   3 
   2  -2   7 20.1441 1.47661   2 
  -3   2  -7 365.320 10.8421   1 
  -3   2  -7 362.660 10.6927   1 
  -3   2  -7 379.940 10.0844   2 
   3  -2   7 370.511 8.82708   3 
   3  -2   7 368.690 8.80655   3 
   3  -2   7 352.540 9.89911   2 
  -4   2  -7 28.6426 2.31559   2 
  -4   2  -7 23.2574 2.57260   1 
   4  -2   7 22.2969 2.08190   2 
  -5   2  -7 17.1792 1.90018   2 
  -5   2  -7 17.2384 2.74979   1 
   5  -2   7 11.2900 1.68850   2 
  -6   2  -7 10.7564 1.83854   2 
  -6   2  -7 13.0838 3.15946   1 
   6  -2   7 13.0329 2.11967   2 
   6   1  -7 30.5369 3.49701   1 
   6   1  -7 35.3928 3.70788   3 
  -6  -1   7 34.5372 3.14503   3 
  -6  -1   7 36.4699 3.78192   1 
   5   1  -7 123.015 5.42125   3 
   5   1  -7 123.172 5.44003   1 
  -5  -1   7 127.122 4.84438   3 
  -5  -1   7 122.966 4.90220   1 
   4   1  -7 59.4965 2.12760   2 
   4   1  -7 61.5636 3.83669   3 
   4   1  -7 54.0274 3.29967   1 
  -4  -1   7 58.5334 2.91625   1 
  -4  -1   7 58.4590 4.11382   3 
  -4  -1   7 58.6190 1.94166   2 
   3   1  -7 227.125 7.18187   3 
   3   1  -7 221.504 6.81562   1 
   3   1  -7 220.445 6.05194   2 
  -3  -1   7 226.590 6.69899   3 
  -3  -1   7 220.984 6.44338   1 
  -3  -1   7 227.215 5.88675   2 
   2   1  -7 52.3951 2.08588   2 
   2   1  -7 54.3703 2.37091   1 
   2   1  -7 52.6810 2.72537   3 
  -2  -1   7 53.9790 2.37087   3 
  -2  -1   7 53.0082 1.98048   2 
  -2  -1   7 55.3013 2.21794   1 
   1   1  -7 289.533 7.71689   2 
   1   1  -7 292.057 7.77948   1 
   1   1  -7 282.003 8.18779   3 
  -1  -1   7 294.489 7.79186   1 
  -1  -1   7 296.917 7.88881   3 
  -1  -1   7 300.146 7.68824   2 
   0   1  -7 71.2797 2.59689   2 
   0   1  -7 71.6458 2.79908   3 
   0   1  -7 73.6727 2.53445   1 
   0  -1   7 77.2952 2.90741   1 
   0  -1   7 73.4240 2.53507   3 
   0  -1   7 74.4918 2.62954   2 
  -1   1  -7 583.866 14.5722   1 
  -1   1  -7 566.337 14.4841   2 
   1  -1   7 580.843 14.5088   2 
   1  -1   7 577.275 14.0784   3 
  -2   1  -7 169.177 5.44918   1 
  -2   1  -7 165.711 5.03436   2 
   2  -1   7 167.866 4.30802   3 
   2  -1   7 175.554 5.09778   2 
  -3   1  -7 1979.44 49.9209   1 
  -3   1  -7 2041.29 49.9529   1 
  -3   1  -7 2111.87 49.0298   2 
   3  -1   7 2050.22 49.0572   2 
  -4   1  -7 513.532 13.3209   2 
  -4   1  -7 509.210 14.5072   1 
   4  -1   7 507.629 13.4754   2 
  -5   1  -7 37.7016 3.79561   1 
  -5   1  -7 31.3799 3.46216   2 
  -6   1  -7 41.2305 4.12901   1 
  -6   1  -7 30.4969 2.67680   2 
   6  -1   7 30.4113 3.07408   2 
  -7   1  -7 -0.4335 1.51784   2 
  -7   1  -7 2.55074 3.14719   1 
   7  -1   7 -0.9821 2.06456   2 
   6   0  -7 14.3958 2.67978   1 
   6   0  -7 20.6139 3.00962   3 
  -6   0   7 18.7230 2.24573   3 
  -6   0   7 18.6508 2.85128   1 
   5   0  -7 101.779 4.86557   3 
   5   0  -7 102.723 5.14991   1 
  -5   0   7 103.521 4.59600   1 
  -5   0   7 100.552 4.36191   3 
   4   0  -7 40.9250 3.01339   1 
   4   0  -7 38.7549 2.80419   3 
  -4   0   7 39.5680 2.62695   1 
  -4   0   7 35.8603 2.87391   3 
   3   0  -7 990.845 24.9494   1 
   3   0  -7 998.678 24.9513   3 
   3   0  -7 986.048 23.6723   2 
  -3   0   7 998.007 24.6044   1 
  -3   0   7 998.214 23.7697   2 
  -3   0   7 970.545 24.6019   3 
   2   0  -7 356.474 8.92225   2 
   2   0  -7 341.121 9.69410   3 
   2   0  -7 363.186 9.70905   1 
  -2   0   7 359.538 9.06117   2 
  -2   0   7 359.050 9.45479   1 
  -2   0   7 346.022 9.49914   3 
   1   0  -7 157.349 4.45157   2 
   1   0  -7 158.248 4.93204   3 
   1   0  -7 159.160 4.85298   1 
  -1   0   7 161.850 4.77127   3 
  -1   0   7 166.710 4.65046   2 
  -1   0   7 161.644 4.80606   1 
   0   0  -7 301.134 7.92728   1 
   0   0  -7 296.586 7.73435   2 
   0   0  -7 302.533 7.91015   3 
   0   0   7 293.185 7.88126   2 
   0   0   7 297.855 7.74683   3 
   0   0   7 288.783 8.11049   1 
  -1   0  -7 786.404 20.6904   1 
  -1   0  -7 871.848 20.5418   2 
  -1   0  -7 842.370 20.3511   3 
   1   0   7 851.110 20.2180   3 
   1   0   7 863.399 20.7142   2 
   1   0   7 823.272 21.1811   1 
  -2   0  -7 352.549 9.01091   2 
  -2   0  -7 338.196 9.44626   1 
  -2   0  -7 331.094 8.41904   3 
   2   0   7 333.291 9.17628   2 
   2   0   7 348.521 8.36500   3 
  -3   0  -7 2913.62 69.2081   1 
  -3   0  -7 2897.24 68.1347   2 
   3   0   7 2807.28 68.3820   2 
  -4   0  -7 2006.66 48.6664   1 
  -4   0  -7 1955.15 48.5581   1 
  -4   0  -7 1903.67 47.0862   2 
   4   0   7 2001.66 47.5366   2 
  -5   0  -7 7.73701 1.98093   1 
  -5   0  -7 3.66205 0.90445   2 
   5   0   7 3.00662 1.22324   2 
  -6   0  -7 48.3776 4.53536   1 
  -6   0  -7 40.1301 2.55068   2 
   6   0   7 44.5823 3.43349   2 
  -7   0  -7 19.4488 1.95252   2 
  -7   0  -7 23.9514 3.74587   1 
   7   0   7 19.4364 2.80740   2 
   6  -1  -7 61.5791 4.54437   3 
   6  -1  -7 61.2469 5.33837   1 
  -6   1   7 56.1538 3.97234   3 
  -6   1   7 64.8105 4.67281   1 
   5  -1  -7 121.306 5.22667   3 
   5  -1  -7 124.090 5.95702   1 
  -5   1   7 124.162 5.37590   1 
  -5   1   7 123.212 4.96391   3 
   4  -1  -7 40.0988 3.13880   1 
   4  -1  -7 38.3851 2.69141   3 
  -4   1   7 36.4854 2.47851   3 
  -4   1   7 37.8327 2.74662   1 
   3  -1  -7 55.8510 2.80460   3 
   3  -1  -7 56.8931 3.12471   1 
   3  -1  -7 56.4291 1.77622   2 
  -3   1   7 56.9436 2.84182   1 
  -3   1   7 59.1023 2.74421   3 
   2  -1  -7 31.3472 2.05513   1 
   2  -1  -7 29.7869 1.28508   2 
   2  -1  -7 29.4706 1.83969   3 
  -2   1   7 29.8448 1.59629   2 
  -2   1   7 29.3211 1.84840   1 
  -2   1   7 31.0201 1.79320   3 
   1  -1  -7 1114.54 26.5707   2 
   1  -1  -7 1106.88 27.0429   3 
   1  -1  -7 1095.91 27.1983   1 
  -1   1   7 1083.77 27.0161   3 
  -1   1   7 1133.75 27.1287   1 
  -1   1   7 1119.96 26.9064   2 
   0  -1  -7 10.5344 1.08411   1 
   0  -1  -7 9.43571 0.94631   3 
   0  -1  -7 11.8913 0.95142   2 
   0   1   7 12.2051 1.03022   3 
   0   1   7 9.83374 1.13629   1 
   0   1   7 10.6704 1.14484   2 
  -1  -1  -7 151.464 4.39249   2 
  -1  -1  -7 142.159 4.58484   1 
  -1  -1  -7 155.519 4.20887   3 
   1   1   7 145.509 4.92195   1 
   1   1   7 153.465 4.29846   3 
   1   1   7 149.773 4.68181   2 
  -2  -1  -7 107.227 3.01436   3 
  -2  -1  -7 107.022 3.50377   2 
  -2  -1  -7 112.909 3.98839   1 
   2   1   7 112.815 3.20358   3 
   2   1   7 103.142 3.75905   2 
  -3  -1  -7 0.69585 0.26258   3 
  -3  -1  -7 0.57996 0.85886   1 
  -3  -1  -7 -0.5071 0.52625   2 
   3   1   7 -0.9341 0.70532   2 
  -4  -1  -7 16.4111 1.50823   2 
  -4  -1  -7 14.7823 1.97957   1 
   4   1   7 14.2203 1.73497   2 
  -5  -1  -7 74.7559 4.59582   1 
  -5  -1  -7 70.9652 4.33334   1 
  -5  -1  -7 77.1328 3.09677   2 
   5   1   7 72.7200 3.74699   2 
  -6  -1  -7 114.965 6.17637   1 
  -6  -1  -7 113.106 6.14794   1 
  -6  -1  -7 114.851 4.20677   2 
   6   1   7 120.304 5.21928   2 
  -7  -1  -7 88.1212 3.81668   2 
  -7  -1  -7 73.3711 6.11747   1 
   7   1   7 86.1985 5.04420   2 
   6  -2  -7 12.4297 2.46311   3 
   6  -2  -7 14.3151 3.04451   1 
  -6   2   7 17.3034 3.03228   1 
  -6   2   7 13.6719 2.60930   3 
   5  -2  -7 132.002 5.43275   3 
   5  -2  -7 130.188 6.40055   1 
  -5   2   7 127.747 5.68270   1 
  -5   2   7 131.820 5.47479   3 
   4  -2  -7 714.480 18.8069   3 
   4  -2  -7 713.092 19.4810   1 
  -4   2   7 723.358 18.9367   1 
  -4   2   7 710.403 18.7832   3 
   3  -2  -7 -0.7089 1.01528   1 
   3  -2  -7 -0.3403 0.61867   2 
   3  -2  -7 0.66243 0.38689   2 
   3  -2  -7 -0.8482 0.81796   3 
  -3   2   7 0.12365 0.89572   1 
  -3   2   7 1.17821 0.86564   3 
   2  -2  -7 5.28887 1.22300   1 
   2  -2  -7 6.87512 1.06742   3 
   2  -2  -7 7.26642 0.76573   2 
  -2   2   7 5.93488 1.01918   1 
  -2   2   7 7.06739 1.22203   3 
   1  -2  -7 127.586 4.30635   3 
   1  -2  -7 144.224 4.10440   2 
   1  -2  -7 136.091 4.62659   1 
  -1   2   7 140.232 4.54544   3 
  -1   2   7 140.987 4.52244   1 
   0  -2  -7 746.279 18.3289   3 
   0  -2  -7 742.653 18.3129   2 
   0  -2  -7 736.748 18.6268   1 
   0   2   7 745.492 18.5255   3 
   0   2   7 729.563 18.7068   1 
   0   2   7 746.996 18.6331   2 
  -1  -2  -7 61.8375 2.46524   2 
  -1  -2  -7 59.6421 2.21869   3 
  -1  -2  -7 58.9983 2.50217   1 
   1   2   7 61.7082 2.78901   1 
   1   2   7 60.6477 2.43122   3 
   1   2   7 60.4093 2.71274   2 
  -2  -2  -7 1747.69 42.0724   1 
  -2  -2  -7 1728.39 41.2236   3 
  -2  -2  -7 1758.97 41.7542   2 
   2   2   7 1749.13 42.1796   2 
   2   2   7 1709.08 41.4794   3 
   2   2   7 1733.87 42.6258   1 
  -3  -2  -7 66.5233 2.75491   2 
  -3  -2  -7 71.7508 3.26895   1 
  -3  -2  -7 67.8420 2.20659   3 
   3   2   7 71.3694 2.49053   3 
   3   2   7 71.7865 3.26228   2 
  -4  -2  -7 101.317 2.83077   3 
  -4  -2  -7 99.2087 4.38605   1 
  -4  -2  -7 96.7506 3.61193   2 
   4   2   7 103.630 4.26721   2 
  -5  -2  -7 327.377 7.99152   3 
  -5  -2  -7 338.433 7.99485   3 
  -5  -2  -7 324.315 10.4937   1 
  -5  -2  -7 320.527 9.02059   2 
   5   2   7 319.054 9.82060   2 
  -6  -2  -7 169.019 7.34984   1 
  -6  -2  -7 162.114 7.11216   1 
  -6  -2  -7 165.038 5.44744   2 
   6   2   7 173.144 6.49922   2 
  -7  -2  -7 9.57378 2.60136   1 
  -7  -2  -7 12.2428 3.09906   1 
  -7  -2  -7 7.77793 1.48522   2 
   5  -3  -7 41.1317 4.54679   1 
   5  -3  -7 43.3673 3.63540   3 
  -5   3   7 47.0590 3.98578   1 
  -5   3   7 39.5143 3.77796   3 
   4  -3  -7 21.1304 2.38390   3 
   4  -3  -7 19.6215 0.98651   2 
   4  -3  -7 24.2203 1.20755   2 
   4  -3  -7 24.1730 2.92656   1 
  -4   3   7 25.3081 2.64342   1 
  -4   3   7 15.9874 2.10491   3 
   3  -3  -7 96.6113 3.01712   2 
   3  -3  -7 93.8375 3.94802   3 
   3  -3  -7 94.0808 4.46831   1 
   3  -3  -7 94.3888 3.26630   2 
  -3   3   7 94.1554 4.19296   3 
  -3   3   7 92.5921 4.03591   1 
   2  -3  -7 -0.3741 0.76575   2 
   2  -3  -7 0.00490 0.66964   2 
   2  -3  -7 0.35897 0.82109   3 
   2  -3  -7 -0.5514 0.84357   1 
  -2   3   7 -1.2129 0.82342   3 
  -2   3   7 1.24457 0.85006   1 
   1  -3  -7 1.02302 0.70740   2 
   1  -3  -7 0.57698 0.80203   3 
   1  -3  -7 -0.1028 0.81718   1 
  -1   3   7 -0.3579 0.71761   3 
  -1   3   7 0.95418 0.73533   1 
   0  -3  -7 2.89454 0.84824   1 
   0  -3  -7 2.25331 0.78297   2 
   0  -3  -7 2.19133 0.71109   3 
   0   3   7 3.67274 0.96643   1 
   0   3   7 2.52032 0.84794   3 
  -1  -3  -7 380.341 9.95614   3 
  -1  -3  -7 371.991 10.1813   2 
  -1  -3  -7 396.473 10.3151   1 
   1   3   7 384.597 10.2884   3 
   1   3   7 361.428 10.5078   1 
  -2  -3  -7 329.058 9.04640   1 
  -2  -3  -7 315.695 8.89312   2 
  -2  -3  -7 321.560 8.51312   3 
   2   3   7 317.751 8.79956   3 
   2   3   7 320.761 9.56089   1 
  -3  -3  -7 258.672 7.38664   2 
  -3  -3  -7 257.247 7.62970   1 
  -3  -3  -7 243.868 6.83825   3 
   3   3   7 248.842 7.09446   3 
  -4  -3  -7 1.65763 0.93613   2 
  -4  -3  -7 2.10436 0.71007   3 
  -4  -3  -7 1.11608 1.13070   1 
  -5  -3  -7 177.564 6.12194   2 
  -5  -3  -7 189.230 5.37317   3 
  -5  -3  -7 194.801 7.00508   1 
  -5  -3  -7 192.001 5.49855   3 
  -6  -3  -7 61.4444 4.99705   1 
  -6  -3  -7 62.7430 2.46334   3 
  -6  -3  -7 63.1380 2.58729   3 
  -6  -3  -7 66.3124 3.32348   2 
  -6  -3  -7 61.6094 4.47560   1 
  -7  -3  -7 27.7734 3.54748   1 
  -7  -3  -7 28.5736 3.87295   1 
  -7  -3  -7 22.2378 2.02740   3 
  -7  -3  -7 27.8715 2.76142   2 
  -7  -3  -7 26.1049 1.56600   3 
   5  -4  -7 -0.9664 1.96617   3 
   5  -4  -7 -2.8924 2.85586   1 
  -5   4   7 -0.8541 2.14832   1 
  -5   4   7 -2.0476 2.16113   3 
   4  -4  -7 191.105 6.76772   3 
   4  -4  -7 196.011 7.76867   1 
   4  -4  -7 191.521 5.24264   2 
   4  -4  -7 187.918 5.30650   2 
  -4   4   7 184.083 6.97036   1 
  -4   4   7 182.984 7.19695   3 
   3  -4  -7 625.448 16.0624   2 
   3  -4  -7 629.676 15.9882   2 
   3  -4  -7 638.779 16.8558   3 
   3  -4  -7 635.080 17.6896   1 
  -3   4   7 624.797 17.2898   3 
  -3   4   7 658.672 17.1930   1 
   2  -4  -7 19.0611 2.19622   1 
   2  -4  -7 23.6630 1.98678   2 
   2  -4  -7 21.0670 1.88784   2 
   2  -4  -7 22.8258 2.20973   3 
  -2   4   7 20.7877 2.18683   1 
  -2   4   7 21.2349 2.40313   3 
   1  -4  -7 195.691 6.11192   2 
   1  -4  -7 202.550 6.32123   2 
   1  -4  -7 206.962 6.67092   1 
   1  -4  -7 194.658 6.22677   3 
  -1   4   7 204.797 6.69759   3 
  -1   4   7 199.357 6.34328   1 
   0  -4  -7 1.00317 0.78518   1 
   0  -4  -7 0.14927 0.70631   3 
   0  -4  -7 0.20274 0.90276   2 
   0   4   7 -0.4370 0.90181   3 
   0   4   7 -0.9263 0.77679   1 
  -1  -4  -7 403.378 10.9517   1 
  -1  -4  -7 413.783 11.0347   2 
  -1  -4  -7 395.525 10.7745   3 
   1   4   7 401.440 11.1448   3 
   1   4   7 389.180 11.2006   1 
  -2  -4  -7 98.5395 3.78339   1 
  -2  -4  -7 96.9931 3.95931   2 
  -2  -4  -7 101.025 3.73731   3 
   2   4   7 103.841 4.34034   1 
   2   4   7 102.304 4.06379   3 
  -3  -4  -7 687.300 18.0147   1 
  -3  -4  -7 689.664 17.5753   3 
  -3  -4  -7 688.050 18.0439   2 
   3   4   7 708.286 18.9759   1 
   3   4   7 699.891 17.8746   3 
  -4  -4  -7 1.64007 1.09134   2 
  -4  -4  -7 1.21315 0.89627   3 
  -4  -4  -7 0.68686 1.05694   1 
  -5  -4  -7 60.7950 3.33954   2 
  -5  -4  -7 63.3038 2.90395   3 
  -5  -4  -7 63.5289 3.69894   1 
  -6  -4  -7 115.825 4.27705   3 
  -6  -4  -7 117.648 4.82501   2 
  -6  -4  -7 106.237 4.16731   3 
  -6  -4  -7 115.569 5.67279   1 
  -7  -4  -7 222.418 6.53076   3 
  -7  -4  -7 221.284 6.84889   3 
  -7  -4  -7 215.955 8.96134   1 
  -7  -4  -7 207.065 9.53542   1 
  -7  -4  -7 217.237 7.30577   2 
   4  -5  -7 67.6489 4.44787   3 
   4  -5  -7 76.5341 5.52426   1 
   4  -5  -7 73.9799 3.14939   2 
   4  -5  -7 66.1786 3.32360   2 
  -4   5   7 61.9668 4.36331   1 
  -4   5   7 60.1909 4.84184   3 
   3  -5  -7 170.378 5.73960   2 
   3  -5  -7 171.879 6.27536   3 
   3  -5  -7 167.794 6.96420   1 
   3  -5  -7 173.711 5.74117   2 
  -3   5   7 173.318 6.91978   3 
  -3   5   7 174.447 6.47173   1 
   2  -5  -7 162.848 5.73575   3 
   2  -5  -7 159.013 6.20204   1 
   2  -5  -7 151.736 5.51490   2 
   2  -5  -7 159.768 5.58445   2 
  -2   5   7 158.966 6.32521   3 
  -2   5   7 160.741 5.81647   1 
   1  -5  -7 276.910 8.36054   3 
   1  -5  -7 274.760 8.33231   2 
   1  -5  -7 272.963 8.67086   1 
   1  -5  -7 277.420 8.42814   2 
  -1   5   7 282.830 8.48157   1 
  -1   5   7 280.564 8.96719   3 
   0  -5  -7 20.3677 2.12353   2 
   0  -5  -7 18.1955 2.09506   1 
   0  -5  -7 24.8420 2.24981   3 
   0  -5  -7 24.9427 2.51797   2 
   0   5   7 16.8564 2.00571   3 
   0   5   7 21.4942 2.21412   1 
  -1  -5  -7 226.660 7.20979   2 
  -1  -5  -7 223.394 6.97745   1 
  -1  -5  -7 215.356 6.88365   3 
   1   5   7 221.708 7.23551   1 
   1   5   7 225.705 7.44361   3 
  -2  -5  -7 1076.11 26.7470   1 
  -2  -5  -7 1058.12 26.6957   3 
  -2  -5  -7 1063.61 27.0787   2 
   2   5   7 1078.67 27.4246   1 
   2   5   7 1070.25 27.1263   3 
  -3  -5  -7 82.0889 3.75404   3 
  -3  -5  -7 85.6946 3.67354   1 
   3   5   7 88.7851 4.12458   3 
   3   5   7 91.8515 4.64718   1 
  -4  -5  -7 256.573 8.67534   1 
  -4  -5  -7 268.178 8.45137   2 
  -4  -5  -7 268.562 8.03867   3 
  -5  -5  -7 368.452 10.8174   3 
  -5  -5  -7 394.703 11.3809   2 
  -5  -5  -7 394.515 11.5569   1 
  -6  -5  -7 505.204 13.6753   2 
  -6  -5  -7 463.410 13.1430   3 
  -6  -5  -7 471.703 14.2173   1 
  -7  -5  -7 -0.5001 1.87446   3 
  -7  -5  -7 5.36448 3.34110   1 
  -7  -5  -7 -3.0472 2.33408   1 
  -7  -5  -7 2.51678 2.07676   3 
  -7  -5  -7 4.21474 2.24775   2 
   3  -6  -7 9.71485 2.87466   1 
   3  -6  -7 10.3167 1.91964   2 
   3  -6  -7 9.78649 2.10625   3 
   3  -6  -7 9.41088 2.10453   2 
  -3   6   7 10.7808 2.48749   3 
  -3   6   7 11.4803 2.21559   1 
   2  -6  -7 3.44773 1.52249   2 
   2  -6  -7 4.19524 1.96127   1 
   2  -6  -7 1.28993 1.67727   2 
   2  -6  -7 1.66008 1.54624   3 
  -2   6   7 -0.2046 1.79431   3 
  -2   6   7 2.81768 1.69222   1 
   1  -6  -7 300.166 9.33216   2 
   1  -6  -7 302.179 9.36584   2 
   1  -6  -7 300.876 9.64638   1 
   1  -6  -7 309.808 9.28396   3 
  -1   6   7 291.797 9.92885   3 
  -1   6   7 305.374 9.31963   1 
   0  -6  -7 23.5606 2.57512   3 
   0  -6  -7 22.0360 3.58892   2 
   0  -6  -7 19.6142 2.24457   1 
   0   6   7 26.6653 2.60827   1 
   0   6   7 22.4088 2.57671   3 
  -1  -6  -7 2.00942 1.40582   3 
  -1  -6  -7 2.28481 1.51613   2 
  -1  -6  -7 0.40742 1.19691   1 
  -1  -6  -7 -0.9967 1.54133   2 
   1   6   7 3.58680 1.46994   1 
   1   6   7 2.31324 1.70011   3 
  -2  -6  -7 31.2072 3.16729   2 
  -2  -6  -7 29.5265 3.19957   3 
  -2  -6  -7 31.1638 3.06851   2 
  -2  -6  -7 23.6507 3.71739   1 
   2   6   7 28.0546 5.07913   3 
   2   6   7 30.6524 3.44663   1 
  -3  -6  -7 33.3248 3.14952   3 
  -3  -6  -7 37.5066 3.33978   2 
  -3  -6  -7 37.0944 3.35444   2 
  -3  -6  -7 40.0457 2.70068   1 
   3   6   7 40.2993 3.55484   1 
   3   6   7 36.0006 3.27136   3 
  -4  -6  -7 1.29412 1.38409   3 
  -4  -6  -7 0.39924 1.61255   2 
  -4  -6  -7 0.12482 1.23082   1 
  -5  -6  -7 245.266 8.36527   3 
  -5  -6  -7 248.694 8.47924   2 
  -5  -6  -7 245.204 8.24245   1 
  -6  -6  -7 162.659 6.66869   3 
  -6  -6  -7 167.763 6.79406   1 
  -6  -6  -7 175.175 7.02876   2 
   2  -7  -7 326.571 10.3054   3 
   2  -7  -7 318.078 10.1024   2 
   2  -7  -7 316.531 11.0046   1 
  -2   7   7 299.116 11.1537   3 
  -2   7   7 316.321 10.2271   1 
   1  -7  -7 8.77670 2.25355   1 
   1  -7  -7 12.3167 2.43082   2 
   1  -7  -7 8.81090 2.00770   3 
  -1   7   7 7.53564 2.46325   3 
  -1   7   7 6.53107 1.83867   1 
   0  -7  -7 153.022 6.19304   3 
   0  -7  -7 160.508 6.32621   1 
   0  -7  -7 155.050 6.46322   2 
   0   7   7 157.750 6.25915   1 
   0   7   7 148.412 6.93344   3 
  -1  -7  -7 47.0596 3.43530   1 
  -1  -7  -7 49.4104 3.99177   2 
  -1  -7  -7 49.4722 3.77693   3 
   1   7   7 46.7777 4.26482   3 
   1   7   7 55.0509 3.91401   1 
  -2  -7  -7 517.291 14.6373   2 
  -2  -7  -7 505.347 14.7426   2 
  -2  -7  -7 511.724 14.2924   3 
  -2  -7  -7 498.976 13.9002   1 
   2   7   7 488.848 14.5472   1 
   2   7   7 471.694 14.6527   3 
  -3  -7  -7 208.966 8.21301   2 
  -3  -7  -7 214.723 8.13021   2 
  -3  -7  -7 211.757 7.25150   1 
  -3  -7  -7 227.584 7.89525   3 
   3   7   7 219.925 8.33644   3 
   3   7   7 233.623 8.41751   1 
  -4  -7  -7 52.6200 4.38201   2 
  -4  -7  -7 49.5725 4.65752   2 
  -4  -7  -7 51.8582 3.41849   1 
  -4  -7  -7 56.5433 4.07118   3 
  -5  -7  -7 25.6733 3.41079   2 
  -5  -7  -7 29.8170 3.63429   2 
  -5  -7  -7 34.0099 3.34031   1 
  -5  -7  -7 26.9050 2.87959   3 
  -6  -7  -7 20.5522 2.94487   1 
  -6  -7  -7 26.7040 3.90109   2 
  -6  -7  -7 17.1299 3.05329   3 
  -6  -7  -7 26.7535 3.77462   2 
   0  -8  -7 17.9662 2.97608   1 
   0  -8  -7 21.7441 2.85260   3 
   0  -8  -7 20.9971 3.15792   2 
   0   8   7 19.2102 3.58919   3 
   0   8   7 31.0058 3.22154   1 
  -1  -8  -7 3.60915 2.44419   2 
  -1  -8  -7 1.09142 1.80755   1 
  -1  -8  -7 4.99829 2.34903   3 
   1   8   7 1.46554 2.11971   1 
   1   8   7 3.08762 2.87543   3 
  -2  -8  -7 -4.4177 2.05675   3 
  -2  -8  -7 0.97069 1.74521   1 
  -2  -8  -7 -3.3875 2.15371   2 
   2   8   7 1.30675 2.64727   3 
   2   8   7 0.73445 2.33057   1 
  -3  -8  -7 69.0803 4.13208   1 
  -3  -8  -7 71.3057 5.32090   2 
  -3  -8  -7 68.2012 5.24584   2 
  -3  -8  -7 71.5213 5.23390   3 
   3   8   7 83.7645 5.61321   1 
   3   8   7 70.2386 5.92630   3 
  -4  -8  -7 36.6428 3.81305   2 
  -4  -8  -7 23.6188 3.23913   3 
  -4  -8  -7 29.8412 3.31341   1 
  -4  -8  -7 29.8746 3.56641   2 
   2   7  -8 18.9158 3.42025   2 
  -2  -7   8 17.5899 3.29627   3 
  -2  -7   8 24.7496 2.83288   2 
  -2  -7   8 22.6058 3.94502   3 
   1   7  -8 279.063 10.3728   2 
  -1  -7   8 275.021 9.82749   3 
  -1  -7   8 257.524 10.2639   3 
  -1  -7   8 276.693 8.95940   2 
   0   7  -8 62.6293 5.42974   2 
   0  -7   8 52.0976 4.05520   2 
   0  -7   8 63.8184 5.62632   3 
   0  -7   8 53.6710 5.08180   3 
   4   6  -8 27.1967 3.19148   2 
  -4  -6   8 20.8843 3.18972   3 
  -4  -6   8 27.0640 2.56959   2 
   3   6  -8 33.2857 3.59261   2 
  -3  -6   8 23.7095 2.40765   2 
  -3  -6   8 28.4496 3.23823   3 
   2   6  -8 -0.3651 2.06240   2 
  -2  -6   8 -0.0158 1.51505   2 
  -2  -6   8 4.38641 2.75131   3 
  -2  -6   8 1.32168 2.06605   3 
   1   6  -8 22.9385 2.84359   2 
  -1  -6   8 25.3737 2.49681   2 
  -1  -6   8 23.0521 2.83323   3 
  -1  -6   8 17.0277 2.90514   3 
   0   6  -8 132.387 6.18952   2 
   0  -6   8 129.553 6.15772   3 
   0  -6   8 129.413 5.25986   2 
   0  -6   8 135.380 5.94552   3 
  -1   6  -8 9.39800 1.04510   1 
  -1   6  -8 10.8232 1.21510   1 
  -1   6  -8 8.24170 2.12629   2 
   1  -6   8 7.46373 2.74167   3 
   1  -6   8 9.01536 1.84627   2 
   1  -6   8 9.44524 3.56430   3 
  -2   6  -8 -2.1592 2.19245   2 
  -2   6  -8 1.50328 1.41777   1 
  -2   6  -8 -0.4074 1.35749   1 
   2  -6   8 -0.8830 1.83053   3 
   2  -6   8 -1.5124 1.89254   3 
   2  -6   8 0.14662 1.59913   2 
  -5  -5   8 5.80224 0.97235   1 
  -5  -5   8 6.14587 2.54301   2 
  -5  -5   8 5.09780 2.08592   3 
   4   5  -8 69.6790 4.44585   2 
  -4  -5   8 64.0409 4.29308   3 
  -4  -5   8 73.7852 3.47990   2 
   3   5  -8 99.3341 4.94976   2 
  -3  -5   8 97.7036 5.00177   3 
  -3  -5   8 98.9009 4.08140   2 
   2   5  -8 121.305 5.40568   2 
  -2  -5   8 123.943 4.59861   2 
  -2  -5   8 122.710 5.34904   3 
   1   5  -8 21.0770 2.31796   2 
  -1  -5   8 17.5217 3.08422   3 
  -1  -5   8 22.0716 2.28550   2 
  -1  -5   8 20.7966 3.98409   3 
   0   5  -8 96.9009 4.50499   2 
   0  -5   8 85.8785 4.25679   3 
   0  -5   8 95.8044 3.90582   2 
   0  -5   8 91.7053 4.71655   3 
  -1   5  -8 16.1835 1.41528   1 
  -1   5  -8 13.4052 1.37787   1 
  -1   5  -8 14.2862 2.02871   2 
   1  -5   8 17.4951 2.05345   2 
   1  -5   8 16.5035 2.10352   3 
   1  -5   8 17.4841 2.21991   3 
  -2   5  -8 182.504 6.18135   1 
  -2   5  -8 201.919 7.30247   2 
  -2   5  -8 193.572 6.28935   1 
   2  -5   8 194.571 6.48267   2 
   2  -5   8 194.837 6.53132   3 
   2  -5   8 195.616 6.48173   3 
  -3   5  -8 24.6319 2.70083   1 
  -3   5  -8 26.9044 2.95478   2 
  -3   5  -8 20.8337 2.55635   1 
   3  -5   8 25.1012 2.75861   3 
   3  -5   8 20.8704 2.00056   3 
   3  -5   8 19.2275 2.17514   2 
  -4   5  -8 -2.3116 2.23274   1 
  -4   5  -8 -1.4379 2.30983   2 
   4  -5   8 0.94593 1.67376   2 
   4  -5   8 -0.8683 1.16670   3 
   4  -5   8 -0.4298 1.49006   3 
   5   4  -8 5.38473 1.77628   1 
   5   4  -8 2.34483 1.77616   2 
  -5  -4   8 3.40522 1.07059   1 
  -5  -4   8 3.32195 1.74881   3 
  -5  -4   8 2.08298 1.15168   2 
   4   4  -8 25.5204 2.34670   2 
   4   4  -8 27.4947 2.27026   1 
  -4  -4   8 30.8135 3.04683   3 
  -4  -4   8 23.8604 1.60435   1 
  -4  -4   8 26.9612 2.18124   2 
   3   4  -8 165.020 5.92030   2 
   3   4  -8 163.679 4.57813   1 
  -3  -4   8 163.987 4.47555   1 
  -3  -4   8 161.402 6.05674   3 
  -3  -4   8 167.562 5.21869   2 
   2   4  -8 762.846 19.5789   2 
  -2  -4   8 719.852 20.4000   3 
  -2  -4   8 764.012 18.9231   2 
   1   4  -8 32.1320 2.55483   2 
  -1  -4   8 27.2285 2.11875   2 
  -1  -4   8 32.3107 2.65325   3 
   0   4  -8 22.6641 1.46758   1 
   0   4  -8 20.7530 1.06726   1 
   0   4  -8 27.2781 2.52464   2 
   0  -4   8 17.9025 1.89351   2 
   0  -4   8 21.7613 2.29253   3 
   0  -4   8 22.3964 2.11389   3 
  -1   4  -8 22.4322 1.90621   1 
  -1   4  -8 21.4431 1.49329   1 
  -1   4  -8 20.8743 2.17438   2 
   1  -4   8 18.7729 1.99669   2 
   1  -4   8 23.8270 2.47571   3 
   1  -4   8 21.3462 2.24337   3 
  -2   4  -8 590.434 16.1816   2 
  -2   4  -8 579.908 15.6032   1 
  -2   4  -8 602.151 15.6851   1 
   2  -4   8 592.051 15.3927   3 
   2  -4   8 615.954 15.6725   2 
   2  -4   8 596.124 15.2838   3 
  -3   4  -8 0.74305 1.43436   2 
  -3   4  -8 -0.3962 1.47601   1 
  -3   4  -8 2.02334 1.55510   1 
   3  -4   8 0.11651 0.93305   3 
   3  -4   8 -0.0802 0.95652   3 
   3  -4   8 0.43779 1.11765   2 
  -4   4  -8 26.2144 2.77903   2 
  -4   4  -8 30.8228 3.19965   1 
   4  -4   8 34.0179 1.71303   3 
   4  -4   8 34.9815 1.98602   3 
   4  -4   8 31.0302 2.94570   2 
  -5   4  -8 -6.3741 2.12567   2 
  -5   4  -8 -1.7313 2.42142   1 
   5  -4   8 0.95687 1.82489   2 
   6   3  -8 -0.6043 2.47688   1 
  -6  -3   8 -0.1367 1.72136   1 
  -6  -3   8 -2.0927 1.53544   3 
  -6  -3   8 1.57148 0.79429   2 
   5   3  -8 142.275 4.94346   2 
   5   3  -8 146.355 5.76821   1 
  -5  -3   8 141.254 4.87143   1 
  -5  -3   8 145.013 5.68333   3 
  -5  -3   8 140.251 4.21592   2 
   4   3  -8 1.15354 1.21732   1 
   4   3  -8 2.07669 1.15299   2 
  -4  -3   8 0.72006 0.78733   2 
  -4  -3   8 0.92487 0.78518   1 
  -4  -3   8 0.91187 1.26351   3 
   3   3  -8 75.2185 3.04370   1 
   3   3  -8 75.7967 3.44831   2 
  -3  -3   8 77.1967 2.90527   2 
  -3  -3   8 72.6987 2.68193   1 
  -3  -3   8 75.6473 3.66768   3 
   2   3  -8 272.506 7.20938   1 
   2   3  -8 270.880 7.91135   2 
  -2  -3   8 261.692 7.16523   1 
  -2  -3   8 267.758 7.44039   2 
  -2  -3   8 274.205 8.09829   3 
   1   3  -8 141.315 4.92957   2 
   1   3  -8 145.741 4.03934   1 
  -1  -3   8 146.714 4.57778   2 
  -1  -3   8 136.460 4.82567   3 
   0   3  -8 193.313 6.05321   2 
   0   3  -8 187.088 5.10189   1 
   0  -3   8 188.850 5.68265   2 
   0  -3   8 183.460 5.75590   3 
  -1   3  -8 291.438 8.38847   1 
  -1   3  -8 293.071 7.96184   1 
  -1   3  -8 304.989 8.69015   2 
   1  -3   8 300.102 8.31233   2 
   1  -3   8 293.027 8.11917   3 
   1  -3   8 294.816 8.41165   3 
  -2   3  -8 0.57185 1.22733   1 
  -2   3  -8 1.09195 1.03155   1 
  -2   3  -8 1.58465 1.04766   2 
   2  -3   8 1.14599 0.85727   3 
   2  -3   8 0.59018 0.74162   2 
   2  -3   8 0.52276 0.70281   3 
  -3   3  -8 152.726 5.85583   1 
  -3   3  -8 148.822 5.81794   1 
  -3   3  -8 156.929 5.44816   2 
   3  -3   8 143.395 5.12642   2 
   3  -3   8 157.091 4.30656   3 
   3  -3   8 149.004 4.21858   3 
  -4   3  -8 95.2963 4.32801   2 
  -4   3  -8 96.1067 5.17176   1 
   4  -3   8 90.3709 4.10659   2 
  -5   3  -8 -0.2373 1.55614   2 
  -5   3  -8 3.48914 2.35965   1 
   5  -3   8 1.03531 1.64006   2 
   6   2  -8 205.118 8.51185   3 
   6   2  -8 198.100 8.09744   1 
  -6  -2   8 199.982 7.32408   3 
  -6  -2   8 214.924 7.27162   1 
   5   2  -8 64.0480 2.54915   2 
   5   2  -8 67.4853 4.03913   1 
   5   2  -8 58.8713 4.41914   3 
  -5  -2   8 64.3365 2.26771   2 
  -5  -2   8 63.3039 3.61809   3 
  -5  -2   8 61.9513 3.38366   1 
   4   2  -8 131.709 5.71008   3 
   4   2  -8 136.678 4.42494   2 
   4   2  -8 134.413 5.15430   1 
  -4  -2   8 134.427 5.01976   3 
  -4  -2   8 138.356 3.98900   2 
  -4  -2   8 134.849 4.56357   1 
   3   2  -8 192.441 5.66668   2 
   3   2  -8 193.146 5.95298   1 
   3   2  -8 185.574 6.69044   3 
  -3  -2   8 180.899 6.09251   3 
  -3  -2   8 185.950 5.28702   2 
  -3  -2   8 188.449 5.48383   1 
   2   2  -8 624.647 15.7217   1 
   2   2  -8 622.769 16.6593   3 
   2   2  -8 624.010 15.8750   2 
  -2  -2   8 631.239 15.6065   1 
  -2  -2   8 614.887 15.5209   2 
  -2  -2   8 627.499 16.1607   3 
   1   2  -8 343.455 8.89632   1 
   1   2  -8 336.494 9.77220   3 
   1   2  -8 333.130 9.22970   2 
  -1  -2   8 348.186 9.04406   2 
  -1  -2   8 337.957 9.10665   1 
  -1  -2   8 347.833 9.33295   3 
   0   2  -8 28.5425 1.79948   2 
   0   2  -8 27.7378 1.46148   1 
   0  -2   8 30.8697 1.77564   3 
   0  -2   8 28.6743 1.69317   2 
  -1   2  -8 8.14335 1.04246   2 
  -1   2  -8 9.01066 1.03733   1 
   1  -2   8 9.84008 1.10647   3 
   1  -2   8 9.65578 1.03450   2 
  -2   2  -8 69.4433 3.14942   1 
  -2   2  -8 79.0510 3.16639   2 
   2  -2   8 74.2412 2.36529   3 
   2  -2   8 70.5038 2.96350   2 
   2  -2   8 73.1537 2.65393   3 
  -3   2  -8 470.296 12.5979   1 
  -3   2  -8 375.820 13.2440   2 
  -3   2  -8 483.837 12.6281   1 
   3  -2   8 400.440 12.3097   2 
  -4   2  -8 11.1006 1.67196   2 
  -4   2  -8 8.76345 2.04324   1 
  -4   2  -8 9.22224 2.12000   1 
   4  -2   8 8.10134 1.45669   2 
  -5   2  -8 4.98323 1.43613   2 
  -5   2  -8 6.50874 2.26769   1 
   5  -2   8 5.14815 1.67865   2 
  -6   2  -8 2.76025 2.78523   1 
  -6   2  -8 1.27814 1.71088   2 
   6  -2   8 -1.6720 1.77570   2 
   6   1  -8 2.07573 2.33837   1 
   6   1  -8 3.55128 2.53521   3 
  -6  -1   8 2.83111 1.83962   3 
  -6  -1   8 2.65411 1.82018   1 
   5   1  -8 7.78688 1.93787   3 
   5   1  -8 7.45566 3.75779   1 
  -5  -1   8 8.13225 1.51836   3 
   4   1  -8 82.7573 4.33105   3 
   4   1  -8 91.9282 2.97254   2 
   4   1  -8 87.1630 4.23033   1 
  -4  -1   8 88.3354 3.86008   3 
  -4  -1   8 85.8323 2.78222   2 
  -4  -1   8 87.8981 3.65339   1 
   3   1  -8 76.6205 3.43491   1 
   3   1  -8 73.4172 2.73338   2 
   3   1  -8 74.6511 3.72577   3 
  -3  -1   8 78.6607 3.08593   1 
  -3  -1   8 77.0012 2.62517   2 
  -3  -1   8 72.6418 3.26241   3 
   2   1  -8 132.324 4.38573   1 
   2   1  -8 128.650 4.01944   2 
   2   1  -8 132.449 4.82981   3 
  -2  -1   8 132.221 4.43068   3 
  -2  -1   8 126.111 4.14349   1 
  -2  -1   8 133.189 3.96698   2 
   1   1  -8 5.03523 0.74526   2 
   1   1  -8 4.80644 0.86211   1 
   1   1  -8 5.04044 1.06647   3 
  -1  -1   8 3.93397 0.80040   1 
  -1  -1   8 4.19145 0.69288   2 
  -1  -1   8 2.78029 0.80378   3 
   0   1  -8 62.3658 2.45969   2 
   0   1  -8 58.6448 2.33105   1 
   0   1  -8 60.5356 2.68155   3 
   0  -1   8 66.9526 2.39582   3 
   0  -1   8 58.2728 2.43152   2 
   0  -1   8 61.9806 2.79651   1 
  -1   1  -8 14.7989 1.31647   2 
  -1   1  -8 17.5519 1.40490   1 
   1  -1   8 16.4811 1.35603   2 
   1  -1   8 17.9097 1.11498   3 
  -2   1  -8 255.395 7.50381   1 
  -2   1  -8 252.453 7.15800   2 
   2  -1   8 257.262 6.38710   3 
   2  -1   8 248.386 7.19640   2 
  -3   1  -8 11.9701 1.25982   2 
  -3   1  -8 12.4973 1.85289   1 
   3  -1   8 9.71691 1.20995   2 
  -4   1  -8 30.2363 3.39829   1 
  -4   1  -8 31.6012 3.19258   1 
  -4   1  -8 29.4329 3.07216   2 
   4  -1   8 23.2893 3.31204   2 
  -5   1  -8 200.607 6.39062   2 
  -5   1  -8 195.333 7.97232   1 
  -5   1  -8 200.004 7.98940   1 
   5  -1   8 198.659 6.69937   2 
  -6   1  -8 -1.4356 1.40346   2 
  -6   1  -8 1.32897 2.58986   1 
   6  -1   8 -0.8434 1.67872   2 
   6   0  -8 8.54343 2.39045   3 
   6   0  -8 14.0261 3.13405   1 
  -6   0   8 11.2093 2.39972   1 
  -6   0   8 10.1422 2.04298   3 
   5   0  -8 553.069 16.2380   3 
   5   0  -8 588.424 16.6053   1 
  -5   0   8 589.419 15.7965   1 
  -5   0   8 582.696 15.7849   3 
   4   0  -8 -1.3647 1.09688   3 
   4   0  -8 2.76090 1.52126   1 
   4   0  -8 0.33981 0.49798   2 
  -4   0   8 2.31536 1.14946   1 
  -4   0   8 0.83223 1.05445   3 
   3   0  -8 9.91804 1.49229   3 
   3   0  -8 7.93311 0.79123   2 
   3   0  -8 7.29565 1.33929   1 
  -3   0   8 7.47385 1.18156   1 
  -3   0   8 8.84191 0.97073   2 
  -3   0   8 6.43064 1.23433   3 
   2   0  -8 109.998 4.17887   3 
   2   0  -8 109.051 4.09248   1 
   2   0  -8 114.343 3.42137   2 
  -2   0   8 114.202 3.96493   3 
  -2   0   8 114.022 3.59386   2 
  -2   0   8 114.196 3.91668   1 
   1   0  -8 250.558 7.04297   1 
   1   0  -8 241.658 7.10512   3 
   1   0  -8 238.765 6.56206   2 
  -1   0   8 249.637 7.01034   1 
  -1   0   8 241.718 6.85985   3 
  -1   0   8 251.489 6.80179   2 
   0   0  -8 154.848 4.37026   2 
   0   0  -8 145.315 4.52894   3 
   0   0  -8 144.468 4.50966   1 
   0   0   8 142.695 4.74420   1 
   0   0   8 145.797 4.55549   2 
   0   0   8 142.363 4.33375   3 
  -1   0  -8 365.982 9.53226   2 
  -1   0  -8 368.417 9.42485   3 
  -1   0  -8 363.375 9.75726   1 
   1   0   8 355.636 9.74471   2 
   1   0   8 363.363 10.2841   1 
   1   0   8 365.906 9.24728   3 
  -2   0  -8 67.7953 2.22782   3 
  -2   0  -8 69.3903 2.63986   2 
  -2   0  -8 64.4565 2.94669   1 
   2   0   8 62.0521 2.78356   2 
   2   0   8 69.0687 2.12243   3 
  -3   0  -8 12.4106 1.65609   1 
  -3   0  -8 11.4443 1.20420   2 
   3   0   8 9.31795 1.24395   2 
  -4   0  -8 933.981 24.3248   1 
  -4   0  -8 935.520 22.9696   2 
   4   0   8 901.933 23.3317   2 
  -5   0  -8 1.76850 1.55138   1 
  -5   0  -8 3.00013 2.05482   1 
  -5   0  -8 2.19851 1.00853   2 
   5   0   8 0.42701 1.15513   2 
  -6   0  -8 11.0602 2.52576   1 
  -6   0  -8 12.7954 1.78249   2 
  -6   0  -8 12.8068 3.23841   1 
   6   0   8 12.7375 2.29036   2 
  -7   0  -8 55.7900 6.08140   1 
  -7   0  -8 51.4002 3.40717   2 
  -7   0  -8 46.7523 4.94224   1 
   7   0   8 44.8479 4.59694   2 
   6  -1  -8 38.8673 3.76047   3 
   6  -1  -8 33.8861 4.03654   1 
  -6   1   8 30.7577 3.28073   1 
  -6   1   8 37.0773 3.35879   3 
   5  -1  -8 155.992 7.01683   1 
   5  -1  -8 155.735 6.27045   3 
  -5   1   8 161.226 6.07185   3 
  -5   1   8 166.191 6.25795   1 
   4  -1  -8 142.174 5.88978   1 
   4  -1  -8 142.351 5.47607   3 
  -4   1   8 144.425 5.28684   3 
  -4   1   8 145.631 5.42738   1 
   3  -1  -8 64.0554 2.08472   2 
   3  -1  -8 57.0057 3.33398   1 
   3  -1  -8 59.6891 3.20798   3 
  -3   1   8 66.7249 3.06784   3 
  -3   1   8 65.9456 3.14664   1 
   2  -1  -8 108.941 4.19185   1 
   2  -1  -8 105.166 3.95118   3 
   2  -1  -8 104.836 3.17245   2 
  -2   1   8 101.463 3.84504   1 
  -2   1   8 105.409 3.86844   3 
  -2   1   8 110.983 3.62490   2 
   1  -1  -8 188.207 5.19910   2 
   1  -1  -8 180.340 5.64433   3 
   1  -1  -8 196.644 5.86815   1 
  -1   1   8 184.777 5.74610   1 
  -1   1   8 187.493 5.57144   2 
  -1   1   8 190.001 5.64953   3 
   0  -1  -8 619.868 16.2545   1 
   0  -1  -8 636.084 16.0365   3 
   0  -1  -8 649.706 15.9250   2 
   0   1   8 651.744 16.5267   1 
   0   1   8 646.226 16.3082   2 
   0   1   8 645.571 16.0845   3 
  -1  -1  -8 318.412 8.32270   2 
  -1  -1  -8 315.584 8.12087   3 
  -1  -1  -8 307.858 8.56668   1 
   1   1   8 316.974 8.19733   3 
   1   1   8 308.534 8.65969   2 
   1   1   8 300.048 8.98910   1 
  -2  -1  -8 4.82605 0.77903   2 
  -2  -1  -8 2.46772 0.89830   1 
   2   1   8 5.62873 1.38801   1 
   2   1   8 4.33684 1.09830   2 
   2   1   8 4.28628 0.69804   3 
  -3  -1  -8 51.1684 1.58658   3 
  -3  -1  -8 51.1083 2.35107   2 
  -3  -1  -8 48.8192 2.80503   1 
   3   1   8 51.2932 2.72120   2 
   3   1   8 52.8199 1.71000   3 
  -4  -1  -8 487.778 12.8298   2 
  -4  -1  -8 493.575 14.0645   1 
   4   1   8 499.055 13.5500   2 
  -5  -1  -8 7.79628 1.63109   1 
  -5  -1  -8 6.01923 1.95667   1 
  -5  -1  -8 7.38451 1.20909   2 
   5   1   8 5.08685 1.61014   2 
  -6  -1  -8 5.58279 1.34523   2 
  -6  -1  -8 0.19413 1.94069   1 
  -6  -1  -8 5.65035 2.51805   1 
   6   1   8 5.21093 1.97178   2 
  -7  -1  -8 16.9248 3.43458   1 
  -7  -1  -8 20.1177 3.64947   1 
  -7  -1  -8 22.2804 2.28723   2 
   7   1   8 19.9944 2.95429   2 
   5  -2  -8 2.12879 2.43559   1 
   5  -2  -8 1.41798 1.76208   3 
  -5   2   8 3.84117 1.89358   3 
  -5   2   8 1.81798 1.73458   1 
   4  -2  -8 27.8809 2.97853   1 
   4  -2  -8 17.2175 2.03095   3 
  -4   2   8 15.3683 1.91862   1 
  -4   2   8 23.7200 2.64569   3 
   3  -2  -8 189.711 5.34460   2 
   3  -2  -8 183.878 4.93000   2 
   3  -2  -8 190.570 6.26244   3 
  -3   2   8 185.260 6.26744   3 
   2  -2  -8 36.7573 2.29347   3 
   2  -2  -8 38.9438 2.59022   1 
   2  -2  -8 39.3146 1.69420   2 
  -2   2   8 37.8230 2.34424   1 
  -2   2   8 38.1551 2.46859   3 
   1  -2  -8 979.412 24.7544   3 
   1  -2  -8 1009.04 25.1678   1 
   1  -2  -8 1007.42 24.3472   2 
  -1   2   8 1024.64 25.0387   1 
  -1   2   8 1000.21 24.9512   3 
   0  -2  -8 4.88732 0.82654   2 
   0  -2  -8 6.05804 0.96731   1 
   0  -2  -8 3.94574 0.78051   3 
   0   2   8 4.36887 1.02296   1 
   0   2   8 3.63072 1.03585   2 
   0   2   8 4.47055 1.02010   3 
  -1  -2  -8 168.006 5.15541   2 
  -1  -2  -8 174.999 4.97866   3 
  -1  -2  -8 174.116 5.37261   1 
   1   2   8 180.136 5.66169   2 
   1   2   8 171.111 5.18082   3 
   1   2   8 165.760 5.73433   1 
  -2  -2  -8 33.2905 1.51447   3 
  -2  -2  -8 29.0263 1.92941   1 
  -2  -2  -8 30.8711 1.85457   2 
   2   2   8 31.2748 2.40978   1 
   2   2   8 32.6349 1.81754   3 
   2   2   8 35.2799 2.33596   2 
  -3  -2  -8 32.5138 1.38040   3 
  -3  -2  -8 27.7225 2.19512   1 
  -3  -2  -8 30.4347 1.93976   2 
   3   2   8 33.0729 1.70441   3 
   3   2   8 31.2211 2.42388   2 
  -4  -2  -8 7.22213 0.70112   3 
  -4  -2  -8 7.63771 1.16193   2 
  -4  -2  -8 4.93394 1.33949   1 
   4   2   8 7.27641 1.55403   2 
  -5  -2  -8 345.636 11.1368   1 
  -5  -2  -8 359.939 9.85117   2 
   5   2   8 354.254 10.6947   2 
  -6  -2  -8 4.64866 1.96714   1 
  -6  -2  -8 7.98572 2.76138   1 
  -6  -2  -8 3.62942 1.21724   2 
   6   2   8 3.16832 1.76762   2 
  -7  -2  -8 28.8649 2.87180   2 
  -7  -2  -8 24.9320 3.55349   1 
  -7  -2  -8 27.6214 4.11381   1 
   5  -3  -8 26.6093 3.10012   3 
   5  -3  -8 23.9920 3.55821   1 
  -5   3   8 19.2557 2.77599   1 
  -5   3   8 26.0779 3.09248   3 
   4  -3  -8 153.560 5.79034   3 
   4  -3  -8 151.985 6.54483   1 
   4  -3  -8 141.194 3.99737   2 
   4  -3  -8 147.130 3.82085   2 
  -4   3   8 145.608 5.79411   1 
  -4   3   8 140.062 5.85738   3 
   3  -3  -8 124.294 5.37738   1 
   3  -3  -8 125.864 3.72764   2 
   3  -3  -8 128.119 4.11724   2 
   3  -3  -8 130.245 4.88645   3 
  -3   3   8 121.303 5.05982   3 
  -3   3   8 125.970 4.91361   1 
   2  -3  -8 73.8893 3.84909   1 
   2  -3  -8 79.1066 2.84270   2 
   2  -3  -8 78.9921 3.76915   3 
  -2   3   8 81.2704 3.80475   3 
  -2   3   8 68.9140 3.87863   1 
   1  -3  -8 31.5335 2.15712   3 
   1  -3  -8 30.6633 2.33557   1 
   1  -3  -8 32.8141 1.89754   2 
  -1   3   8 32.8258 2.24951   1 
  -1   3   8 34.6988 2.33677   3 
   0  -3  -8 25.2876 1.87628   1 
   0  -3  -8 28.4801 1.86154   3 
   0  -3  -8 29.5843 1.83011   2 
   0   3   8 27.4724 2.11710   3 
   0   3   8 30.2828 2.20346   1 
  -1  -3  -8 205.956 5.95252   3 
  -1  -3  -8 208.396 6.33182   1 
  -1  -3  -8 199.846 6.12824   2 
   1   3   8 215.020 6.35177   3 
   1   3   8 198.443 6.61152   1 
  -2  -3  -8 219.771 6.08635   3 
  -2  -3  -8 218.458 6.67628   1 
  -2  -3  -8 209.673 6.48566   2 
   2   3   8 221.291 6.50117   3 
   2   3   8 212.470 7.25939   1 
  -3  -3  -8 3.34525 0.76484   3 
  -3  -3  -8 2.77140 0.97044   2 
  -3  -3  -8 1.75360 0.93685   1 
   3   3   8 3.00804 1.00582   3 
  -4  -3  -8 99.7701 5.08164   1 
  -4  -3  -8 106.955 4.12513   2 
  -4  -3  -8 107.498 3.36878   3 
  -5  -3  -8 142.320 4.17980   3 
  -5  -3  -8 142.931 6.02197   1 
  -5  -3  -8 145.381 5.12971   2 
  -6  -3  -8 107.040 3.30073   3 
  -6  -3  -8 113.573 5.85840   1 
  -6  -3  -8 111.668 4.38426   2 
  -6  -3  -8 107.822 3.28984   3 
  -7  -3  -8 12.7540 1.83375   2 
  -7  -3  -8 11.3724 3.63483   1 
  -7  -3  -8 14.7490 2.81941   1 
   4  -4  -8 3.46412 1.70026   3 
   4  -4  -8 2.76604 0.95008   2 
   4  -4  -8 1.26521 2.12644   1 
   4  -4  -8 4.55291 0.85975   2 
  -4   4   8 2.28059 1.77797   1 
  -4   4   8 3.47560 1.89729   3 
   3  -4  -8 131.779 4.25652   2 
   3  -4  -8 132.848 5.97978   1 
   3  -4  -8 134.469 4.60582   2 
   3  -4  -8 133.680 5.34369   3 
  -3   4   8 138.117 5.43074   1 
  -3   4   8 140.128 5.84027   3 
   2  -4  -8 345.633 9.34288   2 
   2  -4  -8 333.554 10.4843   1 
   2  -4  -8 338.946 9.65785   2 
   2  -4  -8 352.228 9.96116   3 
  -2   4   8 347.101 10.1159   1 
  -2   4   8 333.488 10.3420   3 
   1  -4  -8 207.335 6.39514   2 
   1  -4  -8 207.626 6.65442   3 
  -1   4   8 208.675 7.01171   3 
   0  -4  -8 546.277 14.4900   1 
   0  -4  -8 528.604 14.1005   3 
   0  -4  -8 539.009 14.1883   2 
   0   4   8 529.480 14.5528   3 
   0   4   8 541.172 14.4931   1 
  -1  -4  -8 1.68182 0.98076   2 
  -1  -4  -8 0.00977 0.75904   3 
  -1  -4  -8 -0.0302 0.89690   1 
   1   4   8 1.53793 1.11887   3 
   1   4   8 2.90764 1.12477   1 
  -2  -4  -8 85.2527 3.59958   1 
  -2  -4  -8 90.5961 3.45192   3 
  -2  -4  -8 90.9327 3.77862   2 
   2   4   8 88.8564 3.81358   3 
   2   4   8 85.0066 4.15919   1 
  -3  -4  -8 284.438 8.61321   2 
  -3  -4  -8 296.515 8.16294   3 
  -3  -4  -8 291.927 8.76543   1 
   3   4   8 289.474 9.57448   1 
   3   4   8 299.911 8.59893   3 
  -4  -4  -8 219.066 7.26656   1 
  -4  -4  -8 217.487 6.89996   2 
  -4  -4  -8 210.748 6.30968   3 
  -5  -4  -8 1.00968 1.36029   1 
  -5  -4  -8 1.47149 0.99836   3 
  -5  -4  -8 1.88337 1.38669   2 
  -6  -4  -8 3.46270 1.21823   3 
  -6  -4  -8 4.29315 1.70887   2 
  -6  -4  -8 2.81781 1.26355   3 
  -6  -4  -8 0.38659 1.78293   1 
  -7  -4  -8 22.5009 3.46959   1 
  -7  -4  -8 22.9416 2.40549   3 
  -7  -4  -8 33.6922 4.67558   1 
  -7  -4  -8 26.6541 2.24163   3 
  -7  -4  -8 27.3982 2.63110   2 
   4  -5  -8 10.1242 2.25828   3 
   4  -5  -8 10.5638 1.38261   2 
   4  -5  -8 14.8965 3.20954   1 
   4  -5  -8 6.98576 1.51705   2 
  -4   5   8 7.14515 2.32326   1 
  -4   5   8 10.0039 2.58215   3 
   3  -5  -8 388.923 12.4344   1 
   3  -5  -8 392.144 11.5570   3 
   3  -5  -8 390.692 10.8205   2 
   3  -5  -8 399.180 10.7453   2 
  -3   5   8 379.256 11.6897   1 
  -3   5   8 389.557 12.2523   3 
   2  -5  -8 209.949 7.06076   2 
   2  -5  -8 219.399 6.98529   2 
   2  -5  -8 224.091 7.96360   1 
   2  -5  -8 227.771 7.40849   3 
  -2   5   8 219.529 8.02205   3 
  -2   5   8 224.648 7.52774   1 
   1  -5  -8 7.06925 1.54756   2 
   1  -5  -8 9.77933 1.62660   1 
   1  -5  -8 8.73051 1.77033   2 
   1  -5  -8 8.69589 1.51417   3 
  -1   5   8 9.21826 1.82509   3 
  -1   5   8 9.15226 1.59534   1 
   0  -5  -8 235.348 7.83409   2 
   0  -5  -8 239.195 7.51411   3 
   0  -5  -8 249.941 7.84781   1 
   0  -5  -8 247.455 7.70556   2 
   0   5   8 255.878 7.88486   1 
   0   5   8 236.129 8.27521   3 
  -1  -5  -8 87.2367 3.82090   3 
  -1  -5  -8 91.5172 4.10703   2 
  -1  -5  -8 73.9309 5.15418   1 
   1   5   8 86.3381 5.01163   1 
   1   5   8 95.4128 4.45355   3 
  -2  -5  -8 92.5684 5.67930   2 
  -2  -5  -8 114.146 4.31892   3 
   2   5   8 117.857 4.82701   3 
   2   5   8 102.372 7.18447   1 
  -3  -5  -8 0.86199 1.21610   2 
  -3  -5  -8 3.93246 1.29540   1 
  -3  -5  -8 2.14870 1.20621   3 
   3   5   8 2.51406 1.60161   1 
   3   5   8 2.55366 1.48738   3 
  -4  -5  -8 1.52637 1.15676   1 
  -4  -5  -8 1.59072 1.40408   2 
  -4  -5  -8 1.87099 1.30532   3 
  -5  -5  -8 45.3038 3.30718   2 
  -5  -5  -8 30.5735 2.80368   3 
  -5  -5  -8 37.0010 3.34864   1 
  -6  -5  -8 29.5716 3.34726   1 
  -6  -5  -8 27.7677 2.78368   2 
  -6  -5  -8 29.5311 2.89687   3 
  -7  -5  -8 2.10135 3.50920   1 
  -7  -5  -8 1.64388 1.80593   3 
  -7  -5  -8 3.91643 2.15853   2 
  -7  -5  -8 1.45657 1.84824   3 
  -7  -5  -8 8.96705 2.78900   1 
   3  -6  -8 37.4351 3.54078   3 
   3  -6  -8 33.8027 3.64646   2 
   3  -6  -8 36.1476 4.04712   1 
   3  -6  -8 42.6760 3.69209   2 
  -3   6   8 41.9752 4.25526   3 
  -3   6   8 41.3163 3.86115   1 
   2  -6  -8 13.7392 2.12319   2 
   2  -6  -8 13.8741 2.23778   2 
   2  -6  -8 14.4994 2.54299   1 
   2  -6  -8 14.4005 2.25148   3 
  -2   6   8 13.4338 2.68669   3 
  -2   6   8 10.8899 2.14473   1 
   1  -6  -8 4.33428 2.64294   2 
   1  -6  -8 5.56970 1.84122   1 
   1  -6  -8 2.73529 1.62962   3 
   1  -6  -8 4.23138 2.25730   2 
  -1   6   8 1.45888 1.49393   1 
  -1   6   8 4.50275 1.95499   3 
   0  -6  -8 1.72147 1.47920   3 
   0  -6  -8 -0.4459 1.39775   1 
   0  -6  -8 0.44288 1.57839   2 
   0  -6  -8 1.93807 1.58074   2 
   0   6   8 1.44028 1.91895   3 
   0   6   8 1.90299 1.57576   1 
  -1  -6  -8 128.697 5.40975   2 
  -1  -6  -8 126.305 5.10909   3 
  -1  -6  -8 122.515 5.06745   1 
  -1  -6  -8 125.305 5.63257   2 
   1   6   8 127.841 5.74784   3 
   1   6   8 130.457 5.51318   1 
  -2  -6  -8 23.5025 2.41304   1 
  -2  -6  -8 19.3204 2.11201   3 
  -2  -6  -8 18.4340 2.31108   2 
  -2  -6  -8 23.3565 2.61318   2 
   2   6   8 21.7733 2.59323   1 
   2   6   8 20.7162 2.58009   3 
  -3  -6  -8 230.732 7.31837   1 
  -3  -6  -8 225.768 7.77526   2 
  -3  -6  -8 203.880 8.07298   3 
   3   6   8 237.356 8.43877   1 
   3   6   8 208.557 8.70799   3 
  -4  -6  -8 168.764 6.49786   2 
  -4  -6  -8 160.181 5.98282   1 
  -4  -6  -8 153.715 6.78878   3 
  -5  -6  -8 35.9720 4.13069   3 
  -5  -6  -8 36.0162 3.48730   1 
  -5  -6  -8 48.4127 4.03636   2 
  -6  -6  -8 9.07515 2.35054   2 
  -6  -6  -8 5.25281 2.26179   1 
  -6  -6  -8 7.37570 3.73934   3 
   2  -7  -8 0.36574 2.24689   2 
   2  -7  -8 0.44144 2.08443   3 
   2  -7  -8 -3.9095 2.62880   1 
  -2   7   8 -0.3621 2.82132   3 
   1  -7  -8 1.22314 1.81073   3 
   1  -7  -8 -1.4140 2.20241   2 
   1  -7  -8 4.65619 2.10467   2 
   1  -7  -8 4.54601 2.39528   1 
  -1   7   8 0.99217 2.00526   1 
  -1   7   8 6.35408 2.70945   3 
   0  -7  -8 18.3702 2.60322   1 
   0  -7  -8 16.1797 2.60034   2 
   0  -7  -8 8.29551 2.42360   2 
   0  -7  -8 9.67608 2.12243   3 
   0   7   8 12.5626 2.33135   1 
   0   7   8 16.2851 2.93885   3 
  -1  -7  -8 240.655 8.33251   1 
  -1  -7  -8 244.062 8.77993   2 
  -1  -7  -8 253.030 8.87496   2 
  -1  -7  -8 251.672 8.40866   3 
   1   7   8 226.583 9.04012   3 
   1   7   8 265.767 8.85207   1 
  -2  -7  -8 15.5078 2.53620   2 
  -2  -7  -8 20.1868 2.98680   2 
  -2  -7  -8 17.0212 2.16331   1 
  -2  -7  -8 23.2080 2.85785   3 
   2   7   8 16.5539 2.67053   1 
   2   7   8 23.7383 3.19528   3 
  -3  -7  -8 1.79359 1.38913   1 
  -3  -7  -8 3.30365 2.14455   2 
  -3  -7  -8 -2.0217 1.74653   3 
  -3  -7  -8 1.24638 2.42322   2 
   3   7   8 3.66765 2.10771   1 
   3   7   8 5.27022 2.17108   3 
  -4  -7  -8 -0.3140 1.59501   1 
  -4  -7  -8 0.09080 2.28029   2 
  -4  -7  -8 -1.0506 2.13558   2 
  -4  -7  -8 -1.3061 2.04069   3 
  -5  -7  -8 -0.8209 1.89407   1 
  -5  -7  -8 2.04795 2.71094   2 
  -5  -7  -8 4.64942 2.43780   2 
  -5  -7  -8 1.34207 2.18085   3 
  -1  -8  -8 139.439 6.44191   3 
  -1  -8  -8 142.197 6.98054   2 
  -1  -8  -8 145.491 7.11492   2 
  -1  -8  -8 140.278 6.44161   1 
   1   8   8 146.126 6.97311   1 
   1   8   8 128.128 7.63170   3 
  -2  -8  -8 15.6969 2.47418   1 
  -2  -8  -8 10.6797 2.90859   2 
  -2  -8  -8 9.91530 2.81195   2 
  -2  -8  -8 15.2807 3.08011   3 
   2   8   8 11.7738 2.91890   3 
   2   8   8 15.2432 3.03173   1 
  -3  -8  -8 19.8169 2.91321   3 
  -3  -8  -8 22.5066 3.50479   2 
  -3  -8  -8 22.7996 3.21354   2 
  -3  -8  -8 19.8572 2.42203   1 
   3   8   8 29.5517 3.76521   1 
   3   8   8 21.1519 3.64214   3 
  -4  -8  -8 113.512 6.81340   2 
  -4  -8  -8 99.0730 5.23999   1 
  -4  -8  -8 96.0610 5.96543   3 
  -4  -8  -8 103.623 6.55257   2 
   3   6  -9 176.065 7.64279   2 
  -3  -6   9 161.498 7.42675   3 
  -3  -6   9 180.619 6.35215   2 
   2   6  -9 76.7440 5.24356   2 
  -2  -6   9 79.7165 4.23699   2 
  -2  -6   9 82.4939 5.24549   3 
  -2  -6   9 78.2382 6.18440   3 
   1   6  -9 60.6987 5.10232   2 
  -1  -6   9 58.6674 4.48852   3 
  -1  -6   9 52.5191 5.03242   3 
  -1  -6   9 60.3815 3.80909   2 
   0   6  -9 33.4243 3.37954   2 
   0  -6   9 41.1377 3.82881   3 
   0  -6   9 40.5845 4.10188   3 
   0  -6   9 42.6587 3.46079   2 
  -1   6  -9 318.044 10.9076   2 
   1  -6   9 322.086 10.3593   3 
   1  -6   9 309.501 9.74852   2 
   1  -6   9 320.152 9.98823   3 
   4   5  -9 18.4558 2.85271   2 
  -4  -5   9 16.8432 2.02707   2 
  -4  -5   9 17.8370 2.81649   3 
   3   5  -9 212.923 7.69803   2 
  -3  -5   9 213.620 6.75859   2 
  -3  -5   9 201.404 7.56058   3 
   2   5  -9 2.54279 1.86263   2 
  -2  -5   9 5.16413 1.56029   2 
  -2  -5   9 5.34831 1.78709   3 
   1   5  -9 29.9640 3.04601   2 
  -1  -5   9 35.1215 2.81691   2 
  -1  -5   9 30.3441 3.26099   3 
  -1  -5   9 39.8164 3.37909   3 
   0   5  -9 108.571 5.17019   2 
   0  -5   9 110.044 4.58185   2 
   0  -5   9 109.950 4.82408   3 
   0  -5   9 109.624 5.36108   3 
  -1   5  -9 50.0001 3.90743   2 
  -1   5  -9 55.2868 2.14649   1 
  -1   5  -9 48.1414 2.47734   1 
   1  -5   9 48.1724 3.21977   2 
   1  -5   9 54.8188 3.86348   3 
   1  -5   9 56.0391 3.53928   3 
  -2   5  -9 105.798 4.39457   1 
  -2   5  -9 108.151 5.39957   2 
  -2   5  -9 107.753 4.17522   1 
   2  -5   9 116.822 4.89996   3 
   2  -5   9 107.423 4.56879   3 
   2  -5   9 103.467 4.63040   2 
  -3   5  -9 264.680 9.27693   2 
  -3   5  -9 245.406 8.43240   1 
  -3   5  -9 247.573 8.36264   1 
   3  -5   9 252.270 8.21033   2 
   3  -5   9 251.666 7.53484   3 
   3  -5   9 263.547 7.66448   3 
   5   4  -9 6.86130 2.01480   1 
   5   4  -9 6.10831 2.09269   2 
  -5  -4   9 5.68008 2.03054   3 
  -5  -4   9 9.56216 1.42861   1 
  -5  -4   9 8.07952 1.43035   2 
   4   4  -9 0.71275 1.22721   1 
   4   4  -9 -1.8541 1.69760   2 
  -4  -4   9 2.17540 0.90852   1 
  -4  -4   9 0.11601 1.13657   2 
  -4  -4   9 -1.8421 1.64140   3 
   3   4  -9 218.438 7.20289   2 
   3   4  -9 206.489 5.75899   1 
  -3  -4   9 206.151 5.69803   1 
  -3  -4   9 201.899 7.22545   3 
  -3  -4   9 213.750 6.41641   2 
   2   4  -9 325.699 10.1894   2 
  -2  -4   9 351.004 10.1423   3 
  -2  -4   9 335.582 9.98476   2 
   1   4  -9 138.510 3.85972   1 
   1   4  -9 136.998 3.70278   1 
   1   4  -9 140.407 5.45101   2 
  -1  -4   9 142.873 4.88319   2 
  -1  -4   9 137.549 5.21382   3 
   0   4  -9 23.4180 1.29061   1 
   0   4  -9 26.9851 2.83473   2 
   0   4  -9 21.9206 1.72933   1 
   0  -4   9 26.8095 2.31417   2 
   0  -4   9 24.2617 2.40907   3 
  -1   4  -9 -0.0538 1.09790   1 
  -1   4  -9 0.44876 0.74126   1 
  -1   4  -9 -1.1128 1.18976   2 
   1  -4   9 1.87394 1.36551   3 
   1  -4   9 -1.8750 0.87021   2 
   1  -4   9 1.40370 1.13382   3 
  -2   4  -9 116.995 4.32438   1 
  -2   4  -9 119.443 5.06295   2 
  -2   4  -9 110.627 4.67862   1 
   2  -4   9 113.265 4.46081   3 
   2  -4   9 119.182 4.19350   3 
   2  -4   9 124.220 4.60205   2 
  -3   4  -9 10.0870 1.96670   2 
  -3   4  -9 7.06462 2.02033   1 
  -3   4  -9 7.26799 2.09506   1 
   3  -4   9 11.5741 1.81234   2 
   3  -4   9 8.78902 1.29194   3 
   3  -4   9 7.72995 1.20679   3 
  -4   4  -9 150.886 6.79215   1 
  -4   4  -9 154.130 6.54779   2 
  -4   4  -9 150.804 6.90063   1 
   4  -4   9 152.414 5.95265   2 
   4  -4   9 156.096 4.08058   3 
   5   3  -9 2.78769 1.56609   2 
   5   3  -9 7.06919 1.92557   1 
  -5  -3   9 7.27052 1.15007   2 
  -5  -3   9 7.34724 1.47921   1 
  -5  -3   9 3.21697 1.48749   3 
   4   3  -9 283.290 8.39952   1 
   4   3  -9 281.939 8.33392   2 
  -4  -3   9 272.428 8.82309   3 
  -4  -3   9 275.366 7.59015   2 
  -4  -3   9 281.083 7.76084   1 
   3   3  -9 40.9928 2.52502   1 
   3   3  -9 39.5592 2.87110   2 
  -3  -3   9 44.8526 2.29802   2 
  -3  -3   9 43.2343 2.15409   1 
  -3  -3   9 40.8712 2.96822   3 
   2   3  -9 73.9182 2.80104   1 
   2   3  -9 74.7160 3.44761   2 
  -2  -3   9 68.7026 3.47364   3 
  -2  -3   9 70.6745 2.77943   1 
  -2  -3   9 71.2292 2.98974   2 
   1   3  -9 88.6310 2.90841   1 
   1   3  -9 83.3655 3.76467   2 
  -1  -3   9 90.2516 3.43192   2 
  -1  -3   9 84.6431 3.62799   3 
   0   3  -9 4.85995 1.22745   2 
   0   3  -9 6.83977 0.84423   1 
   0  -3   9 5.98943 1.05876   2 
   0  -3   9 7.27756 1.24960   3 
  -1   3  -9 15.4232 1.43899   1 
  -1   3  -9 17.8220 1.85480   2 
  -1   3  -9 18.1107 1.88032   1 
   1  -3   9 10.7811 1.27109   2 
   1  -3   9 14.1897 1.61041   3 
  -2   3  -9 499.584 13.5575   2 
  -2   3  -9 502.243 13.6547   1 
  -2   3  -9 490.890 13.1957   1 
   2  -3   9 483.392 12.7796   3 
   2  -3   9 483.809 13.1466   2 
   2  -3   9 507.794 12.5275   3 
  -3   3  -9 192.029 6.84863   1 
  -3   3  -9 199.339 6.69830   2 
  -3   3  -9 196.097 7.13127   1 
   3  -3   9 190.886 5.12243   3 
   3  -3   9 190.291 5.27144   3 
   3  -3   9 202.971 6.43270   2 
  -4   3  -9 -2.3550 1.81056   1 
  -4   3  -9 -1.3668 1.84681   1 
  -4   3  -9 0.42245 1.53264   2 
   4  -3   9 0.30270 1.48428   2 
  -5   3  -9 56.4055 5.36099   1 
  -5   3  -9 65.0767 5.45019   1 
  -5   3  -9 57.9955 4.11823   2 
   5  -3   9 67.1901 4.21096   2 
   6   2  -9 3.30795 2.59097   1 
   6   2  -9 -0.9468 3.00888   3 
  -6  -2   9 -2.4353 2.01625   3 
   5   2  -9 1.64779 1.06878   2 
   5   2  -9 1.68018 1.90160   1 
   5   2  -9 2.27854 2.14163   3 
  -5  -2   9 5.08529 1.48014   1 
  -5  -2   9 1.60763 1.50962   3 
  -5  -2   9 0.17939 0.77672   2 
   4   2  -9 101.965 5.04922   3 
   4   2  -9 85.9336 4.26193   1 
   4   2  -9 85.2443 3.50080   2 
  -4  -2   9 93.8707 3.16262   2 
  -4  -2   9 88.3574 4.15256   3 
  -4  -2   9 87.0162 3.58635   1 
   3   2  -9 58.1796 3.05052   1 
   3   2  -9 58.0650 2.73627   2 
   3   2  -9 59.1258 3.83177   3 
  -3  -2   9 54.2394 2.56793   1 
  -3  -2   9 56.5434 2.46295   2 
  -3  -2   9 52.5058 2.95869   3 
   2   2  -9 122.313 4.23561   1 
   2   2  -9 132.770 5.26176   3 
   2   2  -9 132.342 4.43908   2 
  -2  -2   9 123.600 4.56337   3 
  -2  -2   9 125.787 4.15310   1 
  -2  -2   9 128.740 4.10451   2 
   1   2  -9 244.054 7.65219   3 
   1   2  -9 235.850 6.70811   1 
   1   2  -9 248.904 7.09406   2 
  -1  -2   9 234.473 6.98164   1 
  -1  -2   9 237.589 7.02617   3 
  -1  -2   9 243.889 6.82777   2 
   0   2  -9 25.8989 1.54566   1 
   0   2  -9 28.4014 1.99544   2 
   0  -2   9 26.0157 1.84756   2 
   0  -2   9 27.6072 1.77229   3 
  -1   2  -9 0.19909 0.72020   2 
  -1   2  -9 1.43691 0.68030   1 
   1  -2   9 -0.5402 0.56675   3 
   1  -2   9 0.67879 0.71002   2 
  -2   2  -9 46.2260 2.60734   1 
  -2   2  -9 38.9536 2.76617   2 
   2  -2   9 43.7029 1.72513   3 
   2  -2   9 42.6256 2.13027   3 
   2  -2   9 41.0617 2.85222   2 
  -3   2  -9 23.3830 2.09735   2 
  -3   2  -9 22.7818 2.62535   1 
  -3   2  -9 23.3483 2.61397   1 
   3  -2   9 19.2888 2.05069   2 
  -4   2  -9 37.6636 2.74231   2 
  -4   2  -9 27.6101 4.47788   1 
  -4   2  -9 32.2533 3.91018   1 
   4  -2   9 38.2874 2.87635   2 
  -5   2  -9 148.083 5.67117   2 
  -5   2  -9 145.930 6.99521   1 
  -5   2  -9 152.124 7.11155   1 
   5  -2   9 147.931 5.82505   2 
  -6   2  -9 16.1784 3.54622   1 
  -6   2  -9 10.5987 3.44888   1 
  -6   2  -9 16.8429 2.57624   2 
   6  -2   9 14.2314 2.55298   2 
   6   1  -9 -0.4858 2.63024   3 
   6   1  -9 1.84213 2.59559   1 
  -6  -1   9 -0.4871 1.94217   1 
  -6  -1   9 -4.7480 1.88068   3 
   5   1  -9 61.2446 4.66936   1 
   5   1  -9 65.3464 4.73818   3 
  -5  -1   9 57.7900 3.62504   3 
  -5  -1   9 56.6037 3.52360   1 
   4   1  -9 52.9181 2.40691   2 
   4   1  -9 53.4334 3.78749   3 
   4   1  -9 55.5747 3.74259   1 
  -4  -1   9 58.1427 3.04739   1 
  -4  -1   9 59.4499 3.27374   3 
  -4  -1   9 55.7127 2.29753   2 
   3   1  -9 775.665 20.0183   1 
   3   1  -9 762.512 19.1921   2 
   3   1  -9 775.482 20.5846   3 
  -3  -1   9 786.443 19.1246   2 
  -3  -1   9 767.260 19.5389   1 
  -3  -1   9 786.374 19.9360   3 
   2   1  -9 23.9575 1.99312   1 
   2   1  -9 27.8387 1.68561   2 
   2   1  -9 26.0895 2.39145   3 
  -2  -1   9 25.5257 1.88577   1 
  -2  -1   9 27.3110 2.08432   3 
  -2  -1   9 24.4772 1.69408   2 
   1   1  -9 61.6874 2.59044   1 
   1   1  -9 60.5200 2.53679   2 
   1   1  -9 58.2165 3.02817   3 
  -1  -1   9 57.4844 2.49948   2 
  -1  -1   9 56.1166 2.64047   1 
  -1  -1   9 58.7496 2.64112   3 
   0   1  -9 61.6871 2.53814   1 
   0   1  -9 66.2370 2.70257   2 
   0   1  -9 64.3611 2.95047   3 
   0  -1   9 65.7475 2.56097   3 
   0  -1   9 58.4881 3.01706   1 
   0  -1   9 64.9584 2.70391   2 
  -1   1  -9 19.0487 1.58091   1 
  -1   1  -9 17.9604 1.49086   2 
   1  -1   9 18.1877 1.65405   2 
   1  -1   9 17.2788 1.26118   3 
  -2   1  -9 -0.7985 0.66188   2 
  -2   1  -9 -0.4343 0.84752   1 
   2  -1   9 0.31761 0.44123   3 
   2  -1   9 0.82257 0.84310   2 
  -3   1  -9 619.176 16.1972   1 
  -3   1  -9 611.168 15.6761   2 
   3  -1   9 555.453 15.8707   2 
  -4   1  -9 341.393 13.3609   1 
  -4   1  -9 345.262 9.89081   2 
   4  -1   9 369.103 10.3193   2 
  -5   1  -9 35.6665 4.16745   1 
  -5   1  -9 47.1059 4.54007   1 
  -5   1  -9 42.4766 2.89193   2 
   5  -1   9 41.9333 3.35580   2 
  -6   1  -9 207.539 7.02376   2 
  -6   1  -9 209.784 8.85863   1 
  -6   1  -9 196.863 8.90991   1 
   6  -1   9 188.327 7.33942   2 
   6   0  -9 57.2107 5.32749   3 
   6   0  -9 53.6180 5.49014   1 
  -6   0   9 52.2509 4.52144   1 
  -6   0   9 61.6712 4.32881   3 
   5   0  -9 9.04735 2.12652   3 
   5   0  -9 8.34064 2.46987   1 
  -5   0   9 6.75555 1.78422   3 
  -5   0   9 9.62625 1.91086   1 
   4   0  -9 34.9313 1.67431   2 
   4   0  -9 37.5102 3.35267   3 
   4   0  -9 39.7257 4.56095   1 
  -4   0   9 37.4633 3.44296   1 
  -4   0   9 37.0632 2.79645   3 
   3   0  -9 175.499 6.17036   1 
   3   0  -9 178.256 5.03026   2 
   3   0  -9 176.951 6.31868   3 
  -3   0   9 182.170 5.24517   2 
  -3   0   9 180.076 5.83094   1 
  -3   0   9 172.855 5.88162   3 
   2   0  -9 200.459 6.45487   3 
   2   0  -9 192.863 6.26837   1 
   2   0  -9 198.209 5.52993   2 
  -2   0   9 190.932 6.02675   1 
  -2   0   9 198.295 6.11812   3 
  -2   0   9 195.275 5.73541   2 
   1   0  -9 482.185 13.1865   3 
   1   0  -9 506.139 12.6200   2 
   1   0  -9 502.339 13.1120   1 
  -1   0   9 506.730 12.8575   2 
  -1   0   9 498.261 12.9408   3 
  -1   0   9 487.697 13.0671   1 
   0   0  -9 4.48098 0.82964   1 
   0   0  -9 3.61256 0.71991   2 
   0   0  -9 3.70283 0.83725   3 
   0   0   9 2.69397 0.84782   2 
   0   0   9 5.09375 1.04740   1 
   0   0   9 4.47649 0.80103   3 
  -1   0  -9 36.4107 1.92638   2 
  -1   0  -9 36.3530 1.89633   3 
  -1   0  -9 38.3255 2.11354   1 
   1   0   9 38.5313 1.74569   3 
   1   0   9 35.4448 2.12915   2 
   1   0   9 39.1286 2.57189   1 
  -2   0  -9 19.4504 1.35114   3 
  -2   0  -9 20.5320 1.55874   2 
  -2   0  -9 19.8530 1.90775   1 
   2   0   9 19.3840 1.15633   3 
   2   0   9 20.1609 1.76238   2 
  -3   0  -9 163.768 5.69573   1 
  -3   0  -9 153.290 5.00650   2 
   3   0   9 155.157 5.37086   2 
  -4   0  -9 734.965 19.2045   2 
  -4   0  -9 771.144 23.2401   1 
   4   0   9 770.334 19.7657   2 
  -5   0  -9 304.919 10.1173   1 
  -5   0  -9 294.812 8.52938   2 
  -5   0  -9 290.770 10.3975   1 
   5   0   9 277.468 9.05339   2 
  -6   0  -9 65.1377 3.49698   2 
  -6   0  -9 62.2349 5.39573   1 
  -6   0  -9 72.1730 6.01037   1 
   6   0   9 77.1893 4.68630   2 
   5  -1  -9 18.5125 3.14207   1 
   5  -1  -9 10.6687 2.11673   3 
  -5   1   9 17.8855 2.28771   3 
  -5   1   9 11.8482 2.13461   1 
   4  -1  -9 600.939 14.5934   2 
   4  -1  -9 616.656 16.7372   3 
   4  -1  -9 601.956 17.0719   1 
   4  -1  -9 610.661 14.6995   2 
  -4   1   9 605.579 16.4664   3 
  -4   1   9 614.593 16.4235   1 
   3  -1  -9 30.8052 2.83397   1 
   3  -1  -9 32.7625 2.59813   3 
   3  -1  -9 32.0171 1.53275   2 
  -3   1   9 31.6134 2.37999   3 
  -3   1   9 31.4969 2.44080   1 
   2  -1  -9 262.987 8.09400   1 
   2  -1  -9 270.729 7.01672   2 
   2  -1  -9 271.289 7.97176   3 
  -2   1   9 257.330 7.77976   1 
  -2   1   9 264.751 7.84460   3 
  -2   1   9 259.265 7.44524   2 
   1  -1  -9 36.7057 2.25849   1 
   1  -1  -9 36.8263 2.21588   3 
   1  -1  -9 34.4736 1.73110   2 
  -1   1   9 34.6162 2.18322   2 
  -1   1   9 33.7023 2.08509   3 
  -1   1   9 34.8912 2.24901   1 
   0  -1  -9 361.890 10.1685   1 
   0  -1  -9 378.600 9.78487   2 
   0  -1  -9 368.466 9.96201   3 
   0   1   9 384.637 10.5239   1 
   0   1   9 374.008 9.97111   3 
   0   1   9 376.746 10.2650   2 
  -1  -1  -9 0.53647 0.66399   1 
  -1  -1  -9 1.61310 0.57846   2 
  -1  -1  -9 1.34084 0.61732   3 
   1   1   9 1.47854 0.82692   2 
   1   1   9 1.11384 0.60823   3 
   1   1   9 0.99973 0.94474   1 
  -2  -1  -9 1.52253 0.57354   3 
  -2  -1  -9 1.34223 0.66289   2 
  -2  -1  -9 1.86309 0.85844   1 
   2   1   9 1.91252 0.88322   2 
   2   1   9 2.41508 0.70476   3 
   2   1   9 0.54026 1.13154   1 
  -3  -1  -9 76.6829 2.29756   3 
  -3  -1  -9 79.0036 3.06214   2 
  -3  -1  -9 69.4764 3.53892   1 
   3   1   9 79.3929 3.58993   2 
   3   1   9 75.8559 2.40117   3 
  -4  -1  -9 9.07001 2.84053   1 
  -4  -1  -9 20.5847 1.78061   2 
   4   1   9 14.0007 1.88259   2 
  -5  -1  -9 10.2892 2.23224   1 
  -5  -1  -9 7.38936 1.40970   2 
   5   1   9 7.35614 1.89687   2 
  -6  -1  -9 83.6591 5.57380   1 
  -6  -1  -9 86.3541 3.94545   2 
  -6  -1  -9 84.7186 6.20320   1 
   6   1   9 84.1815 4.99282   2 
  -7  -1  -9 73.7253 6.11171   1 
  -7  -1  -9 94.6953 7.26183   1 
  -7  -1  -9 83.9638 4.18953   2 
   7   1   9 76.7802 5.86724   2 
   5  -2  -9 6.60561 2.50152   1 
   5  -2  -9 10.9832 2.17769   3 
  -5   2   9 9.48567 2.29515   3 
  -5   2   9 10.4163 2.27438   1 
   4  -2  -9 78.0543 4.08205   3 
   4  -2  -9 62.1185 4.69956   1 
   4  -2  -9 77.6264 2.37431   2 
  -4   2   9 83.8387 4.31564   3 
  -4   2   9 79.1392 4.16447   1 
   3  -2  -9 0.08273 0.51824   2 
   3  -2  -9 0.23502 1.30640   1 
   3  -2  -9 -0.5316 1.08813   3 
  -3   2   9 0.32998 1.24158   3 
  -3   2   9 -0.3132 1.08893   1 
   2  -2  -9 508.901 14.4230   3 
   2  -2  -9 550.723 13.3396   2 
   2  -2  -9 516.249 14.6445   1 
  -2   2   9 539.403 14.3502   1 
  -2   2   9 556.454 14.4897   3 
   1  -2  -9 27.7824 1.63082   2 
   1  -2  -9 24.9670 2.16816   1 
   1  -2  -9 23.7301 1.91158   3 
  -1   2   9 29.2340 2.16472   3 
  -1   2   9 28.0897 2.17148   1 
   0  -2  -9 117.089 3.81109   2 
   0  -2  -9 119.005 4.26289   1 
   0  -2  -9 117.233 3.96808   3 
   0   2   9 117.115 4.43873   1 
   0   2   9 117.027 4.36331   2 
   0   2   9 111.345 4.12377   3 
  -1  -2  -9 73.9629 3.08987   1 
  -1  -2  -9 72.4389 2.86395   2 
  -1  -2  -9 68.3755 2.70792   3 
   1   2   9 73.5356 3.48881   1 
   1   2   9 70.4073 3.40048   2 
   1   2   9 73.5053 2.98969   3 
  -2  -2  -9 48.9417 2.31867   2 
  -2  -2  -9 45.3597 1.97577   3 
  -2  -2  -9 46.1549 2.55374   1 
   2   2   9 45.5061 2.85671   2 
   2   2   9 44.6853 3.07679   1 
   2   2   9 47.1026 2.25778   3 
  -3  -2  -9 23.0187 1.26323   3 
  -3  -2  -9 24.0252 1.88194   2 
  -3  -2  -9 24.1021 2.24650   1 
   3   2   9 21.5684 1.63396   3 
   3   2   9 26.2991 2.46599   2 
  -4  -2  -9 6.48315 1.13629   2 
  -4  -2  -9 5.48732 1.32001   1 
  -4  -2  -9 6.74307 0.71822   3 
   4   2   9 6.68773 1.58321   2 
  -5  -2  -9 23.5604 2.59665   1 
  -5  -2  -9 30.6822 2.33715   2 
   5   2   9 35.1667 3.41367   2 
  -6  -2  -9 45.9137 4.55370   1 
  -6  -2  -9 55.3344 3.19002   2 
  -6  -2  -9 53.7991 5.33883   1 
   6   2   9 52.5538 4.36347   2 
  -7  -2  -9 2.79760 2.62813   1 
  -7  -2  -9 -0.0085 3.16286   1 
  -7  -2  -9 1.05773 1.67536   2 
   5  -3  -9 26.6596 3.96582   1 
   5  -3  -9 26.1382 3.13502   3 
  -5   3   9 21.3632 2.85523   1 
  -5   3   9 31.6436 3.54357   3 
   4  -3  -9 7.58990 0.92318   2 
   4  -3  -9 4.24391 1.65844   3 
   4  -3  -9 2.85912 2.08582   1 
   4  -3  -9 5.13866 0.63254   2 
  -4   3   9 10.3799 2.16599   1 
  -4   3   9 4.10736 1.98184   3 
   3  -3  -9 121.368 4.92322   3 
   3  -3  -9 123.383 5.53731   1 
   3  -3  -9 126.086 4.28596   2 
   3  -3  -9 125.005 3.72068   2 
  -3   3   9 117.180 5.14271   3 
  -3   3   9 124.136 5.06739   1 
   2  -3  -9 19.7997 2.18900   3 
   2  -3  -9 18.0837 1.55587   2 
   2  -3  -9 18.6960 2.24111   1 
  -2   3   9 15.0827 1.99049   3 
  -2   3   9 15.3762 1.80467   1 
   1  -3  -9 474.774 13.7373   1 
   1  -3  -9 503.687 13.2882   3 
   1  -3  -9 511.697 12.8689   2 
  -1   3   9 502.312 13.6153   3 
  -1   3   9 497.624 13.7649   1 
   0  -3  -9 5.91096 1.19569   1 
   0  -3  -9 3.79127 0.95451   2 
   0  -3  -9 6.55241 1.11579   3 
   0   3   9 5.29171 1.27416   1 
   0   3   9 5.55052 1.17969   3 
  -1  -3  -9 57.5337 2.73488   2 
  -1  -3  -9 54.9716 2.78769   1 
  -1  -3  -9 55.4847 2.52410   3 
   1   3   9 58.2063 2.88757   3 
   1   3   9 49.8890 3.02678   1 
  -2  -3  -9 58.1155 2.44722   3 
  -2  -3  -9 57.2660 2.78509   2 
  -2  -3  -9 56.9526 2.90167   1 
   2   3   9 60.5471 3.57674   1 
   2   3   9 55.7124 2.84828   3 
  -3  -3  -9 23.2397 1.96639   2 
  -3  -3  -9 18.6309 2.05908   1 
  -3  -3  -9 21.1741 1.48478   3 
   3   3   9 21.9484 1.97801   3 
  -4  -3  -9 25.0549 2.20367   2 
  -4  -3  -9 25.9552 2.59011   1 
  -4  -3  -9 25.2689 1.54597   3 
  -5  -3  -9 133.407 4.88802   2 
  -5  -3  -9 124.499 3.66859   3 
  -5  -3  -9 132.336 5.71396   1 
  -6  -3  -9 6.84431 2.20116   1 
  -6  -3  -9 8.86301 1.71948   2 
  -7  -3  -9 29.2951 4.75262   1 
  -7  -3  -9 39.2217 4.36119   1 
  -7  -3  -9 42.7179 3.48629   2 
   4  -4  -9 86.0781 2.84773   2 
   4  -4  -9 91.7433 3.22965   2 
   4  -4  -9 91.7790 6.03774   1 
   4  -4  -9 90.5039 4.76259   3 
  -4   4   9 90.9672 4.99573   1 
  -4   4   9 78.6948 5.18580   3 
   3  -4  -9 53.3601 3.49541   3 
   3  -4  -9 53.3128 2.52970   2 
   3  -4  -9 41.1110 4.01632   1 
   3  -4  -9 52.2588 2.95631   2 
  -3   4   9 54.4814 3.99687   3 
  -3   4   9 49.6915 3.49685   1 
   2  -4  -9 60.9404 3.95672   1 
   2  -4  -9 62.7467 3.48113   3 
   2  -4  -9 60.5778 2.81184   2 
   2  -4  -9 61.8146 3.43065   2 
  -2   4   9 65.3080 3.91543   3 
  -2   4   9 61.1288 3.50790   1 
   1  -4  -9 684.842 17.7361   2 
   1  -4  -9 705.167 18.6951   1 
   1  -4  -9 692.433 18.0850   3 
  -1   4   9 697.421 18.4777   1 
  -1   4   9 705.109 18.6822   3 
   0  -4  -9 329.092 9.30026   3 
   0  -4  -9 326.195 9.72085   1 
   0  -4  -9 334.772 9.32397   2 
   0   4   9 330.268 9.85908   1 
   0   4   9 318.956 9.80096   3 
  -1  -4  -9 48.7918 2.62261   3 
  -1  -4  -9 42.0669 4.10553   1 
  -1  -4  -9 53.6154 2.88901   2 
   1   4   9 48.3993 3.09344   3 
   1   4   9 31.7114 4.30895   1 
  -2  -4  -9 102.175 4.07908   2 
  -2  -4  -9 98.7959 3.64499   3 
   2   4   9 92.7236 4.15627   3 
   2   4   9 95.0567 5.37189   1 
  -3  -4  -9 82.0483 3.78442   1 
  -3  -4  -9 84.5776 3.74148   2 
  -3  -4  -9 80.7968 3.25398   3 
   3   4   9 79.3763 4.56891   1 
   3   4   9 81.3968 3.76210   3 
  -4  -4  -9 73.4480 3.73560   1 
  -4  -4  -9 69.9427 2.93872   3 
  -4  -4  -9 73.1005 3.62691   2 
   4   4   9 68.0577 3.50638   3 
  -5  -4  -9 21.7626 2.47335   1 
  -5  -4  -9 24.3804 1.95083   3 
  -5  -4  -9 27.0438 2.46941   2 
  -6  -4  -9 60.3169 3.01762   3 
  -6  -4  -9 63.2467 2.77079   3 
  -6  -4  -9 68.4299 4.60301   1 
  -6  -4  -9 61.4566 3.91155   2 
  -7  -4  -9 -2.0287 2.67844   1 
  -7  -4  -9 1.16303 1.83314   2 
  -7  -4  -9 -1.1975 3.25594   1 
  -7  -4  -9 -0.2452 1.04204   3 
  -7  -4  -9 1.12827 1.06261   3 
   3  -5  -9 8.98244 2.37104   3 
   3  -5  -9 2.78265 2.29396   1 
   3  -5  -9 9.02928 1.67593   2 
   3  -5  -9 12.3453 1.58025   2 
  -3   5   9 7.25854 2.03023   1 
  -3   5   9 13.2225 2.72437   3 
   2  -5  -9 78.8740 4.74548   1 
   2  -5  -9 79.4939 4.25573   3 
   2  -5  -9 72.6712 3.98596   2 
   2  -5  -9 81.7843 3.81552   2 
  -2   5   9 77.9445 4.89856   3 
  -2   5   9 80.3747 4.26638   1 
   1  -5  -9 68.8278 4.06448   1 
   1  -5  -9 72.7111 3.79484   2 
   1  -5  -9 65.6645 4.05572   2 
   1  -5  -9 70.9347 3.79947   3 
  -1   5   9 77.0509 4.04559   1 
  -1   5   9 79.0306 4.47157   3 
   0  -5  -9 173.508 6.25650   2 
   0  -5  -9 183.538 6.43598   1 
   0  -5  -9 177.641 6.12667   3 
   0   5   9 184.184 6.79877   3 
   0   5   9 175.017 6.51552   1 
  -1  -5  -9 103.761 4.62207   2 
  -1  -5  -9 105.746 4.38642   1 
   1   5   9 76.5356 6.60692   3 
   1   5   9 114.631 4.90501   1 
  -2  -5  -9 3.05580 1.33015   2 
  -2  -5  -9 1.78018 1.12111   3 
  -2  -5  -9 0.50969 1.04562   1 
   2   5   9 2.45824 1.54322   1 
   2   5   9 3.74460 1.79536   3 
  -3  -5  -9 272.587 8.19981   3 
  -3  -5  -9 264.257 8.55658   1 
  -3  -5  -9 294.134 8.86836   2 
   3   5   9 291.519 9.78381   1 
   3   5   9 277.435 8.81085   3 
  -4  -5  -9 61.7226 3.26125   3 
  -4  -5  -9 68.0794 3.84520   1 
  -4  -5  -9 76.1759 3.85176   2 
   4   5   9 62.5454 3.98803   3 
  -5  -5  -9 12.5039 1.75724   3 
  -5  -5  -9 11.4726 2.07424   1 
  -5  -5  -9 12.4254 2.07809   2 
  -6  -5  -9 75.2309 4.65748   2 
  -6  -5  -9 79.5396 5.10086   1 
  -6  -5  -9 79.5012 3.92447   3 
   2  -6  -9 118.938 6.18475   1 
   2  -6  -9 123.790 5.56520   3 
   2  -6  -9 98.7577 5.91816   2 
   2  -6  -9 111.161 5.31391   2 
  -2   6   9 117.857 6.32003   3 
  -2   6   9 103.601 5.30944   1 
   1  -6  -9 12.4536 2.38084   1 
   1  -6  -9 12.6443 2.27073   2 
   1  -6  -9 14.0340 2.13461   3 
   1  -6  -9 8.45780 2.13400   2 
  -1   6   9 15.9338 2.88177   3 
  -1   6   9 10.1451 2.07716   1 
   0  -6  -9 20.4237 2.30001   3 
   0  -6  -9 16.0546 2.54219   2 
   0  -6  -9 21.9705 2.72078   1 
   0  -6  -9 21.4781 2.45679   2 
   0   6   9 22.9377 2.56476   1 
   0   6   9 17.6859 2.81293   3 
  -1  -6  -9 1.30551 1.72642   2 
  -1  -6  -9 0.25014 1.75851   2 
  -1  -6  -9 -0.2912 1.31407   3 
  -1  -6  -9 0.95666 1.42115   1 
   1   6   9 2.75367 1.98338   3 
   1   6   9 3.83980 1.83109   1 
  -2  -6  -9 395.822 11.2656   3 
  -2  -6  -9 404.317 11.7634   2 
  -2  -6  -9 387.141 11.4116   1 
   2   6   9 362.834 11.8586   3 
   2   6   9 394.428 12.2751   1 
  -3  -6  -9 8.45049 1.76988   1 
  -3  -6  -9 9.07151 1.78595   3 
  -3  -6  -9 7.67467 2.15739   2 
   3   6   9 7.44928 2.26958   3 
   3   6   9 10.2195 2.41800   1 
  -4  -6  -9 67.7501 3.94117   1 
  -4  -6  -9 71.7035 4.08154   3 
  -4  -6  -9 79.3884 4.61503   2 
   4   6   9 68.2893 5.18944   3 
  -5  -6  -9 238.965 11.0900   3 
  -5  -6  -9 286.086 9.32760   1 
  -5  -6  -9 292.720 9.38410   2 
  -6  -6  -9 162.161 6.91396   2 
  -6  -6  -9 147.628 6.87738   1 
   1  -7  -9 3.35258 2.43390   2 
   1  -7  -9 3.32596 2.49096   2 
   1  -7  -9 4.65530 2.16789   3 
   1  -7  -9 2.01851 2.54509   1 
  -1   7   9 -1.5209 2.32040   1 
  -1   7   9 -1.9968 2.79356   3 
   0  -7  -9 54.9183 4.43589   1 
   0  -7  -9 54.3777 4.88666   2 
   0  -7  -9 42.6361 4.51204   2 
   0  -7  -9 63.2648 4.17721   3 
   0   7   9 49.9429 4.51886   1 
   0   7   9 50.7731 5.17724   3 
  -1  -7  -9 14.5715 2.34186   1 
  -1  -7  -9 11.8266 2.23445   3 
  -1  -7  -9 18.2929 3.06566   2 
  -1  -7  -9 17.1762 2.93128   2 
   1   7   9 18.8383 3.24611   3 
   1   7   9 16.8498 2.54641   1 
  -2  -7  -9 44.6778 3.53798   1 
  -2  -7  -9 32.4146 3.36875   2 
  -2  -7  -9 35.4670 3.71062   2 
  -2  -7  -9 32.0242 3.48955   3 
   2   7   9 39.1844 3.94364   3 
   2   7   9 34.3911 3.55095   1 
  -3  -7  -9 119.818 5.59633   3 
  -3  -7  -9 116.365 6.01932   2 
  -3  -7  -9 120.134 5.35026   1 
  -3  -7  -9 123.723 6.49119   2 
   3   7   9 123.281 6.77027   1 
   3   7   9 119.633 6.45676   3 
  -4  -7  -9 300.095 10.4590   2 
  -4  -7  -9 310.279 10.9810   2 
  -4  -7  -9 312.542 9.91725   3 
  -4  -7  -9 304.841 9.80388   1 
   4   7   9 294.529 10.4866   3 
  -5  -7  -9 36.4830 3.67880   2 
  -5  -7  -9 33.2606 3.28156   1 
  -5  -7  -9 26.5050 3.63375   2 
  -5  -7  -9 39.4777 4.37063   3 
   1   6 -10 -0.2669 2.70130   2 
  -1  -6  10 -5.9377 2.79794   3 
  -1  -6  10 -3.1672 1.92134   2 
  -1  -6  10 4.29030 2.32016   3 
   0   6 -10 17.9808 3.22005   2 
   0  -6  10 13.3703 2.63823   2 
   0  -6  10 23.6667 3.08316   3 
   0  -6  10 14.2499 3.19963   3 
   3   5 -10 62.4794 4.80428   2 
  -3  -5  10 67.5777 3.71029   2 
  -3  -5  10 59.2659 4.60574   3 
   2   5 -10 21.3657 2.77287   2 
  -2  -5  10 17.3969 2.53848   3 
  -2  -5  10 18.1482 2.12442   2 
   1   5 -10 3.67522 2.10584   2 
  -1  -5  10 5.97609 1.92247   3 
  -1  -5  10 5.21888 1.66001   2 
   0   5 -10 296.164 9.79191   2 
   0  -5  10 295.040 8.96180   2 
   0  -5  10 293.729 9.75869   3 
   0  -5  10 288.154 9.11405   3 
  -1   5 -10 19.8812 2.08748   1 
  -1   5 -10 17.2109 1.49737   1 
  -1   5 -10 25.6743 3.04476   2 
   1  -5  10 20.0300 2.22268   2 
   1  -5  10 22.2050 2.38594   3 
   1  -5  10 18.8860 2.65520   3 
  -2   5 -10 47.0829 2.97390   1 
  -2   5 -10 50.4805 3.49088   1 
  -2   5 -10 45.9085 4.51038   2 
   2  -5  10 55.6958 3.69044   2 
   2  -5  10 58.4850 4.01459   3 
   2  -5  10 54.8865 3.45203   3 
   4   4 -10 -1.3801 3.77985   2 
   4   4 -10 0.70117 1.53182   1 
  -4  -4  10 -2.4155 2.50717   2 
  -4  -4  10 -2.3298 1.60306   3 
  -4  -4  10 1.41675 1.09097   1 
   3   4 -10 9.42458 2.18331   2 
   3   4 -10 7.95330 1.12496   1 
  -3  -4  10 8.41033 1.49713   2 
  -3  -4  10 7.36683 1.14378   1 
  -3  -4  10 6.66654 1.83083   3 
   2   4 -10 4.17628 1.71416   2 
   2   4 -10 5.20524 0.83439   1 
  -2  -4  10 2.73075 1.21196   2 
  -2  -4  10 3.49864 1.60792   3 
   1   4 -10 3.36226 0.98165   1 
   1   4 -10 4.11843 0.75629   1 
   1   4 -10 5.74748 1.68148   2 
  -1  -4  10 5.69340 1.41425   2 
  -1  -4  10 3.56449 1.56863   3 
   0   4 -10 2.00597 0.73054   1 
   0   4 -10 -0.1403 1.53388   2 
   0   4 -10 3.48602 1.18454   1 
   0  -4  10 2.48780 1.26296   2 
   0  -4  10 4.86993 1.38942   3 
  -1   4 -10 0.19575 0.81486   1 
  -1   4 -10 1.47175 1.25496   1 
  -1   4 -10 0.12378 1.32417   2 
   1  -4  10 0.19585 1.15632   3 
   1  -4  10 0.71369 1.63875   3 
   1  -4  10 1.25961 1.15109   2 
  -2   4 -10 32.7162 2.58641   1 
  -2   4 -10 34.8029 3.18635   1 
  -2   4 -10 35.8982 3.35274   2 
   2  -4  10 32.8430 2.93154   3 
   2  -4  10 26.4518 2.56998   2 
   2  -4  10 33.0567 2.29337   3 
  -3   4 -10 26.9380 2.81419   2 
  -3   4 -10 26.0135 2.71110   1 
  -3   4 -10 27.6483 2.95392   1 
   3  -4  10 28.4738 2.98119   2 
   3  -4  10 26.7529 2.18329   3 
   3  -4  10 24.3867 1.85617   3 
   4  -4  10 36.5701 3.80199   2 
   5   3 -10 109.968 4.66765   2 
   5   3 -10 110.094 5.44197   1 
  -5  -3  10 107.089 5.37716   3 
  -5  -3  10 116.173 4.50274   1 
  -5  -3  10 119.353 4.06800   2 
   4   3 -10 7.55835 1.76427   1 
   4   3 -10 4.32028 1.66707   2 
  -4  -3  10 8.02981 1.38202   2 
  -4  -3  10 6.02483 1.44981   1 
  -4  -3  10 5.42323 1.63987   3 
   3   3 -10 21.1669 2.30678   1 
   3   3 -10 22.3185 2.30146   2 
  -3  -3  10 22.3938 2.44829   3 
  -3  -3  10 20.9063 1.84202   2 
  -3  -3  10 24.4534 2.05183   1 
   2   3 -10 8.19748 1.15393   1 
   2   3 -10 6.40047 1.60280   2 
  -2  -3  10 7.36001 1.27471   2 
  -2  -3  10 4.83947 1.39486   3 
  -2  -3  10 6.19174 1.26872   1 
   1   3 -10 17.3216 2.01056   2 
   1   3 -10 19.5243 1.54082   1 
  -1  -3  10 17.9601 1.90148   3 
  -1  -3  10 17.1510 1.81671   2 
   0   3 -10 98.0503 4.28127   2 
   0   3 -10 101.340 3.39723   1 
   0  -3  10 102.778 3.93107   2 
   0  -3  10 105.508 3.95626   3 
  -1   3 -10 633.555 15.5757   1 
  -1   3 -10 607.044 16.4178   2 
   1  -3  10 585.798 16.0088   2 
   1  -3  10 628.358 15.6473   3 
  -2   3 -10 179.228 6.44537   1 
  -2   3 -10 166.093 6.16093   2 
  -2   3 -10 175.875 5.81913   1 
   2  -3  10 175.805 5.11294   3 
   2  -3  10 185.603 6.06196   2 
   2  -3  10 182.093 5.63731   3 
  -3   3 -10 39.5585 3.20417   2 
  -3   3 -10 38.6023 3.98428   1 
  -3   3 -10 41.7328 3.34269   1 
   3  -3  10 40.6903 1.86539   3 
   3  -3  10 40.0951 1.62333   3 
   3  -3  10 39.9976 2.97029   2 
  -4   3 -10 10.2672 2.69686   1 
  -4   3 -10 10.9907 2.51429   1 
  -4   3 -10 10.5688 2.03150   2 
   4  -3  10 7.58904 1.88641   2 
   5   2 -10 56.0773 4.50484   1 
   5   2 -10 51.4275 2.87487   2 
   5   2 -10 60.9526 5.23589   3 
  -5  -2  10 56.6692 2.62209   2 
  -5  -2  10 61.4836 4.03370   3 
  -5  -2  10 60.8167 3.51174   1 
   4   2 -10 75.9401 5.00780   3 
   4   2 -10 65.5419 4.19145   1 
   4   2 -10 77.3626 3.45505   2 
  -4  -2  10 68.0307 3.95219   3 
  -4  -2  10 73.4085 3.02874   2 
  -4  -2  10 72.4469 3.39109   1 
   3   2 -10 9.91727 1.40310   2 
   3   2 -10 8.00573 1.56571   1 
   3   2 -10 9.20081 2.05200   3 
  -3  -2  10 6.19642 1.18131   2 
  -3  -2  10 8.14093 1.30409   1 
  -3  -2  10 8.10131 1.56279   3 
   2   2 -10 57.4989 2.82257   1 
   2   2 -10 51.9517 3.83894   3 
   2   2 -10 54.7587 2.90107   2 
  -2  -2  10 55.2863 2.68954   1 
  -2  -2  10 52.8520 2.61633   2 
   1   2 -10 3.66322 1.06576   2 
   1   2 -10 3.38192 0.97960   1 
  -1  -2  10 2.53433 1.04817   2 
  -1  -2  10 4.43115 1.04191   3 
  -1  -2  10 1.17517 1.10341   1 
   0   2 -10 74.6402 3.33277   2 
   0   2 -10 74.3586 2.90014   1 
   0  -2  10 74.4885 3.22313   2 
   0  -2  10 74.7523 3.01332   3 
  -1   2 -10 0.61786 0.92508   2 
  -1   2 -10 0.37405 0.81001   1 
   1  -2  10 0.79718 1.03412   2 
   1  -2  10 0.47406 0.70188   3 
  -2   2 -10 263.542 7.95234   2 
  -2   2 -10 261.775 7.83092   1 
   2  -2  10 264.347 6.88124   3 
   2  -2  10 267.543 7.35619   3 
   2  -2  10 257.061 7.83036   2 
  -3   2 -10 0.47000 1.27403   1 
  -3   2 -10 4.28640 1.46302   2 
  -3   2 -10 -2.0958 1.72897   1 
   3  -2  10 0.50078 1.26650   2 
  -4   2 -10 37.1739 2.89661   2 
  -4   2 -10 36.7266 3.78380   1 
  -4   2 -10 38.3368 3.89019   1 
   4  -2  10 34.8462 3.15274   2 
  -5   2 -10 3.27281 2.48711   1 
  -5   2 -10 0.91940 2.66651   1 
  -5   2 -10 0.94971 1.58522   2 
   5  -2  10 3.99606 1.94331   2 
   5   1 -10 -0.3793 2.40431   3 
   5   1 -10 2.60783 2.33916   1 
  -5  -1  10 1.63280 1.64238   1 
  -5  -1  10 3.56487 2.00816   3 
   4   1 -10 5.70428 1.90429   1 
   4   1 -10 1.55989 1.11204   2 
   4   1 -10 2.16711 1.84822   3 
  -4  -1  10 2.58770 1.32553   3 
  -4  -1  10 4.14915 1.14540   2 
  -4  -1  10 4.07076 1.36894   1 
   3   1 -10 693.942 18.5774   3 
   3   1 -10 670.320 17.9298   1 
   3   1 -10 670.335 17.1344   2 
  -3  -1  10 674.130 17.4905   1 
  -3  -1  10 679.288 17.8228   3 
  -3  -1  10 692.134 17.0851   2 
   2   1 -10 779.243 19.7103   2 
   2   1 -10 793.515 20.1614   1 
   2   1 -10 781.441 21.1808   3 
  -2  -1  10 796.915 19.7387   2 
  -2  -1  10 797.161 20.0404   1 
  -2  -1  10 786.776 20.1500   3 
   1   1 -10 93.4669 4.08065   3 
   1   1 -10 87.2656 3.39724   2 
   1   1 -10 86.5484 3.43881   1 
  -1  -1  10 86.4845 3.48650   3 
  -1  -1  10 89.7529 3.44104   2 
  -1  -1  10 89.5580 3.65551   1 
   0   1 -10 15.3545 1.72856   3 
   0   1 -10 15.9187 1.55600   1 
   0   1 -10 12.3357 1.30568   2 
   0  -1  10 13.4329 1.49888   3 
   0  -1  10 13.4333 1.70272   1 
   0  -1  10 14.9342 1.60875   2 
  -1   1 -10 163.253 5.08261   1 
  -1   1 -10 153.955 5.11418   2 
   1  -1  10 158.283 4.64487   3 
   1  -1  10 151.873 5.21469   2 
  -2   1 -10 68.9645 3.30681   1 
  -2   1 -10 72.8084 3.13541   2 
   2  -1  10 73.3056 3.35959   2 
   2  -1  10 74.5451 2.42862   3 
  -3   1 -10 303.068 9.31017   1 
  -3   1 -10 303.957 8.79699   2 
   3  -1  10 306.206 9.06520   2 
  -4   1 -10 671.927 18.6523   1 
  -4   1 -10 699.866 17.7706   2 
  -4   1 -10 664.957 19.0541   1 
   4  -1  10 668.461 17.9960   2 
  -5   1 -10 3.10889 2.37187   1 
  -5   1 -10 1.19552 2.69073   1 
  -5   1 -10 0.71961 1.28477   2 
   5  -1  10 4.55435 1.81955   2 
  -6   1 -10 22.7712 4.13425   1 
  -6   1 -10 26.6949 3.86606   1 
  -6   1 -10 20.7715 2.42867   2 
   6  -1  10 18.9153 2.71909   2 
   5   0 -10 55.0337 4.60311   3 
   5   0 -10 45.1217 4.95986   1 
  -5   0  10 49.6974 3.82544   3 
  -5   0  10 50.3690 3.86194   1 
   4   0 -10 16.5821 1.47507   2 
   4   0 -10 18.3152 2.50212   3 
   4   0 -10 17.3975 2.50311   1 
  -4   0  10 16.2188 1.95499   1 
  -4   0  10 13.8972 1.95871   3 
   3   0 -10 123.095 5.16014   1 
   3   0 -10 114.949 5.22116   3 
   3   0 -10 123.699 3.97418   2 
  -3   0  10 127.356 4.91067   3 
  -3   0  10 123.671 4.23043   2 
  -3   0  10 134.192 4.79147   1 
   2   0 -10 999.226 23.6858   2 
   2   0 -10 941.528 25.5418   3 
   2   0 -10 984.662 24.5616   1 
  -2   0  10 968.563 23.9181   2 
  -2   0  10 972.124 24.3202   1 
  -2   0  10 929.984 24.2948   3 
   1   0 -10 67.3433 3.13949   1 
   1   0 -10 71.3500 2.76212   2 
   1   0 -10 71.8542 3.38423   3 
  -1   0  10 64.2075 2.97232   2 
  -1   0  10 74.2432 3.29182   1 
  -1   0  10 71.7465 3.07752   3 
   0   0 -10 257.410 7.56158   3 
   0   0 -10 260.284 7.52512   1 
   0   0 -10 260.565 7.26652   2 
   0   0  10 265.266 7.31644   3 
   0   0  10 245.994 7.91275   1 
   0   0  10 260.959 7.55389   2 
  -1   0 -10 49.6649 2.32717   2 
  -1   0 -10 45.2073 2.42545   1 
  -1   0 -10 46.5453 2.35690   3 
   1   0  10 47.2141 2.64094   2 
   1   0  10 42.4682 3.08368   1 
   1   0  10 47.3280 2.09378   3 
  -2   0 -10 13.7875 1.58897   1 
  -2   0 -10 16.8392 1.65245   2 
  -2   0 -10 16.2638 1.46498   3 
   2   0  10 15.1056 1.25315   3 
   2   0  10 12.2008 1.47446   2 
  -3   0 -10 107.121 3.99338   2 
  -3   0 -10 108.589 4.63146   1 
   3   0  10 104.435 4.34713   2 
  -4   0 -10 98.9534 4.94712   1 
  -4   0 -10 98.1654 3.91667   2 
   4   0  10 98.1572 4.47691   2 
  -5   0 -10 48.6139 4.25571   1 
  -5   0 -10 36.1162 3.83218   1 
  -5   0 -10 45.9910 2.91491   2 
   5   0  10 45.3291 3.71640   2 
  -6   0 -10 92.5774 6.77761   1 
  -6   0 -10 87.8606 4.28251   2 
  -6   0 -10 88.8783 6.13301   1 
   6   0  10 92.2844 5.47074   2 
   5  -1 -10 -0.0254 2.57720   1 
   5  -1 -10 3.64580 2.23282   3 
  -5   1  10 4.19891 1.93758   3 
  -5   1  10 1.60383 1.95438   1 
   4  -1 -10 2.97400 1.53303   3 
   4  -1 -10 1.69699 2.01855   1 
   4  -1 -10 0.94896 0.68320   2 
  -4   1  10 1.58703 1.57201   3 
  -4   1  10 3.35862 1.64390   1 
   3  -1 -10 29.4355 1.70510   2 
   3  -1 -10 27.9870 2.84185   3 
   3  -1 -10 29.5624 3.11238   1 
  -3   1  10 27.2921 2.59774   3 
  -3   1  10 30.8601 2.63414   1 
   2  -1 -10 21.9851 2.44541   1 
   2  -1 -10 22.3840 2.30635   3 
   2  -1 -10 19.5728 1.44616   2 
  -2   1  10 17.1971 1.98518   3 
  -2   1  10 20.3595 2.07438   2 
  -2   1  10 15.2200 1.86548   1 
   1  -1 -10 42.4144 2.58711   1 
   1  -1 -10 47.1162 2.61417   3 
   1  -1 -10 38.4097 2.02999   2 
  -1   1  10 40.4292 2.53946   2 
  -1   1  10 37.1021 2.63471   1 
  -1   1  10 39.4458 2.37678   3 
   0  -1 -10 440.883 11.7186   3 
   0  -1 -10 444.331 11.9547   1 
   0  -1 -10 436.298 11.4348   2 
   0   1  10 441.873 11.9967   2 
   0   1  10 442.524 11.6816   3 
   0   1  10 432.582 12.2568   1 
  -1  -1 -10 52.7000 2.65488   1 
  -1  -1 -10 52.6471 2.41940   2 
  -1  -1 -10 53.5573 2.40095   3 
   1   1  10 52.7887 2.38778   3 
   1   1  10 51.4744 3.26694   1 
   1   1  10 49.0654 2.89062   2 
  -2  -1 -10 9.34965 1.00930   3 
  -2  -1 -10 8.54686 1.08899   2 
  -2  -1 -10 7.05932 1.20893   1 
   2   1  10 8.40288 1.05944   3 
   2   1  10 6.91975 1.70781   1 
   2   1  10 6.46877 1.40158   2 
  -3  -1 -10 78.1979 2.53274   3 
  -3  -1 -10 81.3796 3.31004   2 
  -3  -1 -10 80.2684 3.82486   1 
   3   1  10 78.2630 3.88906   2 
   3   1  10 79.5344 2.61850   3 
  -4  -1 -10 189.746 6.84775   1 
  -4  -1 -10 179.400 5.86821   2 
   4   1  10 184.583 6.74066   2 
  -5  -1 -10 5.22292 1.46678   2 
  -5  -1 -10 4.79785 1.83304   1 
   5   1  10 3.11320 1.84457   2 
  -6  -1 -10 56.7054 3.49937   2 
  -6  -1 -10 44.2393 4.86133   1 
  -6  -1 -10 50.8053 4.95633   1 
   6   1  10 48.7963 4.71538   2 
   5  -2 -10 24.9613 3.81198   1 
   5  -2 -10 28.4622 3.33337   3 
  -5   2  10 30.5796 3.55824   3 
  -5   2  10 27.9830 3.06146   1 
   4  -2 -10 44.4364 2.01365   2 
   4  -2 -10 44.0244 1.71675   2 
   4  -2 -10 47.3339 4.40181   1 
   4  -2 -10 49.0711 3.73342   3 
  -4   2  10 47.3343 3.69590   3 
  -4   2  10 56.2740 3.86195   1 
   3  -2 -10 19.9640 2.42980   1 
   3  -2 -10 18.0735 2.15276   3 
   3  -2 -10 19.6757 1.39476   2 
  -3   2  10 16.7617 2.16869   1 
  -3   2  10 21.3120 2.41171   3 
   2  -2 -10 4.27052 1.33770   3 
   2  -2 -10 4.55441 0.88199   2 
   2  -2 -10 6.54813 1.70656   1 
  -2   2  10 6.38136 1.47998   1 
  -2   2  10 3.87805 1.41260   3 
   1  -2 -10 1302.32 32.1703   3 
   1  -2 -10 1314.91 32.5993   1 
   1  -2 -10 1303.86 31.5340   2 
  -1   2  10 1334.05 32.3510   3 
  -1   2  10 1266.53 32.4698   1 
   0  -2 -10 129.537 4.77104   1 
   0  -2 -10 126.753 4.22410   2 
   0  -2 -10 124.736 4.33598   3 
   0   2  10 132.581 4.65279   3 
   0   2  10 128.164 4.89498   2 
   0   2  10 130.295 5.01700   1 
  -1  -2 -10 127.806 4.12115   3 
  -1  -2 -10 127.062 4.59746   1 
  -1  -2 -10 128.206 4.27638   2 
   1   2  10 124.588 4.39720   3 
   1   2  10 124.476 5.10455   1 
   1   2  10 119.677 4.85098   2 
  -2  -2 -10 10.9433 1.39897   2 
  -2  -2 -10 10.1860 1.44702   1 
  -2  -2 -10 9.87145 1.07980   3 
   2   2  10 7.91522 1.70434   1 
   2   2  10 9.66861 1.69949   2 
   2   2  10 8.90837 1.24122   3 
  -3  -2 -10 182.100 5.71093   2 
  -3  -2 -10 180.163 6.40706   1 
  -3  -2 -10 170.315 4.85821   3 
   3   2  10 178.641 6.48139   2 
   3   2  10 175.276 5.26474   3 
  -4  -2 -10 287.616 7.19156   3 
  -4  -2 -10 287.558 9.29623   1 
  -4  -2 -10 288.150 8.42306   2 
   4   2  10 294.695 9.36362   2 
  -5  -2 -10 117.779 5.49170   1 
  -5  -2 -10 122.589 4.59758   2 
   5   2  10 118.272 5.71002   2 
  -6  -2 -10 100.004 5.83565   1 
  -6  -2 -10 107.479 4.58399   2 
  -6  -2 -10 106.886 6.96430   1 
   6   2  10 114.272 6.18276   2 
   4  -3 -10 5.90803 2.78282   1 
   4  -3 -10 7.84327 0.82963   2 
   4  -3 -10 8.19045 1.06312   2 
   4  -3 -10 6.58919 2.11916   3 
  -4   3  10 4.36462 1.95896   1 
  -4   3  10 3.52308 1.97441   3 
   3  -3 -10 30.8753 2.55446   2 
   3  -3 -10 35.4284 1.82754   2 
   3  -3 -10 32.0502 3.60788   1 
   3  -3 -10 34.2859 3.11951   3 
  -3   3  10 28.6388 3.14089   1 
  -3   3  10 33.8757 3.29314   3 
   2  -3 -10 64.8449 3.94640   1 
   2  -3 -10 67.4277 3.53774   3 
   2  -3 -10 66.0751 2.66305   2 
  -2   3  10 61.2372 3.59470   1 
  -2   3  10 62.1644 3.79240   3 
   1  -3 -10 73.2035 3.89334   1 
   1  -3 -10 84.4472 3.68184   3 
   1  -3 -10 79.2110 3.14958   2 
  -1   3  10 76.8080 3.85036   1 
  -1   3  10 78.7622 3.91066   3 
   0  -3 -10 48.5456 2.99978   1 
   0  -3 -10 54.1854 2.67803   2 
   0  -3 -10 55.4338 2.79483   3 
   0   3  10 53.3931 3.13791   3 
   0   3  10 55.8667 3.27075   1 
  -1  -3 -10 153.895 4.91196   3 
  -1  -3 -10 158.889 5.12701   2 
   1   3  10 163.000 5.46397   3 
   1   3  10 126.613 6.38824   1 
  -2  -3 -10 135.654 5.09685   1 
  -2  -3 -10 140.256 4.45606   3 
   2   3  10 143.329 5.93584   1 
   2   3  10 139.085 4.92751   3 
  -3  -3 -10 196.265 5.56466   3 
  -3  -3 -10 190.649 6.63328   1 
  -3  -3 -10 197.597 6.25154   2 
   3   3  10 192.356 6.08135   3 
  -4  -3 -10 390.867 9.86858   3 
  -4  -3 -10 389.990 10.8677   2 
  -4  -3 -10 383.098 11.5737   1 
  -5  -3 -10 187.344 5.03297   3 
  -5  -3 -10 197.293 7.45737   1 
  -5  -3 -10 193.708 6.43070   2 
  -6  -3 -10 6.20928 1.75577   2 
  -6  -3 -10 0.86858 2.10087   1 
   3  -4 -10 19.0122 2.81635   1 
   3  -4 -10 20.5491 2.04117   2 
   3  -4 -10 22.7525 1.92706   2 
   3  -4 -10 22.8489 2.64298   3 
  -3   4  10 22.8624 2.71631   1 
  -3   4  10 22.6078 2.88612   3 
   2  -4 -10 27.5050 2.69239   2 
   2  -4 -10 20.6343 2.68800   1 
   2  -4 -10 20.2356 2.14118   2 
   2  -4 -10 22.7339 2.46968   3 
  -2   4  10 23.6306 2.48993   1 
  -2   4  10 26.0567 2.90550   3 
   1  -4 -10 557.877 15.6645   1 
   1  -4 -10 560.427 14.6351   2 
   1  -4 -10 562.005 15.0521   3 
  -1   4  10 570.398 15.6683   3 
  -1   4  10 545.993 15.4781   1 
   0  -4 -10 1613.99 38.9873   3 
   0  -4 -10 1608.67 39.5613   1 
   0  -4 -10 1628.82 38.8718   2 
   0   4  10 1542.32 39.6214   1 
   0   4  10 1567.92 39.7346   3 
  -1  -4 -10 1.38614 0.94764   1 
  -1  -4 -10 1.71918 1.06023   3 
   1   4  10 2.84380 1.49230   3 
   1   4  10 1.08929 1.27890   1 
  -2  -4 -10 2.83808 1.32135   2 
  -2  -4 -10 2.27408 1.11529   1 
  -2  -4 -10 1.82897 1.00013   3 
   2   4  10 2.29858 1.57684   1 
   2   4  10 1.49386 1.35061   3 
  -3  -4 -10 1.03779 0.99223   3 
  -3  -4 -10 3.73548 1.28033   1 
  -3  -4 -10 1.68039 1.32323   2 
   3   4  10 4.04178 1.82695   1 
   3   4  10 0.10241 1.35342   3 
  -4  -4 -10 -0.4268 0.85077   3 
  -4  -4 -10 -0.2031 1.29898   1 
  -4  -4 -10 1.27261 1.33373   2 
   4   4  10 -1.9191 1.29130   3 
  -5  -4 -10 159.560 4.98998   3 
  -5  -4 -10 172.566 6.19402   2 
  -5  -4 -10 170.928 6.79723   1 
  -6  -4 -10 257.479 7.14842   3 
  -6  -4 -10 247.795 6.75682   3 
  -6  -4 -10 244.401 9.30496   1 
  -6  -4 -10 259.151 8.34028   2 
   3  -5 -10 38.2368 4.18323   1 
   3  -5 -10 29.3844 2.67044   2 
   3  -5 -10 35.9668 4.05139   3 
   3  -5 -10 31.4585 2.67159   2 
  -3   5  10 35.5875 3.45300   1 
  -3   5  10 33.4590 3.64591   3 
   2  -5 -10 81.5267 4.35641   2 
   2  -5 -10 76.6587 4.95472   1 
   2  -5 -10 80.4297 3.81705   2 
   2  -5 -10 78.2941 4.46928   3 
  -2   5  10 79.0915 4.55279   1 
  -2   5  10 86.6509 5.36686   3 
   1  -5 -10 63.7449 4.05909   2 
   1  -5 -10 65.1694 4.15433   1 
   1  -5 -10 64.4880 3.83972   3 
   1  -5 -10 68.6971 3.67082   2 
  -1   5  10 60.9536 4.02779   1 
  -1   5  10 58.1520 4.36403   3 
   0  -5 -10 457.082 12.7397   2 
   0  -5 -10 464.640 12.7708   3 
   0  -5 -10 447.380 13.2280   1 
   0   5  10 457.767 13.4229   1 
   0   5  10 464.896 13.5067   3 
  -1  -5 -10 149.328 5.66540   1 
  -1  -5 -10 140.948 5.34969   3 
  -1  -5 -10 148.499 5.55494   2 
   1   5  10 153.655 6.18148   1 
   1   5  10 141.192 6.04488   3 
  -2  -5 -10 2.84516 1.39012   2 
  -2  -5 -10 1.19290 1.17104   1 
  -2  -5 -10 1.34839 1.19887   3 
   2   5  10 2.92812 1.66496   3 
   2   5  10 -1.3186 1.50654   1 
  -3  -5 -10 152.645 5.44275   3 
  -3  -5 -10 166.268 6.00441   2 
  -3  -5 -10 157.263 5.90877   1 
   3   5  10 160.565 6.21996   3 
   3   5  10 161.099 7.08342   1 
  -4  -5 -10 11.8639 1.92631   1 
  -4  -5 -10 12.1790 2.13646   2 
  -4  -5 -10 11.7180 1.69592   3 
   4   5  10 8.79556 2.10797   3 
  -5  -5 -10 23.8607 2.81864   2 
  -5  -5 -10 14.9077 2.23814   1 
  -5  -5 -10 22.5752 2.44918   3 
  -6  -5 -10 8.26209 1.58984   3 
  -6  -5 -10 6.29680 2.24675   2 
  -6  -5 -10 6.06333 2.59226   1 
   2  -6 -10 13.3722 2.69005   1 
   2  -6 -10 17.5402 2.58440   2 
   2  -6 -10 14.7418 2.67847   3 
   2  -6 -10 18.2838 2.49999   2 
  -2   6  10 15.6672 2.78662   1 
  -2   6  10 18.4435 3.24561   3 
   1  -6 -10 15.9110 2.77601   1 
   1  -6 -10 13.8636 2.57571   2 
   1  -6 -10 10.2562 2.17704   2 
   1  -6 -10 14.0915 2.46942   3 
  -1   6  10 10.1023 2.36406   1 
  -1   6  10 11.1920 2.83734   3 
   0  -6 -10 0.86448 2.09829   2 
   0  -6 -10 -0.2158 1.80846   2 
   0  -6 -10 -0.2262 1.61211   3 
   0  -6 -10 0.41044 1.64791   1 
   0   6  10 4.14628 1.98317   1 
   0   6  10 -1.5649 2.14794   3 
  -1  -6 -10 20.3688 2.39672   1 
  -1  -6 -10 19.9828 2.43014   3 
  -1  -6 -10 20.2783 2.51469   2 
  -1  -6 -10 22.6721 2.95387   2 
   1   6  10 23.3281 3.05384   3 
   1   6  10 23.7454 3.01407   1 
  -2  -6 -10 107.498 4.80444   1 
  -2  -6 -10 109.530 4.78235   3 
  -2  -6 -10 103.599 5.24776   2 
   2   6  10 106.479 5.76848   3 
   2   6  10 97.1551 5.68308   1 
  -3  -6 -10 2.36429 1.62048   1 
  -3  -6 -10 0.06466 1.85026   2 
  -3  -6 -10 0.95358 1.45385   3 
   3   6  10 1.18785 2.04908   3 
   3   6  10 4.73012 2.54689   1 
  -4  -6 -10 85.3482 4.23345   3 
  -4  -6 -10 85.4032 4.65558   1 
  -4  -6 -10 93.2212 5.01505   2 
   4   6  10 83.4873 5.32129   3 
  -5  -6 -10 52.9160 3.79283   3 
  -5  -6 -10 52.1979 4.19054   2 
  -5  -6 -10 47.1471 4.33689   1 
   0  -7 -10 118.707 6.18443   2 
   0  -7 -10 120.114 6.22575   1 
   0  -7 -10 118.680 5.93547   3 
   0  -7 -10 121.593 6.34094   2 
   0   7  10 117.629 6.39546   1 
   0   7  10 110.559 6.86172   3 
  -1  -7 -10 69.6191 4.67407   1 
  -1  -7 -10 60.9959 5.03797   2 
  -1  -7 -10 60.9476 5.42901   2 
  -1  -7 -10 66.0310 4.45648   3 
   1   7  10 65.0500 5.91788   3 
   1   7  10 56.6370 5.15540   1 
  -2  -7 -10 29.8630 3.01428   3 
  -2  -7 -10 31.2903 3.34721   2 
  -2  -7 -10 33.5860 3.76287   1 
  -2  -7 -10 35.4267 3.64566   2 
   2   7  10 41.4148 4.19482   1 
   2   7  10 36.3539 3.95841   3 
  -3  -7 -10 -0.9017 2.59038   2 
  -3  -7 -10 5.23054 2.70319   2 
  -3  -7 -10 0.54448 1.97354   3 
  -3  -7 -10 1.38398 1.83195   1 
   3   7  10 6.88823 2.96554   1 
   3   7  10 0.05781 2.59283   3 
  -4  -7 -10 7.18315 2.76276   2 
  -4  -7 -10 8.34757 2.28143   3 
  -4  -7 -10 12.1649 2.57086   2 
  -4  -7 -10 9.29697 2.14639   1 
   4   7  10 4.24241 3.07963   3 
   2   5 -11 126.667 6.54120   2 
  -2  -5  11 131.515 6.01122   3 
  -2  -5  11 132.684 5.37976   2 
   1   5 -11 69.6563 5.06559   2 
  -1  -5  11 71.9095 4.54424   3 
  -1  -5  11 75.1857 4.16759   2 
   0   5 -11 46.5287 4.61903   2 
   0  -5  11 49.1234 3.73108   2 
   0  -5  11 47.1740 3.80687   3 
   0  -5  11 45.4297 4.93574   3 
  -1   5 -11 14.6852 1.27639   1 
  -1   5 -11 18.1060 1.75851   1 
  -1   5 -11 11.5434 2.80269   2 
   1  -5  11 14.1176 2.15332   3 
   1  -5  11 17.9796 2.89659   3 
   1  -5  11 14.1887 2.07713   2 
   3   4 -11 9.44207 1.38735   1 
   3   4 -11 7.90527 2.32246   2 
  -3  -4  11 5.38007 1.96398   3 
  -3  -4  11 6.84933 1.70102   2 
   2   4 -11 39.8420 3.64272   2 
   2   4 -11 33.3860 1.97878   1 
  -2  -4  11 31.1299 3.33022   3 
  -2  -4  11 30.5160 2.89210   2 
   1   4 -11 5.22604 0.91571   1 
   1   4 -11 4.09269 2.08482   2 
  -1  -4  11 0.23491 1.36938   3 
  -1  -4  11 4.31027 1.55458   2 
   0   4 -11 2.18340 1.35390   1 
   0   4 -11 -3.5506 1.66320   2 
   0   4 -11 1.42306 0.87538   1 
   0  -4  11 -0.9378 1.33546   2 
   0  -4  11 -0.5592 1.33959   3 
  -1   4 -11 33.5422 3.18582   1 
  -1   4 -11 33.9138 2.05226   1 
  -1   4 -11 36.0495 3.35780   2 
   1  -4  11 35.0543 3.62099   3 
   1  -4  11 30.9544 2.94725   2 
   1  -4  11 32.6935 2.66649   3 
  -2   4 -11 11.4158 2.30257   1 
  -2   4 -11 9.79351 2.27136   2 
  -2   4 -11 10.8143 1.61044   1 
   2  -4  11 10.9915 1.99671   3 
   2  -4  11 11.0713 1.51055   3 
   2  -4  11 9.92744 1.92548   2 
  -3   4 -11 12.6056 2.73097   1 
  -3   4 -11 11.5972 2.46707   2 
  -3   4 -11 10.7091 2.33560   1 
   3  -4  11 13.4580 1.20635   3 
   3  -4  11 12.3453 1.50665   3 
   3  -4  11 13.1593 2.47415   2 
   4   3 -11 14.3004 2.33530   2 
   4   3 -11 17.7998 2.27913   1 
  -4  -3  11 10.5744 2.16712   3 
  -4  -3  11 16.6351 1.89834   2 
  -4  -3  11 18.3667 1.95776   1 
   3   3 -11 -1.2176 1.41435   1 
   3   3 -11 -4.1430 3.12031   2 
  -3  -3  11 2.04731 1.55724   3 
  -3  -3  11 0.62539 1.19625   1 
   2   3 -11 457.633 11.9672   1 
   2   3 -11 450.983 12.7833   2 
  -2  -3  11 439.298 12.1634   1 
  -2  -3  11 456.727 12.6604   3 
  -2  -3  11 458.897 12.2353   2 
   1   3 -11 106.348 3.71891   1 
   1   3 -11 102.137 4.58773   2 
  -1  -3  11 94.6523 4.30016   3 
  -1  -3  11 106.637 4.21956   2 
   0   3 -11 14.7188 1.66905   1 
   0   3 -11 17.7203 2.13606   2 
   0  -3  11 17.0959 1.93441   2 
   0  -3  11 13.9004 1.65771   3 
  -1   3 -11 104.232 4.59664   2 
  -1   3 -11 94.7046 3.63052   1 
   1  -3  11 97.3444 4.28257   2 
   1  -3  11 101.926 3.69047   3 
  -2   3 -11 21.6852 2.37312   1 
  -2   3 -11 17.3963 3.68621   1 
  -2   3 -11 30.3907 2.73247   2 
   2  -3  11 21.1645 2.30242   2 
   2  -3  11 20.8374 1.71101   3 
   2  -3  11 23.4193 2.58717   3 
  -3   3 -11 3.11848 2.47960   1 
  -3   3 -11 2.86217 1.69364   2 
  -3   3 -11 0.72576 1.76267   1 
   3  -3  11 1.48361 0.79469   3 
   3  -3  11 2.11443 0.64169   3 
   3  -3  11 0.61533 1.51783   2 
  -4   3 -11 3.16847 2.30607   1 
  -4   3 -11 10.0236 2.51863   2 
  -4   3 -11 6.66604 2.72688   1 
   4  -3  11 5.08712 2.18501   2 
   4   2 -11 160.231 5.72871   2 
   4   2 -11 166.913 7.68209   3 
   4   2 -11 167.279 6.57300   1 
  -4  -2  11 160.556 6.36721   3 
  -4  -2  11 166.190 5.83939   1 
  -4  -2  11 162.890 5.29767   2 
   3   2 -11 40.6349 2.94229   2 
   3   2 -11 41.0639 3.17850   1 
   3   2 -11 39.0099 4.23870   3 
  -3  -2  11 39.8054 2.62387   2 
  -3  -2  11 42.6572 2.88418   1 
  -3  -2  11 39.9525 3.19754   3 
   2   2 -11 5.16059 1.28101   1 
   2   2 -11 3.41747 1.25062   2 
   2   2 -11 2.69901 1.76138   3 
  -2  -2  11 6.66668 1.60017   3 
  -2  -2  11 4.02371 1.25750   2 
  -2  -2  11 4.16322 1.25662   1 
   1   2 -11 1.68194 1.47927   2 
   1   2 -11 -1.2585 0.94078   1 
  -1  -2  11 -0.7486 1.29884   2 
  -1  -2  11 -1.6637 1.15872   1 
  -1  -2  11 -0.0263 1.06841   3 
   0   2 -11 2.25553 0.88631   1 
   0   2 -11 0.17575 1.01814   2 
   0  -2  11 0.22333 1.02971   2 
   0  -2  11 0.06854 0.94172   3 
  -1   2 -11 97.5282 3.70303   1 
  -1   2 -11 103.612 4.22583   2 
   1  -2  11 100.490 3.54078   3 
   1  -2  11 97.7986 4.14133   2 
  -2   2 -11 195.339 6.29381   1 
  -2   2 -11 191.992 6.39891   2 
   2  -2  11 186.490 6.37241   2 
   2  -2  11 186.870 5.28056   3 
   2  -2  11 188.744 5.77403   3 
  -3   2 -11 19.9501 2.30604   2 
  -3   2 -11 15.9807 3.17151   1 
  -3   2 -11 14.8481 2.31197   1 
   3  -2  11 16.8598 2.04009   2 
  -4   2 -11 11.7216 2.96789   1 
  -4   2 -11 11.5207 2.05023   2 
  -4   2 -11 13.3335 2.53831   1 
   4  -2  11 8.46187 2.04052   2 
  -5   2 -11 0.67269 2.51451   1 
  -5   2 -11 4.42452 3.27745   1 
  -5   2 -11 3.13171 2.20187   2 
   5  -2  11 -1.3412 2.15722   2 
   4   1 -11 58.2840 4.99853   3 
   4   1 -11 62.8370 4.59678   1 
   4   1 -11 52.8326 3.00060   2 
  -4  -1  11 60.8632 3.01935   2 
  -4  -1  11 64.0502 3.57101   1 
  -4  -1  11 52.2036 3.80072   3 
   3   1 -11 87.9345 5.12820   3 
   3   1 -11 94.8374 4.46917   1 
   3   1 -11 83.6315 3.64140   2 
  -3  -1  11 90.5752 4.11723   1 
  -3  -1  11 93.8175 4.27028   3 
  -3  -1  11 83.6370 3.55763   2 
   2   1 -11 122.577 4.79986   1 
   2   1 -11 120.488 4.38081   2 
   2   1 -11 123.917 5.48153   3 
  -2  -1  11 119.539 4.71989   3 
  -2  -1  11 130.903 4.76431   1 
  -2  -1  11 128.253 4.48994   2 
   1   1 -11 247.985 7.55677   2 
   1   1 -11 261.181 7.79595   1 
   1   1 -11 263.991 8.38087   3 
  -1  -1  11 265.311 8.11779   1 
  -1  -1  11 269.277 7.76488   3 
  -1  -1  11 262.990 7.76656   2 
   0   1 -11 44.2502 3.07121   3 
   0   1 -11 49.1057 2.58360   1 
   0   1 -11 46.5656 3.25703   2 
   0  -1  11 42.4120 3.24007   2 
   0  -1  11 54.1447 3.31763   1 
   0  -1  11 47.8866 2.50363   3 
  -1   1 -11 0.02399 0.84613   1 
  -1   1 -11 0.03334 0.99205   2 
   1  -1  11 0.31656 0.76508   3 
   1  -1  11 0.52242 0.98909   2 
  -2   1 -11 7.45900 1.42265   1 
  -2   1 -11 5.97064 1.22077   2 
   2  -1  11 8.67252 0.95916   3 
   2  -1  11 6.55958 1.43640   2 
  -3   1 -11 13.2195 1.69297   2 
  -3   1 -11 12.7464 3.28306   1 
   3  -1  11 13.7943 2.05638   2 
  -4   1 -11 14.5940 1.86340   2 
  -4   1 -11 13.4489 2.27786   1 
  -4   1 -11 17.2609 2.92976   1 
   4  -1  11 16.4702 2.32668   2 
  -5   1 -11 17.0234 3.07473   1 
  -5   1 -11 8.29384 2.94832   1 
  -5   1 -11 13.6294 2.18694   2 
   5  -1  11 10.8944 2.35822   2 
   4   0 -11 0.92393 0.97742   2 
   4   0 -11 3.13057 2.15637   3 
   4   0 -11 -0.5480 2.00789   1 
  -4   0  11 0.49318 1.69794   3 
  -4   0  11 2.25227 1.53684   1 
   3   0 -11 38.3864 3.43308   1 
   3   0 -11 35.2038 2.20650   2 
   3   0 -11 41.0759 3.43873   3 
  -3   0  11 33.6718 2.93177   3 
  -3   0  11 34.6118 2.91328   1 
  -3   0  11 36.2795 2.67492   2 
   2   0 -11 264.898 7.36403   2 
   2   0 -11 252.485 8.18987   1 
   2   0 -11 251.611 8.38822   3 
  -2   0  11 261.518 8.10463   1 
  -2   0  11 262.752 8.00765   3 
  -2   0  11 264.075 7.73516   2 
   1   0 -11 37.3961 2.60629   1 
   1   0 -11 41.0381 2.27141   2 
   1   0 -11 37.0053 2.80153   3 
  -1   0  11 39.2838 2.84861   1 
  -1   0  11 39.1063 2.56966   2 
  -1   0  11 36.8938 2.48679   3 
   0   0 -11 272.740 7.87405   2 
   0   0 -11 290.011 8.22487   1 
   0   0 -11 270.829 8.20248   3 
   0   0  11 276.240 7.88906   3 
   0   0  11 277.093 8.25510   2 
   0   0  11 283.443 8.75393   1 
  -1   0 -11 4.41618 1.27290   2 
  -1   0 -11 5.48203 1.21004   1 
  -1   0 -11 6.74686 1.17981   3 
   1   0  11 2.81159 1.34250   2 
   1   0  11 3.26651 1.55181   1 
   1   0  11 4.66927 0.95618   3 
  -2   0 -11 29.6375 2.40488   1 
  -2   0 -11 28.7281 2.13736   2 
  -2   0 -11 25.7523 1.92314   3 
   2   0  11 24.8415 2.41486   2 
   2   0  11 26.0377 1.72765   3 
  -3   0 -11 0.15583 1.37606   1 
  -3   0 -11 1.86771 1.05219   2 
   3   0  11 -0.0973 1.35319   2 
  -4   0 -11 6.17516 1.92671   1 
  -4   0 -11 5.87113 1.33936   2 
   4   0  11 9.01908 1.79729   2 
  -5   0 -11 1.19721 1.39906   2 
  -5   0 -11 -0.6724 2.74004   1 
  -5   0 -11 1.35338 2.29736   1 
   5   0  11 4.31079 1.98086   2 
   4  -1 -11 11.1751 2.64362   1 
   4  -1 -11 8.82976 1.08718   2 
   4  -1 -11 10.2035 2.22843   3 
  -4   1  11 7.68469 2.01427   3 
  -4   1  11 8.98945 2.21355   1 
   3  -1 -11 65.2702 2.61374   2 
   3  -1 -11 59.1186 4.20165   1 
   3  -1 -11 50.8044 3.84684   3 
  -3   1  11 61.5807 3.76145   3 
  -3   1  11 70.1311 3.83871   1 
   2  -1 -11 411.501 11.7653   3 
   2  -1 -11 398.528 10.5488   2 
   2  -1 -11 397.331 11.7976   1 
  -2   1  11 397.420 11.4194   3 
  -2   1  11 412.919 11.6750   1 
  -2   1  11 407.157 11.2121   2 
   1  -1 -11 12.0438 1.74308   1 
   1  -1 -11 8.12499 1.52579   3 
   1  -1 -11 6.42724 1.05415   2 
  -1   1  11 10.5860 1.58534   2 
  -1   1  11 8.24160 1.70437   1 
  -1   1  11 10.5331 1.58772   3 
   0  -1 -11 3.04042 1.14588   3 
   0  -1 -11 3.33223 0.96994   2 
   0  -1 -11 1.96308 1.00130   1 
   0   1  11 3.06042 1.34787   2 
   0   1  11 3.87984 1.39981   1 
   0   1  11 3.31066 1.21191   3 
  -1  -1 -11 4.57037 1.03703   3 
  -1  -1 -11 1.55279 0.93267   2 
  -1  -1 -11 1.19788 0.95578   1 
   1   1  11 2.79736 0.97210   3 
   1   1  11 2.47427 1.22232   2 
   1   1  11 4.92937 1.57258   1 
  -2  -1 -11 23.5035 2.46576   1 
  -2  -1 -11 21.2752 1.66665   3 
  -2  -1 -11 21.6933 2.00849   2 
   2   1  11 21.6458 1.82217   3 
   2   1  11 22.3352 2.24745   2 
  -3  -1 -11 13.2882 1.83095   1 
  -3  -1 -11 14.3275 1.36336   3 
  -3  -1 -11 19.4704 1.93283   2 
   3   1  11 18.4627 2.30346   2 
   3   1  11 14.6828 1.44725   3 
  -4  -1 -11 9.40997 2.15373   1 
  -4  -1 -11 8.86810 1.39532   2 
   4   1  11 11.2530 2.08531   2 
  -5  -1 -11 5.54030 2.01516   1 
  -5  -1 -11 -0.4394 1.45911   2 
   5   1  11 2.16921 1.99723   2 
  -6  -1 -11 18.0866 3.85625   1 
  -6  -1 -11 14.3073 2.92915   1 
  -6  -1 -11 16.5247 2.21565   2 
   6   1  11 14.0898 2.98999   2 
   4  -2 -11 -0.7553 0.72426   2 
   4  -2 -11 1.17870 2.50374   1 
   4  -2 -11 3.03450 1.08857   2 
   4  -2 -11 0.22950 1.90347   3 
  -4   2  11 -0.3220 1.85704   1 
  -4   2  11 -0.4327 2.07672   3 
   3  -2 -11 11.6075 1.22099   2 
   3  -2 -11 11.9618 2.25082   1 
   3  -2 -11 11.9093 2.14969   3 
  -3   2  11 14.7939 2.39839   3 
  -3   2  11 13.8921 2.09566   1 
   2  -2 -11 53.3886 3.68821   1 
   2  -2 -11 51.7118 3.28203   3 
   2  -2 -11 49.0302 2.36135   2 
  -2   2  11 47.7004 3.40854   3 
  -2   2  11 55.3700 3.54374   1 
   1  -2 -11 14.8479 1.82864   3 
   1  -2 -11 17.2169 1.71058   2 
   1  -2 -11 13.8337 1.92710   1 
  -1   2  11 14.5844 1.84767   3 
  -1   2  11 18.5996 2.22077   1 
   0  -2 -11 8.12497 1.36131   3 
   0  -2 -11 8.59815 1.46920   1 
   0  -2 -11 9.56138 1.30357   2 
   0   2  11 9.20354 1.63759   2 
   0   2  11 5.67591 1.50376   3 
   0   2  11 6.23448 1.59418   1 
  -1  -2 -11 11.1986 1.57156   2 
  -1  -2 -11 9.89014 1.31496   3 
  -1  -2 -11 8.04341 1.44904   1 
   1   2  11 7.93628 1.79152   1 
   1   2  11 6.85421 1.35229   3 
   1   2  11 7.97595 1.93756   2 
  -2  -2 -11 75.4397 3.65863   1 
  -2  -2 -11 78.0892 3.34824   2 
  -2  -2 -11 79.7865 3.03945   3 
   2   2  11 81.2524 4.72889   1 
   2   2  11 83.2986 4.25170   2 
   2   2  11 77.7259 3.33559   3 
  -3  -2 -11 3.68895 0.81912   3 
  -3  -2 -11 1.95832 1.37030   1 
  -3  -2 -11 5.11806 1.11502   2 
   3   2  11 4.69242 1.12503   3 
   3   2  11 4.94610 1.72878   2 
  -4  -2 -11 34.1539 1.48892   3 
  -4  -2 -11 39.4406 2.56648   2 
  -4  -2 -11 36.4630 3.35319   1 
   4   2  11 39.5941 3.81107   2 
  -5  -2 -11 -2.0273 1.84302   1 
  -5  -2 -11 0.25362 1.39494   2 
   5   2  11 -1.5975 2.05358   2 
  -6  -2 -11 19.5534 2.36814   2 
  -6  -2 -11 14.3721 3.04220   1 
   6   2  11 24.5701 3.60869   2 
   3  -3 -11 17.1582 2.18450   3 
   3  -3 -11 14.4891 1.86975   2 
   3  -3 -11 16.2609 1.67196   2 
   3  -3 -11 15.0225 2.59279   1 
  -3   3  11 13.6657 2.34553   3 
  -3   3  11 17.6303 2.52092   1 
   2  -3 -11 51.5431 3.41798   3 
   2  -3 -11 45.3620 2.40063   2 
   2  -3 -11 44.2876 3.75059   1 
  -2   3  11 42.2283 3.47541   1 
  -2   3  11 45.1116 3.68467   3 
   1  -3 -11 0.78247 1.37033   1 
   1  -3 -11 1.70348 1.00729   2 
   1  -3 -11 0.06908 1.22437   3 
  -1   3  11 1.17480 1.46539   3 
  -1   3  11 0.75251 1.52780   1 
   0  -3 -11 49.7450 3.22631   1 
   0  -3 -11 61.7529 2.89819   2 
   0  -3 -11 56.3456 3.27468   3 
   0   3  11 61.7784 3.77304   1 
   0   3  11 58.6366 3.55761   3 
  -1  -3 -11 18.3632 1.96595   1 
  -1  -3 -11 15.9783 1.69185   2 
  -1  -3 -11 19.1440 1.82821   3 
   1   3  11 18.7192 2.42165   1 
   1   3  11 20.4499 2.16263   3 
  -2  -3 -11 72.2341 3.37939   2 
  -2  -3 -11 70.6432 3.04317   3 
  -2  -3 -11 76.6634 3.62160   1 
   2   3  11 68.7559 4.40591   1 
   2   3  11 68.7229 3.55032   3 
  -3  -3 -11 -0.0403 0.85654   3 
  -3  -3 -11 0.73762 1.34242   1 
  -3  -3 -11 2.90739 1.03625   2 
   3   3  11 -0.0721 1.16832   3 
   3   3  11 -0.2116 1.68004   2 
  -4  -3 -11 -0.4918 1.15547   2 
  -4  -3 -11 0.50775 0.75546   3 
  -4  -3 -11 -0.8209 1.36208   1 
   4   3  11 -2.1608 1.08508   3 
   4   3  11 2.41605 1.92603   2 
  -5  -3 -11 15.5531 2.31133   1 
  -5  -3 -11 19.3623 1.20739   3 
  -5  -3 -11 17.0179 1.92114   2 
  -6  -3 -11 24.2078 2.67067   2 
  -6  -3 -11 20.7271 3.38364   1 
   3  -4 -11 64.0973 3.75121   2 
   3  -4 -11 65.4146 4.43717   3 
   3  -4 -11 65.7332 5.37053   1 
   3  -4 -11 62.5492 2.90284   2 
  -3   4  11 68.4295 5.17930   3 
  -3   4  11 72.7477 4.59050   1 
   2  -4 -11 70.0046 4.76599   1 
   2  -4 -11 72.3649 3.31405   2 
   2  -4 -11 81.1383 4.34266   3 
   2  -4 -11 75.9193 4.19326   2 
  -2   4  11 71.6851 4.37166   1 
  -2   4  11 83.5927 4.94584   3 
   1  -4 -11 8.50274 1.84924   1 
   1  -4 -11 9.10114 1.55373   2 
   1  -4 -11 8.23306 1.88510   3 
  -1   4  11 9.00248 2.06179   3 
  -1   4  11 11.8606 2.19054   1 
   0  -4 -11 9.24266 1.77753   3 
   0  -4 -11 9.63269 1.61401   2 
   0  -4 -11 6.52086 1.52289   1 
   0   4  11 8.92719 2.01166   3 
   0   4  11 9.87576 1.94088   1 
  -1  -4 -11 1.66680 1.53862   3 
  -1  -4 -11 0.55547 1.07490   2 
  -1  -4 -11 2.24793 1.26908   1 
   1   4  11 1.02113 1.66525   3 
   1   4  11 1.75129 1.66313   1 
  -2  -4 -11 9.27275 1.64410   2 
  -2  -4 -11 9.12321 1.43535   3 
  -2  -4 -11 8.39573 1.61279   1 
   2   4  11 9.59263 2.30893   1 
   2   4  11 9.90093 1.92737   3 
  -3  -4 -11 48.2156 3.27474   1 
  -3  -4 -11 55.8047 3.34520   2 
  -3  -4 -11 51.9054 2.74801   3 
   3   4  11 54.9021 4.42390   1 
   3   4  11 48.0084 3.40674   3 
  -4  -4 -11 8.34734 1.30369   3 
  -4  -4 -11 10.2223 1.96664   2 
  -4  -4 -11 12.3930 1.90917   1 
   4   4  11 9.18994 1.79446   3 
  -5  -4 -11 37.2780 3.73231   1 
  -5  -4 -11 43.1257 3.40602   2 
  -5  -4 -11 40.3171 2.23230   3 
  -6  -4 -11 0.70689 1.15251   3 
  -6  -4 -11 -0.4905 2.15307   1 
  -6  -4 -11 0.66392 0.89112   3 
  -6  -4 -11 -3.9129 1.83187   2 
   2  -5 -11 5.73645 2.25278   2 
   2  -5 -11 5.01463 2.63088   1 
   2  -5 -11 2.57812 1.73715   2 
   2  -5 -11 2.50297 2.10181   3 
  -2   5  11 2.30457 2.09534   1 
  -2   5  11 2.76679 2.63847   3 
   1  -5 -11 50.7333 4.19857   2 
   1  -5 -11 57.7157 4.33062   1 
   1  -5 -11 46.2288 3.80206   3 
   1  -5 -11 53.5761 3.45015   2 
  -1   5  11 53.0404 4.15722   1 
  -1   5  11 47.2944 4.51317   3 
   0  -5 -11 1.85873 1.45999   2 
   0  -5 -11 -0.7639 1.55193   1 
   0  -5 -11 3.33029 1.53800   3 
   0   5  11 1.41542 1.87132   1 
   0   5  11 7.82043 2.35807   3 
  -1  -5 -11 0.79241 1.41943   3 
  -1  -5 -11 2.60183 1.34065   1 
  -1  -5 -11 0.93540 1.45500   2 
   1   5  11 -0.9355 1.78857   3 
   1   5  11 1.36358 1.98239   1 
  -2  -5 -11 8.98981 1.73979   3 
  -2  -5 -11 7.99029 1.65725   1 
  -2  -5 -11 9.06650 1.90531   2 
   2   5  11 8.50623 2.34341   3 
   2   5  11 8.69601 2.38862   1 
  -3  -5 -11 74.9458 3.69574   3 
  -3  -5 -11 83.1673 4.33144   2 
  -3  -5 -11 73.8281 4.09335   1 
   3   5  11 70.5735 5.34137   1 
   3   5  11 76.8841 4.50138   3 
  -4  -5 -11 1.43758 1.69505   1 
  -4  -5 -11 0.47985 1.28040   3 
  -4  -5 -11 -1.3150 1.78701   2 
   4   5  11 4.36704 2.06281   3 
  -5  -5 -11 11.4108 2.40889   1 
  -5  -5 -11 9.72188 2.13680   2 
  -5  -5 -11 13.2276 1.75144   3 
   1  -6 -11 10.6698 2.09257   2 
   1  -6 -11 10.8703 2.74113   1 
   1  -6 -11 11.8462 2.75405   3 
   1  -6 -11 10.9905 2.74017   2 
  -1   6  11 6.84882 2.66553   1 
  -1   6  11 13.7800 3.20486   3 
   0  -6 -11 26.2080 3.08017   2 
   0  -6 -11 34.0899 3.74886   3 
   0  -6 -11 37.9808 3.73682   2 
   0  -6 -11 27.3841 2.93979   1 
   0   6  11 26.7718 3.46561   3 
   0   6  11 25.8428 3.08166   1 
  -1  -6 -11 34.5039 3.19764   2 
  -1  -6 -11 29.7753 3.12024   1 
  -1  -6 -11 32.8967 3.42420   3 
   1   6  11 34.3895 3.90859   3 
   1   6  11 27.7199 3.57905   1 
  -2  -6 -11 69.3187 4.41254   2 
  -2  -6 -11 65.7294 4.12611   3 
  -2  -6 -11 74.5185 4.22276   1 
   2   6  11 57.7639 5.15943   3 
   2   6  11 62.1753 5.27215   1 
  -3  -6 -11 5.25626 2.09008   2 
  -3  -6 -11 1.65045 1.72823   1 
  -3  -6 -11 4.20219 1.76777   3 
   3   6  11 8.98424 2.61063   3 
   3   6  11 7.37857 2.93890   1 
  -4  -6 -11 0.96286 2.01007   2 
  -4  -6 -11 2.98757 1.91233   1 
  -4  -6 -11 0.52060 1.69193   3 
   4   6  11 2.29849 2.53642   3 
   2   4 -12 43.9741 4.31147   2 
   2   4 -12 39.1025 2.44123   1 
  -2  -4  12 44.6568 3.48154   2 
  -2  -4  12 36.4220 3.74496   3 
   1   4 -12 45.5693 4.33821   2 
   1   4 -12 38.3866 2.24627   1 
  -1  -4  12 42.7171 3.43106   2 
  -1  -4  12 40.5519 3.50217   3 
   0   4 -12 120.868 4.69834   1 
   0   4 -12 123.551 6.06549   2 
   0   4 -12 116.768 4.02887   1 
   0  -4  12 116.106 5.09811   2 
   0  -4  12 113.822 4.83230   3 
  -1   4 -12 3.16395 1.96294   1 
  -1   4 -12 2.14919 1.18179   1 
  -1   4 -12 2.68135 2.22267   2 
   1  -4  12 5.69757 2.28078   3 
   1  -4  12 2.90669 1.56055   3 
   1  -4  12 2.56537 1.86763   2 
   3   3 -12 2.33197 1.80336   1 
   3   3 -12 -1.5370 1.80566   2 
  -3  -3  12 -2.1624 1.75212   3 
  -3  -3  12 0.25838 1.50956   1 
  -3  -3  12 -1.4697 1.57134   2 
   2   3 -12 78.5666 3.67774   1 
   2   3 -12 81.7406 4.63084   2 
  -2  -3  12 84.3161 4.05532   1 
  -2  -3  12 82.7258 4.31763   3 
  -2  -3  12 80.6472 3.98730   2 
   1   3 -12 108.884 4.00734   1 
   1   3 -12 103.707 4.95899   2 
  -1  -3  12 102.115 4.49099   3 
  -1  -3  12 110.124 4.59684   2 
   0   3 -12 21.4358 2.34888   2 
   0   3 -12 23.1877 2.14371   1 
   0  -3  12 26.6422 2.52227   3 
   0  -3  12 26.9952 2.48057   2 
  -1   3 -12 21.0191 2.34431   2 
  -1   3 -12 26.8605 2.22440   1 
   1  -3  12 24.0953 2.23819   3 
   1  -3  12 21.9338 2.30631   2 
  -2   3 -12 31.8300 2.79151   1 
  -2   3 -12 28.4122 2.89554   2 
  -2   3 -12 33.1870 3.34860   1 
   2  -3  12 28.7105 2.11003   3 
   2  -3  12 33.0031 2.98285   3 
   2  -3  12 29.4859 2.81100   2 
  -3   3 -12 -0.4739 1.87643   1 
  -3   3 -12 2.37734 2.66429   1 
  -3   3 -12 1.59811 2.00263   2 
   3  -3  12 -3.5270 1.68611   2 
   3   2 -12 78.6172 4.00721   2 
   3   2 -12 77.5297 4.39692   1 
   3   2 -12 69.5284 5.58750   3 
  -3  -2  12 70.9998 3.94684   1 
  -3  -2  12 78.4892 4.39796   3 
  -3  -2  12 75.8270 3.89617   2 
   2   2 -12 67.6244 3.57006   1 
   2   2 -12 64.7618 4.81851   3 
   2   2 -12 59.1622 3.62769   2 
  -2  -2  12 58.6614 3.47567   2 
  -2  -2  12 60.3260 3.63864   3 
  -2  -2  12 62.1889 3.60380   1 
   1   2 -12 31.5099 2.56341   1 
   1   2 -12 37.2824 2.89615   2 
  -1  -2  12 31.5097 2.83500   2 
  -1  -2  12 37.2928 2.83515   3 
  -1  -2  12 34.9495 3.00898   1 
   0   2 -12 0.58917 1.29685   2 
   0   2 -12 0.48785 1.04750   1 
   0  -2  12 0.54373 1.45611   2 
   0  -2  12 0.91296 1.07223   3 
  -1   2 -12 128.060 5.11347   2 
  -1   2 -12 123.046 4.54874   1 
   1  -2  12 127.778 5.10056   2 
   1  -2  12 123.802 4.29857   3 
  -2   2 -12 0.41598 1.32137   2 
  -2   2 -12 -0.7080 1.24570   1 
   2  -2  12 0.18756 0.83362   3 
   2  -2  12 -1.0931 1.27439   3 
   2  -2  12 -0.7261 1.41042   2 
  -3   2 -12 14.4091 1.93671   2 
  -3   2 -12 12.1873 2.21291   1 
  -3   2 -12 16.6302 3.04757   1 
   3  -2  12 15.5525 2.36068   2 
  -4   2 -12 1.50359 2.85139   1 
  -4   2 -12 0.71417 1.67154   2 
  -4   2 -12 0.07964 2.20706   1 
   4  -2  12 3.04097 1.90133   2 
   4   1 -12 78.0066 6.08342   3 
   4   1 -12 85.4806 5.50121   1 
   4   1 -12 68.2094 3.58610   2 
  -4  -1  12 75.7775 4.46804   1 
  -4  -1  12 70.1344 3.71095   2 
  -4  -1  12 65.6345 4.56492   3 
   3   1 -12 26.2821 2.31706   2 
   3   1 -12 29.3035 3.35574   1 
   3   1 -12 30.8829 3.44246   3 
  -3  -1  12 26.1570 2.65795   2 
  -3  -1  12 25.5978 2.75397   3 
  -3  -1  12 28.5089 3.19339   1 
   2   1 -12 186.059 6.59221   1 
   2   1 -12 185.046 7.30778   3 
   2   1 -12 196.021 6.23570   2 
  -2  -1  12 192.634 6.53551   3 
  -2  -1  12 187.627 6.23368   2 
  -2  -1  12 191.391 6.59177   1 
   1   1 -12 74.2834 4.23166   3 
   1   1 -12 71.7321 3.67099   1 
   1   1 -12 70.6335 3.37558   2 
  -1  -1  12 74.3070 3.61982   2 
  -1  -1  12 76.0766 3.97351   1 
  -1  -1  12 69.9863 3.53709   3 
   0   1 -12 278.200 8.34534   2 
   0   1 -12 286.077 8.33259   1 
   0   1 -12 278.499 8.73102   3 
   0  -1  12 275.899 8.57605   2 
   0  -1  12 284.427 8.12639   3 
   0  -1  12 277.762 9.10336   1 
  -1   1 -12 22.4108 2.20888   1 
  -1   1 -12 18.5269 1.91220   2 
   1  -1  12 19.3271 2.14275   2 
   1  -1  12 22.3107 1.93777   3 
  -2   1 -12 33.4566 2.79845   1 
  -2   1 -12 32.9351 2.68801   2 
   2  -1  12 34.0747 1.97353   3 
   2  -1  12 34.7220 3.18408   2 
  -3   1 -12 15.6257 2.13404   1 
  -3   1 -12 15.5082 1.86154   2 
   3  -1  12 23.0650 2.59151   2 
  -4   1 -12 272.611 8.69506   2 
  -4   1 -12 285.509 10.5650   1 
  -4   1 -12 270.313 9.36602   1 
   4  -1  12 272.551 9.12860   2 
   4   0 -12 0.44237 2.45312   1 
   4   0 -12 1.28192 1.19020   2 
   4   0 -12 1.26575 2.34786   3 
  -4   0  12 2.55323 2.18239   1 
  -4   0  12 1.94407 1.75496   3 
   3   0 -12 8.45769 1.35519   2 
   3   0 -12 11.8373 2.43820   1 
   3   0 -12 11.2808 2.55875   3 
  -3   0  12 11.7709 1.88885   2 
  -3   0  12 9.64172 2.05131   1 
  -3   0  12 6.76164 1.90540   3 
   2   0 -12 83.3077 4.37705   1 
   2   0 -12 78.3031 3.42736   2 
   2   0 -12 91.1116 4.62570   3 
  -2   0  12 85.7874 4.07685   2 
  -2   0  12 80.8952 4.07198   3 
  -2   0  12 83.4301 4.31779   1 
   1   0 -12 42.2032 3.09250   1 
   1   0 -12 39.4252 3.17377   3 
   1   0 -12 44.7135 2.60915   2 
  -1   0  12 37.4348 3.24934   1 
  -1   0  12 45.2315 2.82129   3 
  -1   0  12 46.0015 3.06101   2 
   0   0 -12 93.7084 4.02705   1 
   0   0 -12 95.4857 3.74529   2 
   0   0 -12 91.6830 4.19095   3 
   0   0  12 86.9558 4.10978   2 
   0   0  12 88.7522 4.65306   1 
   0   0  12 90.7255 3.77840   3 
  -1   0 -12 60.1664 3.00755   2 
  -1   0 -12 59.8193 3.15503   1 
  -1   0 -12 62.5378 3.28143   3 
   1   0  12 59.0906 3.44886   2 
   1   0  12 61.8846 4.29496   1 
   1   0  12 62.1381 2.90552   3 
  -2   0 -12 171.591 5.74319   2 
  -2   0 -12 172.306 5.38676   3 
  -2   0 -12 165.053 5.94143   1 
   2   0  12 172.799 6.29961   2 
   2   0  12 167.615 5.09826   3 
  -3   0 -12 2.39261 1.41706   1 
  -3   0 -12 0.54055 1.02660   2 
   3   0  12 1.11031 0.72869   3 
   3   0  12 1.79843 1.55045   2 
  -4   0 -12 151.127 6.32720   1 
  -4   0 -12 141.652 5.42534   2 
   4   0  12 147.122 6.17490   2 
  -5   0 -12 181.251 8.90466   1 
  -5   0 -12 182.552 7.69257   1 
  -5   0 -12 174.788 6.42882   2 
   5   0  12 159.184 7.24062   2 
   4  -1 -12 25.9264 3.64950   1 
   4  -1 -12 22.9934 3.16549   3 
  -4   1  12 23.4983 2.93254   3 
   3  -1 -12 24.1436 2.92944   1 
   3  -1 -12 31.8926 3.25128   3 
   3  -1 -12 26.8162 2.08258   2 
  -3   1  12 35.1588 3.55174   3 
  -3   1  12 27.7625 2.82476   1 
   2  -1 -12 13.6809 1.44223   2 
   2  -1 -12 18.5863 2.39318   1 
   2  -1 -12 15.2641 2.38360   3 
  -2   1  12 15.1699 2.20466   3 
  -2   1  12 15.6948 2.26071   1 
  -2   1  12 14.7025 1.91057   2 
   1  -1 -12 97.0501 4.44859   3 
   1  -1 -12 84.4840 4.41766   1 
   1  -1 -12 95.6220 3.61930   2 
  -1   1  12 97.5208 4.50232   2 
  -1   1  12 94.5333 4.27323   3 
  -1   1  12 100.703 4.72046   1 
   0  -1 -12 59.2593 3.28205   1 
   0  -1 -12 56.0425 3.23783   3 
   0  -1 -12 54.8674 2.87502   2 
   0   1  12 54.5745 3.16338   3 
   0   1  12 53.8730 3.66881   2 
   0   1  12 58.5127 3.85960   1 
  -1  -1 -12 17.2041 1.97128   1 
  -1  -1 -12 22.3487 2.24051   3 
  -1  -1 -12 15.8143 1.68069   2 
   1   1  12 18.6715 2.49976   1 
   1   1  12 15.0102 1.67813   3 
   1   1  12 19.1784 2.25713   2 
  -2  -1 -12 3.70228 1.42894   1 
  -2  -1 -12 3.98587 1.04685   3 
  -2  -1 -12 5.36731 1.31334   2 
   2   1  12 4.02665 1.73144   2 
   2   1  12 4.97389 1.26478   3 
  -3  -1 -12 -0.0942 1.10357   2 
  -3  -1 -12 0.21141 0.84831   3 
  -3  -1 -12 -2.1692 1.42514   1 
   3   1  12 0.22888 0.87995   3 
   3   1  12 2.06878 1.87545   2 
  -4  -1 -12 48.0227 3.22157   2 
  -4  -1 -12 42.7875 3.76292   1 
   4   1  12 52.8918 4.13499   2 
  -5  -1 -12 14.8057 2.20745   2 
  -5  -1 -12 14.2092 2.63577   1 
   5   1  12 11.2389 2.94935   2 
   3  -2 -12 8.64733 2.43110   1 
   3  -2 -12 7.26946 1.19314   2 
   3  -2 -12 4.56398 2.09340   3 
  -3   2  12 6.89086 2.13511   3 
  -3   2  12 4.99131 2.07872   1 
   2  -2 -12 34.3098 3.34085   3 
   2  -2 -12 36.7400 2.31044   2 
   2  -2 -12 33.5606 3.61657   1 
  -2   2  12 31.1649 3.28851   3 
  -2   2  12 36.1366 3.52693   1 
   1  -2 -12 8.43003 1.69558   3 
   1  -2 -12 6.96576 1.32826   2 
   1  -2 -12 5.20405 1.85386   1 
  -1   2  12 10.7714 1.97593   1 
  -1   2  12 5.38042 1.61739   3 
   0  -2 -12 14.8879 2.00636   1 
   0  -2 -12 16.6877 1.91814   3 
   0  -2 -12 13.2750 1.47143   2 
   0   2  12 12.3624 1.96385   2 
   0   2  12 13.0849 1.89352   3 
   0   2  12 15.5400 2.38095   1 
  -1  -2 -12 88.1254 3.61037   3 
  -1  -2 -12 78.0510 3.93439   1 
  -1  -2 -12 86.2263 3.52498   2 
   1   2  12 82.6021 4.53322   2 
   1   2  12 82.4795 4.86477   1 
   1   2  12 84.2602 3.85830   3 
  -2  -2 -12 179.136 6.27846   1 
  -2  -2 -12 186.255 5.88389   2 
  -2  -2 -12 178.979 5.52664   3 
   2   2  12 176.575 7.50844   1 
   2   2  12 180.127 6.92326   2 
   2   2  12 171.673 5.80628   3 
  -3  -2 -12 141.750 5.60367   1 
  -3  -2 -12 132.965 4.25157   3 
  -3  -2 -12 137.147 4.96344   2 
   3   2  12 133.444 6.04041   2 
   3   2  12 130.676 4.57201   3 
  -4  -2 -12 5.67916 1.41979   2 
  -4  -2 -12 4.73805 1.91602   1 
  -4  -2 -12 5.65233 0.85969   3 
   4   2  12 5.46334 2.09413   2 
  -5  -2 -12 6.17099 2.35476   1 
  -5  -2 -12 2.16549 1.62733   2 
   5   2  12 4.94518 2.86349   2 
   3  -3 -12 78.1427 3.13291   2 
   3  -3 -12 73.5779 4.01701   2 
   3  -3 -12 77.1683 5.72299   1 
   3  -3 -12 78.7339 4.90325   3 
  -3   3  12 71.0992 5.17023   3 
  -3   3  12 72.8945 4.83634   1 
   2  -3 -12 31.2633 3.00369   3 
   2  -3 -12 24.5370 2.14862   2 
   2  -3 -12 23.1365 3.01399   1 
  -2   3  12 22.0455 2.88450   3 
  -2   3  12 21.5405 2.85783   1 
   1  -3 -12 189.129 6.63433   3 
   1  -3 -12 185.624 5.91729   2 
   1  -3 -12 175.541 6.96047   1 
  -1   3  12 189.036 6.97147   3 
  -1   3  12 187.528 7.19580   1 
   0  -3 -12 79.4398 3.72999   3 
   0  -3 -12 78.5607 4.17556   1 
   0  -3 -12 77.0333 3.51042   2 
   0   3  12 83.4085 4.37706   3 
   0   3  12 74.5099 4.54906   1 
  -1  -3 -12 0.27692 1.15003   3 
  -1  -3 -12 0.03771 1.14670   1 
  -1  -3 -12 -1.6082 1.11189   2 
   1   3  12 -1.8559 1.68067   1 
   1   3  12 0.66915 1.45743   3 
  -2  -3 -12 70.1104 3.47716   2 
  -2  -3 -12 62.4082 3.65224   1 
  -2  -3 -12 65.5471 3.15479   3 
   2   3  12 69.2060 3.73792   3 
   2   3  12 68.6998 4.68916   1 
  -3  -3 -12 3.31835 1.50537   1 
  -3  -3 -12 2.80815 1.36240   2 
  -3  -3 -12 4.02676 1.07579   3 
   3   3  12 2.62096 1.53382   3 
   3   3  12 6.93201 2.13918   2 
  -4  -3 -12 19.9410 2.04519   2 
  -4  -3 -12 17.7603 2.38644   1 
  -4  -3 -12 23.9439 1.75378   3 
   4   3  12 22.0741 2.01603   3 
   4   3  12 18.6973 2.82719   2 
  -5  -3 -12 117.540 4.85752   2 
  -5  -3 -12 99.8060 5.50424   1 
   2  -4 -12 35.3497 2.75397   2 
   2  -4 -12 38.1060 3.94637   1 
   2  -4 -12 41.8664 3.76398   3 
  -2   4  12 31.5421 3.31638   1 
  -2   4  12 46.4795 4.68176   3 
   1  -4 -12 31.8509 3.46836   3 
   1  -4 -12 30.6695 2.61408   2 
   1  -4 -12 22.5756 2.63587   1 
  -1   4  12 29.0380 3.20812   3 
  -1   4  12 31.5830 3.20701   1 
   0  -4 -12 383.456 10.9090   3 
   0  -4 -12 376.395 10.5594   2 
   0  -4 -12 348.187 11.3591   1 
   0   4  12 375.076 11.8668   1 
   0   4  12 380.220 11.5792   3 
  -1  -4 -12 287.684 9.30240   1 
  -1  -4 -12 289.407 8.70954   2 
  -1  -4 -12 284.833 8.57635   3 
   1   4  12 285.471 9.30496   3 
   1   4  12 283.810 10.0058   1 
  -2  -4 -12 126.379 4.75594   3 
  -2  -4 -12 127.851 5.40883   1 
  -2  -4 -12 129.194 5.19054   2 
   2   4  12 128.556 5.52447   3 
   2   4  12 137.269 6.63771   1 
  -3  -4 -12 107.585 4.68866   2 
  -3  -4 -12 104.724 4.88487   1 
  -3  -4 -12 105.408 4.10692   3 
   3   4  12 107.445 4.98427   3 
   3   4  12 108.908 6.47378   1 
  -4  -4 -12 6.00453 1.62683   2 
  -4  -4 -12 4.88831 1.78297   1 
  -4  -4 -12 3.67164 1.24012   3 
   4   4  12 7.06563 1.90836   3 
  -5  -4 -12 19.1413 1.96310   3 
  -5  -4 -12 20.6512 2.83807   1 
  -5  -4 -12 20.9467 2.45148   2 
   1  -5 -12 58.3943 4.61663   1 
   1  -5 -12 62.0985 3.84901   2 
   1  -5 -12 62.3486 4.45741   3 
   1  -5 -12 56.3006 4.72491   2 
  -1   5  12 57.9301 4.78409   1 
  -1   5  12 53.8443 5.22446   3 
   0  -5 -12 13.9009 2.13970   2 
   0  -5 -12 12.6695 2.16451   3 
   0  -5 -12 9.30498 2.29341   1 
   0   5  12 16.9526 2.74825   1 
   0   5  12 12.4685 2.63018   3 
  -1  -5 -12 80.3109 4.26450   3 
  -1  -5 -12 73.0348 4.29211   2 
  -1  -5 -12 76.6118 4.57477   1 
   1   5  12 83.3101 5.33709   1 
   1   5  12 71.3651 5.06927   3 
  -2  -5 -12 21.6611 2.57329   1 
  -2  -5 -12 19.6472 2.37509   2 
  -2  -5 -12 22.1993 2.30949   3 
   2   5  12 22.5264 3.37868   1 
   2   5  12 25.5920 3.01295   3 
  -3  -5 -12 2.43277 1.52304   3 
  -3  -5 -12 2.77590 1.84324   1 
  -3  -5 -12 2.51748 1.84341   2 
   3   5  12 4.47503 2.19649   3 
   3   5  12 3.20462 2.89722   1 
  -4  -5 -12 3.38148 1.88242   2 
  -4  -5 -12 3.85085 1.55235   3 
  -4  -5 -12 0.90780 1.96851   1 
   4   5  12 5.64069 2.21309   3 
  -1  -6 -12 58.3308 4.47553   2 
  -1  -6 -12 63.0058 4.53647   1 
  -1  -6 -12 61.3351 4.36010   3 
   1   6  12 67.2346 5.59282   1 
   1   6  12 55.5488 5.64389   3 
  -2  -6 -12 5.43362 2.06230   1 
  -2  -6 -12 5.08862 1.99689   3 
  -2  -6 -12 5.25161 2.25165   2 
   2   6  12 1.26229 2.71260   1 
   2   6  12 1.97337 2.76712   3 
  -3  -6 -12 16.9173 2.88043   2 
  -3  -6 -12 9.62939 2.22406   3 
  -3  -6 -12 10.6774 2.21126   1 
   3   6  12 15.5425 3.07193   3 
   3   6  12 4.33069 3.32528   1 
   1   3 -13 30.9774 2.95447   1 
   1   3 -13 32.9121 3.20712   2 
  -1  -3  13 30.4719 3.30575   3 
  -1  -3  13 32.2797 2.99065   2 
   0   3 -13 3.82944 1.99523   2 
   0   3 -13 6.71626 1.52631   1 
   0  -3  13 6.91460 1.63653   3 
   0  -3  13 4.11938 1.96739   2 
  -1   3 -13 67.1030 4.73016   2 
  -1   3 -13 70.4276 3.42378   1 
   1  -3  13 58.5513 4.39777   2 
   1  -3  13 66.0671 3.37812   3 
   2   2 -13 289.617 8.92704   1 
   2   2 -13 283.302 9.09291   2 
  -2  -2  13 292.993 9.00789   2 
  -2  -2  13 298.433 9.34121   1 
  -2  -2  13 272.759 9.03018   3 
   1   2 -13 286.596 8.70910   1 
   1   2 -13 286.397 9.12287   2 
  -1  -2  13 286.773 9.43076   1 
  -1  -2  13 295.750 9.03742   2 
  -1  -2  13 297.907 8.89351   3 
   0   2 -13 1.84287 1.71557   2 
   0   2 -13 -2.6396 1.26381   1 
   0  -2  13 -0.1976 1.61204   2 
   0  -2  13 0.36231 1.52341   3 
  -1   2 -13 59.4831 3.38714   1 
  -1   2 -13 69.1393 4.03033   2 
   1  -2  13 65.3324 4.26364   2 
   1  -2  13 64.0298 3.07925   3 
  -2   2 -13 18.5677 2.31789   2 
  -2   2 -13 20.2983 2.15682   1 
   2  -2  13 17.2023 2.09946   3 
   2  -2  13 11.7688 2.16580   2 
   2  -2  13 18.2630 1.96984   3 
  -3   2 -13 0.33554 1.79783   2 
  -3   2 -13 -1.8102 1.78916   1 
  -3   2 -13 -1.5050 2.79853   1 
   3  -2  13 0.95419 2.10551   2 
   3   1 -13 4.88226 1.83095   2 
   3   1 -13 6.90323 3.01604   3 
   3   1 -13 6.36882 2.35591   1 
  -3  -1  13 4.91694 2.13269   3 
  -3  -1  13 8.05706 2.12403   1 
  -3  -1  13 5.21292 1.85511   2 
   2   1 -13 75.7264 5.22230   3 
   2   1 -13 63.6080 4.19043   1 
   2   1 -13 70.0798 3.70506   2 
  -2  -1  13 66.0199 4.10139   3 
  -2  -1  13 60.9344 3.87923   2 
  -2  -1  13 70.6281 4.22328   1 
   1   1 -13 16.9014 1.89432   2 
   1   1 -13 19.4135 2.36073   1 
   1   1 -13 17.6785 2.69206   3 
  -1  -1  13 16.8407 2.02555   3 
  -1  -1  13 17.7367 3.05818   1 
  -1  -1  13 15.8478 2.14947   2 
   0   1 -13 9.97715 1.77540   1 
   0   1 -13 12.3073 2.23422   3 
   0   1 -13 9.27252 1.77288   2 
   0  -1  13 11.0706 1.92515   2 
   0  -1  13 10.5718 1.67741   3 
   0  -1  13 10.4922 2.65775   1 
  -1   1 -13 20.0252 2.22124   2 
  -1   1 -13 24.4831 2.64951   1 
   1  -1  13 20.4148 2.36394   2 
   1  -1  13 24.3317 2.28635   3 
  -2   1 -13 76.3365 4.00328   1 
  -2   1 -13 69.9035 4.07412   2 
   2  -1  13 82.0265 4.54552   2 
   2  -1  13 79.9534 3.12869   3 
  -3   1 -13 0.42889 1.67679   2 
  -3   1 -13 0.03582 1.76646   1 
   3  -1  13 3.01908 2.00944   2 
   3   0 -13 49.6061 4.60065   1 
   3   0 -13 52.6532 5.01224   3 
   3   0 -13 50.5795 3.15304   2 
  -3   0  13 45.4448 4.31518   1 
  -3   0  13 52.8687 4.13216   3 
  -3   0  13 48.5251 3.85870   2 
   2   0 -13 0.67807 1.94036   3 
   2   0 -13 0.71639 1.77259   1 
   2   0 -13 1.21958 2.56356   2 
  -2   0  13 -0.8172 1.68621   1 
  -2   0  13 0.01093 3.51024   2 
  -2   0  13 1.74279 1.56092   3 
   1   0 -13 -1.5478 1.17337   2 
   1   0 -13 -0.5100 1.67208   3 
   1   0 -13 -3.6778 1.46061   1 
  -1   0  13 -0.8564 1.76276   1 
  -1   0  13 -3.2847 1.51279   2 
  -1   0  13 -0.1582 1.40844   3 
   0   0 -13 2.05377 1.42784   1 
   0   0 -13 -0.1533 1.08496   2 
   0   0 -13 -0.1678 1.44025   3 
   0   0  13 1.84615 1.30057   3 
   0   0  13 -2.3144 1.73721   1 
   0   0  13 -0.3555 1.45685   2 
  -1   0 -13 39.8632 2.82090   2 
  -1   0 -13 38.2774 3.16107   3 
  -1   0 -13 32.3301 2.83116   1 
   1   0  13 37.1450 4.11060   1 
   1   0  13 37.3829 2.70088   3 
   1   0  13 31.8733 3.01342   2 
  -2   0 -13 20.8659 2.07816   2 
  -2   0 -13 23.7165 2.33897   1 
   2   0  13 29.9871 3.09336   2 
   2   0  13 26.4906 2.13131   3 
  -3   0 -13 -2.0357 1.25558   2 
  -3   0 -13 3.78489 1.75066   1 
   3   0  13 0.21892 0.89007   3 
   3   0  13 1.29647 1.73183   2 
  -4   0 -13 22.7027 2.87560   1 
  -4   0 -13 28.9924 2.97821   2 
   4   0  13 21.0350 2.95667   2 
   3  -1 -13 38.6221 3.70141   3 
   3  -1 -13 35.8213 3.89302   1 
   3  -1 -13 37.5347 2.63703   2 
  -3   1  13 39.7244 4.15272   3 
  -3   1  13 40.9228 4.22300   1 
   2  -1 -13 9.32870 1.45880   2 
   2  -1 -13 7.71872 2.20426   3 
   2  -1 -13 10.6735 2.38822   1 
  -2   1  13 11.9144 2.25994   2 
  -2   1  13 8.29469 2.16049   1 
  -2   1  13 8.46660 2.06052   3 
   1  -1 -13 21.9136 2.57983   1 
   1  -1 -13 21.9086 2.28609   2 
   1  -1 -13 28.5631 3.20004   3 
  -1   1  13 22.8310 2.66036   2 
  -1   1  13 27.7637 3.15337   3 
  -1   1  13 22.2064 2.63509   1 
   0  -1 -13 21.3887 2.49776   3 
   0  -1 -13 21.4249 2.44092   1 
   0  -1 -13 29.3627 2.41744   2 
   0   1  13 23.3449 2.50896   2 
   0   1  13 24.4957 2.79918   1 
   0   1  13 19.8535 3.34039   3 
  -1  -1 -13 164.749 5.92129   3 
  -1  -1 -13 182.760 5.89913   2 
  -1  -1 -13 170.741 6.25545   1 
   1   1  13 167.565 5.84608   3 
   1   1  13 176.726 7.35152   1 
   1   1  13 174.450 6.80401   2 
  -2  -1 -13 13.7322 1.92499   1 
  -2  -1 -13 18.6308 2.05761   2 
  -2  -1 -13 18.8791 1.85487   3 
   2   1  13 15.4812 1.79456   3 
   2   1  13 15.8888 2.59754   2 
  -3  -1 -13 75.4511 3.06079   3 
  -3  -1 -13 78.5925 3.82412   2 
  -3  -1 -13 74.0261 4.29247   1 
   3   1  13 75.5478 4.84609   2 
   3   1  13 66.8590 3.03879   3 
  -4  -1 -13 18.9228 2.80249   1 
  -4  -1 -13 15.4773 2.13263   2 
   4   1  13 13.7699 2.63683   2 
   2  -2 -13 137.546 6.23493   3 
   2  -2 -13 142.834 6.58373   1 
   2  -2 -13 139.573 4.82512   2 
  -2   2  13 145.071 6.52218   1 
  -2   2  13 146.948 6.24292   3 
   1  -2 -13 1.45474 1.74950   3 
   1  -2 -13 -0.8395 1.73726   1 
   1  -2 -13 1.84250 1.20418   2 
  -1   2  13 4.78437 2.03128   1 
  -1   2  13 3.63682 1.72736   3 
   0  -2 -13 101.701 4.20457   2 
   0  -2 -13 107.169 4.71755   3 
   0  -2 -13 98.5460 4.85347   1 
   0   2  13 103.496 5.58683   1 
   0   2  13 113.801 5.31136   2 
   0   2  13 100.315 4.81873   3 
  -1  -2 -13 12.7730 1.60062   2 
  -1  -2 -13 14.2825 1.96272   1 
  -1  -2 -13 15.8132 1.89364   3 
   1   2  13 15.4336 2.76347   1 
   1   2  13 14.3113 2.03267   3 
   1   2  13 11.4728 2.47966   2 
  -2  -2 -13 171.984 5.58835   3 
  -2  -2 -13 163.305 6.25141   1 
  -2  -2 -13 170.694 5.86799   2 
   2   2  13 164.234 7.59851   1 
   2   2  13 166.577 7.00354   2 
   2   2  13 169.636 5.82868   3 
  -3  -2 -13 9.87583 1.68489   2 
  -3  -2 -13 13.1509 1.46565   3 
  -3  -2 -13 14.2197 2.17469   1 
   3   2  13 13.0988 1.68653   3 
   3   2  13 14.3504 2.60016   2 
  -4  -2 -13 32.1750 1.72557   3 
  -4  -2 -13 31.2299 3.12970   2 
  -4  -2 -13 34.4569 3.31706   1 
   4   2  13 30.9848 3.49899   2 
   2  -3 -13 4.32316 1.57859   2 
   2  -3 -13 3.02237 2.41962   1 
   2  -3 -13 6.66633 2.31433   3 
  -2   3  13 7.25076 2.77220   1 
  -2   3  13 6.31526 2.67965   3 
   1  -3 -13 71.8573 4.35236   3 
   1  -3 -13 73.0272 4.80990   1 
   1  -3 -13 67.2425 3.43097   2 
  -1   3  13 71.9969 4.69924   3 
  -1   3  13 69.0656 4.77788   1 
   0  -3 -13 36.9502 3.52535   1 
   0  -3 -13 39.3552 2.88707   2 
   0  -3 -13 41.2015 3.25132   3 
   0   3  13 35.0373 3.63428   1 
   0   3  13 41.3920 3.98373   3 
  -1  -3 -13 62.5259 3.41152   2 
  -1  -3 -13 62.2315 3.47259   3 
  -1  -3 -13 58.7362 3.72770   1 
   1   3  13 56.5711 4.01120   3 
   1   3  13 54.9070 4.76483   1 
  -2  -3 -13 0.95401 1.28059   3 
  -2  -3 -13 0.82156 1.38940   1 
  -2  -3 -13 -0.4680 1.39552   2 
   2   3  13 -0.0454 2.11351   1 
   2   3  13 1.93772 1.72379   3 
  -3  -3 -13 24.7815 2.84597   1 
  -3  -3 -13 24.3584 2.26513   3 
  -3  -3 -13 21.7476 2.32703   2 
   3   3  13 23.3000 2.40379   3 
   3   3  13 28.6799 3.53069   2 
  -4  -3 -13 31.9419 2.12022   3 
  -4  -3 -13 36.5240 3.21054   2 
  -4  -3 -13 25.7557 2.90789   1 
   4   3  13 32.7416 3.99115   2 
   4   3  13 30.3527 2.87114   3 
   1  -4 -13 81.7051 5.24046   1 
   1  -4 -13 80.5848 3.97870   2 
   1  -4 -13 81.6973 4.69742   3 
  -1   4  13 81.4870 5.62351   1 
  -1   4  13 87.8606 5.81850   3 
   0  -4 -13 114.851 4.76884   2 
   0  -4 -13 103.500 5.62658   1 
   0  -4 -13 120.843 5.29034   3 
   0   4  13 111.311 6.22544   1 
   0   4  13 108.543 5.95262   3 
  -1  -4 -13 83.5695 4.14458   2 
  -1  -4 -13 84.3219 4.69130   1 
  -1  -4 -13 79.1222 4.19382   3 
   1   4  13 86.3510 5.06210   3 
   1   4  13 82.8720 5.39264   1 
  -2  -4 -13 1.54825 1.49426   3 
  -2  -4 -13 2.00329 1.76078   1 
  -2  -4 -13 2.60539 1.62259   2 
   2   4  13 0.27781 2.64756   1 
   2   4  13 -0.5616 1.95471   3 
  -3  -4 -13 18.5831 1.94417   3 
  -3  -4 -13 18.1197 2.40053   2 
  -3  -4 -13 15.9010 2.45992   1 
   3   4  13 18.7854 2.67024   3 
   3   4  13 15.6300 3.18129   1 
  -4  -4 -13 4.22125 1.80191   2 
  -4  -4 -13 1.30474 2.07891   1 
  -4  -4 -13 3.02097 1.33979   3 
   4   4  13 4.71300 1.87769   3 
  -1  -5 -13 6.15482 2.10160   1 
  -1  -5 -13 8.08223 2.17218   3 
  -1  -5 -13 14.1123 2.40885   2 
   1   5  13 15.6736 3.12281   1 
   1   5  13 11.7141 2.93243   3 
  -2  -5 -13 21.7122 2.63562   2 
  -2  -5 -13 26.2657 2.67019   3 
  -2  -5 -13 24.9015 2.90409   1 
   2   5  13 24.1312 3.95396   1 
   2   5  13 20.4125 3.25851   3 
  -3  -5 -13 6.32325 2.35082   2 
  -3  -5 -13 5.14233 1.99159   1 
  -3  -5 -13 5.18836 1.81494   3 
   3   5  13 4.86053 2.57510   3 
   3   5  13 4.82734 3.27798   1 
   0   2 -14 0.35245 1.91817   2 
   0   2 -14 2.04888 2.03695   1 
   0  -2  14 2.27695 1.63908   3 
   0  -2  14 4.99953 2.20796   2 
   1   1 -14 5.21625 1.95765   1 
   1   1 -14 2.82596 1.81562   2 
   1   1 -14 7.54056 2.77045   3 
  -1  -1  14 4.19358 1.94542   3 
  -1  -1  14 1.40801 1.98521   2 
  -1  -1  14 7.77738 2.40688   1 
   0   1 -14 69.6989 4.14752   1 
   0   1 -14 65.2577 4.03816   2 
   0   1 -14 81.0476 5.05379   3 
   0  -1  14 75.3147 3.89929   3 
   0  -1  14 69.3588 4.41377   2 
  -1   1 -14 38.6051 3.56884   2 
  -1   1 -14 28.1653 3.13800   1 
   1  -1  14 43.2920 2.98585   3 
   1  -1  14 34.7752 3.16149   2 
  -2   1 -14 -0.2637 1.86361   2 
  -2   1 -14 -0.4924 1.52386   1 
   2  -1  14 0.52663 2.18632   2 
   2  -1  14 -1.1277 1.22916   3 
   1   0 -14 1.41105 1.94530   1 
   1   0 -14 0.00332 2.23891   3 
   1   0 -14 3.99522 1.54660   2 
  -1   0  14 3.37932 1.73984   3 
  -1   0  14 4.20393 2.35773   1 
  -1   0  14 6.95344 2.16598   2 
   0   0 -14 75.9299 3.91896   2 
   0   0 -14 69.4171 4.62475   3 
   0   0 -14 66.6526 4.23186   1 
   0   0  14 74.7198 4.10131   3 
   0   0  14 72.9805 5.09510   1 
   0   0  14 69.4961 4.63017   2 
  -1   0 -14 42.3516 3.71212   3 
  -1   0 -14 40.2348 3.19594   2 
  -1   0 -14 42.3181 3.38214   1 
   1   0  14 38.4133 4.11977   2 
   1   0  14 41.2624 2.98448   3 
  -2   0 -14 27.2025 2.66290   1 
  -2   0 -14 22.4688 2.27856   2 
   2   0  14 20.6100 2.79940   2 
   2   0  14 29.4113 2.65307   3 
  -3   0 -14 3.17703 1.73617   2 
  -3   0 -14 -1.5867 1.80535   1 
   3   0  14 -1.3737 2.28428   2 
   3   0  14 -1.5963 1.02650   3 
   1  -1 -14 76.1879 3.77102   2 
   1  -1 -14 67.4424 4.85877   3 
   1  -1 -14 70.6534 4.81635   1 
  -1   1  14 84.9074 5.17616   1 
  -1   1  14 77.6817 4.76437   3 
  -1   1  14 77.1117 5.04865   2 
   0  -1 -14 6.23367 1.53078   2 
   0  -1 -14 8.80828 2.08418   3 
   0  -1 -14 9.34668 2.06216   1 
   0   1  14 12.4589 2.06896   3 
   0   1  14 5.31357 2.52224   1 
   0   1  14 10.6326 2.46915   2 
  -1  -1 -14 2.42980 1.68698   1 
  -1  -1 -14 2.46211 1.36691   2 
  -1  -1 -14 -0.1497 1.58745   3 
   1   1  14 -0.5555 2.38648   1 
   1   1  14 -1.1097 2.12034   2 
   1   1  14 2.88202 1.67415   3 
  -2  -1 -14 27.0005 3.08472   3 
  -2  -1 -14 29.5423 3.32313   1 
  -2  -1 -14 36.6278 3.03105   2 
   2   1  14 36.3366 3.65626   2 
   2   1  14 35.0383 2.97458   3 
  -3  -1 -14 33.9028 3.62843   1 
  -3  -1 -14 37.3982 3.31262   2 
   3   1  14 35.0220 3.88184   2 
   3   1  14 31.9322 2.55866   3 
   1  -2 -14 79.7270 5.16607   1 
   1  -2 -14 82.1411 3.87107   2 
   1  -2 -14 78.8114 4.94621   3 
  -1   2  14 79.9667 5.43537   1 
  -1   2  14 83.7045 5.04533   3 
   0  -2 -14 13.5195 2.36035   3 
   0  -2 -14 10.4272 2.08506   1 
   0  -2 -14 12.8783 1.87280   2 
   0   2  14 7.90617 2.16012   3 
   0   2  14 14.0285 2.60545   2 
   0   2  14 10.6144 2.70991   1 
  -1  -2 -14 17.7337 2.41338   3 
  -1  -2 -14 19.6356 2.19159   2 
  -1  -2 -14 19.7679 2.40384   1 
   1   2  14 16.9461 3.29056   1 
   1   2  14 21.9146 2.66100   3 
   1   2  14 19.4995 3.07544   2 
  -2  -2 -14 -1.0968 1.57161   2 
  -2  -2 -14 1.40422 1.59184   3 
  -2  -2 -14 -0.4404 1.71778   1 
   2   2  14 1.31312 1.72465   3 
   2   2  14 2.33202 2.97283   1 
   2   2  14 1.23059 2.51252   2 
  -3  -2 -14 7.43724 1.50215   3 
  -3  -2 -14 8.27727 1.99473   2 
  -3  -2 -14 1.54314 1.98025   1 
   3   2  14 3.88072 2.90054   2 
   3   2  14 9.48893 1.82185   3 
   0  -3 -14 138.208 5.83931   3 
   0  -3 -14 135.533 5.19486   2 
   0  -3 -14 129.463 6.26966   1 
   0   3  14 132.980 7.09762   1 
   0   3  14 139.072 6.54808   3 
  -1  -3 -14 23.4555 2.46833   3 
  -1  -3 -14 24.6874 2.95622   1 
  -1  -3 -14 30.6441 3.06065   2 
   1   3  14 26.4085 2.97478   3 
   1   3  14 19.1048 3.31923   1 
  -2  -3 -14 2.20287 1.54003   2 
  -2  -3 -14 -0.2378 1.83837   1 
  -2  -3 -14 2.41527 1.57579   3 
   2   3  14 4.88009 2.10647   3 
   2   3  14 4.41749 2.89890   1 
  -3  -3 -14 6.37074 1.94865   2 
  -3  -3 -14 5.99629 1.65697   3 
  -3  -3 -14 2.41684 1.92689   1 
   3   3  14 4.27837 1.96021   3 
  -1  -4 -14 73.9142 4.27852   3 
  -1  -4 -14 71.4442 4.24363   2 
  -1  -4 -14 59.1882 4.70843   1 
   1   4  14 64.0122 5.82686   1 
   1   4  14 78.8003 5.43962   3 
  -2  -4 -14 1.90715 1.71614   3 
  -2  -4 -14 0.81273 1.86505   2 
  -2  -4 -14 -0.7201 2.13035   1 
   2   4  14 1.55472 3.09926   1 
   2   4  14 -4.6279 2.22994   3 
   0   0   0    0.00    0.00   0 
  
 _exptl_absorpt_process_details 'SADABS 2014/4' 
 _exptl_absorpt_correction_type   numerical 
 _exptl_absorpt_correction_T_max  1.0000 
 _exptl_absorpt_correction_T_min  0.9690 
 _exptl_special_details 
) 
 The following wavelength and cell were deduced by SADABS from the 
 direction cosines etc. They are given here for emergency use only: 
 CELL 0.71092    7.007    7.712   12.376   83.272   83.505   76.313 
) 
  
;
_shelx_hkl_checksum              92718
loop_
_space_group_symop_operation_xyz
'x, y, z'
'-x, -y, -z'
loop_
_atom_site_label
_atom_site_type_symbol
_atom_site_fract_x
_atom_site_fract_y
_atom_site_fract_z
_atom_site_U_iso_or_equiv
_atom_site_adp_type
_atom_site_occupancy
_atom_site_site_symmetry_order
_atom_site_calc_flag
_atom_site_refinement_flags_posn
_atom_site_refinement_flags_adp
_atom_site_refinement_flags_occupancy
_atom_site_disorder_assembly
_atom_site_disorder_group
F1 F 0.82666(10) 0.13470(9) 0.15736(6) 0.02496(19) Uani 1 1 d . . . . .
O1 O 0.48417(12) 0.22648(10) 0.20483(6) 0.01590(19) Uani 1 1 d . . . . .
N1 N 0.49448(14) 0.68117(13) 0.22259(8) 0.0165(2) Uani 1 1 d . . . . .
C1 C 0.1637(2) 0.2004(2) 0.49679(12) 0.0336(3) Uani 1 1 d . . . . .
H1A H 0.0972 0.3120 0.5229 0.040 Uiso 1 1 calc R U . . .
H1B H 0.1166 0.0953 0.5213 0.040 Uiso 1 1 calc R U . . .
B1 B 0.6526(2) 0.24686(18) 0.12933(11) 0.0173(3) Uani 1 1 d . . . . .
F2 F 0.62542(11) 0.23400(10) 0.02203(6) 0.02393(19) Uani 1 1 d . . . . .
O2 O 0.04957(13) 0.51875(12) 0.29194(7) 0.0238(2) Uani 1 1 d . . . . .
C2 C 0.3206(2) 0.19133(17) 0.42678(10) 0.0220(3) Uani 1 1 d . . . . .
H2 H 0.3831 0.0775 0.4025 0.026 Uiso 1 1 calc R U . . .
O3 O 0.66358(12) 0.44280(11) 0.13914(7) 0.01686(19) Uani 1 1 d . . . . .
C3 C 0.40844(18) 0.34815(16) 0.38228(9) 0.0184(3) Uani 1 1 d . . . . .
H3 H 0.3311 0.4570 0.4172 0.022 Uiso 1 1 calc R U . . .
O4 O 0.33665(12) 0.75019(11) 0.29601(7) 0.0189(2) Uani 1 1 d . . . . .
C4 C 0.39526(17) 0.38250(15) 0.25728(9) 0.0148(2) Uani 1 1 d . . . . .
C5 C 0.17873(17) 0.44970(15) 0.22689(10) 0.0164(3) Uani 1 1 d . . . . .
C6 C 0.14417(18) 0.42327(19) 0.11347(10) 0.0229(3) Uani 1 1 d . . . . .
H6A H 0.0190 0.5026 0.0937 0.034 Uiso 1 1 calc R U . . .
H6B H 0.1386 0.2982 0.1102 0.034 Uiso 1 1 calc R U . . .
H6C H 0.2523 0.4517 0.0622 0.034 Uiso 1 1 calc R U . . .
C7 C 0.6239(2) 0.31246(18) 0.40974(11) 0.0254(3) Uani 1 1 d . . . . .
H7A H 0.7038 0.2126 0.3706 0.038 Uiso 1 1 calc R U . . .
H7B H 0.6302 0.2817 0.4886 0.038 Uiso 1 1 calc R U . . .
H7C H 0.6752 0.4203 0.3874 0.038 Uiso 1 1 calc R U . . .
C8 C 0.51898(17) 0.51438(15) 0.20460(9) 0.0145(2) Uani 1 1 d . . . . .
C9 C 0.62971(19) 0.79662(17) 0.18050(11) 0.0230(3) Uani 1 1 d . . . . .
H9A H 0.5707 0.8842 0.1226 0.035 Uiso 0.53(4) 1 calc R U P A 1
H9B H 0.7546 0.7232 0.1508 0.035 Uiso 0.53(4) 1 calc R U P A 1
H9C H 0.6545 0.8598 0.2399 0.035 Uiso 0.53(4) 1 calc R U P A 1
H9D H 0.6247 0.8230 0.1012 0.035 Uiso 0.47(4) 1 calc R U P A 2
H9E H 0.7644 0.7353 0.1965 0.035 Uiso 0.47(4) 1 calc R U P A 2
H9F H 0.5906 0.9089 0.2155 0.035 Uiso 0.47(4) 1 calc R U P A 2
C10 C 0.19149(19) 0.88624(17) 0.23897(11) 0.0224(3) Uani 1 1 d . . . . .
H10A H 0.2461 0.9916 0.2146 0.034 Uiso 1 1 calc R U . . .
H10B H 0.0721 0.9208 0.2885 0.034 Uiso 1 1 calc R U . . .
H10C H 0.1584 0.8380 0.1754 0.034 Uiso 1 1 calc R U . . .
loop_
_atom_site_aniso_label
_atom_site_aniso_U_11
_atom_site_aniso_U_22
_atom_site_aniso_U_33
_atom_site_aniso_U_23
_atom_site_aniso_U_13
_atom_site_aniso_U_12
F1 0.0179(4) 0.0166(4) 0.0376(4) -0.0013(3) -0.0024(3) 0.0009(3)
O1 0.0188(4) 0.0110(4) 0.0178(4) -0.0030(3) 0.0001(3) -0.0032(3)
N1 0.0166(5) 0.0123(5) 0.0197(5) -0.0016(4) -0.0004(4) -0.0018(4)
C1 0.0408(8) 0.0252(7) 0.0318(8) 0.0021(6) 0.0065(6) -0.0084(6)
B1 0.0177(7) 0.0122(6) 0.0214(7) -0.0028(5) -0.0003(5) -0.0025(5)
F2 0.0278(4) 0.0255(4) 0.0192(4) -0.0066(3) 0.0024(3) -0.0074(3)
O2 0.0188(4) 0.0244(5) 0.0258(5) -0.0040(4) 0.0020(4) -0.0014(4)
C2 0.0317(7) 0.0165(6) 0.0167(6) 0.0007(5) -0.0039(5) -0.0037(5)
O3 0.0152(4) 0.0134(4) 0.0210(4) -0.0014(3) 0.0005(3) -0.0023(3)
C3 0.0244(6) 0.0153(6) 0.0148(6) -0.0014(4) -0.0023(5) -0.0028(5)
O4 0.0217(4) 0.0145(4) 0.0175(4) -0.0023(3) 0.0007(3) 0.0008(3)
C4 0.0177(6) 0.0100(5) 0.0162(6) -0.0016(4) -0.0007(4) -0.0024(4)
C5 0.0174(6) 0.0123(6) 0.0195(6) 0.0022(4) -0.0001(5) -0.0057(5)
C6 0.0174(6) 0.0310(7) 0.0201(6) 0.0007(5) -0.0037(5) -0.0057(5)
C7 0.0303(7) 0.0257(7) 0.0202(6) 0.0014(5) -0.0086(5) -0.0052(6)
C8 0.0146(5) 0.0144(6) 0.0142(5) 0.0005(4) -0.0055(4) -0.0013(4)
C9 0.0207(6) 0.0147(6) 0.0343(7) -0.0022(5) -0.0011(5) -0.0062(5)
C10 0.0212(6) 0.0154(6) 0.0264(7) 0.0000(5) -0.0010(5) 0.0026(5)
loop_
_atom_type_symbol
_atom_type_description
_atom_type_scat_dispersion_real
_atom_type_scat_dispersion_imag
_atom_type_scat_source
C C 0.0033 0.0016 'International Tables Vol C Tables 4.2.6.8 and 6.1.1.4'
H H 0.0000 0.0000 'International Tables Vol C Tables 4.2.6.8 and 6.1.1.4'
B B 0.0013 0.0007 'International Tables Vol C Tables 4.2.6.8 and 6.1.1.4'
N N 0.0061 0.0033 'International Tables Vol C Tables 4.2.6.8 and 6.1.1.4'
O O 0.0106 0.0060 'International Tables Vol C Tables 4.2.6.8 and 6.1.1.4'
F F 0.0171 0.0103 'International Tables Vol C Tables 4.2.6.8 and 6.1.1.4'
loop_
_geom_angle_atom_site_label_1
_geom_angle_atom_site_label_2
_geom_angle_atom_site_label_3
_geom_angle
C4 O1 B1 113.23(9)
C8 N1 O4 117.09(10)
C8 N1 C9 125.30(10)
O4 N1 C9 117.33(9)
C2 C1 H1A 120.0
C2 C1 H1B 120.0
H1A C1 H1B 120.0
F1 B1 F2 110.30(10)
F1 B1 O1 113.81(10)
F2 B1 O1 113.40(10)
F1 B1 O3 108.67(10)
F2 B1 O3 107.62(10)
O1 B1 O3 102.48(9)
C1 C2 C3 124.75(12)
C1 C2 H2 117.6
C3 C2 H2 117.6
C8 O3 B1 109.00(9)
C2 C3 C7 110.17(10)
C2 C3 C4 109.76(10)
C7 C3 C4 110.78(10)
C2 C3 H3 108.7
C7 C3 H3 108.7
C4 C3 H3 108.7
N1 O4 C10 109.92(8)
O1 C4 C8 102.11(9)
O1 C4 C3 111.18(9)
C8 C4 C3 111.76(9)
O1 C4 C5 109.01(9)
C8 C4 C5 109.92(9)
C3 C4 C5 112.37(9)
O2 C5 C6 123.29(11)
O2 C5 C4 121.03(11)
C6 C5 C4 115.68(10)
C5 C6 H6A 109.5
C5 C6 H6B 109.5
H6A C6 H6B 109.5
C5 C6 H6C 109.5
H6A C6 H6C 109.5
H6B C6 H6C 109.5
C3 C7 H7A 109.5
C3 C7 H7B 109.5
H7A C7 H7B 109.5
C3 C7 H7C 109.5
H7A C7 H7C 109.5
H7B C7 H7C 109.5
O3 C8 N1 119.85(11)
O3 C8 C4 113.00(10)
N1 C8 C4 127.11(10)
N1 C9 H9A 109.5
N1 C9 H9B 109.5
H9A C9 H9B 109.5
N1 C9 H9C 109.5
H9A C9 H9C 109.5
H9B C9 H9C 109.5
N1 C9 H9D 109.5
N1 C9 H9E 109.5
H9D C9 H9E 109.5
N1 C9 H9F 109.5
H9D C9 H9F 109.5
H9E C9 H9F 109.5
O4 C10 H10A 109.5
O4 C10 H10B 109.5
H10A C10 H10B 109.5
O4 C10 H10C 109.5
H10A C10 H10C 109.5
H10B C10 H10C 109.5
loop_
_geom_bond_atom_site_label_1
_geom_bond_atom_site_label_2
_geom_bond_distance
F1 B1 1.3703(15)
O1 C4 1.4110(13)
O1 B1 1.4460(16)
N1 C8 1.2983(15)
N1 O4 1.3912(12)
N1 C9 1.4623(16)
C1 C2 1.312(2)
C1 H1A 0.9500
C1 H1B 0.9500
B1 F2 1.3798(16)
B1 O3 1.5498(15)
O2 C5 1.2064(15)
C2 C3 1.5040(17)
C2 H2 0.9500
O3 C8 1.2800(14)
C3 C7 1.5379(18)
C3 C4 1.5466(16)
C3 H3 1.0000
O4 C10 1.4535(15)
C4 C8 1.5304(16)
C4 C5 1.5553(16)
C5 C6 1.4949(17)
C6 H6A 0.9800
C6 H6B 0.9800
C6 H6C 0.9800
C7 H7A 0.9800
C7 H7B 0.9800
C7 H7C 0.9800
C9 H9A 0.9800
C9 H9B 0.9800
C9 H9C 0.9800
C9 H9D 0.9800
C9 H9E 0.9800
C9 H9F 0.9800
C10 H10A 0.9800
C10 H10B 0.9800
C10 H10C 0.9800
loop_
_geom_torsion_atom_site_label_1
_geom_torsion_atom_site_label_2
_geom_torsion_atom_site_label_3
_geom_torsion_atom_site_label_4
_geom_torsion
C4 O1 B1 F1 117.14(11)
C4 O1 B1 F2 -115.69(11)
C4 O1 B1 O3 0.01(12)
F1 B1 O3 C8 -123.52(10)
F2 B1 O3 C8 117.03(10)
O1 B1 O3 C8 -2.77(12)
C1 C2 C3 C7 121.29(15)
C1 C2 C3 C4 -116.46(14)
C8 N1 O4 C10 -113.44(11)
C9 N1 O4 C10 72.39(12)
B1 O1 C4 C8 2.23(12)
B1 O1 C4 C3 -117.09(11)
B1 O1 C4 C5 118.50(10)
C2 C3 C4 O1 -54.99(13)
C7 C3 C4 O1 66.90(12)
C2 C3 C4 C8 -168.37(10)
C7 C3 C4 C8 -46.48(13)
C2 C3 C4 C5 67.50(12)
C7 C3 C4 C5 -170.61(10)
O1 C4 C5 O2 145.26(11)
C8 C4 C5 O2 -103.59(12)
C3 C4 C5 O2 21.56(15)
O1 C4 C5 C6 -34.93(13)
C8 C4 C5 C6 76.22(12)
C3 C4 C5 C6 -158.64(10)
B1 O3 C8 N1 -177.75(10)
B1 O3 C8 C4 4.39(12)
O4 N1 C8 O3 -178.90(9)
C9 N1 C8 O3 -5.25(17)
O4 N1 C8 C4 -1.38(16)
C9 N1 C8 C4 172.27(11)
O1 C4 C8 O3 -4.24(12)
C3 C4 C8 O3 114.67(11)
C5 C4 C8 O3 -119.84(10)
O1 C4 C8 N1 178.09(11)
C3 C4 C8 N1 -63.00(15)
C5 C4 C8 N1 62.49(15)
