#------------------------------------------------------------------------------
#$Date: 2015-07-09 01:06:54 +0300 (Thu, 09 Jul 2015) $
#$Revision: 141402 $
#$URL: svn://www.crystallography.net/cod/cif/1/52/03/1520314.cif $
#------------------------------------------------------------------------------
#
# This file is available in the Crystallography Open Database (COD),
# http://www.crystallography.net/
#
# All data on this site have been placed in the public domain by the
# contributors.
#
data_1520314
loop_
_publ_author_name
'Ro\&sbach, Jan'
'Harms, Klaus'
'Koert, Ulrich'
_publ_section_title
;
 \a-Crotyl-\a-difluoroboranyloxy-amides: Structure and Reactivity of
 Isolable Intermediates in Stereospecific \a-Ketol Rearrangements.
;
_journal_issue                   12
_journal_name_full               'Organic letters'
_journal_page_first              3122
_journal_page_last               3125
_journal_paper_doi               10.1021/acs.orglett.5b01427
_journal_volume                  17
_journal_year                    2015
_chemical_formula_moiety         'C10 H17 N O4'
_chemical_formula_sum            'C10 H17 N O4'
_chemical_formula_weight         215.24
_space_group_crystal_system      triclinic
_space_group_IT_number           2
_space_group_name_Hall           '-P 1'
_space_group_name_H-M_alt        'P -1'
_symmetry_space_group_name_Hall  '-P 1'
_symmetry_space_group_name_H-M   'P -1'
_atom_sites_solution_hydrogens   mixed
_atom_sites_solution_primary     direct
_atom_sites_solution_secondary   difmap
_audit_creation_method           SHELXL-2014/7
_cell_angle_alpha                106.191(4)
_cell_angle_beta                 106.585(4)
_cell_angle_gamma                104.538(4)
_cell_formula_units_Z            2
_cell_length_a                   7.8792(10)
_cell_length_b                   8.1476(11)
_cell_length_c                   10.2749(13)
_cell_measurement_reflns_used    3821
_cell_measurement_temperature    100(2)
_cell_measurement_theta_max      25.1454
_cell_measurement_theta_min      2.7894
_cell_volume                     566.58(13)
_computing_cell_refinement       'BRUKER SAINT'
_computing_data_collection       'BRUKER APEX2 2014.9-0'
_computing_data_reduction        'SAINT V8.34A (Bruker AXS Inc., 2013)'
_computing_molecular_graphics    'DIAMOND (Crystal Impact)'
_computing_structure_refinement  'SHELXL-2014/7 (Sheldrick, 2014)'
_computing_structure_solution    'SHELXS-97 (Sheldrick, 2008)'
_diffrn_ambient_temperature      100(2)
_diffrn_detector_area_resol_mean 7.9
_diffrn_measured_fraction_theta_full 0.997
_diffrn_measured_fraction_theta_max 0.994
_diffrn_measurement_device_type  'Bruker D8 QUEST area detector'
_diffrn_measurement_method       '\w and \f scans'
_diffrn_radiation_type           MoK\a
_diffrn_radiation_wavelength     0.71073
_diffrn_reflns_av_R_equivalents  0.0575
_diffrn_reflns_av_unetI/netI     0.0408
_diffrn_reflns_laue_measured_fraction_full 0.997
_diffrn_reflns_laue_measured_fraction_max 0.994
_diffrn_reflns_limit_h_max       9
_diffrn_reflns_limit_h_min       -9
_diffrn_reflns_limit_k_max       9
_diffrn_reflns_limit_k_min       -9
_diffrn_reflns_limit_l_max       12
_diffrn_reflns_limit_l_min       -12
_diffrn_reflns_number            10007
_diffrn_reflns_point_group_measured_fraction_full 0.997
_diffrn_reflns_point_group_measured_fraction_max 0.994
_diffrn_reflns_theta_full        25.242
_diffrn_reflns_theta_max         25.331
_diffrn_reflns_theta_min         2.234
_diffrn_source                   'microfocus sealed X-ray tube'
_exptl_absorpt_coefficient_mu    0.097
_exptl_absorpt_correction_T_max  0.7452
_exptl_absorpt_correction_T_min  0.5910
_exptl_absorpt_correction_type   multi-scan
_exptl_absorpt_process_details   'SADABS V2014/4 (Bruker AXS Inc.)'
_exptl_crystal_colour            colourless
_exptl_crystal_density_diffrn    1.262
_exptl_crystal_density_method    'not measured'
_exptl_crystal_description       plate
_exptl_crystal_F_000             232
_exptl_crystal_size_max          0.330
_exptl_crystal_size_mid          0.287
_exptl_crystal_size_min          0.064
_refine_diff_density_max         0.347
_refine_diff_density_min         -0.243
_refine_diff_density_rms         0.060
_refine_ls_extinction_method     none
_refine_ls_goodness_of_fit_ref   1.059
_refine_ls_hydrogen_treatment    mixed
_refine_ls_matrix_type           full
_refine_ls_number_parameters     144
_refine_ls_number_reflns         2064
_refine_ls_number_restraints     0
_refine_ls_restrained_S_all      1.059
_refine_ls_R_factor_all          0.0649
_refine_ls_R_factor_gt           0.0492
_refine_ls_shift/su_max          0.000
_refine_ls_shift/su_mean         0.000
_refine_ls_structure_factor_coef Fsqd
_refine_ls_weighting_details
'w=1/[\s^2^(Fo^2^)+(0.0793P)^2^+0.1719P] where P=(Fo^2^+2Fc^2^)/3'
_refine_ls_weighting_scheme      calc
_refine_ls_wR_factor_gt          0.1247
_refine_ls_wR_factor_ref         0.1358
_reflns_Friedel_coverage         0.000
_reflns_number_gt                1661
_reflns_number_total             2064
_reflns_threshold_expression     'I > 2\s(I)'
_cod_data_source_file            ol5b01427_si_002.cif
_cod_data_source_block           JR2095A_0m
_cod_depositor_comments
'Adding full bibliography for 1520305--1520319.cif.'
_cod_database_code               1520314
_shelx_shelxl_version_number     2014/7
_shelx_space_group_comment
; 
The symmetry employed for this shelxl refinement is uniquely defined 
by the following loop, which should always be used as a source of 
symmetry information in preference to the above space-group names. 
They are only intended as comments. 
;
_shelx_res_file
; 
  
    JR2095A_0m.res created by SHELXL-2014/7 
  
  
TITL JR2095A_0m in P-1 
CELL 0.71073 7.8792    8.1476   10.2749  106.191  106.585  104.538 
ZERR 2.00 0.0010    0.0011    0.0013    0.004    0.004    0.004 
LATT 1 
SFAC C H O N 
  
UNIT 20 34 8 2 
LIST 4 ! automatically inserted. Change 6 to 4 for CHECKCIF!! 
TEMP -173.150 
ACTA 
L.S. 12 
FMAP 2 
PLAN -3 0 0.00 
HTAB 
HTAB O1 O2 
EQIV $1 -x+1, -y+1, -z+1 
HTAB O1 O2_$1 
BOND $H 
CONF 
REM ##### 
WGHT    0.079300    0.171900 
FVAR       1.21696 
O1    3    0.330561    0.669773    0.444853    11.00000    0.03005    0.01885 = 
         0.01374    0.00274    0.00044    0.01137 
H1    2    0.397017    0.612362    0.481522    11.00000    0.03776 
N1    4    0.446434    0.861342    0.269247    11.00000    0.02144    0.01576 = 
         0.02660    0.00811    0.00338    0.00647 
C1    1   -0.042495    0.121003    0.169033    11.00000    0.03174    0.01866 = 
         0.03589    0.00907    0.00877    0.00645 
AFIX  93 
H1A   2   -0.096979    0.099073    0.067720    11.00000   -1.20000 
H1B   2   -0.042679    0.021178    0.199618    11.00000   -1.20000 
AFIX   0 
O2    3    0.466119    0.426311    0.327693    11.00000    0.02771    0.01903 = 
         0.02229    0.00723    0.00252    0.01183 
C2    1    0.033353    0.289934    0.267163    11.00000    0.02865    0.02218 = 
         0.02559    0.01037    0.01060    0.00861 
AFIX  43 
H2    2    0.086351    0.306063    0.367325    11.00000   -1.20000 
AFIX   0 
O3    3    0.130665    0.758466    0.151468    11.00000    0.02607    0.01938 = 
         0.02325    0.00756   -0.00053    0.00793 
C3    1    0.042650    0.459234    0.233122    11.00000    0.02277    0.01455 = 
         0.01908    0.00374    0.00409    0.00456 
AFIX  13 
H3    2   -0.014736    0.422069    0.124310    11.00000   -1.20000 
AFIX   0 
O4    3    0.596653    0.800065    0.311051    11.00000    0.02063    0.01504 = 
         0.02754    0.00209    0.00155    0.00676 
C4    1    0.253752    0.586256    0.290105    11.00000    0.02172    0.01521 = 
         0.01271    0.00296    0.00079    0.00615 
C5    1    0.363151    0.466583    0.239259    11.00000    0.01936    0.01085 = 
         0.02103    0.00387    0.00315    0.00216 
C6    1    0.328791    0.397198    0.079975    11.00000    0.02520    0.01998 = 
         0.02014    0.00344    0.00539    0.00782 
AFIX 137 
H6A   2    0.193113    0.328016    0.022630    11.00000   -1.50000 
H6B   2    0.400651    0.317150    0.061295    11.00000   -1.50000 
H6C   2    0.370038    0.500851    0.051369    11.00000   -1.50000 
AFIX   0 
REM ##### 
REM ##### 
REM ##### 
REM ##### 
C7    1   -0.071801    0.556551    0.301859    11.00000    0.02794    0.02467 = 
         0.02940    0.00736    0.01030    0.00924 
AFIX 137 
H7A   2   -0.071789    0.662530    0.274458    11.00000   -1.50000 
H7B   2   -0.014161    0.597734    0.408866    11.00000   -1.50000 
H7C   2   -0.202604    0.471588    0.266186    11.00000   -1.50000 
AFIX   0 
C8    1    0.269099    0.740170    0.228631    11.00000    0.02303    0.01180 = 
         0.01590    0.00134    0.00304    0.00710 
C9    1    0.482048    0.998283    0.205150    11.00000    0.03410    0.01819 = 
         0.03355    0.01251    0.00882    0.00620 
AFIX 137 
H9A   2    0.380760    1.048986    0.194220    11.00000   -1.50000 
H9B   2    0.485108    0.941392    0.108712    11.00000   -1.50000 
H9C   2    0.604272    1.096742    0.269329    11.00000   -1.50000 
AFIX   0 
C10   1    0.725160    0.914698    0.460202    11.00000    0.02238    0.02133 = 
         0.03056    0.00158   -0.00298    0.00541 
AFIX 137 
H10A  2    0.833020    0.874501    0.486452    11.00000   -1.50000 
H10B  2    0.658525    0.905132    0.526579    11.00000   -1.50000 
H10C  2    0.771103    1.042218    0.468747    11.00000   -1.50000 
REM ##### 
AFIX   0 
HKLF 4 1 1 0 0 0 1 0 0 0 1 
  
REM  JR2095A_0m in P-1 
REM R1 =  0.0492 for    1661 Fo > 4sig(Fo)  and  0.0649 for all    2064 data 
REM    144 parameters refined using      0 restraints 
  
END 
  
WGHT      0.0793      0.1719 
  
REM Instructions for potential hydrogen bonds 
HTAB O1 O2 
HTAB O1 O2_$1 
EQIV $2 -x, -y+1, -z 
HTAB C3 O3_$2 
HTAB C6 O3_$2 
HTAB C10 O1 
  
REM Highest difference peak  0.347,  deepest hole -0.243,  1-sigma level  0.060 
Q1    1   0.3243  0.5427  0.2620  11.00000  0.05    0.35 
Q2    1   0.2316  0.6664  0.4819  11.00000  0.05    0.33 
Q3    1   0.6861  0.8067  0.2559  11.00000  0.05    0.31 
;
_shelx_res_checksum              56828
_shelx_hkl_file
; 
  -1   0   0 533.265 27.6034   2 
  -1   0   0 495.520 27.6126   1 
   1   0   0 499.434 27.5998   2 
   1   0   0 474.188 27.6035   1 
   1   0   0 421.877 27.6514   2 
  -2   0   0 981.829 53.1258   2 
  -2   0   0 887.407 53.0745   2 
  -2   0   0 970.459 53.1569   1 
   2   0   0 884.138 53.3421   2 
   2   0   0 955.168 53.1533   1 
   2   0   0 936.229 53.1311   2 
  -3   0   0 646.321 34.3263   2 
  -3   0   0 615.978 34.3713   1 
  -3   0   0 573.837 34.2400   2 
   3   0   0 596.922 34.3414   1 
   3   0   0 573.855 34.3889   2 
   3   0   0 595.817 34.3262   2 
  -4   0   0 33.9107 2.76774   2 
  -4   0   0 32.9028 3.22923   1 
  -4   0   0 31.3650 2.53563   2 
   4   0   0 29.4502 3.32619   2 
   4   0   0 28.4914 3.21129   1 
   4   0   0 29.2194 3.09129   2 
  -5   0   0 82.8185 5.68174   1 
  -5   0   0 70.6739 5.06179   2 
  -5   0   0 71.4578 4.80264   2 
   5   0   0 63.4814 6.29180   2 
   5   0   0 66.5397 5.55516   1 
   5   0   0 67.7984 5.38551   2 
  -6   0   0 12.9169 2.97486   1 
  -6   0   0 4.83762 2.19523   2 
  -6   0   0 0.22822 2.04608   2 
   6   0   0 5.39942 3.23492   1 
   6   0   0 3.93202 2.98979   2 
   6   0   0 4.97149 4.05287   2 
  -7   0   0 5.83221 4.09917   1 
  -7   0   0 3.93623 2.91068   2 
  -7   0   0 -3.3602 3.13474   2 
   7   0   0 2.48513 4.29870   2 
   7   0   0 0.66923 4.53181   1 
   7   0   0 -1.3656 6.63743   2 
  -8   0   0 -13.695 5.66844   1 
  -8   0   0 -0.2548 3.78356   2 
  -8   0   0 -2.8590 3.98719   2 
   8   0   0 3.20475 5.90537   2 
   8   0   0 -5.1066 6.27419   1 
   8   0   0 5.30047 9.26204   2 
   8  -1   0 6.60617 4.74629   1 
   8  -1   0 1.57215 7.39986   2 
   8  -1   0 15.9442 6.15426   2 
  -8   1   0 1.63353 4.60626   1 
  -8   1   0 11.2128 3.82420   2 
  -8   1   0 12.2117 3.81875   2 
   7  -1   0 84.4996 8.63085   2 
   7  -1   0 86.1482 8.30856   2 
   7  -1   0 91.6175 7.79665   1 
  -7   1   0 101.148 7.79661   1 
  -7   1   0 90.0048 7.08768   2 
  -7   1   0 102.790 6.90439   2 
   6  -1   0 70.3512 5.81412   1 
   6  -1   0 63.1964 6.12316   2 
   6  -1   0 64.6462 6.10026   2 
  -6   1   0 67.0614 5.05799   2 
  -6   1   0 65.5693 5.50251   2 
  -6   1   0 78.0824 5.71695   1 
   5  -1   0 56.0331 4.71843   2 
   5  -1   0 56.2925 4.58349   1 
   5  -1   0 58.0434 4.75152   2 
  -5   1   0 65.5181 4.50088   1 
  -5   1   0 57.2800 4.32226   2 
  -5   1   0 57.5252 4.25669   2 
   4  -1   0 0.36942 1.24791   1 
   4  -1   0 -1.1354 1.60877   2 
   4  -1   0 3.74347 1.33338   2 
  -4   1   0 1.78235 1.11617   1 
  -4   1   0 3.23958 1.39554   2 
  -4   1   0 2.99081 1.14905   2 
   3  -1   0 75.4652 4.91984   2 
   3  -1   0 68.3332 4.53055   1 
  -3   1   0 77.8169 4.56977   1 
  -3   1   0 73.3698 4.62922   2 
  -3   1   0 76.8736 4.74235   2 
   2  -1   0 79.3436 4.99479   2 
   2  -1   0 79.2935 5.26692   2 
  -2   1   0 87.2735 5.12867   2 
   1  -1   0 951.777 53.4395   2 
   1  -1   0 919.118 53.5786   2 
  -1   1   0 956.410 53.5518   2 
   0  -1   0 1587.48 90.8652   1 
   0  -1   0 1521.30 91.0678   2 
   0  -1   0 1515.45 90.8890   2 
   0   1   0 1583.76 90.8583   1 
   0   1   0 1833.40 91.1390   2 
   0   1   0 1591.27 90.9140   2 
  -1  -1   0 1.31142 1.12014   1 
  -1  -1   0 2.85230 0.90311   2 
   1   1   0 2.41434 1.02310   2 
   1   1   0 1.64563 1.50698   2 
   1   1   0 1.78269 1.12476   1 
  -2  -1   0 275.137 17.0902   1 
  -2  -1   0 306.461 17.0298   2 
  -2  -1   0 298.571 17.0692   2 
   2   1   0 306.292 17.0449   2 
   2   1   0 279.311 17.0964   1 
  -3  -1   0 1248.12 64.5713   2 
  -3  -1   0 1091.50 64.4311   2 
  -3  -1   0 1138.80 64.6346   1 
   3   1   0 1124.47 64.4949   2 
   3   1   0 1072.10 64.5849   1 
   3   1   0 1121.32 64.8457   2 
  -4  -1   0 30.1057 2.91511   2 
  -4  -1   0 32.5559 3.77506   1 
  -4  -1   0 24.7042 2.64340   2 
   4   1   0 28.8112 4.07826   2 
   4   1   0 28.5032 3.01548   2 
   4   1   0 28.3620 3.97276   1 
  -5  -1   0 3.99986 2.73553   1 
  -5  -1   0 0.86454 2.29675   2 
  -5  -1   0 1.53432 1.73145   2 
   5   1   0 0.72936 2.95862   1 
   5   1   0 0.55186 4.08041   2 
   5   1   0 -0.9061 2.23222   2 
  -6  -1   0 227.326 14.2373   1 
  -6  -1   0 215.210 13.4403   2 
  -6  -1   0 216.434 13.0606   2 
   6   1   0 206.496 13.7431   2 
   6   1   0 202.253 14.2455   1 
  -7  -1   0 34.5103 4.52292   2 
  -7  -1   0 40.5658 5.19453   2 
  -7  -1   0 47.2158 6.21517   1 
   7   1   0 40.4566 6.38869   1 
   7   1   0 28.4894 5.78755   2 
   7   1   0 19.7446 8.41623   2 
  -8  -1   0 11.7701 4.89744   2 
  -8  -1   0 7.46017 4.55213   2 
  -8  -1   0 -9.2039 7.23353   1 
   8   1   0 3.07966 7.61536   2 
   8   1   0 -26.403 12.1480   2 
   8   1   0 -5.4300 8.37062   1 
   8  -2   0 14.0158 6.25394   2 
   8  -2   0 4.32415 6.64652   2 
  -8   2   0 13.5986 3.58334   2 
  -8   2   0 18.8527 4.21961   2 
   7  -2   0 857.613 46.3475   2 
   7  -2   0 761.308 45.5589   2 
  -7   2   0 738.767 45.1110   2 
   6  -2   0 6.46198 2.84766   2 
   6  -2   0 -4.7611 3.43288   2 
  -6   2   0 5.29613 1.98690   2 
   5  -2   0 364.450 22.4014   2 
   5  -2   0 354.174 22.2940   2 
  -5   2   0 380.901 21.9643   2 
  -5   2   0 404.692 22.0086   2 
   4  -2   0 394.046 23.9644   2 
   4  -2   0 424.497 24.4095   2 
  -4   2   0 427.211 24.0917   2 
   3  -2   0 1822.05 111.362   2 
   3  -2   0 1939.51 111.084   2 
  -3   2   0 2115.68 111.256   2 
   2  -2   0 4.66962 2.06054   2 
  -2   2   0 4.63904 1.64604   2 
  -2   2   0 3.43075 1.25221   2 
   1  -2   0 61.7789 4.25098   2 
   1  -2   0 66.7471 4.15822   1 
   1  -2   0 72.3378 5.40106   2 
  -1   2   0 63.4809 4.15145   1 
  -1   2   0 62.9863 4.82167   2 
  -1   2   0 58.9603 4.33834   2 
   0  -2   0 98.4992 6.50716   2 
   0  -2   0 105.831 7.25224   2 
   0  -2   0 102.699 6.47334   1 
   0   2   0 105.851 6.50884   1 
   0   2   0 118.772 7.36060   2 
   0   2   0 102.049 6.57253   2 
  -1  -2   0 421.403 24.3907   2 
  -1  -2   0 408.037 24.4127   1 
   1   2   0 386.418 24.3764   1 
   1   2   0 443.236 24.4886   2 
   1   2   0 452.820 24.9597   2 
  -2  -2   0 893.888 48.5133   2 
  -2  -2   0 808.393 48.5426   1 
   2   2   0 844.875 48.9879   2 
   2   2   0 881.480 48.5506   2 
   2   2   0 806.631 48.5239   1 
  -3  -2   0 870.035 52.3713   1 
  -3  -2   0 938.648 52.2711   2 
  -3  -2   0 863.194 52.2599   2 
   3   2   0 910.480 52.2878   2 
   3   2   0 901.218 52.4128   1 
   3   2   0 1004.05 54.7186   2 
  -4  -2   0 157.327 9.66837   2 
  -4  -2   0 152.566 9.65360   2 
  -4  -2   0 148.679 10.0506   1 
   4   2   0 135.283 11.3172   2 
   4   2   0 143.198 9.69008   2 
   4   2   0 161.142 10.4211   1 
  -5  -2   0 20.7282 2.98816   2 
  -5  -2   0 28.5217 4.10121   1 
  -5  -2   0 24.4099 3.01558   2 
   5   2   0 14.3133 6.11891   2 
   5   2   0 22.5869 3.43956   2 
   5   2   0 17.7292 4.32725   1 
  -6  -2   0 21.2916 5.41617   1 
  -6  -2   0 24.1724 3.56001   2 
  -6  -2   0 21.5777 3.36917   2 
   6   2   0 12.1242 6.49907   1 
   6   2   0 20.8450 4.41103   2 
   6   2   0 8.32915 8.02098   2 
  -7  -2   0 5.10532 3.69725   2 
  -7  -2   0 13.1952 6.64915   1 
  -7  -2   0 1.64966 4.42282   2 
   7   2   0 -5.8405 5.45519   2 
   7   2   0 10.3053 6.95752   1 
   7   2   0 -0.4001 11.0562   2 
   9  -3   0 68.5373 11.6728   2 
   9  -3   0 29.8971 8.67981   2 
  -9   3   0 29.6714 5.04831   2 
  -9   3   0 42.5258 6.85115   2 
   8  -3   0 20.5289 7.67399   2 
   8  -3   0 -3.0775 5.60449   2 
  -8   3   0 15.4821 4.84248   2 
  -8   3   0 14.0308 3.77281   2 
   7  -3   0 -9.1851 4.11161   2 
   7  -3   0 -13.739 5.73894   2 
  -7   3   0 -2.4437 3.13990   2 
   6  -3   0 -1.6364 2.43690   2 
   6  -3   0 4.90791 4.30529   2 
  -6   3   0 -1.6439 1.97358   2 
  -6   3   0 1.35203 2.52609   2 
   5  -3   0 438.163 26.8800   2 
   5  -3   0 464.796 26.1494   2 
  -5   3   0 444.314 26.2145   2 
   4  -3   0 530.219 32.2668   2 
   4  -3   0 531.437 31.5271   2 
  -4   3   0 577.269 31.7650   2 
   3  -3   0 36.0978 4.11063   2 
   3  -3   0 33.8173 3.01291   2 
  -3   3   0 32.4141 3.71450   2 
  -3   3   0 37.4605 3.66088   2 
   2  -3   0 172.257 11.1189   2 
   2  -3   0 161.401 9.73986   1 
   2  -3   0 174.664 10.0638   2 
  -2   3   0 158.870 10.5018   2 
  -2   3   0 158.091 9.66257   1 
  -2   3   0 158.648 10.1361   2 
   1  -3   0 633.428 34.8311   1 
   1  -3   0 618.692 35.6638   2 
   1  -3   0 574.055 34.9386   2 
  -1   3   0 621.465 35.5670   2 
  -1   3   0 588.464 35.0392   2 
  -1   3   0 607.179 34.7752   1 
   0  -3   0 128.273 7.76429   1 
   0  -3   0 107.287 7.64207   2 
   0  -3   0 121.159 8.77834   2 
   0   3   0 131.405 8.95255   2 
   0   3   0 122.553 7.72184   1 
   0   3   0 117.706 7.89119   2 
  -1  -3   0 535.281 31.5300   2 
  -1  -3   0 530.690 30.8717   2 
  -1  -3   0 486.676 30.8245   1 
   1   3   0 515.216 30.8632   1 
   1   3   0 587.902 31.8529   2 
   1   3   0 542.431 30.9936   2 
  -2  -3   0 294.023 16.5517   2 
  -2  -3   0 272.613 16.6470   1 
   2   3   0 279.455 16.7202   2 
   2   3   0 262.508 17.3924   2 
   2   3   0 266.640 16.6256   1 
  -3  -3   0 5.82732 2.09648   2 
  -3  -3   0 4.70354 2.92441   2 
  -3  -3   0 3.52429 2.24978   1 
   3   3   0 9.48005 2.77298   1 
   3   3   0 -1.2730 4.48561   2 
   3   3   0 3.16839 2.67606   2 
  -4  -3   0 0.23126 2.67373   2 
  -4  -3   0 0.50299 2.93146   2 
  -4  -3   0 4.16835 3.15850   1 
   4   3   0 2.03728 3.50151   1 
   4   3   0 5.02259 2.99575   2 
   4   3   0 11.3102 6.72027   2 
  -5  -3   0 13.9429 3.24239   2 
  -5  -3   0 15.1056 3.61800   2 
   5   3   0 12.4391 5.39358   1 
   5   3   0 11.8576 4.08960   2 
   5   3   0 8.07241 8.31864   2 
  -6  -3   0 252.837 17.2741   1 
  -6  -3   0 243.864 15.7857   2 
  -6  -3   0 231.367 15.3708   2 
   6   3   0 257.914 17.6149   1 
   6   3   0 232.497 16.2778   2 
   9  -4   0 1.02470 11.8514   2 
  -9   4   0 12.4304 5.08555   2 
  -9   4   0 14.4125 6.27944   2 
   8  -4   0 220.921 19.8025   2 
   8  -4   0 270.852 16.9044   2 
  -8   4   0 272.327 16.9383   2 
  -8   4   0 251.315 16.1551   2 
   7  -4   0 63.9070 6.01500   2 
   7  -4   0 59.8248 8.78327   2 
  -7   4   0 53.4862 6.32178   2 
  -7   4   0 49.6636 5.59702   2 
   6  -4   0 25.5960 3.06282   2 
   6  -4   0 27.8241 6.38990   2 
  -6   4   0 9.96503 3.00586   2 
  -6   4   0 23.7354 3.74555   2 
   5  -4   0 11.7113 2.44108   2 
   5  -4   0 15.9273 4.69923   2 
  -5   4   0 11.2102 3.05123   2 
   4  -4   0 103.389 9.71996   2 
   4  -4   0 133.220 8.36421   2 
  -4   4   0 133.012 8.79290   2 
  -4   4   0 141.389 9.04266   2 
   3  -4   0 1030.76 68.1468   2 
   3  -4   0 1177.11 67.0219   1 
   3  -4   0 1166.40 67.4019   2 
  -3   4   0 1172.47 66.9046   1 
  -3   4   0 1274.87 67.9634   2 
  -3   4   0 1249.35 67.6170   2 
   2  -4   0 625.620 35.9381   1 
   2  -4   0 707.239 37.4765   2 
   2  -4   0 617.699 36.2166   2 
  -2   4   0 616.565 36.8187   2 
  -2   4   0 574.086 36.2749   2 
  -2   4   0 617.309 35.8175   1 
   1  -4   0 7.21033 4.12462   2 
   1  -4   0 5.52880 1.77450   2 
   1  -4   0 6.40903 1.89655   1 
  -1   4   0 6.55502 3.27626   2 
  -1   4   0 4.43041 1.92133   1 
  -1   4   0 6.60213 2.52456   2 
   0  -4   0 11.2957 4.16402   2 
   0  -4   0 4.81166 1.79532   2 
   0  -4   0 7.82312 1.96930   1 
   0   4   0 7.35037 2.06091   1 
   0   4   0 9.19562 2.30310   2 
   0   4   0 4.56154 3.26774   2 
  -1  -4   0 430.519 25.6016   2 
  -1  -4   0 433.071 26.5910   2 
  -1  -4   0 416.129 25.5787   1 
   1   4   0 416.156 25.5359   1 
   1   4   0 430.193 25.8130   2 
   1   4   0 485.847 26.9662   2 
  -2  -4   0 153.975 11.0450   1 
  -2  -4   0 189.056 11.1355   2 
   2   4   0 184.283 11.6465   2 
   2   4   0 162.470 13.1691   2 
   2   4   0 166.783 11.5003   1 
  -3  -4   0 102.262 8.95388   2 
  -3  -4   0 108.426 7.99227   2 
  -3  -4   0 104.561 8.36013   1 
   3   4   0 101.531 10.9173   2 
   3   4   0 109.706 8.65778   1 
   3   4   0 117.790 8.80503   2 
  -4  -4   0 0.71605 3.32813   2 
  -4  -4   0 -1.3151 4.03931   2 
  -4  -4   0 4.42947 3.99210   1 
   4   4   0 -4.4686 7.19261   2 
   4   4   0 7.68303 5.25489   2 
   4   4   0 1.01727 4.61196   1 
  -5  -4   0 13.8626 4.39662   2 
  -5  -4   0 9.46841 5.66008   1 
  -5  -4   0 7.77643 4.16864   2 
   5   4   0 5.25668 5.44302   2 
   5   4   0 7.51972 5.60842   1 
   5   4   0 10.9760 10.0786   2 
  -6  -4   0 29.3750 5.61802   2 
  -6  -4   0 21.4080 7.99923   1 
  -6  -4   0 29.0679 5.93354   2 
   6   4   0 23.1105 6.85553   2 
   6   4   0 14.8328 8.86587   1 
   6   4   0 11.9681 14.7515   2 
   8  -5   0 4.58660 4.72856   2 
   8  -5   0 6.10529 11.2732   2 
  -8   5   0 3.78023 5.07833   2 
  -8   5   0 6.99195 4.27723   2 
   7  -5   0 215.697 17.2975   2 
   7  -5   0 195.028 12.8022   2 
  -7   5   0 192.719 13.0541   2 
  -7   5   0 184.413 13.3382   2 
   6  -5   0 28.4899 4.09208   2 
   6  -5   0 25.3240 7.68359   2 
  -6   5   0 31.9333 4.50553   2 
   5  -5   0 112.113 11.4069   2 
   5  -5   0 101.455 7.85654   2 
  -5   5   0 122.681 9.27838   2 
  -5   5   0 112.319 8.74624   2 
   4  -5   0 34.8959 6.85035   2 
   4  -5   0 36.9847 4.08499   2 
  -4   5   0 32.4561 4.81877   2 
  -4   5   0 40.6037 4.65538   2 
  -4   5   0 28.6683 3.10036   1 
   3  -5   0 19.0768 2.59486   1 
   3  -5   0 16.2883 5.66850   2 
   3  -5   0 18.3476 2.86915   2 
  -3   5   0 24.7732 3.75733   2 
  -3   5   0 23.2821 4.33875   2 
  -3   5   0 17.3190 2.34461   1 
   2  -5   0 138.327 9.09138   1 
   2  -5   0 118.294 11.3036   2 
   2  -5   0 138.587 9.23611   2 
  -2   5   0 166.270 11.1170   2 
  -2   5   0 129.572 9.75321   2 
  -2   5   0 135.388 8.77582   1 
   1  -5   0 201.294 13.6859   2 
   1  -5   0 237.151 16.1300   2 
   1  -5   0 228.420 13.7643   1 
  -1   5   0 209.607 13.9914   2 
  -1   5   0 219.794 13.5738   1 
  -1   5   0 225.786 15.3410   2 
   0  -5   0 11.3659 2.41474   2 
   0  -5   0 14.9229 2.90088   1 
   0  -5   0 11.3752 5.34521   2 
   0   5   0 15.0457 2.69789   1 
   0   5   0 11.1664 4.74219   2 
   0   5   0 14.2779 3.26772   2 
  -1  -5   0 417.702 25.6450   2 
  -1  -5   0 405.420 24.2708   2 
  -1  -5   0 409.906 24.2891   1 
   1   5   0 402.905 26.1684   2 
   1   5   0 395.836 24.5239   2 
   1   5   0 389.075 24.1976   1 
  -2  -5   0 200.449 13.1251   2 
  -2  -5   0 205.780 13.6000   1 
   2   5   0 194.579 13.3625   1 
   2   5   0 204.521 13.8927   2 
   2   5   0 190.951 15.5964   2 
  -3  -5   0 535.927 34.2392   2 
  -3  -5   0 593.473 33.7113   2 
  -3  -5   0 583.205 33.9733   1 
   3   5   0 522.594 36.2210   2 
   3   5   0 583.958 33.9724   1 
  -4  -5   0 54.7853 6.61895   2 
  -4  -5   0 39.2852 6.45324   2 
  -4  -5   0 45.8237 6.84876   1 
   4   5   0 51.7042 7.02672   1 
   4   5   0 42.9055 6.61212   2 
   4   5   0 35.6296 10.0429   2 
  -5  -5   0 37.3529 5.90732   2 
  -5  -5   0 52.9169 8.60562   1 
  -5  -5   0 43.4716 6.82294   2 
   5   5   0 38.5404 8.70249   1 
   5   5   0 46.2366 8.21279   2 
   5   5   0 36.6891 13.4726   2 
   8  -6   0 15.8552 12.6182   2 
   8  -6   0 11.0299 5.18507   2 
  -8   6   0 6.66644 6.33239   2 
  -8   6   0 9.54386 6.12975   2 
   7  -6   0 91.9230 13.4540   2 
   7  -6   0 107.143 8.88497   2 
  -7   6   0 105.106 9.69270   2 
   6  -6   0 11.7700 4.03422   2 
   6  -6   0 20.3423 9.29289   2 
  -6   6   0 13.6194 5.80382   2 
  -6   6   0 1.93580 4.21073   2 
   5  -6   0 68.9216 10.7637   2 
   5  -6   0 72.0615 6.30446   2 
  -5   6   0 56.7043 7.14738   2 
  -5   6   0 64.7660 7.97853   2 
   4  -6   0 248.299 20.2626   2 
  -4   6   0 287.233 17.8934   2 
  -4   6   0 270.082 16.4588   1 
  -4   6   0 296.971 18.4924   2 
   3  -6   0 5.37957 3.08753   1 
   3  -6   0 6.97080 7.10684   2 
   3  -6   0 8.71998 2.99047   2 
  -3   6   0 8.46409 4.14913   2 
  -3   6   0 10.3078 2.67461   1 
  -3   6   0 9.43566 5.36800   2 
   2  -6   0 10.7616 6.40848   2 
   2  -6   0 17.2620 3.49568   2 
   2  -6   0 18.5429 3.57085   1 
  -2   6   0 14.6207 3.10955   1 
  -2   6   0 12.4141 3.99115   2 
  -2   6   0 28.4384 5.96964   2 
   1  -6   0 73.2873 7.23241   1 
   1  -6   0 87.9787 11.4198   2 
   1  -6   0 81.0799 7.07786   2 
  -1   6   0 93.9900 9.95098   2 
  -1   6   0 77.7369 7.01926   1 
  -1   6   0 78.9743 8.08979   2 
   0  -6   0 156.268 11.0926   1 
   0  -6   0 157.081 10.9369   2 
   0  -6   0 157.128 14.1013   2 
   0   6   0 159.985 14.4871   2 
   0   6   0 135.850 11.0290   2 
   0   6   0 151.682 10.9486   1 
  -1  -6   0 63.1556 7.23319   2 
  -1  -6   0 76.2300 9.75974   2 
  -1  -6   0 87.1109 7.70293   1 
   1   6   0 67.9760 9.37977   2 
   1   6   0 87.9682 7.74814   1 
   1   6   0 87.4819 8.64347   2 
  -2  -6   0 278.756 18.0148   2 
  -2  -6   0 261.814 19.7256   2 
  -2  -6   0 290.900 18.3487   1 
   2   6   0 287.144 18.2233   1 
   2   6   0 233.812 21.0648   2 
  -3  -6   0 1.78990 5.46157   1 
  -3  -6   0 -7.2900 4.65585   2 
  -3  -6   0 0.73268 6.90627   2 
   3   6   0 0.23760 5.73014   1 
   3   6   0 1.84083 9.74300   2 
   3   6   0 8.40618 5.86443   2 
  -4  -6   0 1.13887 7.31766   2 
  -4  -6   0 5.04212 5.29499   2 
  -4  -6   0 -2.9966 7.01073   1 
   4   6   0 -1.1828 11.4743   2 
   4   6   0 3.80898 7.39997   2 
   4   6   0 3.69046 7.25570   1 
   8  -7   0 40.0977 16.9188   2 
   8  -7   0 31.0146 7.26045   2 
  -8   7   0 31.8186 7.92043   2 
   7  -7   0 144.449 17.4038   2 
   7  -7   0 150.868 11.4147   2 
  -7   7   0 104.958 12.0255   2 
  -7   7   0 132.719 13.5934   2 
   6  -7   0 37.3405 5.79793   2 
  -6   7   0 34.7675 7.73755   2 
  -6   7   0 38.1841 7.18154   2 
   5  -7   0 18.0679 4.60520   2 
   5  -7   0 36.3973 11.4415   2 
  -5   7   0 11.3202 3.26140   1 
  -5   7   0 21.5350 6.22060   2 
  -5   7   0 26.9612 6.61083   2 
   4  -7   0 248.742 20.5231   2 
  -4   7   0 210.530 15.8233   2 
  -4   7   0 217.708 14.4192   1 
  -4   7   0 259.598 18.0575   2 
   3  -7   0 42.0281 5.24632   1 
   3  -7   0 45.3857 5.68557   2 
   3  -7   0 46.1970 10.4576   2 
  -3   7   0 35.9506 4.63727   1 
  -3   7   0 34.3122 6.40124   2 
  -3   7   0 36.6603 7.19436   2 
   2  -7   0 492.414 31.5047   2 
   2  -7   0 558.496 31.3917   1 
   2  -7   0 514.545 34.5535   2 
  -2   7   0 525.680 31.0703   1 
  -2   7   0 502.391 31.9930   2 
  -2   7   0 547.847 33.6942   2 
   1  -7   0 58.6687 7.06001   1 
   1  -7   0 46.3511 5.79158   2 
   1  -7   0 66.1087 11.1278   2 
  -1   7   0 59.8731 9.27552   2 
  -1   7   0 49.0828 6.63885   2 
  -1   7   0 53.0818 7.65636   1 
   0  -7   0 173.998 12.7535   2 
   0  -7   0 208.416 17.5994   2 
   0  -7   0 179.515 13.3263   1 
   0   7   0 189.260 17.9478   2 
   0   7   0 171.702 13.0156   1 
   0   7   0 148.131 13.2862   2 
  -1  -7   0 47.2332 6.59604   1 
  -1  -7   0 36.0127 5.69017   2 
  -1  -7   0 20.5744 9.94870   2 
   1   7   0 38.6546 8.22015   2 
   1   7   0 43.8413 6.44638   1 
   1   7   0 35.0422 10.3005   2 
  -2  -7   0 27.3047 5.96947   2 
  -2  -7   0 15.1483 6.39337   1 
  -2  -7   0 20.7208 8.57497   2 
   2   7   0 27.4288 6.89661   1 
   2   7   0 14.0729 11.2018   2 
   2   7   0 14.6717 7.19287   2 
  -3  -7   0 102.966 12.9610   2 
  -3  -7   0 114.340 13.5577   1 
  -3  -7   0 103.808 12.1899   2 
   3   7   0 89.2623 14.9372   2 
   3   7   0 94.8329 11.7257   2 
   3   7   0 105.622 13.0447   1 
   7  -8   0 229.799 28.5874   2 
   7  -8   0 231.661 16.7880   2 
  -7   8   0 229.597 19.7599   2 
  -7   8   0 192.274 18.4201   2 
   6  -8   0 4.32487 15.3581   2 
   6  -8   0 4.22514 6.33515   2 
  -6   8   0 -4.1232 7.86870   2 
  -6   8   0 6.81600 7.65131   2 
   5  -8   0 174.251 18.6136   2 
   5  -8   0 167.058 12.4510   2 
  -5   8   0 144.331 14.8939   2 
  -5   8   0 160.859 14.6159   2 
  -5   8   0 126.309 11.0730   1 
   4  -8   0 21.6189 11.4247   2 
  -4   8   0 20.6399 6.67250   2 
  -4   8   0 17.8974 4.58379   1 
   3  -8   0 23.8425 5.22681   1 
   3  -8   0 19.9938 5.69919   2 
   3  -8   0 19.9122 12.5011   2 
  -3   8   0 44.5271 9.36564   2 
  -3   8   0 15.4011 6.17498   2 
  -3   8   0 13.0287 4.62951   1 
   2  -8   0 -3.5068 5.26800   1 
   2  -8   0 9.77374 10.4365   2 
  -2   8   0 7.20645 5.25330   1 
  -2   8   0 8.02333 6.66647   2 
  -2   8   0 12.1532 8.63585   2 
   1  -8   0 17.6039 6.11138   1 
   1  -8   0 18.3633 5.60238   2 
   1  -8   0 29.6606 12.6008   2 
  -1   8   0 -0.9580 6.70155   2 
  -1   8   0 13.4241 6.18346   1 
  -1   8   0 20.0646 10.6288   2 
   0  -8   0 -3.0833 6.37619   1 
   0  -8   0 -3.2660 5.39772   2 
   0  -8   0 -21.489 11.7803   2 
   0   8   0 0.44910 7.02000   1 
   0   8   0 0.63105 7.14466   2 
   0   8   0 -11.646 10.2526   2 
  -1  -8   0 42.5325 12.9675   2 
  -1  -8   0 22.8848 7.79438   1 
  -1  -8   0 30.1875 7.21936   2 
   1   8   0 22.7098 7.85742   1 
   1   8   0 18.4055 8.64501   2 
   1   8   0 13.3602 13.3530   2 
   5  -9   0 61.9918 24.5135   2 
   5  -9   0 92.0247 11.8772   2 
  -5   9   0 104.613 12.4516   2 
  -5   9   0 82.0823 13.1427   2 
  -5   9   0 74.2581 8.22416   1 
   4  -9   0 18.6576 16.2320   2 
  -4   9   0 23.4446 12.7764   2 
  -4   9   0 8.06140 8.86292   2 
   3  -9   0 52.2199 8.63335   2 
   3  -9   0 42.8850 8.18181   1 
   3  -9   0 32.1811 17.1234   2 
  -3   9   0 52.7062 7.60121   1 
  -3   9   0 47.1991 13.7212   2 
  -3   9   0 54.2207 9.37490   2 
   2  -9   0 91.5646 12.7108   1 
   2  -9   0 94.4981 18.2975   2 
   2  -9   0 85.1028 9.67667   2 
  -2   9   0 112.755 16.1680   2 
  -2   9   0 74.7744 9.06443   1 
  -2   9   0 79.7945 11.1829   2 
   1  -9   0 33.3603 8.15347   2 
   1  -9   0 38.9777 8.72116   1 
   1  -9   0 31.3726 15.9169   2 
  -1   9   0 62.8302 15.6960   2 
  -1   9   0 28.7937 8.20142   1 
  -1   9   0 37.0845 10.2600   2 
   0   9  -1 25.9809 15.3948   2 
   0   9  -1 10.3491 9.00544   1 
   0   9  -1 11.5138 9.60365   2 
   0  -9   1 11.5451 7.79206   2 
   0  -9   1 6.27211 14.6297   2 
   0  -9   1 23.9630 8.37355   1 
  -1   9  -1 52.5341 9.84586   2 
  -1   9  -1 38.1415 7.85929   1 
  -1   9  -1 60.5657 14.9523   2 
   1  -9   1 55.7704 8.54098   2 
   1  -9   1 55.3313 15.5467   2 
   1  -9   1 56.0136 8.83482   1 
  -2   9  -1 -3.9072 8.11051   2 
  -2   9  -1 -7.1230 6.04255   1 
   2  -9   1 -4.0384 13.9394   2 
   2  -9   1 -2.9421 6.71631   2 
   2  -9   1 -0.0198 6.33529   1 
  -3   9  -1 7.44223 11.6297   2 
  -3   9  -1 3.54281 6.22778   1 
  -3   9  -1 18.7178 7.68023   2 
   3  -9   1 13.4513 14.8917   2 
   3  -9   1 17.3974 8.12810   2 
   3  -9   1 6.54502 6.56008   1 
  -4   9  -1 -1.6313 11.0986   2 
  -4   9  -1 -2.3059 6.27925   1 
  -4   9  -1 -5.9279 8.29678   2 
   4  -9   1 6.04557 7.26269   2 
   4  -9   1 -0.9845 15.7230   2 
   4  -9   1 -3.4041 6.04982   1 
  -5   9  -1 262.214 19.9082   1 
  -5   9  -1 302.751 23.2416   2 
  -5   9  -1 316.496 23.8590   2 
   5  -9   1 347.350 21.3726   2 
   5  -9   1 277.980 30.8587   2 
   2   8  -1 -11.113 8.46672   2 
   2   8  -1 -3.9555 13.4654   2 
   2   8  -1 1.64013 7.54194   1 
  -2  -8   1 1.98616 11.8992   2 
  -2  -8   1 0.83212 7.70774   1 
  -2  -8   1 7.26068 7.47502   2 
   1   8  -1 -6.8443 12.3208   2 
   1   8  -1 -5.4799 7.72593   2 
   1   8  -1 -3.5016 6.84713   1 
  -1  -8   1 0.00896 10.8688   2 
  -1  -8   1 7.91286 6.12385   2 
  -1  -8   1 6.00117 7.12264   1 
   0   8  -1 92.7421 10.4593   2 
   0   8  -1 95.5693 13.8041   2 
   0   8  -1 94.6278 11.4165   1 
   0  -8   1 82.6146 9.88848   2 
   0  -8   1 107.656 14.7811   2 
   0  -8   1 95.1382 11.0160   1 
  -1   8  -1 2.30862 6.48012   2 
  -1   8  -1 18.6574 10.2963   2 
  -1   8  -1 11.7449 5.09993   1 
   1  -8   1 13.8479 5.34608   1 
   1  -8   1 10.0340 10.6201   2 
  -2   8  -1 70.9593 10.3828   2 
  -2   8  -1 31.8771 6.70523   2 
   2  -8   1 37.8577 11.7908   2 
   2  -8   1 26.6265 5.44335   2 
   2  -8   1 40.5321 6.75522   1 
  -3   8  -1 17.5611 7.53036   2 
  -3   8  -1 12.6472 4.66790   1 
  -3   8  -1 9.76724 6.41213   2 
   3  -8   1 20.2231 11.7475   2 
   3  -8   1 5.23444 4.58991   1 
   3  -8   1 10.5008 5.29491   2 
  -4   8  -1 0.26827 4.12852   1 
  -4   8  -1 -2.0160 6.64250   2 
  -4   8  -1 13.8834 8.22240   2 
   4  -8   1 1.83909 5.32206   2 
   4  -8   1 -5.5260 11.5727   2 
   4  -8   1 -5.3081 4.37410   1 
  -5   8  -1 0.45141 7.23945   2 
  -5   8  -1 5.31457 4.21174   1 
  -5   8  -1 8.59776 6.66860   2 
   5  -8   1 5.54090 5.43515   2 
  -6   8  -1 112.046 13.6058   2 
  -6   8  -1 99.1073 11.2401   2 
   6  -8   1 122.211 10.8248   2 
   6  -8   1 111.103 17.6304   2 
  -7   8  -1 18.4731 8.25096   2 
  -7   8  -1 6.13928 9.07251   2 
   7  -8   1 35.4649 7.56317   2 
   7  -8   1 29.8894 19.2361   2 
   3   7  -1 42.7491 7.47806   1 
   3   7  -1 43.2414 9.36706   2 
   3   7  -1 20.9219 12.7422   2 
  -3  -7   1 30.7838 6.60479   2 
  -3  -7   1 37.2977 10.4068   2 
  -3  -7   1 39.8713 7.05968   1 
   2   7  -1 291.878 24.7440   2 
   2   7  -1 295.610 20.0026   1 
   2   7  -1 297.789 21.0823   2 
  -2  -7   1 311.249 20.2024   1 
  -2  -7   1 304.124 20.2384   2 
  -2  -7   1 314.960 23.2665   2 
   1   7  -1 15.0857 6.00991   2 
   1   7  -1 8.86167 9.08722   2 
   1   7  -1 11.8263 4.69009   1 
  -1  -7   1 22.4051 4.95578   1 
  -1  -7   1 15.3128 8.56065   2 
  -1  -7   1 11.0362 5.32295   2 
   0   7  -1 80.9286 10.9980   2 
   0   7  -1 77.8421 7.91244   1 
   0   7  -1 86.0484 9.67870   2 
   0  -7   1 112.345 14.2095   2 
   0  -7   1 82.5586 8.14765   2 
   0  -7   1 87.6666 8.65015   1 
  -1   7  -1 2.08041 3.58419   1 
  -1   7  -1 -5.8654 4.44734   2 
   1  -7   1 -9.6295 3.40872   2 
   1  -7   1 6.75965 3.83989   1 
   1  -7   1 -17.937 7.60970   2 
  -2   7  -1 22.8046 7.44607   2 
  -2   7  -1 9.81855 3.60470   1 
  -2   7  -1 11.0777 4.69592   2 
   2  -7   1 9.83479 8.88010   2 
   2  -7   1 16.5013 4.18437   1 
   2  -7   1 11.8007 3.84060   2 
  -3   7  -1 2.95050 5.88449   2 
  -3   7  -1 -4.7693 4.18062   2 
  -3   7  -1 -4.3998 3.10887   1 
   3  -7   1 3.24040 7.71753   2 
   3  -7   1 3.07719 3.98170   2 
   3  -7   1 2.87195 3.51681   1 
  -4   7  -1 264.487 17.1994   2 
  -4   7  -1 208.510 15.2136   1 
  -4   7  -1 274.565 18.3357   2 
   4  -7   1 270.585 20.9919   2 
   4  -7   1 218.088 15.2826   1 
   4  -7   1 274.032 16.3916   2 
  -5   7  -1 309.282 19.6930   2 
  -5   7  -1 277.456 19.7269   2 
   5  -7   1 262.310 23.2857   2 
   5  -7   1 288.546 18.3576   2 
  -6   7  -1 12.2720 6.05886   2 
  -6   7  -1 -5.7696 6.12331   2 
   6  -7   1 7.30387 13.0107   2 
   6  -7   1 4.92006 5.12039   2 
  -7   7  -1 1.02366 6.38132   2 
  -7   7  -1 0.37360 5.92112   2 
   7  -7   1 3.62628 5.80071   2 
   7  -7   1 3.53266 13.7237   2 
   4   6  -1 37.6472 7.06893   1 
   4   6  -1 31.8743 13.4489   2 
   4   6  -1 31.3209 7.63424   2 
  -4  -6   1 35.9607 6.46425   2 
  -4  -6   1 32.2715 6.70924   1 
   3   6  -1 26.5408 6.64132   2 
   3   6  -1 37.5732 6.03807   1 
   3   6  -1 20.3324 10.4084   2 
  -3  -6   1 36.1100 7.59190   2 
  -3  -6   1 37.5435 5.74579   2 
  -3  -6   1 29.0299 5.40499   1 
   2   6  -1 83.3856 8.05153   1 
   2   6  -1 66.8417 10.2157   2 
   2   6  -1 97.9543 9.48695   2 
  -2  -6   1 78.4973 8.58615   2 
  -2  -6   1 70.7408 8.74194   2 
  -2  -6   1 71.9508 7.72367   1 
   1   6  -1 275.839 16.6822   1 
   1   6  -1 233.740 16.9569   2 
   1   6  -1 257.653 19.8192   2 
  -1  -6   1 252.697 19.1490   2 
  -1  -6   1 271.170 16.8801   1 
  -1  -6   1 266.339 16.8122   2 
   0   6  -1 339.450 21.5957   1 
   0   6  -1 374.503 24.4343   2 
   0   6  -1 342.418 22.3854   2 
   0  -6   1 377.025 24.1795   2 
   0  -6   1 359.423 21.8070   1 
   0  -6   1 360.026 22.0399   2 
  -1   6  -1 11.5911 3.15094   1 
  -1   6  -1 14.2315 3.84406   2 
  -1   6  -1 14.8948 5.65192   2 
   1  -6   1 9.77110 3.31272   1 
   1  -6   1 16.5655 3.58950   2 
   1  -6   1 23.5385 6.16164   2 
  -2   6  -1 2.08792 2.52371   1 
  -2   6  -1 0.67548 3.13896   2 
  -2   6  -1 0.04979 4.54721   2 
   2  -6   1 -2.2094 2.40795   1 
   2  -6   1 3.73958 2.65280   2 
   2  -6   1 -7.0664 5.17005   2 
  -3   6  -1 447.946 28.5045   2 
  -3   6  -1 473.335 27.5019   1 
  -3   6  -1 491.524 29.3928   2 
   3  -6   1 473.648 30.4811   2 
   3  -6   1 465.787 28.2752   2 
   3  -6   1 486.043 27.7508   1 
  -4   6  -1 225.973 16.1457   2 
  -4   6  -1 227.739 14.1605   1 
  -4   6  -1 258.826 16.0839   2 
   4  -6   1 255.755 15.2466   2 
   4  -6   1 245.333 18.5846   2 
   4  -6   1 224.552 14.3120   1 
  -5   6  -1 4.49537 4.82027   2 
   5  -6   1 9.36442 3.64741   2 
   5  -6   1 17.0216 9.14132   2 
  -6   6  -1 217.887 14.5716   2 
   6  -6   1 215.992 13.7740   2 
   6  -6   1 167.710 22.2350   2 
  -7   6  -1 7.87728 4.47331   2 
  -7   6  -1 4.44136 5.33239   2 
   7  -6   1 -1.0683 11.6409   2 
   7  -6   1 3.74316 4.70523   2 
  -8   6  -1 -1.5714 6.19159   2 
  -8   6  -1 3.35575 5.03789   2 
   8  -6   1 6.01655 13.3260   2 
   8  -6   1 -2.8244 5.50913   2 
   5   5  -1 2.83273 7.15345   2 
   5   5  -1 0.32510 6.59284   1 
   5   5  -1 -1.7930 11.1815   2 
  -5  -5   1 10.3115 5.95051   1 
  -5  -5   1 1.16236 5.13361   2 
  -5  -5   1 -0.2382 5.75662   2 
   4   5  -1 -2.3199 8.40242   2 
   4   5  -1 -3.0528 5.44142   1 
   4   5  -1 2.92765 5.09377   2 
  -4  -5   1 -4.6021 4.17064   1 
  -4  -5   1 -2.8966 4.23655   2 
   3   5  -1 -0.0681 3.68091   1 
   3   5  -1 7.65988 7.10980   2 
   3   5  -1 4.49456 4.56383   2 
  -3  -5   1 5.91492 3.51873   1 
  -3  -5   1 3.97658 5.58866   2 
   2   5  -1 55.2804 6.57416   2 
   2   5  -1 53.2079 5.97793   1 
   2   5  -1 43.5453 7.13568   2 
  -2  -5   1 45.7579 5.85085   1 
  -2  -5   1 50.3336 5.78550   2 
  -2  -5   1 53.6985 6.65276   2 
   1   5  -1 51.3499 5.71347   2 
   1   5  -1 47.9495 6.67960   2 
   1   5  -1 54.3662 5.54614   1 
  -1  -5   1 60.4989 5.48976   2 
  -1  -5   1 51.7446 5.45369   1 
  -1  -5   1 59.9190 6.97735   2 
   0   5  -1 121.306 8.46012   2 
   0   5  -1 110.331 7.71717   1 
   0   5  -1 92.8182 9.38998   2 
   0  -5   1 110.169 7.76627   1 
   0  -5   1 83.1448 9.93625   2 
   0  -5   1 110.793 7.97465   2 
  -1   5  -1 1045.68 57.8034   2 
  -1   5  -1 997.454 57.1266   1 
  -1   5  -1 963.992 58.5087   2 
   1  -5   1 1058.90 57.3488   1 
   1  -5   1 888.642 58.4631   2 
   1  -5   1 1025.32 57.6111   2 
  -2   5  -1 -0.5711 3.61860   2 
  -2   5  -1 1.68733 1.72926   1 
  -2   5  -1 3.54643 2.43718   2 
   2  -5   1 9.05737 4.51736   2 
   2  -5   1 2.55164 2.00903   1 
   2  -5   1 4.53995 2.16612   2 
  -3   5  -1 372.181 21.5858   2 
  -3   5  -1 363.903 20.5571   1 
  -3   5  -1 360.076 21.9565   2 
   3  -5   1 368.357 20.7150   1 
   3  -5   1 351.939 21.2205   2 
   3  -5   1 298.546 22.4615   2 
  -4   5  -1 0.02618 3.13032   2 
  -4   5  -1 3.25515 2.87396   2 
   4  -5   1 5.87283 5.72744   2 
  -5   5  -1 2.17047 2.88432   2 
   5  -5   1 2.84785 2.74340   2 
   5  -5   1 0.56491 6.15537   2 
  -6   5  -1 927.747 56.9161   2 
  -6   5  -1 1014.16 57.2244   2 
   6  -5   1 995.250 58.7044   2 
   6  -5   1 1010.97 56.8916   2 
  -7   5  -1 69.0045 8.16198   2 
  -7   5  -1 66.9075 6.76652   2 
   7  -5   1 81.0091 6.81635   2 
   7  -5   1 77.7787 10.5526   2 
  -8   5  -1 -0.7968 5.49938   2 
  -8   5  -1 3.29987 3.87153   2 
   8  -5   1 12.4531 10.7792   2 
   6   4  -1 22.6270 11.6451   2 
   6   4  -1 29.7849 6.98296   2 
   6   4  -1 28.3861 8.06731   1 
  -6  -4   1 30.1051 5.23935   2 
  -6  -4   1 25.4016 5.60597   2 
  -6  -4   1 35.7211 6.68554   1 
   5   4  -1 6.95974 5.46469   1 
   5   4  -1 5.05207 8.38565   2 
   5   4  -1 1.47522 4.54634   2 
  -5  -4   1 12.4500 4.44879   1 
  -5  -4   1 14.3952 4.14065   2 
  -5  -4   1 12.5224 4.09268   2 
   4   4  -1 80.4169 7.84338   2 
   4   4  -1 72.7264 9.61428   2 
  -4  -4   1 88.2887 7.19934   2 
   3   4  -1 88.6992 7.08982   1 
   3   4  -1 83.7401 7.46008   2 
   3   4  -1 84.1481 9.39542   2 
  -3  -4   1 90.0275 6.89757   2 
  -3  -4   1 87.0177 8.05263   2 
  -3  -4   1 80.8740 7.03296   1 
   2   4  -1 243.009 15.0254   1 
   2   4  -1 241.884 15.2062   2 
   2   4  -1 251.513 16.5610   2 
  -2  -4   1 248.281 15.0245   2 
  -2  -4   1 247.000 14.9995   1 
  -2  -4   1 220.247 15.7116   2 
   1   4  -1 111.090 7.50971   1 
   1   4  -1 103.937 7.63372   2 
   1   4  -1 121.303 9.45586   2 
  -1  -4   1 101.505 8.91944   2 
  -1  -4   1 105.165 7.38249   1 
  -1  -4   1 110.570 7.49894   2 
   0   4  -1 316.401 18.5350   2 
   0   4  -1 301.077 18.0823   1 
   0   4  -1 287.995 19.2561   2 
   0  -4   1 293.846 18.3373   2 
   0  -4   1 307.045 18.1535   1 
   0  -4   1 332.480 19.6457   2 
  -1   4  -1 3.78434 2.06934   2 
  -1   4  -1 2.86847 1.64689   1 
  -1   4  -1 -3.7538 2.93922   2 
   1  -4   1 2.04045 3.16829   2 
   1  -4   1 3.66329 1.81691   2 
   1  -4   1 4.22691 1.48006   1 
  -2   4  -1 751.272 40.9164   1 
  -2   4  -1 736.739 41.5370   2 
  -2   4  -1 762.654 42.0728   2 
   2  -4   1 685.330 41.3737   2 
   2  -4   1 756.296 41.0461   1 
   2  -4   1 604.156 42.0438   2 
  -3   4  -1 3.55680 2.25612   2 
  -3   4  -1 0.90618 1.08523   1 
  -3   4  -1 3.67017 2.28345   2 
   3  -4   1 2.01904 1.66962   2 
   3  -4   1 7.10343 1.25415   1 
   3  -4   1 1.00046 3.85145   2 
  -4   4  -1 638.555 33.4573   2 
   4  -4   1 562.031 33.0290   2 
   4  -4   1 508.589 33.8107   2 
  -5   4  -1 4.30001 2.36773   2 
  -5   4  -1 0.85865 2.60541   2 
   5  -4   1 2.87462 2.30840   2 
   5  -4   1 2.25283 4.46297   2 
  -6   4  -1 244.580 15.6359   2 
  -6   4  -1 269.612 15.9793   2 
   6  -4   1 254.806 17.3472   2 
  -7   4  -1 99.4334 7.79246   2 
  -7   4  -1 116.168 8.72589   2 
   7  -4   1 115.956 8.49583   2 
   7  -4   1 98.7669 12.1561   2 
  -8   4  -1 26.0904 5.41247   2 
  -8   4  -1 35.0520 4.32654   2 
   8  -4   1 24.3847 10.0123   2 
   8  -4   1 37.4282 6.28805   2 
   7   3  -1 12.0410 8.28260   1 
   7   3  -1 2.58754 10.8611   2 
   7   3  -1 8.23494 6.81321   2 
  -7  -3   1 5.13465 4.46951   2 
  -7  -3   1 0.17712 5.19146   2 
  -7  -3   1 11.7203 6.96700   1 
   6   3  -1 -2.4822 8.08410   2 
   6   3  -1 8.68258 6.13743   1 
   6   3  -1 10.8613 4.96124   2 
  -6  -3   1 3.33046 3.58176   2 
  -6  -3   1 12.4042 4.77495   1 
  -6  -3   1 -0.1160 3.80379   2 
   5   3  -1 130.704 10.9426   1 
   5   3  -1 129.912 10.0085   2 
   5   3  -1 119.818 12.2180   2 
  -5  -3   1 144.421 9.79582   2 
  -5  -3   1 134.570 9.69191   2 
  -5  -3   1 155.698 10.6831   1 
   4   3  -1 4.89567 2.99174   2 
   4   3  -1 1.67882 3.13015   1 
   4   3  -1 -1.6968 5.18419   2 
  -4  -3   1 1.98094 2.40974   2 
  -4  -3   1 -2.1459 2.82129   1 
  -4  -3   1 -2.4618 2.79671   2 
   3   3  -1 95.6419 7.13225   1 
   3   3  -1 103.187 7.26372   2 
   3   3  -1 97.9826 9.07431   2 
  -3  -3   1 91.6460 7.04376   1 
  -3  -3   1 102.023 6.89604   2 
   2   3  -1 110.781 8.40330   2 
   2   3  -1 106.473 7.34100   1 
   2   3  -1 112.301 7.40283   2 
  -2  -3   1 104.005 7.93606   2 
  -2  -3   1 100.815 7.13591   1 
  -2  -3   1 105.753 7.16483   2 
   1   3  -1 216.026 13.1912   2 
   1   3  -1 209.575 13.8816   2 
   1   3  -1 217.579 13.0356   1 
  -1  -3   1 219.413 13.9393   2 
  -1  -3   1 210.733 13.0637   2 
  -1  -3   1 218.602 13.0063   1 
   0   3  -1 833.575 47.1742   1 
   0   3  -1 885.680 48.1084   2 
   0   3  -1 803.222 47.4136   2 
   0  -3   1 834.170 48.0314   2 
   0  -3   1 796.302 47.4078   2 
   0  -3   1 809.619 47.2152   1 
  -1   3  -1 502.357 28.4417   2 
  -1   3  -1 451.281 27.8709   2 
  -1   3  -1 491.785 27.5507   1 
   1  -3   1 497.260 27.6125   1 
   1  -3   1 449.639 27.8418   2 
   1  -3   1 496.618 28.5324   2 
  -2   3  -1 198.864 12.8708   2 
  -2   3  -1 215.068 12.7023   2 
  -2   3  -1 221.828 12.0773   1 
   2  -3   1 198.823 13.2784   2 
   2  -3   1 205.408 12.5155   2 
   2  -3   1 203.610 12.1210   1 
  -3   3  -1 145.570 9.01818   2 
   3  -3   1 134.489 9.61480   2 
  -4   3  -1 286.486 16.2432   2 
  -4   3  -1 277.137 16.1958   2 
   4  -3   1 262.769 16.8414   2 
   4  -3   1 259.315 16.9192   2 
  -5   3  -1 85.0510 5.88048   2 
  -5   3  -1 79.0978 5.52587   2 
   5  -3   1 66.2395 6.76726   2 
   5  -3   1 78.4519 5.49603   2 
  -6   3  -1 0.71061 2.58606   2 
   6  -3   1 2.37123 2.51506   2 
   6  -3   1 7.74135 4.17433   2 
  -7   3  -1 -0.3972 3.23933   2 
  -7   3  -1 -0.3379 2.41324   2 
   7  -3   1 16.8393 6.12477   2 
   7  -3   1 7.85369 3.95863   2 
  -8   3  -1 -1.9735 4.06901   2 
  -8   3  -1 -1.0308 3.33252   2 
   8  -3   1 -9.2117 6.02611   2 
   8  -3   1 24.3387 8.05224   2 
   7   2  -1 -4.2767 5.78237   2 
   7   2  -1 15.6237 6.46824   1 
   7   2  -1 7.39864 11.2529   2 
  -7  -2   1 16.0316 4.47346   2 
  -7  -2   1 6.80207 4.12701   2 
  -7  -2   1 20.6660 5.54827   1 
   6   2  -1 26.8502 6.12744   2 
   6   2  -1 27.1134 4.71909   2 
   6   2  -1 37.7874 5.32248   1 
  -6  -2   1 24.9335 3.85009   2 
  -6  -2   1 25.2876 4.39732   1 
  -6  -2   1 29.5680 3.69510   2 
   5   2  -1 27.2774 5.64894   2 
   5   2  -1 20.7197 3.61260   1 
   5   2  -1 21.5558 3.42695   2 
  -5  -2   1 22.0447 3.03880   2 
  -5  -2   1 19.7828 2.87864   2 
  -5  -2   1 19.4123 3.51139   1 
   4   2  -1 3.28954 3.30945   2 
   4   2  -1 2.66862 2.59252   1 
   4   2  -1 3.54505 2.29341   2 
  -4  -2   1 3.82938 1.96693   2 
  -4  -2   1 0.49127 1.75153   2 
  -4  -2   1 1.18783 2.26324   1 
   3   2  -1 525.035 30.9047   1 
   3   2  -1 521.598 31.4767   2 
   3   2  -1 573.910 30.9815   2 
  -3  -2   1 511.106 30.8780   1 
  -3  -2   1 535.287 30.8711   2 
   2   2  -1 4690.11 253.901   2 
   2   2  -1 4458.70 254.257   2 
   2   2  -1 4289.63 253.780   1 
  -2  -2   1 4680.82 253.897   2 
  -2  -2   1 4289.50 253.797   1 
  -2  -2   1 4496.73 254.073   2 
   1   2  -1 2964.32 161.334   2 
   1   2  -1 2698.87 161.167   1 
   1   2  -1 2954.94 161.708   2 
  -1  -2   1 2615.88 161.171   1 
  -1  -2   1 2859.35 161.599   2 
  -1  -2   1 2988.03 161.334   2 
   0   2  -1 632.002 35.5801   2 
   0   2  -1 571.416 35.1419   2 
   0   2  -1 646.060 35.0041   1 
   0  -2   1 614.960 35.1818   2 
   0  -2   1 560.703 35.4838   2 
   0  -2   1 649.728 35.0237   1 
  -1   2  -1 41.1281 2.71574   1 
  -1   2  -1 41.8715 3.75310   2 
   1  -2   1 46.1930 3.21312   2 
   1  -2   1 37.9748 2.70134   1 
   1  -2   1 38.7596 3.90047   2 
  -2   2  -1 1452.27 81.7097   2 
  -2   2  -1 1486.82 81.6356   2 
   2  -2   1 1373.09 81.8180   2 
  -3   2  -1 414.844 23.5219   2 
  -3   2  -1 436.461 23.5865   2 
   3  -2   1 395.614 23.4697   2 
   3  -2   1 384.809 23.7818   2 
  -4   2  -1 6.24348 1.37161   2 
  -4   2  -1 7.79188 1.55910   2 
   4  -2   1 9.72446 2.19244   2 
   4  -2   1 7.26372 1.47086   2 
  -5   2  -1 13.6685 1.87668   2 
  -5   2  -1 18.2378 2.35989   2 
   5  -2   1 20.5413 3.11549   2 
   5  -2   1 19.6764 2.30243   2 
  -6   2  -1 38.7504 4.10757   2 
   6  -2   1 39.7316 5.04271   2 
   6  -2   1 33.9826 3.96943   2 
   6  -2   1 33.7942 3.81653   1 
  -7   2  -1 100.708 7.56678   2 
  -7   2  -1 123.808 8.06020   2 
   7  -2   1 104.941 9.16871   2 
   7  -2   1 107.338 8.02358   1 
   7  -2   1 122.676 9.84341   2 
  -8   2  -1 3.99512 3.43370   2 
  -8   2  -1 2.68723 4.28030   2 
   8  -2   1 5.44933 7.04893   2 
   8  -2   1 -8.0108 6.57496   2 
   8   1  -1 6.97353 7.33997   2 
   8   1  -1 -27.932 10.9520   2 
   8   1  -1 0.30088 7.37290   1 
  -8  -1   1 15.5503 6.91882   1 
  -8  -1   1 7.63850 4.69289   2 
  -8  -1   1 10.1934 4.33004   2 
   7   1  -1 279.934 18.3956   1 
   7   1  -1 266.644 17.8985   2 
   7   1  -1 307.428 24.6341   2 
  -7  -1   1 283.180 18.0714   1 
  -7  -1   1 276.725 16.9385   2 
  -7  -1   1 268.108 17.2536   2 
   6   1  -1 9.94757 5.34631   2 
   6   1  -1 4.21258 3.47096   1 
   6   1  -1 3.86130 3.30743   2 
  -6  -1   1 2.20750 2.36699   2 
  -6  -1   1 3.60112 3.14588   1 
   5   1  -1 26.4214 4.06218   2 
   5   1  -1 29.7824 3.58621   1 
   5   1  -1 20.7184 3.11661   2 
  -5  -1   1 29.1502 3.33440   2 
  -5  -1   1 33.0018 4.49544   1 
  -5  -1   1 24.3062 3.27909   2 
   4   1  -1 16.2080 2.28474   2 
   4   1  -1 17.1604 2.41639   1 
   4   1  -1 20.4680 3.02591   2 
  -4  -1   1 21.0671 2.33079   2 
  -4  -1   1 18.4909 2.42845   1 
   3   1  -1 165.237 10.1919   2 
   3   1  -1 154.692 9.97250   1 
   3   1  -1 159.927 9.78847   2 
  -3  -1   1 159.313 9.87779   1 
  -3  -1   1 169.121 9.78546   2 
   2   1  -1 7185.41 398.583   2 
   2   1  -1 7348.70 398.839   2 
   2   1  -1 6778.59 398.554   1 
  -2  -1   1 6893.96 398.663   2 
  -2  -1   1 6615.29 398.665   1 
  -2  -1   1 7480.79 398.907   2 
   1   1  -1 5.80585 1.18013   1 
   1   1  -1 5.39129 0.98629   2 
   1   1  -1 4.78326 1.53688   2 
  -1  -1   1 4.11218 0.96863   2 
  -1  -1   1 6.23581 1.58538   2 
  -1  -1   1 4.54282 1.07331   1 
   0   1  -1 891.648 47.8571   1 
   0   1  -1 826.735 48.0919   2 
   0  -1   1 875.454 47.8553   1 
   0  -1   1 825.544 48.0921   2 
   0  -1   1 801.809 47.9091   2 
  -1   1  -1 3705.59 197.971   2 
  -1   1  -1 3224.93 197.939   1 
  -1   1  -1 3374.62 197.932   2 
   1  -1   1 3487.57 198.016   2 
   1  -1   1 3723.13 198.014   1 
   1  -1   1 3492.35 197.943   2 
  -2   1  -1 44.1742 2.66456   2 
  -2   1  -1 43.5199 2.73737   2 
   2  -1   1 37.3090 2.78151   1 
   2  -1   1 41.9016 2.88708   2 
   2  -1   1 39.9303 2.68807   2 
  -3   1  -1 30.9272 2.37290   2 
  -3   1  -1 33.1489 2.66968   1 
  -3   1  -1 33.2673 2.29982   2 
   3  -1   1 35.0233 2.66657   1 
   3  -1   1 31.0156 2.64678   2 
   3  -1   1 27.8710 2.38069   2 
  -4   1  -1 943.653 52.1292   1 
  -4   1  -1 917.127 52.0290   2 
  -4   1  -1 926.010 52.0171   2 
   4  -1   1 865.352 52.0880   2 
   4  -1   1 892.064 52.1846   2 
   4  -1   1 939.895 52.0675   1 
  -5   1  -1 13.0960 2.28605   1 
  -5   1  -1 13.4872 1.84644   2 
  -5   1  -1 12.5267 1.84917   2 
   5  -1   1 14.6505 2.35238   1 
   5  -1   1 14.9246 2.52796   2 
   5  -1   1 14.0153 2.56834   2 
  -6   1  -1 480.360 26.7953   2 
  -6   1  -1 453.120 26.8440   2 
  -6   1  -1 468.224 27.0748   1 
   6  -1   1 441.171 26.9801   1 
   6  -1   1 447.810 27.4218   2 
   6  -1   1 481.282 27.4009   2 
  -7   1  -1 23.6685 3.35042   2 
   7  -1   1 27.5402 4.84424   2 
   7  -1   1 32.5805 4.62411   1 
   7  -1   1 20.8767 5.93442   2 
  -8   1  -1 25.4369 4.30154   2 
  -8   1  -1 32.3358 4.66900   2 
   8  -1   1 45.6800 6.84063   2 
   8  -1   1 29.1807 6.05772   1 
   8  -1   1 32.2178 9.20738   2 
   8   0  -1 8.06370 11.3979   2 
   8   0  -1 15.9169 5.85353   1 
   8   0  -1 -0.2903 6.17589   2 
  -8   0   1 13.6070 4.09602   2 
  -8   0   1 7.93267 3.98570   2 
  -8   0   1 16.7774 5.21818   1 
   7   0  -1 71.9511 7.51478   1 
   7   0  -1 53.0325 7.50262   2 
   7   0  -1 64.6965 6.95808   2 
  -7   0   1 67.0062 5.59002   2 
  -7   0   1 76.3489 7.20557   1 
  -7   0   1 64.7887 6.09702   2 
   6   0  -1 87.6074 7.20597   1 
   6   0  -1 70.4554 7.22953   2 
   6   0  -1 81.8294 6.92399   2 
  -6   0   1 91.5106 6.77055   1 
  -6   0   1 88.9295 5.93389   2 
  -6   0   1 87.2249 6.15586   2 
   5   0  -1 48.6553 5.01472   1 
   5   0  -1 63.1749 5.07069   2 
   5   0  -1 58.0236 4.80961   2 
  -5   0   1 58.5887 4.20781   2 
  -5   0   1 54.8657 4.89763   1 
  -5   0   1 55.9825 4.16208   2 
   4   0  -1 75.7091 5.55863   1 
   4   0  -1 82.7185 5.51919   2 
   4   0  -1 74.7961 5.49965   2 
  -4   0   1 76.0938 5.34408   1 
  -4   0   1 83.9688 5.18349   2 
   3   0  -1 56.4274 4.00931   2 
   3   0  -1 55.8592 3.92059   2 
   3   0  -1 53.6266 4.01560   1 
  -3   0   1 60.3874 3.87794   2 
  -3   0   1 58.0910 3.85338   1 
   2   0  -1 48.0005 3.17628   2 
   2   0  -1 50.7749 3.18083   2 
   2   0  -1 42.5579 3.16842   1 
  -2   0   1 53.3078 3.13265   2 
  -2   0   1 42.1479 3.04371   2 
  -2   0   1 41.9561 3.03822   1 
   1   0  -1 4587.97 269.633   2 
   1   0  -1 5146.33 269.539   1 
   1   0  -1 4778.33 269.576   2 
  -1   0   1 4149.01 269.653   2 
  -1   0   1 4796.33 269.612   1 
  -1   0   1 5115.35 269.660   2 
   0   0  -1 366.794 22.8935   2 
   0   0  -1 410.931 22.8025   2 
  -1   0  -1 600.374 34.7098   1 
   1   0   1 670.358 34.5124   2 
   1   0   1 566.249 34.6820   1 
   1   0   1 582.112 34.5143   2 
  -2   0  -1 718.169 40.5654   2 
  -2   0  -1 693.872 40.7534   1 
   2   0   1 724.398 40.5728   2 
   2   0   1 734.791 40.6128   2 
   2   0   1 698.873 40.7617   1 
  -3   0  -1 84.3028 5.35131   2 
  -3   0  -1 94.9157 5.54953   2 
  -3   0  -1 90.7372 5.92610   1 
   3   0   1 88.7564 5.75884   2 
   3   0   1 86.4766 5.90207   1 
   3   0   1 86.7414 5.52238   2 
  -4   0  -1 20.0465 2.49452   1 
  -4   0  -1 19.2489 1.82223   2 
  -4   0  -1 18.7048 1.95270   2 
   4   0   1 18.0634 2.39860   1 
   4   0   1 15.9274 2.67055   2 
   4   0   1 18.5866 2.11038   2 
  -5   0  -1 29.5533 2.75541   2 
  -5   0  -1 29.8717 3.56528   1 
  -5   0  -1 26.0137 3.10848   2 
   5   0   1 29.8906 3.86859   2 
   5   0   1 32.0063 4.55065   1 
   5   0   1 23.7027 3.01105   2 
  -6   0  -1 245.233 14.5177   2 
  -6   0  -1 233.397 15.2349   1 
  -6   0  -1 240.740 14.2340   2 
   6   0   1 217.932 15.8707   2 
   6   0   1 247.968 15.2291   1 
   6   0   1 237.893 14.8420   2 
  -7   0  -1 78.1596 5.93545   2 
  -7   0  -1 71.3622 9.00253   1 
  -7   0  -1 71.4321 6.55556   2 
   7   0   1 65.2063 7.29571   2 
   7   0   1 87.1015 8.75231   1 
   7   0   1 60.3735 9.13384   2 
  -8   0  -1 25.0586 4.51125   2 
   8   0   1 28.8204 7.37832   1 
   8   0   1 18.4997 6.26607   2 
   8   0   1 17.5753 10.8992   2 
   9  -1  -1 58.1034 8.08102   1 
   9  -1  -1 57.7880 15.1283   2 
   9  -1  -1 68.4768 10.7684   2 
  -9   1   1 60.0848 7.98340   2 
  -9   1   1 82.9357 9.78326   1 
  -9   1   1 59.1289 7.03154   2 
   8  -1  -1 40.5820 6.57122   2 
   8  -1  -1 39.9443 5.58312   1 
   8  -1  -1 34.7510 7.83785   2 
  -8   1   1 29.6587 4.41082   2 
  -8   1   1 45.5043 5.85030   2 
  -8   1   1 44.3841 5.10327   1 
   7  -1  -1 72.6041 8.14123   2 
   7  -1  -1 65.9345 6.84448   1 
   7  -1  -1 72.9770 7.71580   2 
  -7   1   1 83.1696 6.29184   2 
  -7   1   1 74.7449 5.91938   2 
  -7   1   1 98.2844 6.80395   1 
   6  -1  -1 241.497 14.7806   2 
   6  -1  -1 251.507 15.0427   2 
   6  -1  -1 203.846 14.4284   1 
  -6   1   1 249.202 14.2609   2 
  -6   1   1 243.734 14.2859   1 
  -6   1   1 229.175 14.2358   2 
   5  -1  -1 255.487 15.2061   2 
   5  -1  -1 254.968 15.3650   2 
   5  -1  -1 246.808 14.9531   1 
  -5   1   1 256.417 14.8238   1 
  -5   1   1 248.875 14.9979   2 
   4  -1  -1 181.378 10.9633   2 
   4  -1  -1 173.246 10.8130   1 
   4  -1  -1 180.477 11.2021   2 
  -4   1   1 196.976 10.9669   2 
  -4   1   1 183.055 10.7048   1 
   3  -1  -1 1073.10 58.9537   2 
   3  -1  -1 976.439 58.6016   1 
   3  -1  -1 1012.38 58.7755   2 
  -3   1   1 1022.34 58.7629   2 
  -3   1   1 1000.50 58.5591   1 
  -3   1   1 1119.67 58.8666   2 
   2  -1  -1 48.2678 3.78643   2 
   2  -1  -1 49.3280 3.36810   2 
   2  -1  -1 44.8039 3.30788   1 
  -2   1   1 57.5279 3.48659   2 
  -2   1   1 61.9204 3.75570   2 
  -2   1   1 55.2555 3.39021   1 
   1  -1  -1 2535.68 155.974   2 
   1  -1  -1 2939.40 156.233   2 
  -1   1   1 3054.24 156.202   2 
  -1   1   1 2491.88 155.979   2 
   0  -1  -1 1634.48 89.0120   2 
   0  -1  -1 1656.63 89.1443   1 
   0   1   1 1627.84 89.0378   2 
   0   1   1 1505.07 89.0910   1 
   0   1   1 1430.27 89.4738   2 
  -1  -1  -1 57.3940 4.16336   1 
  -1  -1  -1 55.6825 3.73375   2 
  -1  -1  -1 62.2802 3.96612   2 
   1   1   1 56.0396 3.83455   2 
   1   1   1 54.4760 4.16209   1 
   1   1   1 61.4616 4.41173   2 
  -2  -1  -1 13.2938 1.93919   1 
  -2  -1  -1 14.4986 1.70687   2 
  -2  -1  -1 19.2666 1.87331   2 
   2   1   1 10.9424 1.53993   2 
   2   1   1 12.8597 2.00275   1 
   2   1   1 9.63857 2.22871   2 
  -3  -1  -1 35.2296 2.81505   2 
  -3  -1  -1 38.5338 3.63154   1 
  -3  -1  -1 37.1281 2.99653   2 
   3   1   1 39.5666 3.93312   1 
   3   1   1 36.6011 4.08930   2 
   3   1   1 35.4864 3.15846   2 
  -4  -1  -1 16.1687 2.93143   1 
  -4  -1  -1 14.5405 2.03149   2 
  -4  -1  -1 12.4343 1.67426   2 
   4   1   1 13.2517 2.78976   1 
   4   1   1 11.9611 2.17899   2 
   4   1   1 9.30179 3.64149   2 
  -5  -1  -1 11.4148 2.67179   2 
  -5  -1  -1 10.7601 1.87491   2 
  -5  -1  -1 12.3429 3.38132   1 
   5   1   1 -1.1140 4.35005   2 
   5   1   1 8.83488 2.51511   2 
   5   1   1 12.6802 3.42731   1 
  -6  -1  -1 16.8872 2.43595   2 
  -6  -1  -1 16.3645 4.53425   1 
  -6  -1  -1 12.2570 2.83914   2 
   6   1   1 9.16483 3.64717   2 
   6   1   1 -1.4516 6.45223   2 
   6   1   1 9.13287 4.59353   1 
  -7  -1  -1 -1.0149 3.23423   2 
  -7  -1  -1 4.62934 3.56760   2 
   7   1   1 0.72554 8.84183   2 
   7   1   1 -9.2215 4.71214   2 
   7   1   1 -6.4010 9.54531   1 
   9  -2  -1 40.5768 10.1205   2 
   9  -2  -1 39.0557 9.35201   2 
  -9   2   1 31.1277 5.19201   2 
   8  -2  -1 98.7200 9.97290   2 
   8  -2  -1 86.7007 11.2397   2 
  -8   2   1 106.748 8.10414   2 
  -8   2   1 94.5533 7.63634   2 
   7  -2  -1 3.90482 3.60065   2 
   7  -2  -1 -9.7315 5.20834   2 
  -7   2   1 -4.0059 2.59018   2 
  -7   2   1 8.43984 2.80437   2 
   6  -2  -1 155.943 11.7025   2 
   6  -2  -1 179.230 11.0549   2 
  -6   2   1 173.580 10.7951   2 
   5  -2  -1 320.127 19.7485   2 
   5  -2  -1 356.574 20.4881   2 
  -5   2   1 335.437 19.8685   2 
   4  -2  -1 1096.72 70.4989   2 
   4  -2  -1 1221.15 70.1823   2 
  -4   2   1 1271.59 70.2564   2 
  -4   2   1 1342.68 70.3952   2 
   3  -2  -1 498.044 26.6186   2 
   3  -2  -1 449.065 26.0697   2 
  -3   2   1 414.301 26.0521   2 
  -3   2   1 454.713 25.7945   1 
  -3   2   1 449.337 26.2796   2 
   2  -2  -1 101.031 6.32949   2 
   2  -2  -1 109.154 7.08087   2 
  -2   2   1 101.893 6.43312   2 
  -2   2   1 98.9538 6.25842   1 
  -2   2   1 105.084 6.79598   2 
   1  -2  -1 8745.38 504.771   2 
   1  -2  -1 8547.74 504.731   2 
   1  -2  -1 9182.03 504.746   1 
  -1   2   1 9999.99 504.795   2 
  -1   2   1 8798.09 504.799   1 
  -1   2   1 8261.79 504.762   2 
   0  -2  -1 487.172 29.1351   2 
   0  -2  -1 504.579 29.2639   1 
   0   2   1 492.944 29.2397   1 
   0   2   1 508.118 29.2373   2 
   0   2   1 544.214 29.7332   2 
  -1  -2  -1 55.6908 4.48006   1 
  -1  -2  -1 58.2224 4.08203   2 
  -1  -2  -1 59.0134 4.76333   2 
   1   2   1 71.6336 8.62856   2 
   1   2   1 59.4339 4.31326   2 
   1   2   1 57.4604 4.62466   1 
  -2  -2  -1 1460.25 86.6293   1 
  -2  -2  -1 1636.15 86.6024   2 
  -2  -2  -1 1530.91 86.4231   2 
   2   2   1 1549.43 86.5234   2 
   2   2   1 1420.30 86.5868   1 
  -3  -2  -1 82.0935 6.65468   1 
  -3  -2  -1 89.5103 6.08408   2 
  -3  -2  -1 89.5626 5.97495   2 
   3   2   1 82.8437 8.13715   2 
   3   2   1 88.8321 6.81638   1 
   3   2   1 88.7027 6.32496   2 
  -4  -2  -1 206.604 12.9343   2 
  -4  -2  -1 214.976 14.0033   1 
  -4  -2  -1 227.996 13.1515   2 
   4   2   1 220.736 14.0328   1 
   4   2   1 189.491 14.7108   2 
   4   2   1 218.929 13.3036   2 
  -5  -2  -1 1.57323 2.55699   2 
  -5  -2  -1 9.77715 2.60407   2 
  -5  -2  -1 9.33132 4.27158   1 
   5   2   1 0.02840 4.27883   1 
   5   2   1 2.53912 3.08384   2 
   5   2   1 -4.5711 6.41067   2 
  -6  -2  -1 1.93145 3.41237   2 
  -6  -2  -1 0.87348 2.53993   2 
  -6  -2  -1 4.78446 5.29129   1 
   6   2   1 -12.479 8.88352   2 
   6   2   1 -1.4913 3.45922   2 
   6   2   1 -6.0022 5.57757   1 
  -7  -2  -1 6.50813 4.56695   2 
  -7  -2  -1 -6.3723 6.95415   1 
  -7  -2  -1 -2.5349 3.82745   2 
   7   2   1 -4.3085 5.79136   2 
   7   2   1 -3.3335 7.59895   1 
   7   2   1 -12.826 13.2238   2 
   9  -3  -1 18.7127 10.9216   2 
   9  -3  -1 8.95576 7.91823   2 
  -9   3   1 17.1897 5.88861   2 
  -9   3   1 10.9768 4.74345   2 
   8  -3  -1 10.3712 8.11344   2 
   8  -3  -1 3.42353 5.05923   2 
  -8   3   1 5.76045 3.38131   2 
  -8   3   1 1.01216 3.97710   2 
   7  -3  -1 30.9178 6.28702   2 
   7  -3  -1 18.9711 3.97451   2 
  -7   3   1 23.4873 3.53069   2 
  -7   3   1 27.0773 3.51241   2 
   6  -3  -1 39.7258 5.57218   2 
   6  -3  -1 32.9477 3.97004   2 
  -6   3   1 33.7159 4.36962   2 
   5  -3  -1 19.8923 2.64932   2 
   5  -3  -1 27.4128 4.15842   2 
  -5   3   1 22.8216 3.06984   2 
  -5   3   1 26.0274 3.26791   2 
   4  -3  -1 330.316 18.6892   2 
   4  -3  -1 334.145 19.7837   2 
  -4   3   1 303.802 18.8061   2 
  -4   3   1 302.287 18.9143   2 
   3  -3  -1 93.7703 7.21760   2 
   3  -3  -1 86.6402 5.57081   2 
  -3   3   1 75.4845 6.08161   2 
  -3   3   1 79.5174 5.31531   1 
  -3   3   1 84.2968 5.82835   2 
   2  -3  -1 2.52096 2.82431   2 
  -2   3   1 2.39341 1.41166   1 
  -2   3   1 3.90699 1.95614   2 
  -2   3   1 2.38480 1.41815   2 
   1  -3  -1 272.487 17.5969   2 
   1  -3  -1 304.613 16.8135   2 
   1  -3  -1 288.220 16.7847   1 
  -1   3   1 277.633 17.3942   2 
  -1   3   1 261.418 16.8109   2 
  -1   3   1 293.129 16.7998   1 
   0  -3  -1 1325.14 72.4354   2 
   0  -3  -1 1259.00 71.6563   2 
   0  -3  -1 1169.36 71.6888   1 
   0   3   1 1256.75 71.7812   2 
   0   3   1 1219.08 71.6817   1 
   0   3   1 1313.52 72.4285   2 
  -1  -3  -1 39.7732 3.58205   2 
  -1  -3  -1 46.6974 4.29136   1 
   1   3   1 34.8088 4.78170   2 
   1   3   1 40.2485 4.22162   1 
   1   3   1 36.0131 3.77340   2 
  -2  -3  -1 2.44449 2.26167   1 
  -2  -3  -1 1.84572 1.88412   2 
  -2  -3  -1 2.79216 2.50119   2 
   2   3   1 0.87445 2.11731   2 
   2   3   1 2.78311 2.51961   1 
  -3  -3  -1 108.455 7.81555   2 
  -3  -3  -1 105.659 7.49177   2 
  -3  -3  -1 108.423 8.40013   1 
   3   3   1 108.114 10.6050   2 
   3   3   1 113.638 7.93120   2 
   3   3   1 109.826 8.57935   1 
  -4  -3  -1 39.4072 4.43068   2 
  -4  -3  -1 36.4001 4.82726   1 
  -4  -3  -1 28.9938 3.93099   2 
   4   3   1 29.4825 4.84093   2 
   4   3   1 28.0078 7.52567   2 
   4   3   1 28.8386 4.80950   1 
  -5  -3  -1 36.7148 4.33782   2 
  -5  -3  -1 36.8965 4.11010   2 
  -5  -3  -1 34.7355 5.63019   1 
   5   3   1 33.8320 8.76659   2 
   5   3   1 35.3024 6.15788   1 
   5   3   1 34.3911 4.65859   2 
  -6  -3  -1 63.6071 7.92629   1 
  -6  -3  -1 54.5823 6.96603   2 
  -6  -3  -1 58.7428 6.30887   2 
   6   3   1 51.3767 13.1191   2 
   6   3   1 53.8806 6.69492   2 
   6   3   1 60.2137 8.83952   1 
   9  -4  -1 58.1969 8.94950   2 
   9  -4  -1 33.4242 12.8658   2 
  -9   4   1 62.4292 7.94727   2 
  -9   4   1 56.8284 7.46560   2 
   8  -4  -1 28.7307 5.23544   2 
   8  -4  -1 29.6432 9.45310   2 
  -8   4   1 25.8766 4.95046   2 
  -8   4   1 26.9572 5.31131   2 
   7  -4  -1 -1.6746 6.92962   2 
   7  -4  -1 8.12294 3.59080   2 
  -7   4   1 7.83355 3.71537   2 
   6  -4  -1 345.274 22.8746   2 
   6  -4  -1 339.768 20.9671   2 
  -6   4   1 367.247 21.4863   2 
  -6   4   1 351.715 21.3992   2 
   5  -4  -1 341.226 20.6874   2 
   5  -4  -1 305.346 21.8713   2 
  -5   4   1 373.644 21.2240   2 
  -5   4   1 368.333 21.1284   2 
   4  -4  -1 170.251 13.3192   2 
   4  -4  -1 214.123 11.9584   2 
  -4   4   1 194.153 12.1279   2 
  -4   4   1 193.664 12.5138   2 
  -4   4   1 181.006 11.3343   1 
   3  -4  -1 57.7473 4.34615   2 
   3  -4  -1 51.9624 6.35044   2 
  -3   4   1 62.6188 5.85373   2 
  -3   4   1 56.1675 5.05333   2 
  -3   4   1 52.1050 4.28245   1 
   2  -4  -1 17.7912 2.44384   2 
   2  -4  -1 18.7942 4.39334   2 
   2  -4  -1 19.1052 2.49427   1 
  -2   4   1 18.3443 2.97113   2 
  -2   4   1 22.9534 3.53895   2 
  -2   4   1 20.7490 2.59722   1 
   1  -4  -1 9.87022 4.00751   2 
   1  -4  -1 10.0969 2.04477   2 
   1  -4  -1 14.1859 2.32329   1 
  -1   4   1 14.3193 2.84503   2 
  -1   4   1 14.1851 3.64751   2 
  -1   4   1 11.4253 2.38474   1 
   0  -4  -1 59.9782 5.11525   1 
   0  -4  -1 63.6689 7.39523   2 
   0  -4  -1 57.6325 4.83257   2 
   0   4   1 49.8779 6.77105   2 
   0   4   1 52.0447 5.12003   2 
   0   4   1 61.0000 5.20588   1 
  -1  -4  -1 389.459 23.2016   2 
  -1  -4  -1 397.088 23.5135   1 
   1   4   1 371.318 23.3776   1 
   1   4   1 375.940 23.3885   2 
   1   4   1 430.313 24.7362   2 
  -2  -4  -1 134.334 9.72520   1 
  -2  -4  -1 135.052 8.94963   2 
  -2  -4  -1 146.208 10.1254   2 
   2   4   1 116.143 10.9858   2 
   2   4   1 125.102 9.33644   2 
   2   4   1 132.303 9.74447   1 
  -3  -4  -1 149.541 9.79465   2 
  -3  -4  -1 139.119 10.8077   2 
   3   4   1 144.637 10.5086   2 
  -4  -4  -1 11.1520 3.97986   2 
  -4  -4  -1 13.4057 5.49693   1 
  -4  -4  -1 15.4964 3.45732   2 
   4   4   1 11.7243 4.50360   2 
   4   4   1 10.1477 5.32815   1 
   4   4   1 9.59629 8.86582   2 
  -5  -4  -1 21.4436 6.93377   1 
  -5  -4  -1 16.2111 4.62257   2 
  -5  -4  -1 10.1720 4.16420   2 
   5   4   1 22.8228 5.75112   2 
   5   4   1 7.13637 11.6502   2 
   5   4   1 28.9522 8.12739   1 
   9  -5  -1 31.1584 15.0520   2 
   9  -5  -1 -1.6785 7.02076   2 
  -9   5   1 9.60362 6.62624   2 
  -9   5   1 -3.6376 6.37152   2 
   8  -5  -1 -12.808 10.7571   2 
   8  -5  -1 -4.4627 5.19481   2 
  -8   5   1 13.3756 5.31743   2 
   7  -5  -1 27.5916 4.66674   2 
  -7   5   1 24.7798 5.40678   2 
  -7   5   1 25.8475 4.92085   2 
   6  -5  -1 9.21715 3.37969   2 
   6  -5  -1 14.9173 7.43604   2 
  -6   5   1 15.2126 4.51596   2 
  -6   5   1 1.37342 3.91288   2 
   5  -5  -1 115.132 8.32068   2 
   5  -5  -1 90.1271 11.1034   2 
  -5   5   1 123.165 9.10314   2 
  -5   5   1 132.344 9.59129   2 
   4  -5  -1 37.8654 7.51782   2 
   4  -5  -1 35.8777 3.93945   2 
  -4   5   1 40.2334 4.62661   2 
  -4   5   1 34.8580 3.89798   1 
  -4   5   1 33.0650 5.11541   2 
   3  -5  -1 89.8493 10.2143   2 
  -3   5   1 123.922 9.12500   2 
  -3   5   1 100.547 8.10746   2 
  -3   5   1 88.3501 6.93213   1 
   2  -5  -1 253.035 16.8786   2 
   2  -5  -1 218.459 14.0619   1 
   2  -5  -1 233.997 14.1185   2 
  -2   5   1 212.694 13.8364   1 
  -2   5   1 226.126 14.5101   2 
  -2   5   1 209.816 15.1980   2 
   1  -5  -1 17.3994 3.26711   1 
   1  -5  -1 15.1612 2.68544   2 
   1  -5  -1 20.1436 5.54285   2 
  -1   5   1 22.0654 3.63635   2 
  -1   5   1 18.9430 3.10433   1 
  -1   5   1 19.2119 5.46092   2 
   0  -5  -1 2.60744 2.78637   1 
   0  -5  -1 -8.4938 5.44808   2 
   0  -5  -1 1.42184 2.35222   2 
   0   5   1 -5.0797 4.81663   2 
   0   5   1 0.94006 2.83371   1 
   0   5   1 -2.8352 2.97991   2 
  -1  -5  -1 437.458 26.7723   1 
  -1  -5  -1 442.882 26.4442   2 
   1   5   1 462.824 28.3206   2 
   1   5   1 436.472 26.7411   2 
   1   5   1 436.927 26.6715   1 
  -2  -5  -1 612.029 36.5469   1 
  -2  -5  -1 623.002 35.9980   2 
  -2  -5  -1 659.180 37.0040   2 
   2   5   1 561.798 37.8952   2 
   2   5   1 618.066 36.3734   1 
   2   5   1 589.748 36.3677   2 
  -3  -5  -1 103.757 8.45885   2 
  -3  -5  -1 113.050 10.1303   1 
  -3  -5  -1 90.1458 10.3756   2 
   3   5   1 100.402 9.65596   2 
   3   5   1 116.716 10.3628   1 
   3   5   1 84.3632 11.3458   2 
  -4  -5  -1 -0.0203 5.37165   2 
  -4  -5  -1 6.69953 6.05349   1 
  -4  -5  -1 1.67546 4.15313   2 
   4   5   1 -3.6113 5.98079   2 
   4   5   1 -6.0145 6.76204   1 
   8  -6  -1 -2.2409 13.0005   2 
   8  -6  -1 -3.4546 5.41981   2 
  -8   6   1 5.06133 6.09864   2 
  -8   6   1 8.06983 6.65733   2 
   7  -6  -1 44.6329 12.2117   2 
   7  -6  -1 66.3705 7.23230   2 
  -7   6   1 62.9798 7.78009   2 
  -7   6   1 60.3556 7.65048   2 
   6  -6  -1 -8.1013 9.53096   2 
   6  -6  -1 -9.5026 3.41355   2 
  -6   6   1 7.57041 5.03690   2 
  -6   6   1 5.08699 5.08119   2 
   5  -6  -1 126.551 12.8681   2 
   5  -6  -1 111.020 8.40203   2 
  -5   6   1 104.593 9.60219   2 
  -5   6   1 91.2072 7.20816   1 
  -5   6   1 99.8781 9.97648   2 
   4  -6  -1 252.106 16.4507   2 
   4  -6  -1 292.431 21.1748   2 
  -4   6   1 291.705 18.1699   2 
  -4   6   1 258.399 17.1720   2 
  -4   6   1 246.245 15.9883   1 
   3  -6  -1 35.9918 4.34284   1 
   3  -6  -1 40.9949 8.77669   2 
   3  -6  -1 30.5019 4.11325   2 
  -3   6   1 34.9315 6.39114   2 
  -3   6   1 33.9101 5.43030   2 
  -3   6   1 40.0073 4.17971   1 
   2  -6  -1 147.170 14.1066   2 
   2  -6  -1 132.265 10.0926   1 
   2  -6  -1 119.748 9.54221   2 
  -2   6   1 135.073 11.9804   2 
  -2   6   1 133.596 10.5731   2 
  -2   6   1 143.587 9.89766   1 
   1  -6  -1 14.8584 3.79831   2 
   1  -6  -1 19.6447 3.99002   1 
   1  -6  -1 17.9790 8.02556   2 
  -1   6   1 20.0164 4.32262   2 
  -1   6   1 24.0925 7.00286   2 
  -1   6   1 20.8562 4.15867   1 
   0  -6  -1 114.297 12.4040   2 
   0  -6  -1 102.458 8.70247   2 
   0   6   1 105.574 12.3744   2 
   0   6   1 105.267 9.52366   2 
  -1  -6  -1 65.1349 7.24082   2 
  -1  -6  -1 75.1334 8.34961   1 
   1   6   1 70.2794 8.02749   1 
   1   6   1 66.4487 10.4878   2 
   1   6   1 64.7862 8.27612   2 
  -2  -6  -1 101.463 10.0765   1 
  -2  -6  -1 105.447 11.6256   2 
  -2  -6  -1 87.8859 8.30653   2 
   2   6   1 71.6049 11.7207   2 
   2   6   1 90.0046 10.4455   1 
   2   6   1 89.5551 10.4426   2 
  -3  -6  -1 4.58837 7.65612   2 
  -3  -6  -1 9.70333 6.10840   1 
  -3  -6  -1 7.23510 4.88767   2 
   3   6   1 5.67476 5.77243   2 
   3   6   1 4.91146 11.0761   2 
   3   6   1 5.33486 6.35096   1 
   8  -7  -1 32.3864 7.01918   2 
   8  -7  -1 16.5988 19.1284   2 
  -8   7   1 12.5762 8.17590   2 
  -8   7   1 26.6372 8.97884   2 
   7  -7  -1 28.4384 14.9457   2 
   7  -7  -1 0.14771 6.00059   2 
  -7   7   1 2.20588 7.47894   2 
  -7   7   1 5.19145 8.29100   2 
   6  -7  -1 36.6504 6.22928   2 
   6  -7  -1 35.7467 13.8290   2 
  -6   7   1 42.0161 7.59408   2 
  -6   7   1 23.6236 7.17900   2 
   5  -7  -1 156.071 11.4641   2 
   5  -7  -1 166.287 19.4923   2 
  -5   7   1 161.652 13.6525   2 
  -5   7   1 134.379 10.4204   1 
  -5   7   1 160.237 13.3682   2 
   4  -7  -1 87.0205 7.90541   2 
   4  -7  -1 90.7335 12.7471   2 
  -4   7   1 78.0156 8.29247   2 
  -4   7   1 83.2576 9.79955   2 
  -4   7   1 75.0335 7.64968   1 
   3  -7  -1 101.985 8.52427   2 
   3  -7  -1 78.9557 8.52216   1 
   3  -7  -1 96.0998 12.7148   2 
  -3   7   1 99.0140 11.1912   2 
  -3   7   1 87.2502 9.44388   2 
  -3   7   1 90.7163 7.97820   1 
   2  -7  -1 38.5861 5.59314   2 
   2  -7  -1 34.0134 10.0628   2 
   2  -7  -1 44.5936 5.87636   1 
  -2   7   1 65.3789 8.95772   2 
  -2   7   1 38.8442 6.30968   2 
  -2   7   1 40.5249 5.25019   1 
   1  -7  -1 42.6419 5.75412   2 
   1  -7  -1 46.1978 6.01729   1 
   1  -7  -1 50.3221 10.9831   2 
  -1   7   1 39.6880 5.63346   1 
  -1   7   1 59.2232 9.82857   2 
  -1   7   1 50.6608 7.17323   2 
   0  -7  -1 7.68178 10.6654   2 
   0  -7  -1 12.5354 4.71387   2 
   0  -7  -1 20.4246 5.89137   1 
   0   7   1 27.0186 6.29397   1 
   0   7   1 6.60151 9.67630   2 
  -1  -7  -1 174.610 13.9224   2 
  -1  -7  -1 186.304 15.3054   1 
  -1  -7  -1 183.849 19.5919   2 
   1   7   1 200.280 15.0828   1 
   1   7   1 177.631 15.3436   2 
   1   7   1 234.227 20.9160   2 
  -2  -7  -1 65.6524 10.8341   2 
  -2  -7  -1 48.3674 6.65330   2 
  -2  -7  -1 48.2358 8.38234   1 
   2   7   1 65.2526 8.58618   1 
   2   7   1 38.1389 13.7378   2 
   2   7   1 38.1925 9.15918   2 
   7  -8  -1 129.323 22.4700   2 
   7  -8  -1 142.090 13.4131   2 
  -7   8   1 115.931 15.2126   2 
  -7   8   1 139.496 17.2097   2 
   6  -8  -1 93.6268 9.98202   2 
  -6   8   1 85.3239 11.2113   2 
  -6   8   1 93.2352 11.0981   2 
  -6   8   1 75.4748 8.12645   1 
   5  -8  -1 16.8780 12.8924   2 
   5  -8  -1 2.79440 5.85715   2 
  -5   8   1 7.42827 6.63240   2 
  -5   8   1 6.88040 8.82070   2 
  -5   8   1 5.82507 4.32187   1 
   4  -8  -1 -3.0805 5.18366   2 
   4  -8  -1 7.97164 13.7598   2 
  -4   8   1 5.93530 9.33769   2 
  -4   8   1 4.80586 6.76737   2 
  -4   8   1 -5.4202 4.95711   1 
   3  -8  -1 23.4737 5.47931   2 
   3  -8  -1 0.86507 13.0911   2 
  -3   8   1 23.6813 7.44260   2 
  -3   8   1 16.6778 6.45464   1 
  -3   8   1 10.0158 9.86452   2 
   2  -8  -1 22.0159 6.23448   1 
   2  -8  -1 20.1728 13.4463   2 
   2  -8  -1 25.7859 5.92121   2 
  -2   8   1 13.1956 5.94789   1 
  -2   8   1 17.2133 10.9264   2 
  -2   8   1 12.2042 7.52484   2 
   1  -8  -1 20.6721 13.2372   2 
   1  -8  -1 40.5735 6.56923   2 
   1  -8  -1 46.4069 7.79364   1 
  -1   8   1 43.9652 8.30225   2 
  -1   8   1 37.9824 6.93003   1 
  -1   8   1 41.8458 12.3465   2 
   0  -8  -1 144.312 14.0380   2 
   0  -8  -1 158.859 15.4002   1 
   0  -8  -1 179.937 21.5537   2 
   0   8   1 223.573 23.4665   2 
   0   8   1 135.227 14.3887   1 
   0   8   1 160.494 16.3243   2 
  -1  -8  -1 58.9415 9.94916   1 
   1   8   1 71.0932 10.7756   1 
  -5   9   1 19.0364 6.51368   1 
   4  -9  -1 5.82812 7.20900   2 
   4  -9  -1 -4.4594 18.4282   2 
  -4   9   1 -7.6650 13.0566   2 
  -4   9   1 9.55566 8.46861   2 
  -4   9   1 0.37165 6.31098   1 
   3  -9  -1 115.254 20.9454   2 
  -3   9   1 138.789 18.2464   2 
  -3   9   1 105.492 13.6950   1 
   2  -9  -1 -9.7162 7.80836   1 
   2  -9  -1 -0.2081 7.96387   2 
   2  -9  -1 -22.476 18.9265   2 
  -2   9   1 -8.7246 13.8846   2 
  -2   9   1 2.14511 7.87037   1 
  -2   9   1 -3.1643 9.40941   2 
   0   9  -2 50.4779 8.96415   1 
   0   9  -2 58.4142 15.1951   2 
   0   9  -2 57.6919 12.4861   2 
   0  -9   2 86.6278 15.5719   2 
   0  -9   2 67.6277 8.96297   1 
   0  -9   2 49.1369 8.43191   2 
  -1   9  -2 5.35022 8.56873   2 
  -1   9  -2 -8.7697 6.59938   1 
   1  -9   2 14.0955 6.40109   1 
   1  -9   2 -5.4560 6.35353   2 
   1  -9   2 -9.4706 12.6153   2 
  -2   9  -2 27.8534 8.08263   2 
  -2   9  -2 45.3552 12.9178   2 
  -2   9  -2 29.3294 6.97030   1 
   2  -9   2 33.2624 7.55709   2 
   2  -9   2 34.5746 14.4221   2 
   2  -9   2 37.6399 7.02142   1 
  -3   9  -2 47.8056 8.97717   2 
  -3   9  -2 52.2094 12.0137   2 
   3  -9   2 59.1190 10.2960   1 
   3  -9   2 46.2554 8.66427   2 
   3  -9   2 69.8290 15.3957   2 
  -4   9  -2 -4.2997 5.92718   1 
  -4   9  -2 -2.7405 8.33752   2 
  -4   9  -2 6.47155 10.2467   2 
   4  -9   2 -4.4410 5.61582   1 
   4  -9   2 10.0511 7.18054   2 
   4  -9   2 3.61095 14.5121   2 
  -5   9  -2 19.9512 5.80179   1 
  -5   9  -2 8.64451 9.57599   2 
  -5   9  -2 32.8779 10.0749   2 
   5  -9   2 18.0810 15.4010   2 
   2   8  -2 17.7718 8.23254   1 
   2   8  -2 34.9477 9.07062   2 
   2   8  -2 24.1607 13.4490   2 
  -2  -8   2 24.4471 7.00457   2 
  -2  -8   2 37.0968 7.01912   1 
  -2  -8   2 32.0648 11.2431   2 
   1   8  -2 -6.2129 11.3573   2 
   1   8  -2 5.14692 6.90164   2 
   1   8  -2 -0.9819 6.43495   1 
  -1  -8   2 3.25780 5.83357   2 
  -1  -8   2 3.92404 5.48564   1 
  -1  -8   2 -14.315 9.67452   2 
   0   8  -2 42.7005 7.05532   2 
   0   8  -2 35.4343 6.50984   1 
   0   8  -2 48.7195 11.4934   2 
   0  -8   2 46.7477 10.7167   2 
   0  -8   2 38.4437 6.00172   1 
  -1   8  -2 128.262 13.9776   2 
  -1   8  -2 98.1402 10.2374   1 
  -1   8  -2 119.990 12.1394   2 
   1  -8   2 114.934 10.7690   2 
   1  -8   2 108.940 10.4211   1 
   1  -8   2 116.436 13.3592   2 
  -2   8  -2 56.5402 9.66480   2 
  -2   8  -2 68.8815 7.78913   2 
  -2   8  -2 54.0667 7.84435   1 
   2  -8   2 91.1101 12.7200   2 
   2  -8   2 63.8981 8.15388   1 
   2  -8   2 72.9039 7.81996   2 
  -3   8  -2 40.2063 8.46662   2 
  -3   8  -2 25.9014 5.21281   1 
  -3   8  -2 30.2183 6.97929   2 
   3  -8   2 41.6499 5.29369   1 
   3  -8   2 28.3235 10.0787   2 
   3  -8   2 38.6464 6.29873   2 
  -4   8  -2 2.38536 6.26980   2 
  -4   8  -2 -8.8947 7.77575   2 
  -4   8  -2 4.04361 4.29682   1 
   4  -8   2 -1.1500 4.00929   1 
   4  -8   2 13.8144 11.1211   2 
   4  -8   2 4.74534 5.27104   2 
  -5   8  -2 63.2480 8.96758   2 
  -5   8  -2 66.9510 8.55694   2 
   5  -8   2 77.1200 14.1234   2 
  -6   8  -2 82.9400 11.1977   2 
   6  -8   2 91.3706 16.8879   2 
   6  -8   2 99.0252 10.2607   2 
  -7   8  -2 38.8969 7.97756   2 
  -7   8  -2 35.3475 7.80465   2 
   7  -8   2 36.7428 18.7535   2 
   7  -8   2 28.1484 7.96026   2 
   4   7  -2 30.3533 16.6607   2 
   4   7  -2 20.8661 8.21431   1 
   4   7  -2 12.5295 9.61968   2 
  -4  -7   2 28.7291 7.11287   1 
  -4  -7   2 12.6466 9.38360   2 
  -4  -7   2 8.89382 7.73437   2 
   3   7  -2 8.43607 11.2511   2 
   3   7  -2 11.0124 6.85806   1 
   3   7  -2 12.4448 8.40758   2 
  -3  -7   2 8.15873 8.56250   2 
  -3  -7   2 7.02858 5.92693   2 
  -3  -7   2 1.11894 5.73827   1 
   2   7  -2 68.4010 8.82405   1 
   2   7  -2 59.9100 10.7781   2 
   2   7  -2 85.0850 10.6321   2 
  -2  -7   2 77.8374 8.84841   1 
  -2  -7   2 68.2443 8.57887   2 
  -2  -7   2 63.6056 9.90951   2 
   1   7  -2 178.891 13.1138   1 
   1   7  -2 174.290 13.8706   2 
   1   7  -2 175.554 17.6839   2 
  -1  -7   2 181.843 13.3345   2 
  -1  -7   2 195.257 13.3568   1 
  -1  -7   2 182.828 16.8948   2 
   0   7  -2 203.609 17.9963   2 
   0   7  -2 190.275 13.7916   2 
   0  -7   2 184.765 13.8542   1 
   0  -7   2 175.151 13.5180   2 
   0  -7   2 185.422 17.5800   2 
  -1   7  -2 152.312 14.8675   2 
  -1   7  -2 142.924 11.8886   2 
  -1   7  -2 153.476 10.8655   1 
   1  -7   2 151.969 11.0008   1 
   1  -7   2 135.929 10.9190   2 
   1  -7   2 127.029 14.3614   2 
  -2   7  -2 1.89133 3.91280   2 
  -2   7  -2 -1.8554 3.15415   1 
  -2   7  -2 -4.4068 5.85587   2 
   2  -7   2 2.86853 3.45697   1 
   2  -7   2 -0.6066 7.50288   2 
   2  -7   2 1.43929 3.72035   2 
  -3   7  -2 -3.7335 3.14498   1 
  -3   7  -2 -0.7858 4.27143   2 
  -3   7  -2 10.4254 6.09695   2 
   3  -7   2 -0.1474 3.89142   2 
   3  -7   2 -8.7263 7.85199   2 
   3  -7   2 -0.0353 3.18451   1 
  -4   7  -2 1799.75 99.8223   2 
  -4   7  -2 1644.92 100.213   2 
  -4   7  -2 1708.28 98.5554   1 
   4  -7   2 1798.65 99.5881   2 
   4  -7   2 1705.62 101.412   2 
   4  -7   2 1734.31 98.6580   1 
  -5   7  -2 94.7193 10.0624   2 
  -5   7  -2 93.7227 10.2074   2 
  -6   7  -2 27.0160 6.00723   2 
  -6   7  -2 13.1376 5.52791   2 
   6  -7   2 28.9298 5.26988   2 
   6  -7   2 33.4029 11.6950   2 
  -7   7  -2 6.60057 5.62683   2 
  -7   7  -2 -6.8949 6.89086   2 
   7  -7   2 6.61174 5.65280   2 
   7  -7   2 17.3959 13.7183   2 
   5   6  -2 39.8104 9.65926   2 
   5   6  -2 31.5558 13.8699   2 
   5   6  -2 27.7528 8.78467   1 
  -5  -6   2 36.9222 6.96538   2 
  -5  -6   2 39.4786 7.44446   1 
   4   6  -2 209.346 21.1089   2 
   4   6  -2 201.943 15.9939   1 
   4   6  -2 256.638 17.1090   2 
  -4  -6   2 209.957 15.6836   2 
  -4  -6   2 226.358 15.8095   1 
  -4  -6   2 201.827 17.4473   2 
   3   6  -2 -0.5647 5.50758   2 
   3   6  -2 10.5579 4.97632   1 
   3   6  -2 -6.4923 8.59915   2 
  -3  -6   2 -1.1282 6.51262   2 
  -3  -6   2 0.42469 4.27399   2 
  -3  -6   2 -0.0024 4.24205   1 
   2   6  -2 277.907 18.2306   1 
   2   6  -2 276.107 18.8802   2 
   2   6  -2 281.820 21.4867   2 
  -2  -6   2 299.660 18.3390   1 
  -2  -6   2 296.338 20.0444   2 
  -2  -6   2 295.265 18.6037   2 
   1   6  -2 172.093 11.5869   1 
   1   6  -2 155.150 13.9773   2 
   1   6  -2 154.686 11.9731   2 
  -1  -6   2 169.642 11.6099   1 
  -1  -6   2 158.763 13.6803   2 
  -1  -6   2 188.592 12.0261   2 
   0   6  -2 19.0359 3.46071   1 
   0   6  -2 18.0933 5.55378   2 
   0   6  -2 14.8264 4.07052   2 
   0  -6   2 23.4395 6.03532   2 
   0  -6   2 14.1472 3.72648   2 
   0  -6   2 15.2913 3.37286   1 
  -1   6  -2 18.8429 3.42151   1 
  -1   6  -2 20.3885 3.77294   2 
  -1   6  -2 16.4932 5.52566   2 
   1  -6   2 21.4489 3.52475   1 
   1  -6   2 29.6274 4.11740   2 
   1  -6   2 29.5352 5.99548   2 
  -2   6  -2 -3.0889 2.48308   1 
  -2   6  -2 3.69093 4.25048   2 
  -2   6  -2 -2.8279 3.46937   2 
   2  -6   2 2.70588 2.51284   1 
   2  -6   2 -0.5863 2.60550   2 
   2  -6   2 1.75038 5.94153   2 
  -3   6  -2 26.1210 5.01401   2 
  -3   6  -2 23.5714 4.23958   2 
  -3   6  -2 20.0649 2.82179   1 
   3  -6   2 29.4168 7.13294   2 
   3  -6   2 20.5098 3.87641   2 
   3  -6   2 20.0861 2.88267   1 
  -4   6  -2 611.427 37.2826   1 
  -4   6  -2 654.553 38.7762   2 
  -4   6  -2 650.310 38.5586   2 
   4  -6   2 667.773 38.3268   2 
   4  -6   2 654.945 40.1781   2 
   4  -6   2 672.600 37.4010   1 
  -5   6  -2 173.055 12.7327   2 
  -5   6  -2 182.153 12.6609   2 
   5  -6   2 177.313 16.9837   2 
   5  -6   2 188.409 12.2663   2 
  -6   6  -2 5.64607 4.07745   2 
  -6   6  -2 16.0070 4.30784   2 
   6  -6   2 12.1733 3.89702   2 
   6  -6   2 14.4014 9.53350   2 
  -7   6  -2 39.2074 4.87180   2 
  -7   6  -2 41.3553 6.14780   2 
   7  -6   2 34.4243 11.5550   2 
   7  -6   2 35.1135 8.33114   2 
  -8   6  -2 1.89381 4.85546   2 
  -8   6  -2 8.45173 6.53767   2 
   8  -6   2 17.6169 13.6823   2 
   8  -6   2 3.77952 6.16137   2 
   6   5  -2 69.5647 10.2304   2 
   6   5  -2 52.2220 16.4602   2 
   6   5  -2 71.4711 10.6399   1 
  -6  -5   2 65.3597 7.98279   2 
  -6  -5   2 64.6206 9.01754   1 
  -6  -5   2 57.8998 7.85925   2 
   5   5  -2 54.6533 12.3651   2 
   5   5  -2 73.4255 10.4142   1 
   5   5  -2 75.9014 9.59036   2 
  -5  -5   2 68.2242 9.51976   1 
  -5  -5   2 61.2703 7.39064   2 
   4   5  -2 11.7674 4.80872   1 
   4   5  -2 5.23525 5.03394   2 
   4   5  -2 -14.183 7.46089   2 
  -4  -5   2 8.78995 5.84255   2 
  -4  -5   2 1.06760 4.03124   2 
  -4  -5   2 1.16829 3.93010   1 
   3   5  -2 1390.13 81.0014   2 
   3   5  -2 1419.16 79.5761   2 
  -3  -5   2 1384.31 79.4732   2 
  -3  -5   2 1320.17 80.0117   2 
   2   5  -2 -6.5727 3.15255   1 
   2   5  -2 2.94176 2.98839   2 
   2   5  -2 -7.5673 5.43666   2 
  -2  -5   2 -4.4797 2.61363   1 
  -2  -5   2 3.16694 4.52614   2 
  -2  -5   2 0.79236 2.45989   2 
   1   5  -2 482.064 27.5485   2 
   1   5  -2 436.965 25.5728   1 
   1   5  -2 414.990 25.9396   2 
  -1  -5   2 405.835 25.8605   2 
  -1  -5   2 426.568 25.5554   1 
  -1  -5   2 441.017 27.1922   2 
   0   5  -2 659.229 36.9568   1 
   0   5  -2 617.810 37.4590   2 
   0   5  -2 553.566 38.2734   2 
   0  -5   2 616.163 37.3149   2 
   0  -5   2 701.068 37.1097   1 
   0  -5   2 676.760 38.7118   2 
  -1   5  -2 361.898 21.4824   2 
  -1   5  -2 368.139 20.8097   1 
  -1   5  -2 331.496 22.3544   2 
   1  -5   2 363.445 20.9464   1 
   1  -5   2 330.925 21.2276   2 
   1  -5   2 369.664 22.9142   2 
  -2   5  -2 37.4088 5.00229   2 
  -2   5  -2 42.8425 5.36556   2 
  -2   5  -2 46.2456 3.99368   1 
   2  -5   2 35.1462 4.47962   2 
   2  -5   2 36.9474 3.81364   1 
   2  -5   2 42.9415 6.32884   2 
  -3   5  -2 361.692 20.9879   2 
  -3   5  -2 346.510 19.9661   1 
  -3   5  -2 371.511 21.3484   2 
   3  -5   2 337.946 20.7423   2 
   3  -5   2 310.068 22.0787   2 
   3  -5   2 335.526 20.0024   1 
  -4   5  -2 3.79271 2.55901   2 
  -4   5  -2 -5.1591 2.91474   2 
   4  -5   2 1.25305 5.79885   2 
   4  -5   2 1.36520 2.44290   2 
  -5   5  -2 56.7320 6.09502   2 
   5  -5   2 48.6961 4.95803   2 
   5  -5   2 64.0928 7.85164   2 
  -6   5  -2 183.607 12.5959   2 
  -6   5  -2 196.384 13.0254   2 
   6  -5   2 200.953 12.7300   2 
   6  -5   2 186.219 15.3563   2 
  -7   5  -2 265.318 16.2092   2 
  -7   5  -2 228.002 15.1825   2 
   7  -5   2 244.635 15.6811   2 
   7  -5   2 241.595 19.0806   2 
  -8   5  -2 13.1094 3.73589   2 
  -8   5  -2 8.65086 5.54347   2 
   8  -5   2 -0.8596 10.9280   2 
   8  -5   2 10.7154 5.92305   2 
   6   4  -2 28.6139 11.7655   2 
   6   4  -2 12.8675 6.21272   2 
   6   4  -2 4.45553 6.86346   1 
  -6  -4   2 10.7534 4.68847   2 
  -6  -4   2 18.1191 6.24537   1 
  -6  -4   2 15.9450 5.24896   2 
   5   4  -2 -7.0887 7.36871   2 
   5   4  -2 3.54444 4.79590   1 
  -5  -4   2 5.80184 4.17213   1 
  -5  -4   2 -1.9102 3.45472   2 
   4   4  -2 -0.2978 5.79389   2 
   4   4  -2 11.2807 3.90539   1 
   4   4  -2 9.77867 4.02126   2 
  -4  -4   2 9.35105 4.12217   2 
  -4  -4   2 8.18510 3.08374   2 
  -4  -4   2 10.5588 3.24851   1 
   3   4  -2 179.492 14.5814   2 
   3   4  -2 237.395 13.8694   2 
   3   4  -2 188.916 13.3271   1 
  -3  -4   2 207.959 13.2379   1 
  -3  -4   2 208.479 14.1922   2 
  -3  -4   2 226.356 13.4337   2 
   2   4  -2 187.894 13.2616   2 
   2   4  -2 191.710 12.1391   2 
   2   4  -2 177.373 11.9263   1 
  -2  -4   2 187.472 11.8554   1 
  -2  -4   2 203.733 12.1986   2 
  -2  -4   2 188.974 13.0439   2 
   1   4  -2 -7.5185 3.43063   2 
   1   4  -2 1.97635 1.95494   2 
   1   4  -2 -4.1540 1.71941   1 
  -1  -4   2 2.21843 1.61408   1 
  -1  -4   2 0.57299 3.21457   2 
  -1  -4   2 -2.1080 1.70558   2 
   0   4  -2 794.099 47.3527   2 
   0   4  -2 770.723 48.0322   2 
   0   4  -2 834.065 46.9874   1 
   0  -4   2 874.845 48.2813   2 
   0  -4   2 778.452 47.3328   2 
   0  -4   2 870.627 47.0722   1 
  -1   4  -2 489.362 29.5350   2 
  -1   4  -2 526.764 28.3174   1 
  -1   4  -2 498.512 28.7910   2 
   1  -4   2 386.830 29.2775   2 
   1  -4   2 505.106 28.8075   2 
   1  -4   2 528.406 28.3758   1 
  -2   4  -2 35.9475 4.72830   2 
  -2   4  -2 28.5164 3.77931   2 
  -2   4  -2 39.8655 3.15559   1 
   2  -4   2 34.9524 4.62841   2 
   2  -4   2 31.4830 2.88305   1 
   2  -4   2 32.1997 3.60471   2 
  -3   4  -2 347.987 21.9971   2 
  -3   4  -2 395.435 21.2624   1 
  -3   4  -2 373.358 21.8817   2 
   3  -4   2 352.971 22.7827   2 
   3  -4   2 375.973 21.2271   1 
   3  -4   2 366.991 21.8170   2 
  -4   4  -2 45.6452 4.42835   2 
  -4   4  -2 40.0194 4.24277   2 
   4  -4   2 38.3461 5.05396   2 
   4  -4   2 31.6528 3.65367   2 
  -5   4  -2 0.26315 2.10208   2 
  -5   4  -2 1.59703 2.47169   2 
   5  -4   2 0.66067 4.06597   2 
   5  -4   2 2.14848 2.16135   2 
  -6   4  -2 61.0253 5.89721   2 
  -6   4  -2 57.2452 4.93474   2 
   6  -4   2 59.0467 5.08861   2 
   6  -4   2 51.0690 8.19715   2 
  -7   4  -2 0.22669 3.70631   2 
  -7   4  -2 -1.9729 2.46608   2 
   7  -4   2 -9.4786 6.74849   2 
   7  -4   2 -1.2335 3.55273   2 
  -8   4  -2 2.18237 3.25765   2 
  -8   4  -2 9.56686 4.71982   2 
   8  -4   2 -3.9759 8.87701   2 
   8  -4   2 8.45857 5.63551   2 
   7   3  -2 14.8794 10.0331   2 
   7   3  -2 7.25223 6.38603   2 
   7   3  -2 19.9703 7.88136   1 
  -7  -3   2 17.2849 4.68283   2 
  -7  -3   2 13.7065 5.52317   2 
  -7  -3   2 4.41989 5.47763   1 
   6   3  -2 16.8464 5.59497   1 
   6   3  -2 15.6842 4.65844   2 
   6   3  -2 -1.2263 7.68739   2 
  -6  -3   2 5.99476 3.62320   2 
  -6  -3   2 11.4524 4.44481   1 
  -6  -3   2 9.42045 4.07453   2 
   5   3  -2 -4.7603 3.33970   2 
   5   3  -2 8.39598 5.86446   2 
   5   3  -2 -0.9265 3.81551   1 
  -5  -3   2 -4.0702 3.04326   1 
   4   3  -2 217.846 13.5677   2 
   4   3  -2 195.777 14.8886   2 
   4   3  -2 228.579 13.9060   1 
  -4  -3   2 209.648 13.4624   1 
  -4  -3   2 217.544 13.5161   2 
  -4  -3   2 207.558 13.7239   2 
   3   3  -2 540.499 33.1765   2 
   3   3  -2 554.021 32.2616   1 
   3   3  -2 567.134 32.3945   2 
  -3  -3   2 564.267 32.3316   2 
  -3  -3   2 536.449 32.6452   2 
  -3  -3   2 558.156 32.1934   1 
   2   3  -2 25.2294 4.23587   2 
   2   3  -2 24.9331 3.20743   2 
   2   3  -2 23.7171 2.80364   1 
  -2  -3   2 23.0725 3.61972   2 
  -2  -3   2 26.7918 2.95280   2 
  -2  -3   2 20.2281 2.91122   1 
   1   3  -2 15.2265 2.67896   2 
   1   3  -2 8.54620 1.95543   1 
   1   3  -2 12.9756 1.99157   2 
  -1  -3   2 9.58785 1.81274   1 
  -1  -3   2 6.71682 2.62996   2 
  -1  -3   2 11.1294 1.90348   2 
   0   3  -2 3973.21 240.586   2 
   0   3  -2 4367.04 241.180   2 
   0   3  -2 4589.46 240.408   1 
   0  -3   2 4280.21 241.145   2 
   0  -3   2 4021.89 240.622   2 
   0  -3   2 4258.75 240.390   1 
  -1   3  -2 1527.26 77.2503   1 
  -1   3  -2 1353.28 77.9507   2 
   1  -3   2 1238.13 77.9194   2 
   1  -3   2 1265.51 77.5069   2 
   1  -3   2 1416.43 77.2349   1 
  -2   3  -2 864.701 49.7450   2 
  -2   3  -2 838.238 49.9433   2 
  -2   3  -2 971.247 49.4275   1 
   2  -3   2 897.318 49.3699   1 
   2  -3   2 767.234 50.1156   2 
  -3   3  -2 508.280 28.9989   2 
  -3   3  -2 520.677 29.0378   2 
   3  -3   2 490.392 28.9134   2 
   3  -3   2 484.879 29.4177   2 
  -4   3  -2 216.370 12.4044   2 
  -4   3  -2 198.581 12.1450   2 
   4  -3   2 200.518 13.0133   2 
   4  -3   2 201.354 12.2270   2 
  -5   3  -2 19.9888 2.60315   2 
  -5   3  -2 20.4948 2.80573   2 
   5  -3   2 21.3739 3.92883   2 
   5  -3   2 21.6044 2.77338   2 
  -6   3  -2 0.61700 1.83006   2 
  -6   3  -2 -0.8495 2.68690   2 
   6  -3   2 3.57056 2.69889   2 
  -7   3  -2 7.87578 2.37016   2 
  -7   3  -2 4.04245 3.32879   2 
   7  -3   2 9.19517 4.08480   2 
   7  -3   2 7.92839 5.82527   2 
  -8   3  -2 4.50821 3.40996   2 
  -8   3  -2 12.8917 4.49040   2 
   8  -3   2 3.62392 6.72609   2 
   8  -3   2 6.56429 7.89346   2 
   8   2  -2 -9.9758 7.19324   2 
   8   2  -2 17.9983 12.8477   2 
   8   2  -2 -4.9480 7.87542   1 
  -8  -2   2 5.06606 4.96469   2 
  -8  -2   2 1.17020 5.64366   2 
  -8  -2   2 4.13629 6.53192   1 
   7   2  -2 69.3347 8.89044   2 
   7   2  -2 71.5899 10.7886   2 
   7   2  -2 79.6147 10.1370   1 
  -7  -2   2 78.2106 7.20532   2 
  -7  -2   2 81.0339 7.89255   2 
  -7  -2   2 96.9580 9.61670   1 
   6   2  -2 20.3227 4.96789   1 
   6   2  -2 16.1172 4.58484   2 
   6   2  -2 26.4407 6.98911   2 
  -6  -2   2 25.5925 4.25043   1 
  -6  -2   2 22.8139 3.71460   2 
   5   2  -2 2.39395 2.83194   2 
   5   2  -2 4.96453 4.69042   2 
   5   2  -2 3.87794 3.49576   1 
  -5  -2   2 2.37620 2.60454   2 
  -5  -2   2 -0.3308 2.32498   1 
   4   2  -2 93.3026 7.22507   1 
   4   2  -2 101.985 8.20144   2 
   4   2  -2 94.5074 6.75663   2 
  -4  -2   2 95.2002 6.98826   1 
  -4  -2   2 105.493 7.18632   2 
  -4  -2   2 97.9535 6.77308   2 
   3   2  -2 1366.37 76.5781   2 
   3   2  -2 1219.91 76.9661   2 
   3   2  -2 1342.00 76.5461   1 
  -3  -2   2 1340.55 76.7431   2 
  -3  -2   2 1430.05 76.6111   2 
  -3  -2   2 1354.49 76.4882   1 
   2   2  -2 11.8836 1.97951   2 
   2   2  -2 14.8748 2.70496   2 
   2   2  -2 10.2240 1.88872   1 
  -2  -2   2 16.1772 2.50055   2 
  -2  -2   2 10.4163 1.58879   1 
  -2  -2   2 12.7828 1.68976   2 
   1   2  -2 272.316 17.3631   2 
   1   2  -2 306.526 16.8851   1 
   1   2  -2 285.816 16.9005   2 
  -1  -2   2 297.115 16.8062   1 
  -1  -2   2 281.515 16.9058   2 
  -1  -2   2 291.387 17.3170   2 
   0   2  -2 50.5471 4.21417   2 
   0   2  -2 51.5020 4.63915   2 
   0   2  -2 67.1615 4.04198   1 
   0  -2   2 42.8856 4.60017   2 
   0  -2   2 60.6683 4.06282   2 
   0  -2   2 63.6475 3.93562   1 
  -1   2  -2 648.878 35.9513   2 
  -1   2  -2 614.512 35.6678   2 
   1  -2   2 599.359 35.9811   2 
   1  -2   2 636.782 35.7557   2 
  -2   2  -2 107.996 6.80494   2 
  -2   2  -2 117.734 6.83797   2 
   2  -2   2 100.470 6.80586   2 
   2  -2   2 111.346 7.28619   2 
   2  -2   2 123.533 6.69030   1 
  -3   2  -2 258.753 14.1043   2 
  -3   2  -2 252.130 13.9650   2 
   3  -2   2 237.928 14.0408   2 
   3  -2   2 226.761 13.9484   1 
   3  -2   2 238.998 14.3744   2 
   3  -2   2 232.800 13.9905   1 
  -4   2  -2 0.09521 0.92928   2 
  -4   2  -2 -0.3734 1.39258   2 
   4  -2   2 -0.9857 1.30271   2 
   4  -2   2 1.40328 2.03065   2 
   4  -2   2 1.49996 1.49010   1 
  -5   2  -2 250.094 14.3899   2 
  -5   2  -2 238.882 14.2057   2 
   5  -2   2 253.339 14.3893   1 
   5  -2   2 225.630 14.4195   2 
   5  -2   2 248.350 14.9701   2 
  -6   2  -2 408.753 22.2017   2 
  -6   2  -2 371.562 22.0015   2 
   6  -2   2 385.622 22.5363   2 
   6  -2   2 388.483 22.1765   1 
   6  -2   2 331.974 23.7627   2 
  -7   2  -2 378.862 21.0391   2 
  -7   2  -2 352.988 20.9121   2 
   7  -2   2 333.386 22.2407   2 
   7  -2   2 347.819 22.1145   2 
   7  -2   2 361.893 21.2567   1 
   8  -2   2 11.6638 8.16303   2 
   8  -2   2 8.88544 5.05779   1 
   8  -2   2 8.74191 7.25758   2 
   8   1  -2 10.4272 7.54351   2 
   8   1  -2 9.15179 13.0475   1 
   8   1  -2 6.67565 10.2639   2 
  -8  -1   2 13.2231 7.59578   1 
  -8  -1   2 1.39560 5.23367   2 
  -8  -1   2 15.2702 4.09208   2 
   7   1  -2 11.6143 5.04811   1 
   7   1  -2 23.5247 6.70827   2 
   7   1  -2 11.1046 4.74452   2 
  -7  -1   2 10.6184 4.09261   1 
  -7  -1   2 16.8899 3.34402   2 
  -7  -1   2 13.6343 3.52430   2 
   6   1  -2 20.4057 3.90835   2 
   6   1  -2 22.2676 5.00189   2 
   6   1  -2 19.0093 3.90341   1 
  -6  -1   2 14.7273 4.54175   2 
  -6  -1   2 19.0389 3.30527   1 
   5   1  -2 10.5134 2.79076   2 
   5   1  -2 0.61503 2.86565   1 
   5   1  -2 7.51529 3.67749   2 
  -5  -1   2 7.46318 1.97109   2 
  -5  -1   2 6.56630 2.62681   2 
  -5  -1   2 8.18454 2.47859   1 
   4   1  -2 3.09936 2.37039   2 
   4   1  -2 -2.5507 1.92944   1 
   4   1  -2 -1.3272 1.82111   2 
  -4  -1   2 1.81514 1.62519   2 
  -4  -1   2 -3.5640 1.61570   1 
  -4  -1   2 0.42320 1.51383   2 
   3   1  -2 2082.42 121.555   2 
   3   1  -2 2128.15 121.284   2 
   3   1  -2 2088.98 121.241   1 
  -3  -1   2 2369.57 121.328   2 
  -3  -1   2 1979.51 121.309   2 
  -3  -1   2 2176.55 121.187   1 
   2   1  -2 1151.96 63.2206   2 
   2   1  -2 1082.39 62.9404   2 
   2   1  -2 1089.26 62.9282   1 
  -2  -1   2 1108.64 62.9452   2 
  -2  -1   2 1103.82 62.8890   1 
  -2  -1   2 1105.59 63.0647   2 
   1   1  -2 40.0517 3.01963   2 
   1   1  -2 47.6407 3.70211   2 
   1   1  -2 45.5328 3.26618   1 
  -1  -1   2 44.0390 3.01002   2 
  -1  -1   2 47.4683 3.53793   2 
  -1  -1   2 43.8871 3.22548   1 
   0   1  -2 1912.60 102.105   1 
   0   1  -2 1736.63 101.971   2 
   0   1  -2 1825.69 102.210   2 
   0  -1   2 1805.27 102.183   2 
   0  -1   2 1901.20 102.086   1 
   0  -1   2 1633.23 101.982   2 
   1  -1   2 406.646 21.9371   1 
   1  -1   2 354.694 21.7818   2 
   1  -1   2 388.070 21.8641   2 
   2  -1   2 55.4627 3.56004   2 
   2  -1   2 57.5667 4.06542   1 
   2  -1   2 64.1985 3.66993   2 
   3  -1   2 349.887 19.5777   2 
   3  -1   2 323.109 19.4592   2 
   3  -1   2 347.507 19.7890   1 
  -4   1  -2 204.375 11.4047   2 
  -4   1  -2 196.490 11.3772   2 
   4  -1   2 193.211 11.5929   2 
   4  -1   2 197.024 11.8907   1 
   4  -1   2 183.046 11.6105   2 
  -5   1  -2 43.1204 3.34770   2 
  -5   1  -2 41.0049 3.42073   2 
   5  -1   2 41.6373 4.57239   1 
   5  -1   2 39.5216 4.30503   2 
   5  -1   2 39.1129 3.96982   2 
  -6   1  -2 117.041 7.24010   2 
  -6   1  -2 113.937 7.24899   2 
   6  -1   2 101.838 8.84036   2 
   6  -1   2 113.040 8.65511   1 
   6  -1   2 98.5527 8.09299   2 
   7  -1   2 55.4598 7.17144   2 
   7  -1   2 51.8910 7.44604   2 
   7  -1   2 52.4216 5.91679   1 
   8  -1   2 -1.4803 6.23178   1 
   8  -1   2 6.72710 7.09200   2 
   8  -1   2 8.48930 10.1664   2 
   8   0  -2 4.23250 6.56281   2 
   8   0  -2 6.12541 7.88110   2 
   8   0  -2 -6.5116 5.51935   1 
  -8   0   2 0.61232 3.92660   2 
  -8   0   2 1.99754 4.30443   2 
  -8   0   2 -9.1983 4.79643   1 
   7   0  -2 69.9536 7.70267   1 
   7   0  -2 57.5668 7.20849   2 
  -7   0   2 57.2177 5.93332   2 
  -7   0   2 63.7452 5.51454   2 
  -7   0   2 66.8350 6.64348   1 
   6   0  -2 102.275 7.72587   2 
   6   0  -2 92.3832 7.79444   1 
   6   0  -2 105.818 8.32361   2 
  -6   0   2 103.709 7.15658   2 
  -6   0   2 101.139 7.29113   1 
   5   0  -2 316.374 18.3421   2 
   5   0  -2 276.395 18.1459   1 
   5   0  -2 324.136 18.5207   2 
  -5   0   2 323.110 18.0922   2 
  -5   0   2 293.820 17.9406   2 
  -5   0   2 297.488 17.8914   1 
   4   0  -2 171.779 10.5769   2 
   4   0  -2 159.752 10.5469   2 
   4   0  -2 185.966 10.5844   1 
  -4   0   2 172.869 10.3626   2 
  -4   0   2 186.310 10.4297   2 
  -4   0   2 154.145 10.1967   1 
   3   0  -2 178.686 10.5307   2 
   3   0  -2 165.573 10.4851   2 
   3   0  -2 179.736 10.4479   1 
  -3   0   2 180.968 10.4068   2 
  -3   0   2 185.996 10.3543   1 
  -3   0   2 156.441 10.3272   2 
   2   0  -2 2479.31 139.510   2 
   2   0  -2 2504.05 139.441   1 
   2   0  -2 2428.15 139.518   2 
  -2   0   2 2487.76 139.478   2 
  -2   0   2 2233.27 139.433   2 
  -2   0   2 2646.07 139.446   1 
   1   0  -2 280.768 16.4786   1 
   1   0  -2 263.821 16.3859   2 
  -1   0   2 321.678 16.4402   2 
  -1   0   2 295.158 16.5135   1 
  -1   0   2 267.145 16.3564   2 
   0   0  -2 8977.54 493.079   2 
   0   0  -2 8276.95 492.940   2 
   0   0   2 9164.22 493.234   2 
   0   0   2 8472.33 493.138   2 
   1   0   2 405.870 23.4053   1 
   2   0   2 2885.83 158.802   2 
   2   0   2 2729.01 159.119   1 
  -3   0  -2 -1.0378 1.70829   1 
   3   0   2 1.48948 0.98612   2 
   3   0   2 2.51803 1.56520   2 
   3   0   2 0.97077 1.90722   1 
  -4   0  -2 79.4646 6.12370   1 
  -4   0  -2 79.7992 4.98473   2 
   4   0   2 79.7348 6.08001   2 
   4   0   2 79.3112 5.33116   2 
   4   0   2 89.4536 6.38516   1 
  -5   0  -2 7.39606 2.88658   1 
   5   0   2 8.76338 2.36176   2 
   5   0   2 12.4347 3.47131   1 
   5   0   2 7.26880 3.81164   2 
   6   0   2 105.799 8.01881   2 
   6   0   2 100.719 10.4196   2 
   6   0   2 112.807 9.08883   1 
   7   0   2 42.7194 9.21143   2 
   7   0   2 49.4052 6.60245   1 
   7   0   2 60.5643 7.23824   2 
   9  -1  -2 -4.4525 9.66628   2 
   9  -1  -2 14.3430 9.69421   2 
   9  -1  -2 4.68349 6.16224   1 
  -9   1   2 -1.9591 4.76916   2 
  -9   1   2 2.06704 5.25054   2 
  -9   1   2 -2.0566 5.45023   1 
   8  -1  -2 57.2357 7.48866   2 
   8  -1  -2 51.8215 6.08872   1 
   8  -1  -2 53.9676 7.33499   2 
  -8   1   2 60.5902 6.94300   1 
  -8   1   2 56.6198 6.42152   2 
  -8   1   2 58.4497 6.14958   2 
   7  -1  -2 25.2424 4.64118   2 
   7  -1  -2 24.1550 4.18195   1 
   7  -1  -2 39.8072 5.29868   2 
  -7   1   2 24.8265 3.52003   2 
  -7   1   2 37.1754 4.96640   1 
   6  -1  -2 675.298 39.2235   2 
   6  -1  -2 591.797 38.5791   1 
   6  -1  -2 693.711 39.0791   2 
  -6   1   2 633.356 38.8101   2 
  -6   1   2 716.868 38.8210   2 
  -6   1   2 709.716 38.5184   1 
   5  -1  -2 -0.5897 2.36979   2 
   5  -1  -2 1.06303 1.74881   2 
   5  -1  -2 1.01105 1.86606   1 
  -5   1   2 5.41954 1.77963   2 
  -5   1   2 4.56479 1.93620   2 
  -5   1   2 0.89835 1.36502   1 
   4  -1  -2 175.909 10.6222   1 
   4  -1  -2 180.914 11.1484   2 
   4  -1  -2 185.121 10.7586   2 
  -4   1   2 160.224 10.4319   1 
  -4   1   2 183.940 10.6844   2 
  -4   1   2 179.627 10.7687   2 
   3  -1  -2 2272.12 131.637   2 
   3  -1  -2 2127.00 131.418   2 
   3  -1  -2 2392.62 131.363   1 
  -3   1   2 2466.96 131.343   1 
  -3   1   2 2391.34 131.552   2 
  -3   1   2 2266.94 131.429   2 
   2  -1  -2 213.176 12.7930   2 
   2  -1  -2 212.841 12.4413   2 
  -2   1   2 215.369 12.5147   1 
  -2   1   2 234.200 12.7036   2 
  -2   1   2 191.796 12.4025   2 
   1  -1  -2 3403.93 206.163   2 
  -1   1   2 4006.10 206.446   2 
  -1   1   2 3530.35 206.196   2 
   0  -1  -2 1.44464 0.74233   2 
   0  -1  -2 0.87492 1.64674   2 
   0   1   2 2.41015 1.35992   1 
   0   1   2 1.14333 0.91789   2 
   0   1   2 0.96986 1.70373   2 
  -1  -1  -2 525.167 30.1561   1 
  -1  -1  -2 521.229 29.6976   2 
  -1  -1  -2 543.864 29.8564   2 
   1   1   2 508.178 30.1143   1 
   1   1   2 514.174 29.8496   2 
   1   1   2 513.070 30.1706   2 
  -2  -1  -2 10.8551 1.27168   2 
  -2  -1  -2 11.4346 1.30603   2 
  -2  -1  -2 7.55154 2.15733   1 
   2   1   2 11.0805 2.35788   1 
   2   1   2 6.50622 2.42976   2 
   2   1   2 8.84073 1.49842   2 
  -3  -1  -2 42.2023 2.95941   2 
  -3  -1  -2 42.8263 3.14524   2 
  -3  -1  -2 41.2072 4.33085   1 
   3   1   2 40.9377 4.80846   1 
   3   1   2 46.2051 3.45339   2 
   3   1   2 35.3006 4.66253   2 
  -4  -1  -2 317.440 18.5181   2 
  -4  -1  -2 342.859 18.7418   2 
  -4  -1  -2 322.103 19.5690   1 
   4   1   2 313.483 19.5555   1 
   4   1   2 310.520 18.8956   2 
  -5  -1  -2 137.668 10.8617   1 
  -5  -1  -2 147.393 8.84171   2 
  -5  -1  -2 148.754 9.15803   2 
   5   1   2 135.644 9.48195   2 
   5   1   2 162.381 11.1334   1 
  -6  -1  -2 139.998 8.57630   2 
  -6  -1  -2 122.433 11.4148   1 
  -6  -1  -2 144.933 8.93806   2 
   6   1   2 146.029 11.5804   1 
   6   1   2 108.277 14.1340   2 
   6   1   2 137.775 9.98804   2 
   7   1   2 23.6386 11.7725   2 
   7   1   2 18.5744 6.95320   1 
   7   1   2 21.4331 5.57878   2 
   9  -2  -2 7.23342 7.70042   2 
   9  -2  -2 13.4248 9.26171   2 
  -9   2   2 6.16677 5.19757   2 
  -9   2   2 6.40725 4.92917   2 
   8  -2  -2 23.0993 7.31541   2 
   8  -2  -2 12.7180 5.29458   2 
  -8   2   2 11.6424 3.77381   2 
  -8   2   2 13.2720 3.86937   2 
  -8   2   2 12.8122 3.26056   1 
   7  -2  -2 791.844 47.5041   2 
   7  -2  -2 835.880 46.9947   2 
   7  -2  -2 737.554 46.0719   1 
  -7   2   2 857.183 46.0821   1 
  -7   2   2 805.516 46.6329   2 
   6  -2  -2 -8.5990 4.42472   2 
   6  -2  -2 3.69624 2.67620   2 
   6  -2  -2 11.2388 2.14321   1 
  -6   2   2 8.02851 2.44980   2 
  -6   2   2 10.9061 1.76359   1 
  -6   2   2 5.89754 2.67804   2 
   5  -2  -2 91.4151 7.49922   2 
   5  -2  -2 94.8999 6.31881   1 
   5  -2  -2 103.775 6.64741   2 
  -5   2   2 94.4974 6.09706   1 
  -5   2   2 109.230 6.88710   2 
  -5   2   2 99.8773 6.72388   2 
   4  -2  -2 217.477 13.1804   2 
   4  -2  -2 213.184 12.4338   2 
  -4   2   2 196.701 12.1568   1 
  -4   2   2 208.153 12.6350   2 
  -4   2   2 204.577 12.4411   2 
   3  -2  -2 799.904 49.9487   2 
   3  -2  -2 895.927 49.5440   2 
  -3   2   2 799.242 49.5190   2 
  -3   2   2 875.505 49.4213   1 
  -3   2   2 967.821 49.8635   2 
   2  -2  -2 2170.27 127.724   2 
   2  -2  -2 2156.65 128.193   2 
  -2   2   2 2434.35 128.139   2 
   1  -2  -2 326.856 19.4802   2 
  -1   2   2 359.622 20.0457   2 
  -1   2   2 336.756 19.6005   2 
  -1   2   2 326.465 19.6441   1 
   0  -2  -2 93.3054 6.47566   2 
   0  -2  -2 89.9581 5.55014   2 
   0  -2  -2 86.1634 5.96878   1 
   0   2   2 81.8684 5.98066   1 
   0   2   2 87.3455 5.69545   2 
   0   2   2 64.0083 8.73250   2 
  -1  -2  -2 28.3135 2.53813   2 
  -1  -2  -2 24.4529 3.28917   1 
  -1  -2  -2 31.7775 3.70628   2 
   1   2   2 26.2436 3.75958   2 
   1   2   2 32.7922 3.07566   2 
   1   2   2 26.4966 3.09420   1 
  -2  -2  -2 299.526 17.3594   2 
  -2  -2  -2 299.103 17.9494   1 
  -2  -2  -2 304.014 17.5385   2 
   2   2   2 278.870 17.9106   1 
   2   2   2 302.104 17.5744   2 
   2   2   2 292.669 18.4326   2 
  -3  -2  -2 2.09354 3.05440   1 
  -3  -2  -2 1.89066 1.71988   2 
  -3  -2  -2 -0.6592 1.62700   2 
   3   2   2 1.31314 2.82573   1 
   3   2   2 1.91661 2.20302   2 
   3   2   2 -1.3701 3.97424   2 
  -4  -2  -2 297.218 18.4211   1 
  -4  -2  -2 281.153 16.8773   2 
   4   2   2 313.835 18.5320   1 
   4   2   2 261.199 19.1514   2 
   4   2   2 282.680 17.3295   2 
  -5  -2  -2 56.2782 4.54100   2 
  -5  -2  -2 64.9517 5.25988   2 
   5   2   2 48.1375 8.87864   2 
   5   2   2 54.6766 5.82464   2 
  -6  -2  -2 22.7106 2.91514   2 
  -6  -2  -2 14.3643 3.52261   2 
  -6  -2  -2 15.2301 6.43649   1 
   6   2   2 18.3602 4.72609   2 
   6   2   2 34.3418 7.24544   1 
   6   2   2 9.81567 10.2899   2 
   9  -3  -2 28.4787 10.1589   2 
   9  -3  -2 26.5252 8.00066   2 
  -9   3   2 17.0119 5.68399   2 
  -9   3   2 17.8245 5.47442   2 
   8  -3  -2 13.6467 5.70220   2 
   8  -3  -2 12.6405 8.01526   2 
  -8   3   2 15.5069 4.14300   2 
   7  -3  -2 3.96070 3.52126   2 
   7  -3  -2 -6.1147 6.39966   2 
  -7   3   2 1.96729 3.17062   2 
   6  -3  -2 11.5168 2.65937   2 
   6  -3  -2 13.8246 5.00866   2 
  -6   3   2 11.3445 2.96793   2 
  -6   3   2 12.7531 2.97055   2 
   5  -3  -2 458.763 25.9047   2 
   5  -3  -2 421.917 26.8023   2 
  -5   3   2 423.156 25.4461   1 
  -5   3   2 471.663 26.2456   2 
   4  -3  -2 261.042 15.5369   2 
   4  -3  -2 240.292 16.5305   2 
  -4   3   2 268.623 15.7154   2 
  -4   3   2 255.744 15.3214   1 
  -4   3   2 254.814 15.3258   1 
  -4   3   2 285.117 16.0507   2 
   3  -3  -2 97.2097 7.89411   2 
   3  -3  -2 101.534 6.53945   2 
  -3   3   2 110.276 7.36626   2 
  -3   3   2 96.1583 6.47800   1 
  -3   3   2 92.7593 6.64431   2 
   2  -3  -2 35.7133 3.25389   2 
   2  -3  -2 37.1444 4.85517   2 
  -2   3   2 40.1000 3.68335   2 
  -2   3   2 36.7667 4.72208   2 
  -2   3   2 35.0331 3.57607   1 
   1  -3  -2 2269.96 128.603   2 
   1  -3  -2 2465.29 129.489   2 
   1  -3  -2 2243.81 128.757   1 
  -1   3   2 2178.30 128.698   2 
  -1   3   2 2127.21 128.647   1 
  -1   3   2 2312.67 129.228   2 
   0  -3  -2 28.3914 2.94557   2 
   0  -3  -2 33.6446 3.67938   1 
   0   3   2 33.5569 4.30306   2 
   0   3   2 26.1755 3.44733   2 
   0   3   2 27.3275 3.84768   1 
  -1  -3  -2 993.651 52.3179   2 
  -1  -3  -2 885.286 52.1076   1 
  -1  -3  -2 888.608 51.6595   2 
   1   3   2 917.921 52.7856   2 
   1   3   2 817.915 51.9174   1 
   1   3   2 913.857 51.9291   2 
  -2  -3  -2 168.734 11.0550   2 
  -2  -3  -2 163.665 11.2647   1 
  -2  -3  -2 166.475 10.3831   2 
   2   3   2 158.487 11.2088   1 
   2   3   2 165.326 10.7492   2 
   2   3   2 176.755 12.8866   2 
  -3  -3  -2 86.0666 8.12890   1 
  -3  -3  -2 88.9039 6.65841   2 
  -3  -3  -2 92.0703 6.43263   2 
   3   3   2 86.5019 6.96804   2 
   3   3   2 81.3666 10.1136   2 
   3   3   2 76.8638 8.09831   1 
  -4  -3  -2 15.6956 2.85193   2 
  -4  -3  -2 11.6241 4.84161   1 
  -4  -3  -2 14.9018 3.16448   2 
   4   3   2 23.8892 7.86816   2 
   4   3   2 18.0447 5.17188   1 
   4   3   2 20.3965 3.68819   2 
  -5  -3  -2 3.45348 3.19230   2 
  -5  -3  -2 0.90637 3.20474   2 
  -5  -3  -2 6.46211 5.62726   1 
   5   3   2 9.56386 6.26299   1 
   5   3   2 -4.5900 10.0376   2 
   5   3   2 -3.6022 3.97274   2 
  -6  -3  -2 12.4586 4.11686   2 
  -6  -3  -2 -12.342 7.80893   1 
   6   3   2 1.54499 5.24286   2 
   6   3   2 18.6925 14.3831   2 
   6   3   2 21.3761 8.80539   1 
   9  -4  -2 11.8056 11.7957   2 
   9  -4  -2 27.7614 7.60983   2 
  -9   4   2 27.8974 6.13046   2 
   8  -4  -2 4.77318 5.50310   2 
   8  -4  -2 -4.6353 8.80863   2 
  -8   4   2 0.40023 5.25206   2 
  -8   4   2 -2.5013 4.46616   2 
   7  -4  -2 8.18424 3.71525   2 
   7  -4  -2 15.7673 7.76872   2 
  -7   4   2 16.1051 4.59970   2 
  -7   4   2 11.5843 3.92141   2 
   6  -4  -2 186.921 12.5605   2 
   6  -4  -2 214.054 15.3548   2 
  -6   4   2 201.703 13.3101   2 
  -6   4   2 201.538 13.1480   2 
   5  -4  -2 483.851 30.7470   2 
   5  -4  -2 542.420 29.4297   2 
  -5   4   2 461.646 28.8800   1 
  -5   4   2 492.220 28.8288   1 
  -5   4   2 485.106 29.5463   2 
  -5   4   2 549.630 30.0320   2 
   4  -4  -2 44.2940 4.03603   2 
   4  -4  -2 51.3853 6.10637   2 
  -4   4   2 37.9670 4.02682   1 
  -4   4   2 46.3481 5.28178   2 
  -4   4   2 40.0441 4.65227   2 
   3  -4  -2 410.876 23.3689   2 
   3  -4  -2 410.548 24.9184   2 
  -3   4   2 399.870 24.0040   2 
  -3   4   2 412.922 23.6311   2 
  -3   4   2 354.889 23.1288   1 
   2  -4  -2 151.220 11.5235   2 
  -2   4   2 148.203 10.3132   2 
  -2   4   2 134.297 9.22843   1 
  -2   4   2 131.654 9.25537   2 
   1  -4  -2 397.975 23.1118   2 
   1  -4  -2 360.001 21.6503   1 
   1  -4  -2 354.683 21.4328   2 
  -1   4   2 383.060 22.5869   2 
  -1   4   2 351.053 21.6747   2 
  -1   4   2 334.694 21.5111   1 
   0  -4  -2 322.320 19.4841   2 
   0  -4  -2 331.306 19.9224   1 
   0   4   2 320.084 19.7876   2 
   0   4   2 363.091 21.1813   2 
   0   4   2 305.166 19.7679   1 
  -1  -4  -2 52.2918 6.24709   1 
  -1  -4  -2 63.8270 6.96901   2 
  -1  -4  -2 57.0963 4.91117   2 
   1   4   2 66.2854 6.45330   1 
   1   4   2 63.9217 5.91664   2 
   1   4   2 50.3687 6.78763   2 
  -2  -4  -2 12.1435 4.00412   1 
  -2  -4  -2 12.5116 4.22098   2 
   2   4   2 15.9760 4.03080   1 
   2   4   2 21.4127 6.56725   2 
   2   4   2 12.1875 3.35708   2 
  -3  -4  -2 300.920 19.2896   2 
  -3  -4  -2 319.771 18.6965   2 
  -3  -4  -2 304.748 19.9631   1 
   3   4   2 316.804 19.2924   2 
   3   4   2 286.581 22.1929   2 
   3   4   2 309.891 19.9231   1 
  -4  -4  -2 -3.5709 5.67997   1 
  -4  -4  -2 3.76567 4.03694   2 
  -4  -4  -2 4.17266 3.17486   2 
   4   4   2 6.23178 4.65582   2 
   4   4   2 -6.0838 5.72660   1 
   4   4   2 -2.6248 9.86153   2 
  -5  -4  -2 -0.9034 4.46715   2 
  -5  -4  -2 1.23022 7.15428   1 
  -5  -4  -2 5.57631 3.99862   2 
   5   4   2 5.29750 5.79385   2 
   5   4   2 -1.6521 14.1301   2 
   5   4   2 4.14911 8.69925   1 
   9  -5  -2 -1.8416 13.8276   2 
   9  -5  -2 -1.0138 7.22434   2 
  -9   5   2 3.41930 6.67723   2 
   8  -5  -2 16.7345 11.1142   2 
   8  -5  -2 6.75912 4.92016   2 
  -8   5   2 -3.5993 6.00914   2 
  -8   5   2 5.08889 5.47246   2 
   7  -5  -2 3.46259 4.06117   2 
   7  -5  -2 12.4835 9.26655   2 
  -7   5   2 2.96511 4.76472   2 
  -7   5   2 6.48697 4.77847   2 
   6  -5  -2 48.1399 5.23489   2 
   6  -5  -2 51.5931 9.51564   2 
  -6   5   2 45.7119 5.66403   2 
  -6   5   2 43.3475 5.93859   2 
   5  -5  -2 198.205 15.6173   2 
   5  -5  -2 196.122 12.1614   2 
  -5   5   2 155.878 11.5505   1 
  -5   5   2 171.782 13.1068   2 
  -5   5   2 196.205 11.6020   1 
  -5   5   2 213.692 12.9168   2 
   4  -5  -2 20.5556 6.70446   2 
   4  -5  -2 31.0378 3.96335   2 
  -4   5   2 35.0521 4.22257   2 
  -4   5   2 28.2702 3.52326   1 
  -4   5   2 33.3688 4.93729   2 
   3  -5  -2 65.7122 9.11278   2 
   3  -5  -2 61.1838 5.47132   2 
  -3   5   2 65.5144 6.52024   2 
  -3   5   2 59.7645 7.38866   2 
  -3   5   2 60.1296 5.64075   1 
   2  -5  -2 10.3137 6.43439   2 
  -2   5   2 7.99590 3.52298   2 
  -2   5   2 8.93548 4.64118   2 
  -2   5   2 10.5400 3.02886   1 
   1  -5  -2 328.396 20.7449   1 
   1  -5  -2 386.073 23.4397   2 
   1  -5  -2 326.716 20.4737   2 
  -1   5   2 369.291 22.2830   2 
  -1   5   2 323.451 20.7371   1 
  -1   5   2 326.173 20.8583   2 
   0  -5  -2 27.6729 4.24298   1 
   0  -5  -2 21.9890 3.63834   2 
   0   5   2 25.8447 4.40209   2 
   0   5   2 23.0178 4.08644   1 
   0   5   2 26.8174 6.05680   2 
  -1  -5  -2 -6.2191 2.51537   2 
  -1  -5  -2 -15.014 5.90181   2 
   1   5   2 3.71778 4.25982   1 
   1   5   2 -7.4797 3.68448   2 
  -2  -5  -2 83.1618 9.23470   2 
  -2  -5  -2 68.7048 8.75470   1 
  -2  -5  -2 76.7642 6.65045   2 
   2   5   2 72.1430 8.81726   1 
   2   5   2 73.7600 9.63783   2 
   2   5   2 73.7388 8.30067   2 
  -3  -5  -2 65.3706 8.02570   2 
  -3  -5  -2 70.7225 6.98754   2 
  -3  -5  -2 72.4005 8.10694   1 
   3   5   2 66.1930 11.8516   2 
   3   5   2 77.4662 8.68645   2 
   3   5   2 78.5752 10.0458   1 
  -4  -5  -2 60.2384 9.01855   1 
  -4  -5  -2 54.8501 7.08324   2 
  -4  -5  -2 51.5897 6.94091   2 
   4   5   2 53.6616 7.70281   2 
   4   5   2 41.9445 14.3626   2 
   4   5   2 36.3571 8.94232   1 
   8  -6  -2 14.0724 6.36008   2 
   8  -6  -2 3.31003 13.8642   2 
  -8   6   2 16.2772 7.32969   2 
  -8   6   2 10.0367 6.77693   2 
   7  -6  -2 14.9171 4.52240   2 
   7  -6  -2 0.38156 11.5144   2 
  -7   6   2 17.9635 6.75716   2 
  -7   6   2 18.9125 6.20295   2 
   6  -6  -2 59.9895 6.58495   2 
   6  -6  -2 70.9566 11.9173   2 
  -6   6   2 54.3519 5.40614   1 
  -6   6   2 56.9997 8.27534   2 
  -6   6   2 69.8648 8.49704   2 
   5  -6  -2 4.61828 9.74995   2 
   5  -6  -2 1.64803 3.62993   2 
  -5   6   2 4.25212 5.34362   2 
  -5   6   2 4.96588 4.65695   2 
  -5   6   2 1.93952 3.01843   1 
   4  -6  -2 37.4962 10.4135   2 
   4  -6  -2 35.9508 4.50919   2 
  -4   6   2 37.2871 6.62203   2 
  -4   6   2 37.2929 5.98727   2 
  -4   6   2 44.1115 5.46545   1 
   3  -6  -2 32.1343 4.09387   2 
   3  -6  -2 24.5378 8.87653   2 
  -3   6   2 17.4820 5.64458   2 
  -3   6   2 28.0113 5.40926   2 
  -3   6   2 32.3760 4.32076   1 
   2  -6  -2 -5.0169 7.79099   2 
   2  -6  -2 0.52091 2.89802   2 
   2  -6  -2 2.90965 3.38643   1 
  -2   6   2 4.21163 6.19944   2 
  -2   6   2 3.13361 4.14785   2 
  -2   6   2 5.26911 3.96616   1 
   1  -6  -2 52.5216 6.13609   2 
   1  -6  -2 54.8460 6.99443   1 
   1  -6  -2 61.3651 9.92675   2 
  -1   6   2 48.2195 6.87449   1 
  -1   6   2 51.9073 7.89492   2 
  -1   6   2 56.3405 6.46629   2 
   0  -6  -2 29.8202 5.27082   1 
   0  -6  -2 11.4810 3.95870   2 
   0   6   2 22.3164 5.29292   1 
   0   6   2 19.4607 5.14323   2 
   0   6   2 15.3131 7.80866   2 
  -1  -6  -2 272.242 17.3331   2 
  -1  -6  -2 245.399 18.2774   1 
  -1  -6  -2 295.355 19.7860   2 
   1   6   2 290.250 21.6664   2 
   1   6   2 253.497 18.5020   2 
   1   6   2 273.041 18.2973   1 
  -2  -6  -2 12.0897 4.44827   2 
  -2  -6  -2 4.61954 6.16948   1 
  -2  -6  -2 18.0622 7.48221   2 
   2   6   2 17.8735 6.40101   1 
   2   6   2 -9.5769 9.73922   2 
   2   6   2 23.6797 5.91382   2 
  -3  -6  -2 -4.5182 4.83541   2 
  -3  -6  -2 -4.8291 8.07167   2 
  -3  -6  -2 0.71671 7.06507   1 
   3   6   2 3.94171 16.1847   2 
   3   6   2 11.1585 6.89665   2 
   3   6   2 2.73468 7.50835   1 
   8  -7  -2 42.0805 8.60071   2 
   8  -7  -2 14.0820 18.2281   2 
  -8   7   2 33.8643 8.64110   2 
   7  -7  -2 15.2857 16.7827   2 
   7  -7  -2 4.90455 6.25541   2 
  -7   7   2 -5.9383 7.57062   2 
  -7   7   2 -4.8251 7.29537   2 
   6  -7  -2 4.01536 5.58985   2 
   6  -7  -2 13.5522 14.3656   2 
  -6   7   2 -3.3289 3.58000   1 
  -6   7   2 -10.950 7.06060   2 
  -6   7   2 2.91069 7.07620   2 
  -6   7   2 2.22501 3.61389   1 
   5  -7  -2 2.01941 4.28859   2 
   5  -7  -2 4.73105 11.4539   2 
  -5   7   2 3.91053 3.90479   1 
  -5   7   2 6.31673 5.74764   2 
  -5   7   2 -3.1635 6.70272   2 
   4  -7  -2 158.421 18.4384   2 
   4  -7  -2 108.132 9.81860   2 
  -4   7   2 137.727 12.3222   2 
  -4   7   2 128.858 10.3645   1 
  -4   7   2 141.381 13.6079   2 
   3  -7  -2 18.3950 4.38508   2 
   3  -7  -2 18.4742 11.4331   2 
  -3   7   2 30.2292 7.36865   2 
  -3   7   2 18.0998 5.54017   2 
   2  -7  -2 3.90844 3.91514   2 
   2  -7  -2 2.58020 10.9140   2 
  -2   7   2 3.57764 5.03556   1 
  -2   7   2 -4.6938 5.42118   2 
  -2   7   2 13.6705 8.43077   2 
   1  -7  -2 356.307 27.5102   2 
   1  -7  -2 337.631 22.0034   2 
   1  -7  -2 349.999 22.5138   1 
  -1   7   2 321.813 22.3280   1 
  -1   7   2 382.945 25.6626   2 
   0  -7  -2 358.544 23.2988   2 
   0  -7  -2 361.395 24.2870   1 
   0  -7  -2 387.123 30.5707   2 
   0   7   2 393.433 27.7871   2 
   0   7   2 378.315 24.6212   2 
   0   7   2 362.103 24.0095   1 
  -1  -7  -2 320.887 23.1514   1 
  -1  -7  -2 341.756 21.7766   2 
  -1  -7  -2 365.549 25.1576   2 
   1   7   2 317.121 22.7338   1 
   1   7   2 349.298 23.6163   2 
   2   7   2 83.0560 10.4089   1 
   6  -8  -2 79.4692 13.2450   2 
   6  -8  -2 49.9897 19.2544   2 
  -6   8   2 58.2736 6.92399   1 
  -6   8   2 63.5773 8.89879   1 
  -6   8   2 68.8315 11.0531   2 
  -6   8   2 77.2782 10.9318   2 
   5  -8  -2 8.51002 6.49230   2 
   5  -8  -2 1.30545 15.7366   2 
  -5   8   2 1.00578 8.45867   2 
  -5   8   2 -1.7949 5.32704   1 
  -5   8   2 -1.1248 9.56792   2 
   4  -8  -2 -8.3692 14.5069   2 
   4  -8  -2 10.8922 5.58488   2 
  -4   8   2 -10.066 7.87159   2 
  -4   8   2 8.31268 10.2544   2 
   3  -8  -2 23.7001 5.67102   2 
   3  -8  -2 -3.3019 14.7589   2 
  -3   8   2 12.3418 5.89062   1 
  -3   8   2 1.50320 6.68453   2 
  -3   8   2 13.7378 9.62162   2 
   2  -8  -2 -19.970 14.1357   2 
  -2   8   2 1.26218 6.50651   1 
  -2   8   2 3.42296 7.57587   2 
  -2   8   2 -0.4194 10.9965   2 
   1  -8  -2 177.823 21.5078   2 
   1  -8  -2 121.155 12.3142   2 
   1  -8  -2 132.702 15.0393   1 
  -1   8   2 129.166 13.2367   1 
  -1   8   2 175.471 17.2536   2 
  -1   8   2 139.521 15.7290   2 
   0  -8  -2 -0.7601 7.89295   1 
   0  -8  -2 1.46162 6.29130   2 
   0  -8  -2 12.8925 17.9396   2 
   0   8   2 1.55479 13.7802   2 
   0   8   2 -3.2447 8.49666   2 
   0   8   2 9.75651 8.43030   1 
   1   9  -3 28.3609 9.67903   1 
   1   9  -3 21.5252 11.5301   2 
  -1  -9   3 12.4377 8.23457   2 
  -1  -9   3 16.0463 8.34934   1 
  -1  -9   3 30.0311 14.0039   2 
   0   9  -3 23.5396 9.45360   2 
   0   9  -3 11.4645 14.5008   2 
   0   9  -3 22.1698 8.09714   1 
   0  -9   3 13.2236 7.71177   2 
   0  -9   3 21.1710 13.3808   2 
   0  -9   3 28.3427 7.78956   1 
  -1   9  -3 13.3557 8.06242   2 
  -1   9  -3 17.7737 12.6781   2 
  -1   9  -3 6.66963 7.16303   1 
   1  -9   3 8.94987 6.38838   1 
   1  -9   3 1.61009 5.87482   2 
   1  -9   3 16.1442 12.8904   2 
  -2   9  -3 40.8647 8.88204   2 
  -2   9  -3 53.8648 12.8292   2 
  -2   9  -3 41.2661 7.14647   1 
   2  -9   3 21.6907 7.09865   2 
   2  -9   3 47.4425 6.87993   1 
   2  -9   3 34.3230 13.2309   2 
  -3   9  -3 164.240 15.8210   2 
  -3   9  -3 158.147 13.8451   1 
  -3   9  -3 156.230 18.3694   2 
   3  -9   3 163.646 14.7321   2 
   3  -9   3 173.146 13.6770   1 
   3  -9   3 148.525 17.5391   2 
  -4   9  -3 72.1617 8.14977   1 
  -4   9  -3 70.9781 12.5607   2 
  -4   9  -3 82.4600 10.0135   2 
   4  -9   3 89.3732 11.3557   2 
   4  -9   3 90.3533 10.1549   1 
   4  -9   3 55.2773 15.5161   2 
  -5   9  -3 17.8474 9.69746   2 
  -5   9  -3 10.1637 8.54298   2 
  -5   9  -3 11.5658 5.33762   1 
   5  -9   3 20.5776 5.26176   1 
   5  -9   3 27.3433 15.4601   2 
   5  -9   3 24.0407 6.92703   2 
   3   8  -3 67.2132 12.2880   2 
  -3  -8   3 63.8447 8.91550   2 
  -3  -8   3 48.4043 8.32479   1 
   2   8  -3 65.2642 9.03771   1 
   2   8  -3 73.3519 13.9600   2 
  -2  -8   3 60.3267 8.37727   2 
  -2  -8   3 70.1292 8.72575   1 
  -2  -8   3 51.9413 11.6200   2 
   1   8  -3 39.1019 7.20509   1 
   1   8  -3 38.7148 11.3356   2 
   1   8  -3 45.8555 8.30847   2 
  -1  -8   3 33.9944 6.84144   1 
  -1  -8   3 42.3917 11.2027   2 
  -1  -8   3 36.1406 6.52780   2 
   0   8  -3 8.81634 6.68671   2 
   0   8  -3 2.27818 8.50065   2 
   0   8  -3 1.26693 5.54364   1 
   0  -8   3 2.66782 4.88995   1 
   0  -8   3 2.45320 5.37945   2 
   0  -8   3 -0.9922 10.3901   2 
  -1   8  -3 34.0537 7.13078   1 
  -1   8  -3 41.4454 7.29938   2 
  -1   8  -3 45.2612 10.3712   2 
   1  -8   3 36.8735 7.59659   1 
   1  -8   3 36.2283 6.05932   2 
   1  -8   3 49.4697 11.1085   2 
  -2   8  -3 425.271 27.3004   2 
  -2   8  -3 361.247 29.1749   2 
   2  -8   3 450.658 26.2172   1 
   2  -8   3 424.152 26.6493   2 
   2  -8   3 442.809 30.4076   2 
  -3   8  -3 144.398 11.3592   1 
  -3   8  -3 145.563 12.9186   2 
  -3   8  -3 135.796 14.8809   2 
   3  -8   3 145.250 12.1446   2 
   3  -8   3 150.438 11.4661   1 
   3  -8   3 163.026 16.1323   2 
  -4   8  -3 1.01729 4.14590   1 
  -4   8  -3 5.95543 6.38606   2 
  -4   8  -3 11.4518 8.35819   2 
   4  -8   3 9.03675 10.4534   2 
   4  -8   3 10.2263 4.06744   1 
   4  -8   3 9.48129 5.51058   2 
  -5   8  -3 14.8458 7.08122   2 
   5  -8   3 15.1437 5.40926   2 
   5  -8   3 6.47376 12.2187   2 
  -6   8  -3 7.74660 6.85587   2 
  -6   8  -3 9.57707 6.41362   2 
   6  -8   3 -6.8041 5.46436   2 
   6  -8   3 28.9112 15.2699   2 
   4   7  -3 17.7494 8.23384   1 
   4   7  -3 9.12275 14.3776   2 
   4   7  -3 18.8976 9.04492   2 
  -4  -7   3 13.7439 7.66325   2 
  -4  -7   3 28.3218 6.64041   1 
  -4  -7   3 21.0073 9.65917   2 
   3   7  -3 131.927 12.3914   1 
   3   7  -3 147.716 18.8226   2 
  -3  -7   3 122.966 15.7035   2 
  -3  -7   3 145.675 12.1499   1 
  -3  -7   3 146.257 12.4175   2 
   2   7  -3 146.130 11.8135   1 
   2   7  -3 136.620 16.7042   2 
   2   7  -3 145.269 12.8200   2 
  -2  -7   3 139.104 11.5441   1 
  -2  -7   3 134.716 14.7347   2 
   1   7  -3 11.1924 4.89761   1 
   1   7  -3 11.7984 4.89824   2 
   1   7  -3 -3.2336 6.46000   2 
  -1  -7   3 6.62029 4.36280   2 
  -1  -7   3 12.8451 7.81287   2 
  -1  -7   3 1.85256 4.11088   1 
   0   7  -3 54.8426 7.01344   1 
   0   7  -3 40.5439 8.24935   2 
   0   7  -3 58.5066 7.44018   2 
   0  -7   3 47.2550 6.58761   1 
   0  -7   3 53.9203 6.31417   2 
   0  -7   3 53.3831 8.98024   2 
  -1   7  -3 114.155 8.78761   1 
  -1   7  -3 112.496 10.2538   2 
  -1   7  -3 88.0354 12.0702   2 
   1  -7   3 114.772 9.61725   2 
   1  -7   3 118.534 9.04666   1 
   1  -7   3 100.670 11.6696   2 
  -2   7  -3 76.6783 6.95857   1 
  -2   7  -3 80.0531 8.44612   2 
  -2   7  -3 88.3876 11.0239   2 
   2  -7   3 71.3516 8.03863   2 
   2  -7   3 85.1196 10.6486   2 
   2  -7   3 71.2405 7.29772   1 
  -3   7  -3 201.708 12.7154   1 
  -3   7  -3 180.595 13.7893   2 
   3  -7   3 207.784 12.7006   1 
   3  -7   3 183.866 13.4737   2 
   3  -7   3 164.464 17.1984   2 
  -4   7  -3 9.19378 5.45419   2 
  -4   7  -3 -0.4652 3.05724   1 
   4  -7   3 0.59080 8.99094   2 
   4  -7   3 3.21306 2.86856   1 
   4  -7   3 5.99915 4.26533   2 
  -5   7  -3 23.8269 5.35726   2 
  -5   7  -3 28.0324 5.61583   2 
   5  -7   3 39.0620 10.6988   2 
  -6   7  -3 27.0837 5.68705   2 
  -6   7  -3 31.4440 6.02749   2 
   6  -7   3 38.5823 5.29972   2 
   6  -7   3 16.1833 12.5130   2 
  -7   7  -3 34.6600 6.88868   2 
  -7   7  -3 19.1934 5.82309   2 
   7  -7   3 28.3702 7.94292   2 
   7  -7   3 57.7644 15.4514   2 
   5   6  -3 184.794 15.5241   1 
   5   6  -3 170.430 21.4486   2 
   5   6  -3 150.914 15.2206   2 
  -5  -6   3 127.858 14.5663   2 
  -5  -6   3 126.457 13.6428   1 
  -5  -6   3 156.056 13.9517   2 
   4   6  -3 14.5969 6.11963   1 
   4   6  -3 12.1492 8.29952   2 
   4   6  -3 18.7367 10.1809   2 
  -4  -6   3 5.33001 7.16451   2 
  -4  -6   3 1.44232 4.98479   2 
   3   6  -3 5.93203 8.29605   2 
   3   6  -3 9.38813 5.26955   2 
   3   6  -3 3.26058 4.88158   1 
  -3  -6   3 3.20269 4.14816   1 
  -3  -6   3 9.95281 6.86848   2 
   2   6  -3 1.94128 7.55730   2 
   2   6  -3 0.13787 4.02572   2 
   2   6  -3 -9.8276 4.38882   1 
  -2  -6   3 0.73659 5.30752   2 
  -2  -6   3 2.33497 3.66731   2 
  -2  -6   3 -2.0158 3.76644   1 
   1   6  -3 295.784 20.4808   2 
   1   6  -3 290.646 17.8937   1 
   1   6  -3 291.156 18.6417   2 
  -1  -6   3 292.439 17.7772   1 
  -1  -6   3 268.591 20.1327   2 
  -1  -6   3 273.876 18.1329   2 
   0   6  -3 42.9175 5.30498   2 
   0   6  -3 37.3010 6.61451   2 
   0   6  -3 44.3871 5.58412   1 
   0  -6   3 40.4374 5.41343   1 
   0  -6   3 49.6855 7.62287   2 
   0  -6   3 38.5305 4.76258   2 
  -1   6  -3 46.4578 6.17712   2 
  -1   6  -3 69.2297 6.00480   1 
  -1   6  -3 67.3897 7.94220   2 
   1  -6   3 55.7168 7.88822   2 
   1  -6   3 60.7876 5.91295   1 
   1  -6   3 65.3793 6.57750   2 
  -2   6  -3 104.670 8.93293   2 
  -2   6  -3 107.282 10.7569   2 
  -2   6  -3 123.566 8.10506   1 
   2  -6   3 121.302 8.18230   1 
   2  -6   3 110.325 8.82497   2 
   2  -6   3 110.169 11.8115   2 
  -3   6  -3 784.485 45.5482   1 
  -3   6  -3 855.209 47.0814   2 
   3  -6   3 794.674 45.5981   1 
   3  -6   3 718.777 47.6406   2 
   3  -6   3 815.848 46.3674   2 
  -4   6  -3 769.283 43.3151   2 
  -4   6  -3 728.126 42.2080   1 
   4  -6   3 748.622 45.0716   2 
   4  -6   3 717.218 43.0614   2 
   4  -6   3 730.373 42.2104   1 
  -5   6  -3 1.57708 3.50430   2 
  -5   6  -3 4.14875 4.11166   2 
   5  -6   3 6.02897 3.44718   2 
   5  -6   3 4.87261 8.67515   2 
  -6   6  -3 8.43491 4.34829   2 
  -6   6  -3 -2.1626 3.62718   2 
   6  -6   3 6.98522 4.01635   2 
   6  -6   3 20.5870 9.00837   2 
  -7   6  -3 3.66113 4.86956   2 
  -7   6  -3 0.66482 3.93191   2 
   7  -6   3 6.71535 4.96418   2 
   7  -6   3 13.7518 11.4869   2 
   6   5  -3 6.45346 8.28794   1 
   6   5  -3 5.32060 7.72863   2 
   6   5  -3 2.24600 12.4492   2 
  -6  -5   3 6.80873 6.14409   2 
  -6  -5   3 -4.1290 6.77667   2 
  -6  -5   3 15.6122 6.78071   1 
   5   5  -3 15.4198 10.7925   2 
   5   5  -3 1.25800 6.13928   2 
   5   5  -3 11.9703 6.88588   1 
  -5  -5   3 3.24243 6.06585   2 
  -5  -5   3 4.09872 4.83846   2 
  -5  -5   3 7.47592 5.31161   1 
   4   5  -3 173.164 12.7427   1 
   4   5  -3 159.306 16.1128   2 
   4   5  -3 186.782 13.0024   2 
  -4  -5   3 172.332 11.9644   1 
  -4  -5   3 152.910 13.3043   2 
   3   5  -3 44.8037 7.94230   2 
   3   5  -3 55.8655 6.93111   2 
   3   5  -3 39.5343 5.92843   1 
  -3  -5   3 43.6795 5.18575   2 
  -3  -5   3 49.2471 6.97903   2 
  -3  -5   3 39.2260 4.73665   1 
   2   5  -3 640.437 36.9402   1 
   2   5  -3 671.702 38.8105   2 
   2   5  -3 620.488 37.2106   2 
  -2  -5   3 610.237 37.9765   2 
  -2  -5   3 623.037 37.1761   2 
  -2  -5   3 620.475 36.8118   1 
   1   5  -3 2.61174 2.44902   1 
   1   5  -3 4.94369 2.85633   2 
   1   5  -3 12.1844 4.48444   2 
  -1  -5   3 2.69867 2.36256   2 
  -1  -5   3 6.20687 3.99962   2 
  -1  -5   3 5.36657 2.12107   1 
   0   5  -3 71.8165 6.31220   2 
   0   5  -3 62.1368 7.62279   2 
   0   5  -3 81.0701 5.84698   1 
   0  -5   3 69.7025 8.39702   2 
   0  -5   3 66.7811 6.19257   2 
   0  -5   3 77.7287 5.70780   1 
  -1   5  -3 97.3720 8.44425   2 
  -1   5  -3 97.7074 6.45954   1 
  -1   5  -3 76.9015 7.04995   2 
   1  -5   3 92.8261 7.04498   2 
   1  -5   3 70.8343 8.73770   2 
   1  -5   3 97.4670 6.47434   1 
  -2   5  -3 41.3756 4.16705   1 
  -2   5  -3 40.3417 5.19468   2 
   2  -5   3 48.5428 6.14969   2 
   2  -5   3 45.5282 5.02629   2 
   2  -5   3 40.4858 3.87371   1 
  -3   5  -3 221.652 13.3368   1 
  -3   5  -3 229.729 14.0758   2 
  -3   5  -3 227.542 14.4860   2 
   3  -5   3 221.582 13.2934   1 
   3  -5   3 224.701 15.6324   2 
   3  -5   3 218.939 14.0180   2 
  -4   5  -3 78.1133 6.28471   2 
  -4   5  -3 69.4781 6.38686   2 
   4  -5   3 65.2295 6.18323   2 
   4  -5   3 75.5992 9.06903   2 
  -5   5  -3 6.63077 3.16144   2 
  -5   5  -3 8.89304 2.91841   2 
   5  -5   3 11.8551 2.84157   2 
   5  -5   3 10.3400 6.50995   2 
  -6   5  -3 324.850 20.9899   2 
  -6   5  -3 377.489 21.6168   2 
   6  -5   3 361.726 23.8801   2 
   6  -5   3 358.264 21.3969   2 
  -7   5  -3 1.49056 4.34024   2 
  -7   5  -3 4.14230 3.01014   2 
   7  -5   3 7.94812 4.34370   2 
   7  -5   3 2.37715 8.58518   2 
  -8   5  -3 44.6836 5.44505   2 
   8  -5   3 39.3509 6.66840   2 
   8  -5   3 31.8650 11.7288   2 
   7   4  -3 84.9867 9.77325   2 
   7   4  -3 84.4084 16.4088   2 
   7   4  -3 90.6385 10.5904   1 
  -7  -4   3 64.5496 8.49680   1 
  -7  -4   3 56.1635 8.22309   2 
   6   4  -3 68.0662 8.46226   1 
   6   4  -3 63.9196 7.47562   2 
   6   4  -3 44.8366 11.9228   2 
  -6  -4   3 47.6775 6.70770   2 
  -6  -4   3 55.8188 6.78835   2 
  -6  -4   3 63.3016 8.89504   1 
   5   4  -3 216.752 14.0763   2 
   5   4  -3 181.807 16.4123   2 
   5   4  -3 206.338 14.4978   1 
  -5  -4   3 175.850 13.2834   2 
  -5  -4   3 186.805 13.1652   1 
  -5  -4   3 194.154 13.9336   2 
   4   4  -3 383.111 22.8479   2 
   4   4  -3 370.116 22.9108   1 
   4   4  -3 366.349 24.5422   2 
  -4  -4   3 366.163 22.5460   1 
  -4  -4   3 370.384 23.2117   2 
  -4  -4   3 374.832 22.7573   2 
   3   4  -3 423.704 26.2954   2 
   3   4  -3 426.315 24.8751   2 
   3   4  -3 407.665 24.8501   1 
  -3  -4   3 405.665 24.5276   1 
  -3  -4   3 403.847 25.4308   2 
  -3  -4   3 417.702 24.8462   2 
   2   4  -3 26.2241 4.61630   2 
   2   4  -3 31.0260 3.49734   1 
   2   4  -3 33.6856 4.19948   2 
  -2  -4   3 37.7637 4.16101   2 
  -2  -4   3 34.3030 3.81258   1 
  -2  -4   3 29.5108 4.62068   2 
   1   4  -3 51.7924 4.66951   1 
   1   4  -3 53.0114 6.54518   2 
   1   4  -3 56.7210 4.95787   2 
  -1  -4   3 54.3470 4.22965   1 
  -1  -4   3 62.9093 4.80167   2 
  -1  -4   3 50.1012 6.41516   2 
   0   4  -3 922.810 51.4823   2 
   0   4  -3 944.413 51.1786   1 
   0   4  -3 775.443 51.9846   2 
   0  -4   3 944.413 51.1580   1 
   0  -4   3 928.356 51.5499   2 
   0  -4   3 839.267 52.1254   2 
  -1   4  -3 334.955 20.8103   2 
   1  -4   3 357.312 20.2560   2 
   1  -4   3 353.543 19.7549   1 
   1  -4   3 307.816 20.9547   2 
  -2   4  -3 1.68592 1.60743   1 
  -2   4  -3 1.95042 1.59725   2 
  -2   4  -3 6.08210 2.64242   2 
   2  -4   3 1.01024 1.75602   2 
   2  -4   3 1.00279 2.83199   2 
   2  -4   3 1.67862 1.27683   1 
  -3   4  -3 93.7798 6.43439   2 
  -3   4  -3 89.8462 6.57558   2 
  -3   4  -3 95.5195 5.89363   1 
   3  -4   3 83.3563 6.41895   2 
   3  -4   3 90.8016 5.64420   1 
   3  -4   3 80.6303 7.81151   2 
  -4   4  -3 531.004 30.3274   2 
  -4   4  -3 517.691 30.2084   2 
   4  -4   3 514.824 31.2911   2 
  -5   4  -3 -1.3638 1.87576   2 
  -5   4  -3 1.57610 2.42934   2 
   5  -4   3 -6.0997 4.63101   2 
   5  -4   3 -0.0261 2.51957   2 
  -6   4  -3 87.3835 6.75791   2 
  -6   4  -3 124.211 7.74711   2 
   6  -4   3 106.888 7.52033   2 
   6  -4   3 99.5263 9.97638   2 
  -7   4  -3 -0.0349 3.26034   2 
  -7   4  -3 4.71557 2.46533   2 
   7  -4   3 5.76792 4.21079   2 
   7  -4   3 2.39410 7.69526   2 
   8  -4   3 16.7907 6.95900   2 
   8  -4   3 15.6127 9.81994   2 
   7   3  -3 13.5939 6.58576   2 
   7   3  -3 32.6873 7.56104   1 
   7   3  -3 27.6538 10.8825   2 
  -7  -3   3 11.5214 5.85386   2 
  -7  -3   3 24.9741 6.07968   1 
   6   3  -3 10.3507 7.37638   2 
   6   3  -3 -0.9216 5.51538   1 
  -6  -3   3 5.57914 4.22752   2 
  -6  -3   3 1.35287 3.62643   2 
  -6  -3   3 6.43674 4.17151   1 
   5   3  -3 134.610 12.0661   2 
   5   3  -3 140.280 9.89082   2 
   5   3  -3 121.031 10.2448   1 
  -5  -3   3 130.805 9.60831   2 
  -5  -3   3 131.591 9.88250   2 
  -5  -3   3 133.987 9.55845   1 
   4   3  -3 14.0698 4.43423   2 
   4   3  -3 18.2170 3.37832   2 
   4   3  -3 14.7432 3.35246   1 
  -4  -3   3 18.8658 2.87598   1 
  -4  -3   3 18.4929 3.12212   2 
  -4  -3   3 18.1793 3.39656   2 
   3   3  -3 5.49583 2.31878   2 
   3   3  -3 6.54179 2.45555   1 
   3   3  -3 3.42254 3.17764   2 
  -3  -3   3 4.80172 2.14039   2 
  -3  -3   3 7.30255 1.83616   1 
  -3  -3   3 9.25824 2.82775   2 
   2   3  -3 176.343 12.2199   2 
   2   3  -3 184.925 11.3517   2 
   2   3  -3 188.907 11.3867   1 
  -2  -3   3 182.202 11.2738   2 
  -2  -3   3 163.611 11.7998   2 
  -2  -3   3 190.993 11.1106   1 
   1   3  -3 4581.68 272.717   2 
   1   3  -3 4910.80 272.634   1 
   1   3  -3 4939.11 273.430   2 
  -1  -3   3 4924.06 272.589   1 
  -1  -3   3 4461.79 273.191   2 
  -1  -3   3 5083.25 272.839   2 
   0   3  -3 240.156 14.8655   2 
   0   3  -3 241.295 13.9944   1 
   0   3  -3 236.809 14.1463   2 
   0  -3   3 246.015 13.9560   1 
   0  -3   3 226.376 14.8613   2 
   0  -3   3 226.710 14.1323   2 
  -1   3  -3 -0.8939 2.20314   2 
  -1   3  -3 1.98195 1.22285   2 
  -1   3  -3 3.44095 1.38700   1 
   1  -3   3 0.26339 1.15123   1 
   1  -3   3 -0.7793 2.55493   2 
  -2   3  -3 217.936 13.0013   2 
  -2   3  -3 224.091 12.9310   1 
  -2   3  -3 234.218 13.3483   2 
   2  -3   3 202.726 13.1388   2 
   2  -3   3 216.037 13.7824   2 
  -3   3  -3 9.61309 1.59156   2 
  -3   3  -3 20.2742 2.34591   2 
   3  -3   3 11.3884 2.91357   2 
   3  -3   3 9.78593 1.49919   1 
   3  -3   3 10.0890 1.79185   2 
  -4   3  -3 35.4412 3.07146   2 
  -4   3  -3 33.4911 2.65414   2 
   4  -3   3 35.1978 3.08518   2 
   4  -3   3 26.5620 2.99847   1 
   4  -3   3 29.5369 3.19492   1 
   4  -3   3 35.5594 4.05716   2 
  -5   3  -3 127.595 7.56532   2 
  -5   3  -3 107.081 7.15558   2 
   5  -3   3 118.100 7.55631   2 
   5  -3   3 119.098 9.30699   2 
   6  -3   3 47.5599 6.00536   2 
   6  -3   3 62.6971 5.30954   2 
   7  -3   3 -0.4475 6.13006   2 
   7  -3   3 9.19060 4.55838   2 
   8  -3   3 27.5065 8.67227   2 
   8  -3   3 15.7366 7.97131   2 
   8   2  -3 24.6276 11.2517   2 
   8   2  -3 19.2859 7.44875   2 
   8   2  -3 37.5917 9.16713   1 
  -8  -2   3 25.1607 6.65050   1 
  -8  -2   3 26.5905 5.17957   2 
  -8  -2   3 23.2303 6.00143   2 
   7   2  -3 51.4494 9.34177   2 
   7   2  -3 26.5939 5.86827   2 
  -7  -2   3 35.1659 5.30342   2 
  -7  -2   3 29.1848 7.81273   1 
   6   2  -3 27.0824 4.76894   1 
   6   2  -3 34.6253 4.76053   2 
   6   2  -3 38.8498 6.98754   2 
  -6  -2   3 33.6440 4.24932   1 
  -6  -2   3 35.0369 4.13549   2 
  -6  -2   3 28.7329 5.29513   2 
   5   2  -3 10.2037 3.02970   2 
   5   2  -3 10.8429 3.50700   1 
   5   2  -3 9.87721 4.81213   2 
  -5  -2   3 8.46545 2.79674   2 
  -5  -2   3 11.4368 2.75870   2 
  -5  -2   3 7.04944 2.77355   1 
   4   2  -3 46.9041 5.60347   2 
   4   2  -3 40.4553 5.22017   1 
   4   2  -3 45.3229 4.22707   2 
  -4  -2   3 46.0259 4.39480   1 
  -4  -2   3 48.1521 4.52944   2 
  -4  -2   3 51.0494 4.42707   2 
   3   2  -3 185.282 12.4928   2 
   3   2  -3 194.201 11.8275   2 
   3   2  -3 198.758 11.9292   1 
  -3  -2   3 193.607 11.8031   2 
  -3  -2   3 198.776 11.6968   1 
  -3  -2   3 188.285 12.0435   2 
   2   2  -3 140.288 8.63538   1 
   2   2  -3 134.325 8.41278   2 
   2   2  -3 134.169 9.08114   2 
  -2  -2   3 129.358 8.29345   1 
  -2  -2   3 130.449 8.81052   2 
  -2  -2   3 142.367 8.46577   2 
   1   2  -3 1.26728 1.86268   2 
   1   2  -3 -1.2171 1.22225   2 
   1   2  -3 2.75861 1.15901   1 
  -1  -2   3 -2.7933 1.71311   2 
  -1  -2   3 -2.0716 1.06446   2 
  -1  -2   3 0.84470 1.16164   1 
   0   2  -3 203.930 13.2837   2 
   0   2  -3 225.208 13.8559   2 
   0   2  -3 238.066 13.4412   1 
   0  -2   3 226.840 13.8365   2 
   0  -2   3 250.120 13.4628   1 
  -1   2  -3 57.9424 4.02069   2 
  -1   2  -3 64.6932 4.45834   2 
  -1   2  -3 73.1026 4.47657   1 
   1  -2   3 81.2212 4.44618   1 
   1  -2   3 53.9943 4.24325   2 
   1  -2   3 58.5819 4.88566   2 
   2  -2   3 82.5457 5.56236   2 
   2  -2   3 94.5976 5.74454   1 
   2  -2   3 92.1517 6.05371   2 
   3  -2   3 5.68693 1.12891   2 
   3  -2   3 6.22509 1.75375   1 
   3  -2   3 5.40501 1.75567   2 
   3  -2   3 4.10749 1.53612   1 
   4  -2   3 66.7233 4.42502   2 
   4  -2   3 63.5552 5.02396   2 
   4  -2   3 70.8428 5.16125   1 
   5  -2   3 131.710 8.74760   2 
   5  -2   3 146.768 9.21007   1 
   5  -2   3 135.821 9.23116   2 
   6  -2   3 206.893 13.2342   2 
   6  -2   3 207.806 13.1704   1 
   6  -2   3 206.680 13.5172   2 
   7  -2   3 10.8311 4.38816   1 
   7  -2   3 18.5050 5.56281   2 
   7  -2   3 10.2077 5.89870   2 
   8   1  -3 -5.4318 10.0674   2 
   8   1  -3 -6.7495 7.67113   1 
   8   1  -3 9.85659 7.17402   2 
  -8  -1   3 3.73289 5.59585   1 
  -8  -1   3 3.21323 3.88270   2 
  -8  -1   3 3.31810 4.78972   2 
   7   1  -3 2.92128 5.27614   1 
   7   1  -3 -1.1324 6.36507   2 
  -7  -1   3 -4.1183 3.46199   1 
  -7  -1   3 -1.9937 3.63984   2 
  -7  -1   3 -0.3462 3.18860   2 
   6   1  -3 8.83990 4.71287   2 
   6   1  -3 0.93615 3.48560   2 
   6   1  -3 0.87983 3.99435   1 
  -6  -1   3 8.85996 2.82567   2 
  -6  -1   3 4.68867 2.59914   2 
  -6  -1   3 1.29331 2.85098   1 
   5   1  -3 147.171 10.3404   2 
   5   1  -3 152.909 9.65910   2 
   5   1  -3 143.172 9.87855   1 
  -5  -1   3 133.745 9.27817   1 
  -5  -1   3 144.339 9.31217   2 
  -5  -1   3 146.594 9.33777   2 
   4   1  -3 159.980 9.88414   2 
   4   1  -3 158.788 9.97921   1 
   4   1  -3 164.444 10.3947   2 
  -4  -1   3 156.718 9.76138   2 
  -4  -1   3 147.157 9.55695   1 
  -4  -1   3 152.293 9.70919   2 
   3   1  -3 402.293 24.3647   2 
   3   1  -3 415.914 24.0838   2 
   3   1  -3 448.409 24.1552   1 
  -3  -1   3 382.120 24.0756   2 
  -3  -1   3 416.407 23.9881   1 
  -3  -1   3 421.898 24.0376   2 
   2   1  -3 164.601 11.1138   2 
   2   1  -3 181.487 10.8753   2 
   2   1  -3 191.250 11.0460   1 
  -2  -1   3 184.880 10.9070   1 
  -2  -1   3 186.082 11.0207   2 
  -2  -1   3 181.404 10.8401   2 
   1   1  -3 2558.59 163.206   2 
   1   1  -3 2969.27 163.170   1 
  -1  -1   3 3110.87 163.191   1 
  -1  -1   3 2930.13 163.033   2 
  -1  -1   3 2829.74 163.171   2 
   0   1  -3 1446.46 82.0078   1 
   0   1  -3 1460.31 81.9698   2 
   0   1  -3 1470.03 81.7567   2 
   0  -1   3 1370.04 81.7669   2 
   0  -1   3 1478.38 82.0004   1 
   0  -1   3 1441.17 81.9362   2 
   1  -1   3 244.277 14.2966   1 
   3  -1   3 491.881 27.1301   2 
   3  -1   3 454.008 27.5255   1 
   3  -1   3 478.510 27.0682   2 
   4  -1   3 126.162 8.68873   1 
   4  -1   3 127.909 7.78922   2 
   4  -1   3 123.718 7.83151   2 
   5  -1   3 42.4206 5.54820   1 
   5  -1   3 27.8329 3.71706   2 
   5  -1   3 33.1552 3.77009   2 
   6  -1   3 270.925 15.6984   1 
   6  -1   3 223.263 14.9470   2 
   6  -1   3 224.561 15.6849   2 
   7  -1   3 55.0613 6.95463   1 
   7  -1   3 57.7711 8.58835   2 
   7  -1   3 67.1208 7.69628   2 
   9   0  -3 100.396 13.2830   1 
   9   0  -3 73.3888 14.1900   2 
   9   0  -3 87.8902 12.2723   2 
  -9   0   3 89.8894 10.6417   2 
  -9   0   3 90.9081 9.11168   2 
  -9   0   3 100.603 11.8578   1 
   8   0  -3 90.8087 10.4637   1 
   8   0  -3 99.8032 11.3098   2 
   8   0  -3 97.1459 10.6948   2 
  -8   0   3 81.5759 8.75155   2 
  -8   0   3 118.506 9.50311   1 
   7   0  -3 -8.4044 5.45644   2 
   7   0  -3 5.21555 5.02192   2 
   7   0  -3 5.63102 4.15397   1 
  -7   0   3 6.79211 3.03413   2 
  -7   0   3 0.21718 2.98410   2 
  -7   0   3 4.97085 3.18637   1 
   6   0  -3 109.990 8.53278   2 
   6   0  -3 112.829 8.68955   2 
   6   0  -3 105.491 8.39217   1 
  -6   0   3 117.693 7.87576   2 
  -6   0   3 118.141 7.82303   2 
  -6   0   3 118.594 7.90241   1 
   5   0  -3 266.708 15.2864   2 
   5   0  -3 252.632 15.1769   1 
   5   0  -3 267.448 15.4139   2 
  -5   0   3 225.679 14.7932   2 
  -5   0   3 261.651 14.9949   2 
  -5   0   3 222.777 14.7086   1 
   4   0  -3 51.1707 4.25303   2 
   4   0  -3 54.4776 4.31698   2 
   4   0  -3 50.5459 4.34434   1 
  -4   0   3 46.5329 3.89826   1 
  -4   0   3 56.9576 3.99709   2 
  -4   0   3 59.3161 4.05360   2 
   3   0  -3 25.3898 2.79778   2 
   3   0  -3 34.8975 3.15050   1 
   3   0  -3 27.0850 2.96680   2 
  -3   0   3 28.3764 2.54672   2 
  -3   0   3 34.1990 3.10617   1 
  -3   0   3 30.8741 2.65253   2 
   2   0  -3 144.872 8.65523   2 
   2   0  -3 140.981 8.71737   1 
   2   0  -3 140.214 8.70372   2 
  -2   0   3 144.654 8.54270   2 
  -2   0   3 146.143 8.70543   1 
  -2   0   3 141.419 8.59529   2 
   1   0  -3 978.012 55.0533   2 
   1   0  -3 992.298 55.1907   1 
   1   0  -3 855.602 55.0961   2 
  -1   0   3 1019.28 55.1961   1 
  -1   0   3 998.890 54.9995   2 
   0   0  -3 44.8297 2.82168   2 
   0   0  -3 37.6605 3.12092   2 
   0   0   3 50.7899 3.09292   2 
   0   0   3 43.6292 2.72683   2 
   2   0   3 331.759 19.5689   1 
   3   0   3 113.154 8.07232   1 
   3   0   3 118.259 7.55642   2 
   3   0   3 120.017 7.08606   2 
   4   0   3 0.39035 1.60596   2 
   4   0   3 0.19505 2.79393   2 
   4   0   3 2.19564 3.04368   1 
   5   0   3 592.892 38.6654   2 
   5   0   3 741.712 39.1526   1 
   6   0   3 59.9260 8.47076   1 
   6   0   3 59.0083 6.08368   2 
   6   0   3 38.8211 7.34855   2 
   7   0   3 1.92778 5.03904   2 
   7   0   3 3.84845 9.97068   1 
   7   0   3 -17.830 9.72725   2 
   9  -1  -3 88.2232 12.1175   2 
   9  -1  -3 64.2050 11.5358   2 
   9  -1  -3 104.235 10.7848   1 
  -9   1   3 110.928 10.1971   1 
  -9   1   3 64.5279 8.13864   2 
   8  -1  -3 66.8044 8.19418   1 
   8  -1  -3 65.1320 8.48786   2 
   8  -1  -3 70.6446 8.24865   2 
  -8   1   3 66.3581 7.04323   2 
  -8   1   3 63.0851 6.91694   1 
  -8   1   3 57.0550 7.20042   2 
   7  -1  -3 16.5914 4.00084   1 
   7  -1  -3 23.9323 5.37978   2 
   7  -1  -3 27.3200 4.92749   2 
  -7   1   3 20.9869 3.43748   2 
  -7   1   3 23.9123 3.34402   1 
   6  -1  -3 556.470 33.5958   2 
   6  -1  -3 576.252 33.8822   2 
   6  -1  -3 563.007 33.2004   1 
  -6   1   3 580.954 32.9792   1 
  -6   1   3 568.826 33.2513   2 
  -6   1   3 589.501 33.3792   2 
   5  -1  -3 106.846 7.17140   2 
   5  -1  -3 103.929 7.00962   1 
   5  -1  -3 101.681 7.56961   2 
  -5   1   3 114.047 6.94152   2 
  -5   1   3 98.1872 6.71453   1 
  -5   1   3 104.852 7.08879   2 
   4  -1  -3 310.264 17.0972   2 
   4  -1  -3 288.721 17.3639   2 
   4  -1  -3 280.950 16.9328   1 
  -4   1   3 299.879 17.1058   2 
  -4   1   3 282.508 16.8753   1 
  -4   1   3 267.065 16.8555   2 
   3  -1  -3 2116.09 124.954   1 
   3  -1  -3 2268.00 125.340   2 
   3  -1  -3 2015.77 124.993   2 
  -3   1   3 2397.45 125.031   1 
  -3   1   3 2221.37 125.153   2 
  -3   1   3 2208.73 124.969   2 
   2  -1  -3 22.8107 2.02491   2 
   2  -1  -3 27.0144 3.03260   2 
  -2   1   3 23.4995 2.46350   2 
  -2   1   3 21.3091 2.04254   2 
  -2   1   3 24.3595 2.63641   1 
   1  -1  -3 1146.03 64.2466   2 
   1  -1  -3 1080.08 63.7865   2 
  -1   1   3 1147.91 63.8386   2 
   0  -1  -3 1473.10 84.5845   2 
   0  -1  -3 1420.24 84.1718   2 
   0   1   3 1507.25 84.6556   1 
   0   1   3 1531.61 84.3157   2 
   0   1   3 1503.40 84.6049   2 
  -1  -1  -3 4.98598 1.13873   2 
  -1  -1  -3 2.86033 0.55154   2 
   1   1   3 3.02081 1.18265   2 
   1   1   3 2.64453 1.73191   1 
   1   1   3 5.31447 2.24781   2 
   2   1   3 71.3278 6.37866   2 
   2   1   3 88.4715 5.44273   2 
   2   1   3 82.4727 6.36212   1 
   3   1   3 16.7892 2.08817   2 
   3   1   3 20.1027 3.59984   1 
   3   1   3 19.7123 3.75035   2 
   4   1   3 245.898 15.4576   1 
   4   1   3 225.530 14.0322   2 
   5   1   3 62.6120 8.43941   1 
   5   1   3 54.3768 7.51116   2 
   5   1   3 50.8449 4.90839   2 
   6   1   3 6.43784 4.11826   2 
   6   1   3 -1.6468 9.42787   2 
   6   1   3 11.8955 5.98993   1 
   9  -2  -3 10.9950 9.60241   2 
   9  -2  -3 4.08598 7.83920   2 
  -9   2   3 0.41066 5.49738   2 
  -9   2   3 -7.5468 4.08499   1 
   8  -2  -3 150.688 14.1319   2 
   8  -2  -3 178.451 12.7744   2 
   8  -2  -3 148.745 11.0370   1 
  -8   2   3 169.529 10.8486   1 
  -8   2   3 172.976 11.5909   2 
  -8   2   3 155.873 11.7122   2 
   7  -2  -3 20.7815 5.82412   2 
   7  -2  -3 16.3406 3.31012   1 
   7  -2  -3 25.4483 4.31213   2 
  -7   2   3 17.2246 3.36068   2 
  -7   2   3 16.7630 2.73103   1 
  -7   2   3 26.5080 6.32604   2 
   6  -2  -3 22.4272 4.92339   2 
   6  -2  -3 30.4722 3.92227   2 
   6  -2  -3 13.8264 3.02071   1 
  -6   2   3 30.9970 3.30767   2 
  -6   2   3 29.5602 3.12386   1 
  -6   2   3 22.5204 3.63862   2 
   5  -2  -3 157.608 10.7825   1 
   5  -2  -3 200.341 11.2220   2 
   5  -2  -3 167.696 11.8273   2 
  -5   2   3 187.021 11.0728   2 
  -5   2   3 166.776 10.7857   1 
  -5   2   3 190.880 11.4244   2 
   4  -2  -3 10.4544 1.90863   2 
   4  -2  -3 14.5719 3.36677   2 
  -4   2   3 13.9106 2.21160   2 
  -4   2   3 11.4740 1.83990   2 
  -4   2   3 11.8192 2.04750   1 
   3  -2  -3 561.218 30.5672   2 
   3  -2  -3 533.634 31.2128   2 
  -3   2   3 530.934 30.8274   2 
  -3   2   3 523.149 30.5740   1 
  -3   2   3 503.193 30.5250   2 
   2  -2  -3 146.853 8.83303   2 
   2  -2  -3 138.998 9.98722   2 
  -2   2   3 139.273 8.85648   2 
  -2   2   3 159.383 9.43806   2 
   1  -2  -3 4.87255 2.74831   2 
   1  -2  -3 9.88292 1.32535   2 
  -1   2   3 7.23951 2.18284   2 
  -1   2   3 8.44448 1.84393   1 
  -1   2   3 9.78050 1.52807   2 
   0  -2  -3 12.0904 1.50500   2 
   0  -2  -3 13.0944 2.83111   2 
   0   2   3 15.3665 2.37208   1 
   0   2   3 15.7960 3.13690   2 
   0   2   3 13.4868 1.87122   2 
  -1  -2  -3 955.461 55.2750   2 
   1   2   3 924.004 55.4876   1 
   1   2   3 990.837 55.8243   2 
   1   2   3 992.298 55.2622   2 
  -2  -2  -3 1075.43 59.6252   2 
  -2  -2  -3 1068.18 60.4317   1 
  -2  -2  -3 1096.26 59.7664   2 
   2   2   3 988.906 60.6169   2 
   2   2   3 991.367 60.3471   1 
   2   2   3 1064.71 60.0118   2 
  -3  -2  -3 2.25153 1.53777   2 
  -3  -2  -3 0.39370 3.33854   1 
  -3  -2  -3 1.96161 1.58413   2 
   3   2   3 -1.1067 2.32819   2 
   3   2   3 -0.5571 3.53858   1 
   3   2   3 1.75143 4.95554   2 
  -4  -2  -3 1.55090 4.20459   1 
   4   2   3 1.86244 5.93137   2 
   4   2   3 1.56373 4.44844   1 
   4   2   3 4.03784 2.59217   2 
   5   2   3 210.338 18.1282   2 
   5   2   3 217.199 15.5092   1 
   5   2   3 202.144 13.4397   2 
   6   2   3 24.2602 12.7809   2 
   6   2   3 35.6792 5.49297   2 
   6   2   3 39.5848 9.04743   1 
   9  -3  -3 79.3196 12.9714   2 
   9  -3  -3 66.8784 8.92673   2 
  -9   3   3 79.6100 9.23394   2 
   8  -3  -3 95.5417 12.2207   2 
   8  -3  -3 95.0499 9.31782   2 
  -8   3   3 79.8489 8.16954   2 
  -8   3   3 90.7853 8.12233   2 
   7  -3  -3 395.102 26.5043   2 
   7  -3  -3 429.716 25.0234   2 
  -7   3   3 405.656 25.6996   2 
  -7   3   3 418.072 24.8702   2 
   6  -3  -3 -2.4642 2.65597   2 
   6  -3  -3 5.12049 5.37381   2 
  -6   3   3 -3.2925 2.36431   2 
  -6   3   3 -3.7844 2.95694   2 
  -6   3   3 1.97368 1.73714   1 
   5  -3  -3 33.3384 5.01669   2 
   5  -3  -3 31.5727 3.37267   2 
  -5   3   3 29.4003 3.81779   1 
  -5   3   3 27.8518 3.55037   2 
  -5   3   3 37.8602 4.59700   2 
   4  -3  -3 146.657 8.31602   2 
   4  -3  -3 117.881 9.91662   2 
  -4   3   3 129.887 8.81504   2 
  -4   3   3 118.274 8.24850   1 
   3  -3  -3 264.619 18.7732   2 
   3  -3  -3 317.836 17.6606   2 
  -3   3   3 304.530 17.7832   2 
  -3   3   3 284.923 18.1345   2 
  -3   3   3 306.769 17.7326   1 
   2  -3  -3 409.859 24.1568   2 
   2  -3  -3 418.341 25.5275   2 
  -2   3   3 394.273 24.3151   1 
  -2   3   3 452.987 24.9802   2 
  -2   3   3 405.796 24.3091   2 
   1  -3  -3 93.1307 5.92332   2 
  -1   3   3 93.3894 6.38283   2 
  -1   3   3 82.6283 6.51234   1 
  -1   3   3 95.8843 7.42030   2 
   0  -3  -3 220.634 14.3393   2 
   0   3   3 234.105 14.8482   2 
   0   3   3 212.609 13.8711   1 
   0   3   3 221.907 13.5945   2 
  -1  -3  -3 360.304 20.9612   2 
  -1  -3  -3 346.593 21.6508   1 
  -1  -3  -3 366.290 21.6817   2 
   1   3   3 348.830 21.7391   1 
   1   3   3 350.065 21.3491   2 
   1   3   3 383.982 22.7381   2 
  -2  -3  -3 -2.2157 3.36745   2 
  -2  -3  -3 18.4770 3.54271   1 
  -2  -3  -3 10.6201 2.06745   2 
   2   3   3 4.94698 5.78825   2 
   2   3   3 13.0001 3.70916   1 
   2   3   3 9.79008 3.24247   2 
  -3  -3  -3 9.94622 2.90925   2 
  -3  -3  -3 14.5652 2.40479   2 
   3   3   3 19.4902 6.54397   2 
   3   3   3 20.6540 3.62295   2 
  -4  -3  -3 -4.4287 4.68835   1 
  -4  -3  -3 1.75132 2.53715   2 
  -4  -3  -3 -0.4691 2.48967   2 
   4   3   3 -5.8720 8.81327   2 
   4   3   3 2.25782 3.75279   2 
   4   3   3 -0.4090 6.18706   1 
   5   3   3 13.0550 7.74118   1 
   5   3   3 0.14663 12.6090   2 
   5   3   3 8.84200 4.70551   2 
   9  -4  -3 -9.2981 7.79369   2 
   9  -4  -3 -9.7652 12.2560   2 
  -9   4   3 -1.7419 7.17119   2 
  -9   4   3 2.58235 6.17285   2 
   8  -4  -3 68.5458 8.33537   2 
   8  -4  -3 59.8043 10.9556   2 
  -8   4   3 72.0066 8.54688   2 
  -8   4   3 58.3454 7.05183   2 
   7  -4  -3 9.23909 3.97833   2 
   7  -4  -3 0.14263 7.12491   2 
  -7   4   3 9.14649 4.10946   2 
   6  -4  -3 3.33516 6.75142   2 
   6  -4  -3 5.58090 3.19449   2 
  -6   4   3 10.1431 3.67329   2 
  -6   4   3 8.79991 3.84360   2 
  -6   4   3 6.85506 2.45511   1 
  -6   4   3 4.98748 2.35666   1 
   5  -4  -3 8.65920 5.57559   2 
   5  -4  -3 14.5773 3.00284   2 
  -5   4   3 16.8069 2.57952   1 
  -5   4   3 8.59100 3.35744   2 
  -5   4   3 17.3741 2.59489   1 
  -5   4   3 15.3501 3.35915   2 
   4  -4  -3 22.2640 2.89161   2 
   4  -4  -3 19.7215 5.66828   2 
  -4   4   3 20.4643 2.88431   1 
  -4   4   3 19.9703 2.91744   1 
  -4   4   3 24.0512 4.13364   2 
  -4   4   3 22.5277 3.50590   2 
   3  -4  -3 160.785 9.74923   2 
   3  -4  -3 143.419 12.2827   2 
  -3   4   3 151.323 10.0462   2 
  -3   4   3 146.502 10.5808   2 
  -3   4   3 150.297 9.96106   1 
   2  -4  -3 44.1594 6.98984   2 
   2  -4  -3 40.6177 3.90015   2 
  -2   4   3 49.2652 5.76119   2 
  -2   4   3 39.6189 4.40977   2 
  -2   4   3 42.4364 5.07822   1 
   1  -4  -3 90.1166 6.18187   2 
  -1   4   3 96.0949 8.48204   2 
  -1   4   3 89.0807 7.09955   2 
  -1   4   3 82.4310 7.15058   1 
   0  -4  -3 28.5499 3.45303   2 
   0  -4  -3 35.6677 5.17312   2 
   0  -4  -3 31.2979 3.99752   1 
   0   4   3 27.8108 3.74154   2 
   0   4   3 26.8892 3.99820   1 
   0   4   3 40.4688 5.79525   2 
  -1  -4  -3 63.5398 5.27354   2 
  -1  -4  -3 59.8268 6.67629   1 
  -1  -4  -3 65.2505 7.58034   2 
   1   4   3 67.9278 8.10529   2 
   1   4   3 60.6644 6.22334   2 
   1   4   3 60.3503 7.11806   1 
  -2  -4  -3 118.569 7.94063   2 
  -2  -4  -3 111.421 9.95627   1 
  -2  -4  -3 108.052 9.60246   2 
   2   4   3 116.396 12.8399   2 
   2   4   3 126.805 8.97819   2 
   2   4   3 108.245 9.88245   1 
  -3  -4  -3 370.978 22.8966   1 
  -3  -4  -3 346.656 20.8558   2 
  -3  -4  -3 345.423 21.4060   2 
   3   4   3 338.647 25.6141   2 
   3   4   3 346.355 21.6251   2 
   3   4   3 350.666 22.9211   1 
  -4  -4  -3 20.1658 4.38688   2 
  -4  -4  -3 29.8074 3.84776   2 
  -4  -4  -3 22.2764 6.86139   1 
   4   4   3 32.2240 7.60735   1 
   4   4   3 17.1667 11.7346   2 
   4   4   3 27.9359 5.68248   2 
   9  -5  -3 1.54406 7.79887   2 
   9  -5  -3 3.10327 14.4400   2 
  -9   5   3 12.5285 6.89479   2 
  -9   5   3 7.85670 8.32455   2 
   8  -5  -3 -1.5889 5.64910   2 
   8  -5  -3 -6.3572 11.7083   2 
  -8   5   3 8.81122 6.84726   2 
  -8   5   3 2.76786 6.35616   2 
   7  -5  -3 9.48061 4.67945   2 
   7  -5  -3 -0.6554 9.74201   2 
  -7   5   3 13.5393 5.18547   2 
  -7   5   3 7.90037 5.24529   2 
   6  -5  -3 143.170 15.1147   2 
   6  -5  -3 130.933 9.60204   2 
  -6   5   3 146.856 10.9925   2 
  -6   5   3 113.375 9.45510   1 
  -6   5   3 144.329 11.1275   2 
  -6   5   3 148.646 9.21531   1 
   5  -5  -3 141.706 13.7476   2 
   5  -5  -3 147.933 10.0255   2 
  -5   5   3 148.868 10.4395   2 
  -5   5   3 157.427 11.5025   2 
  -5   5   3 117.953 9.45755   1 
  -5   5   3 143.910 9.77438   1 
   4  -5  -3 17.9560 3.45301   2 
   4  -5  -3 11.0078 8.02416   2 
  -4   5   3 14.1026 3.20530   1 
  -4   5   3 16.0057 3.55061   2 
  -4   5   3 6.31070 4.15676   2 
   3  -5  -3 310.699 18.8649   2 
   3  -5  -3 311.254 22.0483   2 
  -3   5   3 301.841 19.0172   1 
  -3   5   3 317.036 20.1757   2 
  -3   5   3 306.076 19.4207   2 
   2  -5  -3 183.837 16.5246   2 
   2  -5  -3 187.584 11.9088   2 
  -2   5   3 180.850 12.6950   2 
  -2   5   3 175.132 12.6287   1 
  -2   5   3 204.800 13.9455   2 
  -1   5   3 4.90123 5.37118   2 
  -1   5   3 3.58274 3.47153   2 
  -1   5   3 1.63505 3.55789   1 
   0  -5  -3 318.476 20.4968   2 
   0  -5  -3 370.684 22.8602   2 
   0   5   3 317.404 21.3092   2 
   0   5   3 380.934 23.4248   2 
  -1  -5  -3 131.411 8.89776   2 
  -1  -5  -3 145.578 11.7732   2 
  -1  -5  -3 118.390 10.4081   1 
   1   5   3 125.621 10.0019   2 
   1   5   3 66.3837 13.3922   2 
   1   5   3 124.291 10.5154   1 
  -2  -5  -3 15.8876 5.51990   1 
  -2  -5  -3 20.5916 5.91937   2 
  -2  -5  -3 27.4237 4.01143   2 
   2   5   3 30.9534 6.22102   1 
   2   5   3 15.3753 5.25513   2 
   2   5   3 11.0756 9.91598   2 
  -3  -5  -3 24.3692 6.00814   2 
  -3  -5  -3 26.7762 6.54707   1 
  -3  -5  -3 23.4965 4.20955   2 
   3   5   3 10.8782 7.02674   1 
   3   5   3 21.3994 12.3178   2 
   3   5   3 16.1219 6.04784   2 
   8  -6  -3 55.6026 7.99537   2 
   8  -6  -3 57.2873 15.8241   2 
  -8   6   3 59.0827 8.92984   2 
  -8   6   3 52.6061 9.35472   2 
   7  -6  -3 11.0023 4.91413   2 
   7  -6  -3 15.3925 12.5132   2 
  -7   6   3 10.5090 6.37569   2 
  -7   6   3 15.8727 6.82014   2 
   6  -6  -3 106.334 14.6037   2 
   6  -6  -3 119.866 9.31135   2 
  -6   6   3 114.212 11.3954   2 
  -6   6   3 107.712 8.67377   1 
  -6   6   3 93.5302 8.51798   1 
  -6   6   3 119.515 10.7114   2 
   5  -6  -3 7.24338 9.56595   2 
   5  -6  -3 17.6502 4.03106   2 
  -5   6   3 28.7863 6.41446   2 
  -5   6   3 9.74581 4.80689   2 
  -5   6   3 9.95944 4.02128   1 
   4  -6  -3 59.7910 11.7277   2 
   4  -6  -3 51.5213 5.90629   2 
  -4   6   3 50.4420 6.86691   2 
  -4   6   3 49.1128 5.65023   1 
  -4   6   3 46.0228 6.01857   2 
   3  -6  -3 342.889 25.3431   2 
   3  -6  -3 337.269 20.4188   2 
  -3   6   3 304.144 22.3596   2 
  -3   6   3 343.656 21.3136   2 
  -3   6   3 328.469 20.8784   1 
   2  -6  -3 244.867 20.5513   2 
   2  -6  -3 231.460 16.3369   2 
  -2   6   3 251.889 16.6752   2 
  -2   6   3 263.070 18.3414   2 
  -2   6   3 230.672 16.1289   1 
   1  -6  -3 219.433 22.2396   2 
  -1   6   3 195.412 14.6096   1 
  -1   6   3 215.537 17.1140   2 
  -1   6   3 203.358 14.9242   2 
   0  -6  -3 104.586 11.5952   2 
   0  -6  -3 103.939 9.93112   1 
   0  -6  -3 99.1232 8.16642   2 
   0   6   3 99.6827 12.0306   2 
   0   6   3 95.1251 10.3844   1 
   0   6   3 90.7733 10.5516   2 
  -1  -6  -3 10.4884 4.07126   2 
  -1  -6  -3 2.90479 7.67183   2 
  -1  -6  -3 8.63743 5.65732   1 
   1   6   3 17.5212 9.35893   2 
   1   6   3 20.4687 6.28758   2 
   1   6   3 18.0632 6.04706   1 
  -2  -6  -3 0.26177 6.45756   1 
  -2  -6  -3 1.51015 4.65257   2 
  -2  -6  -3 13.4903 7.72824   2 
   2   6   3 -0.9693 14.6389   2 
   2   6   3 13.5481 7.29425   1 
   2   6   3 7.02972 6.45934   2 
   7  -7  -3 80.8799 9.83131   2 
   7  -7  -3 71.6255 18.6713   2 
  -7   7   3 68.7353 9.96970   2 
  -7   7   3 50.9880 5.62317   1 
  -7   7   3 60.7351 9.94469   2 
  -7   7   3 52.9614 7.18183   1 
   6  -7  -3 33.3982 16.4698   2 
   6  -7  -3 28.7958 6.59594   2 
  -6   7   3 33.1720 7.86171   2 
  -6   7   3 32.2314 5.37683   1 
  -6   7   3 27.9570 5.24553   1 
  -6   7   3 40.3212 10.5345   2 
   5  -7  -3 163.482 20.7045   2 
  -5   7   3 171.001 15.6514   2 
  -5   7   3 153.874 13.3629   1 
  -5   7   3 185.729 15.0765   2 
   4  -7  -3 46.6118 14.4842   2 
   4  -7  -3 54.2461 6.27176   2 
  -4   7   3 56.3755 8.66418   2 
  -4   7   3 46.9759 7.93145   2 
  -4   7   3 54.8132 6.63354   1 
   3  -7  -3 7.24303 4.28526   2 
   3  -7  -3 19.3024 12.6896   2 
  -3   7   3 14.1096 8.50813   2 
  -3   7   3 11.6563 5.86427   2 
  -3   7   3 14.1285 5.64309   1 
   2  -7  -3 89.5023 14.6681   2 
   2  -7  -3 86.5511 7.96399   2 
  -2   7   3 83.2107 11.2959   2 
  -2   7   3 73.3798 8.14827   1 
  -2   7   3 80.6477 9.36891   2 
   1  -7  -3 39.7169 14.1999   2 
  -1   7   3 33.4531 7.23291   1 
  -1   7   3 45.5229 10.4908   2 
  -1   7   3 31.2165 7.37324   2 
   0  -7  -3 288.161 23.6887   2 
   0   7   3 283.094 20.7723   2 
   0   7   3 282.761 20.5405   1 
   0   7   3 311.292 25.4676   2 
  -1  -7  -3 -0.9502 10.9799   2 
  -1  -7  -3 10.9398 5.10995   2 
   1   7   3 -0.4902 7.20354   2 
   1   7   3 13.6622 13.7866   2 
   1   7   3 -0.4187 7.60966   1 
   6  -8  -3 34.7400 20.4976   2 
   6  -8  -3 20.1307 7.89712   2 
  -6   8   3 4.82143 9.28944   2 
  -6   8   3 6.05935 6.19936   1 
  -6   8   3 17.3493 6.04950   1 
  -6   8   3 22.2451 10.0359   2 
   5  -8  -3 41.5169 7.50137   2 
   5  -8  -3 36.4293 18.1243   2 
  -5   8   3 26.6100 8.02096   1 
  -5   8   3 29.4790 9.87212   2 
   4  -8  -3 3.59394 6.41154   2 
   4  -8  -3 -6.2982 16.8324   2 
  -4   8   3 1.19100 8.95414   2 
  -4   8   3 12.0068 10.7828   2 
  -4   8   3 0.26268 6.29414   1 
   3  -8  -3 23.9455 6.24548   2 
   3  -8  -3 48.9261 17.7115   2 
  -3   8   3 31.1136 7.53273   1 
  -3   8   3 38.9467 12.6981   2 
  -3   8   3 21.4712 9.14628   2 
   2  -8  -3 7.07594 6.29877   2 
   2  -8  -3 12.9559 16.0145   2 
  -2   8   3 25.1787 12.1261   2 
  -2   8   3 10.1125 8.58688   2 
  -2   8   3 10.4216 7.38001   1 
   1   9  -4 65.1072 10.0738   2 
   1   9  -4 66.6084 16.0932   2 
   1   9  -4 73.3163 10.5546   1 
  -1  -9   4 65.3050 9.23741   1 
  -1  -9   4 74.4653 14.9540   2 
  -1  -9   4 56.3049 9.11276   2 
   0   9  -4 -5.1592 8.40404   2 
   0   9  -4 6.88009 7.67404   1 
   0   9  -4 -14.934 12.5853   2 
   0  -9   4 -10.520 6.29088   1 
   0  -9   4 17.2011 12.1668   2 
  -1   9  -4 35.6526 7.81097   1 
  -1   9  -4 -1.0491 12.2079   2 
  -1   9  -4 29.9021 8.73984   2 
   1  -9   4 21.8840 11.3185   2 
   1  -9   4 34.8190 7.70751   2 
   1  -9   4 34.4002 6.99654   1 
  -2   9  -4 39.9467 8.71672   2 
  -2   9  -4 29.5522 12.6750   2 
  -2   9  -4 19.3838 7.58042   1 
   2  -9   4 31.2726 7.55694   2 
   2  -9   4 23.9554 11.0902   2 
   2  -9   4 38.3532 6.54377   1 
  -3   9  -4 27.0931 7.37278   1 
  -3   9  -4 43.2511 11.2424   2 
  -3   9  -4 36.2059 8.42842   2 
   3  -9   4 29.2457 7.79190   2 
   3  -9   4 52.2683 13.6672   2 
   3  -9   4 40.4072 6.28721   1 
  -4   9  -4 4.85960 6.48861   1 
  -4   9  -4 -1.7323 8.02730   2 
  -4   9  -4 -8.8693 10.5906   2 
   4  -9   4 -7.4380 7.18138   2 
   4  -9   4 8.00042 5.42475   1 
   4  -9   4 20.2010 13.9746   2 
  -5   9  -4 42.0462 10.2958   2 
  -5   9  -4 47.9301 8.71980   2 
   5  -9   4 57.2435 8.05983   1 
   5  -9   4 58.2450 17.5149   2 
   5  -9   4 53.7754 8.48380   2 
   3   8  -4 3.96149 14.6989   2 
   3   8  -4 35.6996 9.73539   2 
   3   8  -4 5.17548 8.53435   1 
  -3  -8   4 15.7223 7.53026   2 
  -3  -8   4 24.7957 6.99652   1 
  -3  -8   4 24.1766 13.2222   2 
   2   8  -4 -7.7070 7.34051   2 
   2   8  -4 6.77990 10.9801   2 
   2   8  -4 1.21686 7.28040   1 
  -2  -8   4 4.97251 10.1251   2 
  -2  -8   4 1.44932 6.54278   2 
  -2  -8   4 1.16418 6.30557   1 
   1   8  -4 4.33206 6.62288   1 
   1   8  -4 4.30007 6.69010   2 
   1   8  -4 -6.1170 9.98222   2 
  -1  -8   4 6.12092 9.57390   2 
  -1  -8   4 0.42539 5.83066   2 
  -1  -8   4 -8.6386 5.65947   1 
   0   8  -4 -5.2702 16.1343   2 
   0   8  -4 -2.7794 5.50315   1 
   0   8  -4 1.02621 5.67014   2 
   0  -8   4 2.28162 5.07157   2 
   0  -8   4 0.42162 4.51809   1 
   0  -8   4 4.00037 8.96696   2 
  -1   8  -4 338.990 26.2107   2 
  -1   8  -4 376.125 23.2742   2 
   1  -8   4 350.688 26.4324   2 
   1  -8   4 328.952 22.6681   2 
  -2   8  -4 275.675 19.6758   2 
  -2   8  -4 274.324 21.9629   2 
   2  -8   4 266.284 23.1457   2 
   2  -8   4 306.759 18.4529   1 
   2  -8   4 277.669 19.3989   2 
  -3   8  -4 110.495 13.1108   2 
  -3   8  -4 117.633 11.7999   2 
  -3   8  -4 131.508 11.0194   1 
   3  -8   4 152.193 18.0859   2 
   3  -8   4 135.960 10.5229   1 
   3  -8   4 125.691 11.6085   2 
  -4   8  -4 13.6232 4.73986   1 
  -4   8  -4 15.6794 7.74193   2 
   4  -8   4 16.3828 10.9504   2 
   4  -8   4 10.8063 4.19242   1 
   4  -8   4 12.6875 5.49850   2 
  -5   8  -4 6.33913 6.26068   2 
  -5   8  -4 7.91272 6.29603   2 
   5  -8   4 17.0549 5.76801   2 
   5  -8   4 6.28029 12.6665   2 
  -6   8  -4 43.8964 7.65384   2 
  -6   8  -4 43.2061 7.71775   2 
   6  -8   4 63.6808 7.51531   2 
   6  -8   4 59.1184 15.6873   2 
   4   7  -4 0.27512 7.91667   1 
   4   7  -4 2.07421 13.8391   2 
   4   7  -4 5.31819 8.53485   2 
  -4  -7   4 2.05081 9.38568   2 
  -4  -7   4 8.33008 6.74050   2 
  -4  -7   4 -4.3456 6.15949   1 
   3   7  -4 20.0780 7.31902   2 
   3   7  -4 15.9980 6.26913   1 
   3   7  -4 19.1897 11.7308   2 
  -3  -7   4 19.1825 9.22316   2 
  -3  -7   4 11.1577 5.07131   1 
  -3  -7   4 11.9124 5.93429   2 
   2   7  -4 28.0395 5.91473   1 
   2   7  -4 33.6631 9.23908   2 
   2   7  -4 17.8834 5.94494   2 
  -2  -7   4 21.7194 5.80210   2 
  -2  -7   4 18.9979 8.05590   2 
  -2  -7   4 17.2275 4.56647   1 
   1   7  -4 1.53389 4.59487   2 
   1   7  -4 4.02962 4.92006   1 
   1   7  -4 0.25192 7.65686   2 
  -1  -7   4 4.94960 4.36912   2 
  -1  -7   4 8.61428 6.52186   2 
  -1  -7   4 6.13942 3.88928   1 
   0   7  -4 -3.3857 6.56115   2 
   0   7  -4 2.70984 4.02479   1 
   0   7  -4 0.43433 4.15279   2 
   0  -7   4 2.28973 4.06189   1 
   0  -7   4 6.19938 6.60289   2 
   0  -7   4 3.57468 4.24539   2 
  -1   7  -4 0.85755 4.23761   2 
  -1   7  -4 -13.981 6.49840   2 
  -1   7  -4 5.33880 3.99014   1 
   1  -7   4 2.95957 4.13973   2 
   1  -7   4 -5.0917 6.86449   2 
   1  -7   4 -2.0606 3.56167   1 
  -2   7  -4 -6.4837 4.42997   2 
  -2   7  -4 2.24388 3.61153   1 
   2  -7   4 -9.8996 7.16928   2 
   2  -7   4 -0.5603 3.42347   1 
   2  -7   4 -4.1910 3.87981   2 
  -3   7  -4 67.0003 7.12163   1 
  -3   7  -4 86.5953 9.44294   2 
   3  -7   4 60.3057 6.68423   1 
   3  -7   4 85.9149 10.9059   2 
   3  -7   4 70.9779 7.56424   2 
  -4   7  -4 263.535 18.4673   2 
  -4   7  -4 275.922 17.0931   1 
  -4   7  -4 294.331 18.3826   2 
   4  -7   4 269.456 21.8975   2 
   4  -7   4 275.376 16.9599   1 
   4  -7   4 300.425 18.2129   2 
  -5   7  -4 8.93545 4.84370   2 
  -5   7  -4 17.3605 5.03396   2 
   5  -7   4 11.9018 4.72186   2 
   5  -7   4 32.0280 10.4543   2 
  -6   7  -4 44.9365 6.39982   2 
  -6   7  -4 45.5913 6.03286   2 
   6  -7   4 50.9400 6.08611   2 
   6  -7   4 42.1278 12.1208   2 
  -7   7  -4 5.46282 5.12234   2 
  -7   7  -4 -5.1208 5.62126   2 
   7  -7   4 5.15370 13.8287   2 
   7  -7   4 -2.2375 6.48708   2 
   5   6  -4 24.3978 12.8550   2 
   5   6  -4 25.2137 8.46402   2 
   5   6  -4 19.5173 7.86766   1 
  -5  -6   4 26.7131 6.79852   2 
  -5  -6   4 28.2111 6.94364   1 
  -5  -6   4 27.8487 8.40939   2 
   4   6  -4 7.73708 9.78536   2 
   4   6  -4 11.5797 6.06168   1 
   4   6  -4 -5.1567 6.56586   2 
  -4  -6   4 7.56502 5.84214   2 
  -4  -6   4 1.44979 7.14610   2 
  -4  -6   4 1.41505 4.37052   1 
   3   6  -4 4.40566 8.03166   2 
   3   6  -4 17.5694 5.46505   2 
   3   6  -4 12.9880 5.16009   1 
  -3  -6   4 22.0624 7.03119   2 
  -3  -6   4 14.8893 4.89444   2 
  -3  -6   4 19.9484 4.22596   1 
   2   6  -4 689.201 40.5630   2 
   2   6  -4 646.117 38.2682   2 
  -2  -6   4 598.425 38.1136   2 
  -2  -6   4 647.465 39.5293   2 
   1   6  -4 -1.0163 5.11589   2 
   1   6  -4 7.96841 3.89215   2 
   1   6  -4 -0.2566 3.63701   1 
  -1  -6   4 2.86472 5.05113   2 
  -1  -6   4 -1.4581 2.96003   2 
  -1  -6   4 2.24798 3.01969   1 
   0   6  -4 102.965 10.5574   2 
   0   6  -4 92.0231 7.92624   2 
   0   6  -4 95.6194 7.92016   1 
   0  -6   4 92.3151 7.17948   1 
   0  -6   4 92.2845 7.87804   2 
   0  -6   4 89.4222 10.9104   2 
  -1   6  -4 193.581 11.7933   1 
  -1   6  -4 177.893 12.3459   2 
  -1   6  -4 189.063 14.3614   2 
   1  -6   4 188.540 11.5299   1 
   1  -6   4 173.415 12.2641   2 
   1  -6   4 116.836 13.5141   2 
  -2   6  -4 20.3724 3.26439   1 
  -2   6  -4 4.69383 4.75841   2 
   2  -6   4 14.5505 6.96655   2 
   2  -6   4 9.58170 3.71161   2 
   2  -6   4 18.2469 2.89677   1 
  -3   6  -4 116.662 9.22613   2 
  -3   6  -4 127.699 8.64252   1 
  -3   6  -4 118.254 9.85184   2 
   3  -6   4 119.481 8.22831   1 
   3  -6   4 128.038 9.29776   2 
   3  -6   4 120.672 12.3756   2 
  -4   6  -4 259.315 17.3039   2 
  -4   6  -4 274.135 17.1973   2 
  -4   6  -4 276.943 16.3727   1 
   4  -6   4 280.449 16.2052   1 
   4  -6   4 251.182 17.2716   2 
   4  -6   4 299.932 20.0481   2 
  -5   6  -4 5.25031 3.72907   2 
  -5   6  -4 3.89616 3.55238   2 
   5  -6   4 6.79704 8.61171   2 
  -6   6  -4 21.4186 3.77633   2 
  -6   6  -4 25.7528 4.81406   2 
   6  -6   4 26.9305 4.61282   2 
   6  -6   4 53.4324 10.3127   2 
  -7   6  -4 3.29177 3.29694   2 
  -7   6  -4 2.24627 4.51469   2 
   7  -6   4 4.04704 11.9385   2 
   7  -6   4 3.34151 5.63707   2 
   6   5  -4 42.2895 8.45659   2 
   6   5  -4 47.3359 8.51637   1 
   6   5  -4 43.9407 13.9008   2 
  -6  -5   4 34.0413 7.96797   2 
  -6  -5   4 34.7563 7.24375   2 
  -6  -5   4 37.9582 6.72708   1 
   5   5  -4 14.1273 5.82637   2 
   5   5  -4 8.95296 6.21139   1 
   5   5  -4 8.88457 9.90030   2 
  -5  -5   4 8.26083 5.83391   2 
  -5  -5   4 4.75959 4.69364   1 
  -5  -5   4 12.6212 4.99604   2 
   4   5  -4 51.8196 6.80586   2 
   4   5  -4 48.2734 8.41567   2 
   4   5  -4 66.0601 7.78577   1 
  -4  -5   4 48.7333 5.87932   2 
  -4  -5   4 59.4776 7.44633   2 
  -4  -5   4 51.4781 6.70770   1 
   3   5  -4 1356.64 80.5654   2 
   3   5  -4 1424.79 79.1048   1 
   3   5  -4 1463.45 79.2496   2 
  -3  -5   4 1270.48 79.6213   2 
  -3  -5   4 1383.48 78.8189   1 
  -3  -5   4 1336.77 79.0534   2 
   2   5  -4 -2.0157 2.68120   1 
   2   5  -4 -3.9641 4.75207   2 
   2   5  -4 3.63981 3.11466   2 
  -2  -5   4 1.11911 4.06019   2 
  -2  -5   4 1.39434 2.30424   2 
  -2  -5   4 -3.6585 2.42782   1 
   1   5  -4 39.2288 5.96612   2 
   1   5  -4 40.8520 5.15003   2 
   1   5  -4 36.6616 3.95938   1 
  -1  -5   4 35.0690 5.40725   2 
  -1  -5   4 34.1727 4.56073   2 
  -1  -5   4 31.9599 4.12046   1 
   0   5  -4 120.556 9.68638   2 
   0   5  -4 113.148 8.28438   2 
   0   5  -4 119.394 8.31643   1 
   0  -5   4 118.000 7.65389   1 
   0  -5   4 103.780 8.00104   2 
   0  -5   4 104.718 10.1569   2 
  -1   5  -4 -1.7944 3.73279   2 
  -1   5  -4 -1.1063 2.23259   1 
   1  -5   4 0.03662 2.23885   2 
   1  -5   4 -2.4111 3.62666   2 
   1  -5   4 1.57339 2.08794   1 
  -2   5  -4 88.7171 7.53846   2 
  -2   5  -4 88.7383 6.27018   1 
  -2   5  -4 86.6696 6.68277   2 
   2  -5   4 66.5318 8.69164   2 
   2  -5   4 74.0266 6.62185   2 
   2  -5   4 88.0019 5.98286   1 
  -3   5  -4 46.2559 5.19149   2 
  -3   5  -4 35.4514 4.09147   1 
  -3   5  -4 31.7421 3.65932   2 
   3  -5   4 28.2195 5.59600   2 
   3  -5   4 34.7339 3.51221   1 
   3  -5   4 25.5609 3.95283   2 
  -4   5  -4 8.15842 3.40967   2 
  -4   5  -4 7.65319 2.65544   2 
   4  -5   4 4.49092 2.91782   2 
   4  -5   4 9.94489 1.83269   1 
   4  -5   4 2.04312 5.62281   2 
  -5   5  -4 1.93920 2.73164   2 
  -5   5  -4 -2.1287 2.49272   2 
   5  -5   4 3.77891 6.51793   2 
   5  -5   4 0.12273 2.99937   2 
  -6   5  -4 2.34092 2.95503   2 
  -6   5  -4 -1.7302 2.30540   2 
   6  -5   4 3.27907 7.45744   2 
   6  -5   4 3.13695 3.55803   2 
   7  -5   4 22.0786 4.97925   2 
   7  -5   4 18.9302 10.1403   2 
   7   4  -4 40.2526 13.8803   2 
   7   4  -4 41.7893 9.11741   1 
   7   4  -4 33.2733 9.48673   2 
  -7  -4   4 38.8187 7.21727   2 
  -7  -4   4 45.6417 7.12349   1 
  -7  -4   4 42.8714 7.01785   2 
   6   4  -4 14.1563 6.24004   1 
   6   4  -4 36.3563 10.5055   2 
   6   4  -4 10.8895 6.06077   2 
  -6  -4   4 10.5424 4.92549   1 
  -6  -4   4 10.6648 5.55960   2 
  -6  -4   4 5.94191 5.57012   2 
   5   4  -4 76.5591 8.32454   2 
   5   4  -4 88.5620 9.03461   1 
   5   4  -4 68.7746 9.98989   2 
  -5  -4   4 77.5193 7.99872   1 
  -5  -4   4 71.3224 7.66373   2 
  -5  -4   4 75.3175 8.38236   2 
   4   4  -4 53.0111 7.14127   2 
   4   4  -4 53.7804 5.91359   2 
   4   4  -4 48.2390 5.42575   1 
  -4  -4   4 53.5523 6.58461   2 
  -4  -4   4 52.6540 5.81754   2 
  -4  -4   4 44.2355 4.61826   1 
   3   4  -4 599.716 36.0154   2 
   3   4  -4 580.371 34.6634   2 
   3   4  -4 562.203 34.6236   1 
  -3  -4   4 613.506 34.7251   2 
  -3  -4   4 586.762 34.4080   1 
  -3  -4   4 602.058 35.3555   2 
   2   4  -4 -1.7120 2.42629   1 
   2   4  -4 3.93710 2.57590   2 
   2   4  -4 5.39135 3.75716   2 
  -2  -4   4 1.19682 1.81740   2 
  -2  -4   4 2.71533 1.86198   1 
  -2  -4   4 0.12407 3.20280   2 
   1   4  -4 107.656 7.55068   2 
   1   4  -4 93.3559 8.41825   2 
   1   4  -4 121.132 7.52550   1 
  -1  -4   4 98.4715 7.37983   2 
  -1  -4   4 107.932 7.06100   1 
  -1  -4   4 108.466 8.82275   2 
   0   4  -4 820.127 45.0966   2 
   0   4  -4 806.226 44.9464   1 
   0   4  -4 775.811 45.8225   2 
   0  -4   4 789.701 44.8090   1 
   0  -4   4 780.724 45.1550   2 
   0  -4   4 716.296 45.8159   2 
  -1   4  -4 621.325 34.8281   1 
  -1   4  -4 570.750 34.9014   2 
  -1   4  -4 649.414 35.6977   2 
   1  -4   4 615.665 34.7429   1 
   1  -4   4 591.920 35.1058   2 
   1  -4   4 578.659 35.7515   2 
  -2   4  -4 57.2714 4.74101   2 
  -2   4  -4 57.9127 5.32273   2 
  -2   4  -4 65.7736 4.81605   1 
   2  -4   4 55.4381 5.15927   2 
   2  -4   4 62.8447 4.46554   1 
   2  -4   4 53.4641 6.24108   2 
  -3   4  -4 1339.62 70.0229   2 
  -3   4  -4 1209.53 69.8385   2 
   3  -4   4 1204.21 69.6490   1 
   3  -4   4 1144.05 69.9791   2 
   3  -4   4 1233.05 70.7276   2 
  -4   4  -4 4.91529 1.73701   2 
  -4   4  -4 10.0651 2.05640   2 
   4  -4   4 6.79271 1.80685   1 
   4  -4   4 17.4896 4.59610   2 
  -5   4  -4 315.355 18.5951   2 
   5  -4   4 323.683 18.9430   2 
   6  -4   4 175.766 14.3543   2 
   6  -4   4 193.540 11.9154   2 
   7  -4   4 15.9485 4.75655   2 
   7  -4   4 20.7901 8.73947   2 
   7   3  -4 15.4944 7.66309   1 
   7   3  -4 2.74070 6.86649   2 
   7   3  -4 7.63198 10.2679   2 
  -7  -3   4 3.21776 5.05300   2 
  -7  -3   4 0.38822 5.11573   1 
  -7  -3   4 10.1249 5.12372   2 
   6   3  -4 43.3516 5.83636   2 
   6   3  -4 47.2135 8.49094   2 
   6   3  -4 35.4907 5.82915   1 
  -6  -3   4 33.0042 5.37260   2 
  -6  -3   4 33.7166 5.03570   2 
  -6  -3   4 42.1383 5.07485   1 
   5   3  -4 14.6959 4.41473   1 
   5   3  -4 20.8284 6.43533   2 
   5   3  -4 19.1144 4.12254   2 
  -5  -3   4 17.3778 3.55686   2 
  -5  -3   4 19.2121 3.29254   1 
  -5  -3   4 19.9793 3.93865   2 
   4   3  -4 45.7004 5.77216   2 
   4   3  -4 36.7886 4.40182   1 
   4   3  -4 40.0424 4.90136   2 
  -4  -3   4 33.9397 4.35298   1 
  -4  -3   4 38.9608 4.79391   2 
  -4  -3   4 36.3692 4.53558   2 
   3   3  -4 55.7484 6.38730   2 
   3   3  -4 47.1334 4.54887   2 
   3   3  -4 46.2607 4.94358   1 
  -3  -3   4 49.4819 4.18371   1 
  -3  -3   4 41.7290 4.17242   2 
  -3  -3   4 45.0078 4.98010   2 
   2   3  -4 86.1370 7.05873   2 
   2   3  -4 71.4077 5.67933   1 
   2   3  -4 71.0971 5.39748   2 
  -2  -3   4 78.1596 5.47939   2 
  -2  -3   4 77.6930 5.38272   1 
  -2  -3   4 72.7512 6.70117   2 
   1   3  -4 459.443 27.4979   2 
   1   3  -4 463.377 26.7338   2 
   1   3  -4 454.258 26.7793   1 
  -1  -3   4 458.986 26.8178   2 
  -1  -3   4 466.108 26.6814   1 
  -1  -3   4 461.557 27.3479   2 
   0   3  -4 137.303 8.25156   1 
   0   3  -4 103.578 7.90268   2 
   0   3  -4 138.298 9.08349   2 
   0  -3   4 126.793 8.87830   2 
   0  -3   4 136.758 8.21747   2 
   0  -3   4 136.398 8.12160   1 
  -1   3  -4 526.739 31.8525   2 
  -1   3  -4 617.337 32.0921   1 
  -1   3  -4 551.092 32.3625   2 
   1  -3   4 590.626 31.9744   1 
   1  -3   4 525.513 32.5208   2 
   1  -3   4 519.035 32.0698   2 
  -2   3  -4 105.273 6.11512   2 
  -2   3  -4 98.4760 6.40009   1 
  -2   3  -4 86.7836 5.77721   2 
   2  -3   4 95.3884 7.20031   2 
   2  -3   4 89.0322 6.30699   2 
   3  -3   4 323.310 18.0968   1 
   3  -3   4 328.057 18.8519   2 
   3  -3   4 279.897 18.0434   2 
   4  -3   4 268.723 17.1752   2 
   4  -3   4 282.207 16.4123   1 
   4  -3   4 282.679 16.6041   1 
   4  -3   4 275.767 16.2362   2 
   5  -3   4 2.60854 2.11571   2 
   5  -3   4 4.39820 3.00831   1 
   5  -3   4 0.69199 2.36908   1 
   5  -3   4 3.42844 4.51220   2 
   6  -3   4 35.8202 5.58649   2 
   6  -3   4 43.1600 5.80030   1 
   6  -3   4 33.5804 3.97442   2 
   6  -3   4 30.9280 4.11400   1 
   7  -3   4 51.7312 8.05200   2 
   7  -3   4 48.3675 6.69669   1 
   7  -3   4 42.0444 6.56342   2 
   7  -3   4 56.9481 7.26397   1 
   8   2  -4 94.9389 13.0175   1 
   8   2  -4 96.0619 13.5525   2 
   8   2  -4 95.8080 12.0726   2 
  -8  -2   4 112.367 9.93035   2 
  -8  -2   4 90.6339 10.5112   2 
  -8  -2   4 107.375 11.4554   1 
   7   2  -4 33.3011 8.64175   2 
   7   2  -4 8.56480 7.00521   1 
  -7  -2   4 25.7072 5.01127   2 
  -7  -2   4 20.3041 7.65097   1 
  -7  -2   4 26.4919 4.21240   2 
   6   2  -4 103.965 10.4845   2 
   6   2  -4 96.8911 9.50122   1 
   6   2  -4 101.940 8.83424   2 
  -6  -2   4 96.5168 8.38840   2 
  -6  -2   4 100.400 7.85105   2 
  -6  -2   4 94.1148 7.86778   1 
   5   2  -4 19.4344 4.55597   2 
   5   2  -4 21.7547 3.55891   2 
   5   2  -4 19.4119 3.93443   1 
  -5  -2   4 14.2091 2.79009   1 
  -5  -2   4 19.1203 3.23165   2 
  -5  -2   4 16.4471 3.07302   2 
   4   2  -4 193.303 12.4784   2 
   4   2  -4 197.490 13.2322   2 
   4   2  -4 197.684 12.5527   1 
  -4  -2   4 192.227 12.1553   1 
  -4  -2   4 197.948 12.6133   2 
  -4  -2   4 215.252 12.4337   2 
   3   2  -4 8.75461 2.12566   1 
   3   2  -4 12.1311 1.95346   2 
   3   2  -4 13.4201 2.81590   2 
  -3  -2   4 10.6057 2.09175   2 
  -3  -2   4 11.2228 1.86737   1 
  -3  -2   4 11.4178 2.33461   2 
   2   2  -4 775.884 43.9644   1 
   2   2  -4 815.983 43.8693   2 
   2   2  -4 664.398 44.2058   2 
  -2  -2   4 781.652 44.1501   2 
  -2  -2   4 754.239 43.8550   2 
  -2  -2   4 794.248 43.8558   1 
   1   2  -4 1927.58 116.392   1 
   1   2  -4 2098.48 116.791   2 
  -1  -2   4 2064.79 116.343   2 
  -1  -2   4 2212.97 116.457   1 
  -1  -2   4 1951.12 116.632   2 
   0   2  -4 290.135 16.7446   2 
   0   2  -4 294.882 16.5636   1 
   0   2  -4 260.843 16.1413   2 
   0  -2   4 269.502 16.6515   2 
   0  -2   4 303.756 16.5093   1 
   0  -2   4 256.382 16.2719   2 
  -1   2  -4 308.501 18.4366   1 
   1  -2   4 367.707 18.4496   1 
   1  -2   4 285.225 18.1384   2 
   1  -2   4 295.531 18.4604   2 
   2  -2   4 19.7188 2.29064   2 
   2  -2   4 16.5627 1.98767   2 
   2  -2   4 15.1438 2.08049   1 
   3  -2   4 405.368 24.9284   1 
   3  -2   4 448.807 24.7813   2 
   3  -2   4 415.250 24.3845   2 
   3  -2   4 439.530 24.8293   1 
   4  -2   4 8.49195 1.55152   2 
   4  -2   4 8.20042 2.55008   1 
   4  -2   4 6.39179 2.63846   1 
   4  -2   4 7.90033 2.56141   2 
   5  -2   4 9.16801 4.06974   2 
   5  -2   4 4.04907 2.54216   2 
   5  -2   4 9.73143 3.29693   1 
   5  -2   4 12.3291 3.16095   1 
   6  -2   4 18.7594 4.64213   2 
   6  -2   4 19.4622 4.13844   2 
   6  -2   4 6.81973 4.91655   1 
   7  -2   4 22.4148 6.73745   2 
   7  -2   4 6.98020 5.66669   1 
   7  -2   4 -5.1763 5.31297   1 
   7  -2   4 7.18184 6.38349   2 
   8   1  -4 8.16213 9.09070   2 
   8   1  -4 -1.9055 6.93714   2 
   8   1  -4 -7.0069 12.8548   1 
  -8  -1   4 -1.6916 5.34647   2 
  -8  -1   4 -0.6188 6.04059   1 
  -8  -1   4 -0.6686 4.07248   2 
   7   1  -4 32.9086 6.30878   2 
   7   1  -4 32.5843 6.79717   2 
   7   1  -4 33.6334 5.63078   1 
  -7  -1   4 37.4115 4.78323   1 
  -7  -1   4 32.2855 4.54331   2 
  -7  -1   4 27.5880 4.76965   2 
   6   1  -4 169.934 12.0676   1 
   6   1  -4 184.988 12.0320   2 
   6   1  -4 159.513 12.6580   2 
  -6  -1   4 170.876 11.2822   1 
  -6  -1   4 170.590 11.3981   2 
  -6  -1   4 187.551 11.3544   2 
   5   1  -4 144.444 9.76649   1 
   5   1  -4 139.903 10.2100   2 
   5   1  -4 138.233 9.66559   2 
  -5  -1   4 145.428 9.30896   1 
  -5  -1   4 154.136 9.47840   2 
  -5  -1   4 143.644 9.40521   2 
   4   1  -4 187.560 12.1553   1 
   4   1  -4 212.233 12.5813   2 
   4   1  -4 188.968 12.0880   2 
  -4  -1   4 200.016 12.0215   2 
  -4  -1   4 182.871 11.9499   2 
  -4  -1   4 199.432 11.9267   1 
   3   1  -4 398.518 21.9380   2 
   3   1  -4 347.076 22.1044   2 
   3   1  -4 381.241 21.9592   1 
  -3  -1   4 361.907 21.7910   1 
  -3  -1   4 370.369 21.7758   2 
  -3  -1   4 384.156 21.8848   2 
   2   1  -4 390.086 22.9837   2 
   2   1  -4 383.774 22.8195   1 
   2   1  -4 379.964 22.6743   2 
  -2  -1   4 392.345 22.6323   2 
  -2  -1   4 388.405 22.7545   2 
  -2  -1   4 414.175 22.7906   1 
   1   1  -4 296.864 17.1943   2 
   1   1  -4 304.710 17.2063   1 
   1   1  -4 289.017 16.8795   2 
  -1  -1   4 285.111 16.9788   2 
  -1  -1   4 296.315 17.1141   1 
  -1  -1   4 274.470 16.9001   2 
   0   1  -4 75.9738 4.71917   2 
   0   1  -4 68.3246 5.13454   1 
   0   1  -4 73.1254 4.51155   2 
   0  -1   4 71.4894 4.42395   2 
   0  -1   4 72.2168 4.62411   2 
   0  -1   4 70.8026 5.00555   1 
   1  -1   4 457.682 26.5178   1 
   3  -1   4 4.30400 2.19945   1 
   4  -1   4 10.1098 2.18451   2 
   4  -1   4 15.1570 2.52488   2 
   4  -1   4 16.1086 3.49804   1 
   5  -1   4 371.076 22.5464   2 
   5  -1   4 399.913 23.5494   1 
   6  -1   4 77.7930 7.51297   2 
   6  -1   4 79.3711 9.58722   2 
   6  -1   4 96.5388 9.86936   1 
   7  -1   4 14.7231 9.05519   2 
   7  -1   4 20.2488 7.18003   1 
   7  -1   4 21.4039 6.77591   2 
   9   0  -4 -4.3457 7.33858   1 
   9   0  -4 -5.4881 10.0872   2 
   9   0  -4 -3.9685 10.7701   2 
  -9   0   4 0.43148 5.75623   2 
  -9   0   4 -7.6056 6.00777   1 
  -9   0   4 -4.5241 5.97225   2 
   8   0  -4 -0.5178 7.28548   2 
   8   0  -4 13.5490 6.86816   2 
  -8   0   4 2.39118 3.71718   2 
  -8   0   4 1.46514 4.07026   2 
   7   0  -4 30.8030 4.92197   1 
   7   0  -4 25.3834 5.65518   2 
   7   0  -4 29.3842 5.56371   2 
  -7   0   4 25.9512 3.79375   1 
  -7   0   4 30.1009 4.14039   2 
   6   0  -4 91.9761 8.33415   1 
   6   0  -4 111.040 8.86498   2 
   6   0  -4 114.893 8.51018   2 
  -6   0   4 116.639 8.05750   2 
  -6   0   4 106.099 7.72955   1 
  -6   0   4 120.568 7.77645   2 
   5   0  -4 429.588 24.9632   2 
   5   0  -4 433.277 24.9485   2 
   5   0  -4 403.956 24.5995   1 
  -5   0   4 428.572 24.6155   2 
  -5   0   4 395.884 24.3589   1 
  -5   0   4 420.933 24.5159   2 
   4   0  -4 78.0977 5.70723   1 
   4   0  -4 68.9263 5.46451   2 
   4   0  -4 69.4178 5.60068   2 
  -4   0   4 77.4541 5.33050   2 
  -4   0   4 75.4091 5.17227   2 
  -4   0   4 78.1836 5.48792   1 
   3   0  -4 1.47703 1.71846   2 
   3   0  -4 1.44215 1.63630   1 
   3   0  -4 -1.4383 1.84048   2 
  -3   0   4 -0.0818 1.46941   2 
  -3   0   4 -0.0703 1.58563   1 
  -3   0   4 1.58066 1.12615   2 
   2   0  -4 3.91609 1.46740   2 
   2   0  -4 3.31657 1.78165   1 
  -2   0   4 10.0924 1.26071   2 
  -2   0   4 5.52795 1.50433   1 
  -2   0   4 6.33407 1.47748   2 
   1   0  -4 262.924 15.6077   2 
   1   0  -4 258.293 15.4329   2 
  -1   0   4 266.811 15.7108   1 
  -1   0   4 277.716 15.4923   2 
  -1   0   4 261.192 15.3237   2 
   0   0  -4 1224.67 78.4492   2 
   0   0  -4 1393.93 78.3581   2 
   0   0   4 1399.90 78.7615   1 
   0   0   4 1549.25 78.5085   2 
   0   0   4 1348.80 78.3127   2 
   1   0   4 1.15574 1.27766   2 
   2   0   4 14.6280 2.65710   1 
   3   0   4 613.736 34.9010   2 
   3   0   4 617.349 35.7782   1 
   3   0   4 607.282 35.3387   2 
   4   0   4 153.649 11.4796   1 
   4   0   4 162.985 9.67348   2 
   5   0   4 74.1961 8.67635   1 
   5   0   4 58.3769 5.06492   2 
   5   0   4 48.2513 6.87588   2 
   6   0   4 8.98087 7.83258   2 
   6   0   4 5.11239 3.94401   2 
   6   0   4 9.13809 13.2238   1 
   9  -1  -4 -7.0660 6.01002   1 
   9  -1  -4 13.0509 10.1760   2 
   9  -1  -4 1.91049 9.41653   2 
  -9   1   4 6.62939 5.25742   1 
  -9   1   4 -0.1142 6.19203   2 
  -9   1   4 6.39558 5.86752   2 
   8  -1  -4 18.8632 4.91852   1 
   8  -1  -4 27.9117 9.78598   2 
   8  -1  -4 31.5814 6.78395   2 
  -8   1   4 26.2685 5.04192   2 
  -8   1   4 31.4035 4.86151   2 
  -8   1   4 27.4821 4.40056   1 
   7  -1  -4 37.5828 5.28865   2 
   7  -1  -4 30.7132 4.29732   1 
   7  -1  -4 38.7995 6.12135   2 
  -7   1   4 33.4580 4.14181   2 
  -7   1   4 31.2982 4.31901   2 
  -7   1   4 37.3364 4.72374   1 
   6  -1  -4 8.54531 4.04729   2 
   6  -1  -4 10.5774 2.94065   1 
   6  -1  -4 15.6060 3.25119   2 
  -6   1   4 7.81262 2.42891   2 
  -6   1   4 13.2272 2.98560   2 
  -6   1   4 11.4632 2.30788   1 
   5  -1  -4 11.3965 3.38231   2 
   5  -1  -4 14.2308 2.67717   2 
   5  -1  -4 12.6542 2.33237   1 
  -5   1   4 13.7416 2.75111   2 
  -5   1   4 15.3990 2.35424   1 
  -5   1   4 14.8416 2.26725   2 
   4  -1  -4 766.060 43.1525   2 
   4  -1  -4 727.182 42.6770   1 
   4  -1  -4 718.061 42.7591   2 
  -4   1   4 726.612 42.7626   2 
  -4   1   4 706.811 42.5874   2 
  -4   1   4 814.238 42.7845   1 
   3  -1  -4 12.6046 2.57518   2 
   3  -1  -4 12.7512 1.82124   2 
  -3   1   4 14.7193 1.90590   2 
  -3   1   4 16.1761 2.14641   1 
  -3   1   4 20.1856 2.37352   2 
   2  -1  -4 2825.01 158.545   2 
  -2   1   4 2867.64 158.531   2 
  -2   1   4 2685.65 158.682   2 
  -2   1   4 2815.91 158.723   1 
   1  -1  -4 334.935 19.7643   2 
   1  -1  -4 315.355 19.0625   2 
  -1   1   4 349.672 19.5009   2 
  -1   1   4 326.971 19.1115   2 
   0  -1  -4 279.590 16.0377   2 
   0  -1  -4 271.512 16.5444   2 
   0   1   4 285.157 16.6441   2 
   0   1   4 286.344 16.7958   1 
   0   1   4 275.764 16.2078   2 
   1   1   4 223.579 13.1557   1 
   1   1   4 193.940 12.9644   2 
   1   1   4 213.713 12.4237   2 
   2   1   4 102.028 6.43065   2 
   2   1   4 102.389 7.44775   1 
   2   1   4 90.0891 7.61851   2 
   3   1   4 395.259 22.6108   2 
   3   1   4 384.458 23.5671   2 
   3   1   4 385.061 23.7738   1 
   4   1   4 124.073 10.1065   1 
   4   1   4 96.6564 7.26527   2 
   4   1   4 118.810 10.4760   2 
   5   1   4 83.6714 9.98844   1 
   5   1   4 67.9411 9.32448   2 
   5   1   4 62.9367 5.92478   2 
   6   1   4 254.763 17.8383   1 
   6   1   4 225.978 19.9469   2 
   6   1   4 175.026 13.7550   2 
   9  -2  -4 30.1569 8.73741   2 
   9  -2  -4 19.6911 10.5884   2 
   9  -2  -4 26.3440 5.60835   1 
  -9   2   4 30.5558 5.11776   1 
  -9   2   4 30.5750 6.67440   2 
  -9   2   4 30.9678 5.89348   2 
   8  -2  -4 12.2660 5.98062   2 
   8  -2  -4 3.39482 8.73498   2 
   8  -2  -4 -6.1171 3.83083   1 
  -8   2   4 1.45535 3.40307   1 
  -8   2   4 -3.3755 3.72660   2 
  -8   2   4 8.93724 4.61938   2 
   7  -2  -4 129.420 9.60217   1 
   7  -2  -4 150.009 12.2170   2 
   7  -2  -4 157.418 10.7108   2 
  -7   2   4 133.110 9.69554   2 
  -7   2   4 134.238 10.0280   2 
  -7   2   4 137.278 9.16761   1 
   6  -2  -4 -3.9142 2.63462   1 
   6  -2  -4 3.58039 4.21786   2 
   6  -2  -4 -4.4441 2.75870   2 
  -6   2   4 -2.3077 2.22865   1 
  -6   2   4 2.65399 2.28942   2 
  -6   2   4 0.95280 3.00021   2 
   5  -2  -4 26.3178 4.62959   2 
   5  -2  -4 29.1087 3.68989   2 
  -5   2   4 30.6003 4.22577   1 
  -5   2   4 34.4782 4.22279   2 
  -5   2   4 28.7460 3.49716   2 
   4  -2  -4 307.610 16.9978   2 
   4  -2  -4 278.729 17.9771   2 
  -4   2   4 273.465 16.9954   1 
  -4   2   4 296.684 17.3317   2 
  -4   2   4 268.455 16.8947   2 
   3  -2  -4 101.536 6.16780   2 
   3  -2  -4 83.1223 7.64856   2 
  -3   2   4 88.5337 6.52405   1 
  -3   2   4 99.2749 6.76753   2 
  -3   2   4 94.1118 6.19194   2 
   2  -2  -4 0.88808 1.06512   2 
  -2   2   4 1.39386 2.17582   2 
  -2   2   4 0.15102 1.16194   2 
   1  -2  -4 115.828 8.21930   2 
   1  -2  -4 99.5062 6.51647   2 
  -1   2   4 112.544 7.69393   2 
  -1   2   4 104.501 7.39994   1 
  -1   2   4 104.710 6.81269   2 
   0  -2  -4 944.966 55.0722   2 
   0  -2  -4 931.180 55.7447   2 
   0   2   4 985.672 55.3646   2 
   0   2   4 1018.13 55.9244   2 
   0   2   4 964.203 55.7345   1 
  -1  -2  -4 1157.54 67.3634   2 
  -1  -2  -4 1203.00 67.7550   2 
   1   2   4 1243.66 68.4180   2 
   1   2   4 1164.49 68.2234   1 
   1   2   4 1172.34 67.8002   2 
   2   2   4 351.989 22.5202   2 
   2   2   4 354.903 22.1631   1 
   2   2   4 379.012 21.4476   2 
   3   2   4 159.665 12.0084   1 
   3   2   4 161.557 13.0546   2 
   4   2   4 127.120 8.76632   2 
   4   2   4 120.700 13.2314   2 
   4   2   4 123.846 11.4692   1 
   5   2   4 11.8258 10.2943   2 
   5   2   4 10.6661 4.03036   2 
   5   2   4 5.91810 6.76100   1 
   9  -3  -4 69.8017 13.0085   2 
   9  -3  -4 61.8355 8.95793   2 
  -9   3   4 48.4415 7.08227   2 
  -9   3   4 56.6368 7.63724   2 
   8  -3  -4 169.309 15.9558   2 
   8  -3  -4 182.586 13.7745   2 
  -8   3   4 182.576 11.7564   1 
  -8   3   4 182.772 13.4171   2 
  -8   3   4 197.417 13.0949   2 
   7  -3  -4 130.740 9.87161   2 
   7  -3  -4 133.612 13.1824   2 
  -7   3   4 137.923 9.67440   2 
  -7   3   4 112.732 8.62016   1 
  -7   3   4 136.096 10.0418   2 
   6  -3  -4 74.2707 10.0831   2 
   6  -3  -4 110.359 7.41829   2 
  -6   3   4 76.1589 6.82233   1 
  -6   3   4 87.2169 7.62631   2 
  -6   3   4 99.3211 7.02274   2 
   5  -3  -4 -3.1400 4.34902   2 
   5  -3  -4 3.01519 2.43050   2 
  -5   3   4 -3.3072 2.34418   2 
  -5   3   4 -2.8883 2.49652   1 
  -5   3   4 -4.2166 2.84195   2 
   4  -3  -4 187.038 10.9325   2 
   4  -3  -4 164.620 12.9758   2 
  -4   3   4 181.277 11.4782   2 
  -4   3   4 171.524 11.1731   1 
  -4   3   4 167.056 10.9498   2 
   3  -3  -4 1.41765 1.65516   2 
   3  -3  -4 -2.2095 4.20839   2 
  -3   3   4 -1.5720 2.74596   2 
  -3   3   4 -2.3856 1.90787   2 
  -3   3   4 -3.6528 2.15819   1 
   2  -3  -4 1.41712 1.49269   2 
  -2   3   4 4.07929 2.22028   1 
  -2   3   4 -5.1685 2.69502   2 
  -2   3   4 5.55513 2.33348   2 
   1  -3  -4 712.289 43.2228   2 
   1  -3  -4 721.345 42.0646   2 
  -1   3   4 731.596 42.3437   2 
  -1   3   4 695.150 42.4986   1 
  -1   3   4 817.654 43.9903   2 
   0  -3  -4 2.42396 3.93243   2 
   0  -3  -4 0.68037 1.44075   2 
   0   3   4 -3.9976 4.09373   2 
   0   3   4 -2.5871 2.26214   1 
   0   3   4 3.45864 2.32560   2 
  -1  -3  -4 555.661 31.9211   2 
  -1  -3  -4 546.857 32.5874   2 
   1   3   4 564.414 33.6542   2 
   1   3   4 545.386 32.5128   2 
   1   3   4 565.851 32.9936   1 
  -2  -3  -4 -7.5956 2.92381   2 
  -2  -3  -4 1.92499 1.64017   2 
   2   3   4 -12.176 6.16744   2 
   3   3   4 8.36229 7.56578   2 
   3   3   4 4.21797 3.49074   2 
   3   3   4 -1.9400 5.21833   1 
   4   3   4 5.65578 6.38289   1 
   4   3   4 -14.338 9.46027   2 
   4   3   4 -0.8203 3.85401   2 
   9  -4  -4 10.9675 12.7690   2 
   9  -4  -4 13.5887 8.62336   2 
  -9   4   4 16.9956 6.98117   2 
  -9   4   4 19.5643 7.01188   2 
   8  -4  -4 -4.7165 10.4641   2 
   8  -4  -4 -0.3550 5.88587   2 
  -8   4   4 -7.2608 5.15688   2 
  -8   4   4 -0.7891 5.39670   2 
   7  -4  -4 21.1911 9.50383   2 
   7  -4  -4 23.9136 4.48984   2 
  -7   4   4 25.4145 3.83580   1 
  -7   4   4 18.6413 4.95641   2 
  -7   4   4 14.0715 3.39617   1 
  -7   4   4 22.3964 4.82985   2 
   6  -4  -4 156.580 9.88669   2 
   6  -4  -4 122.981 12.7516   2 
  -6   4   4 145.230 9.56812   1 
  -6   4   4 136.087 10.6837   2 
  -6   4   4 137.463 10.2318   2 
  -6   4   4 115.130 9.47900   1 
   5  -4  -4 4.46252 6.05781   2 
   5  -4  -4 13.3703 2.93306   2 
  -5   4   4 8.43565 4.15350   2 
  -5   4   4 10.8811 2.95306   1 
  -5   4   4 15.8213 3.36020   1 
  -5   4   4 9.15910 3.71066   2 
   4  -4  -4 54.5912 7.58754   2 
   4  -4  -4 44.4721 4.51629   2 
  -4   4   4 44.0530 5.44562   2 
  -4   4   4 60.2714 5.16958   1 
  -4   4   4 41.4909 5.29193   2 
  -4   4   4 50.6906 5.59777   1 
   3  -4  -4 115.539 7.79841   2 
   3  -4  -4 132.868 11.8453   2 
  -3   4   4 108.746 8.22216   2 
  -3   4   4 122.748 9.31866   2 
  -3   4   4 108.055 8.25978   1 
   2  -4  -4 55.9522 4.87461   2 
  -2   4   4 57.4361 7.09862   2 
  -2   4   4 53.5553 5.88403   1 
  -2   4   4 55.3381 5.39978   2 
   1  -4  -4 161.932 12.7550   2 
   1  -4  -4 150.892 9.60477   2 
  -1   4   4 161.970 11.8484   2 
  -1   4   4 139.934 10.6777   1 
  -1   4   4 151.805 10.6000   2 
   0  -4  -4 174.319 13.1003   2 
   0   4   4 165.443 12.2270   1 
   0   4   4 166.898 11.6076   2 
   0   4   4 191.051 14.2154   2 
  -1  -4  -4 144.451 10.8954   2 
  -1  -4  -4 134.504 8.49837   2 
   1   4   4 127.987 10.0064   2 
   1   4   4 115.319 12.8907   2 
   1   4   4 128.834 10.7027   1 
  -2  -4  -4 34.3629 3.84273   2 
  -2  -4  -4 23.3592 4.98842   2 
   2   4   4 28.5778 4.89585   2 
   2   4   4 47.2066 9.18758   2 
   2   4   4 35.9611 5.71180   1 
  -3  -4  -4 23.4278 3.12004   2 
  -3  -4  -4 22.6204 4.11917   2 
   3   4   4 22.9556 6.89552   1 
   3   4   4 40.5925 10.3815   2 
   3   4   4 28.2078 4.89203   2 
   4   4   4 30.3321 9.00641   1 
   4   4   4 56.2587 13.5799   2 
   4   4   4 39.6193 6.80793   2 
   8  -5  -4 136.597 19.0820   2 
   8  -5  -4 138.163 11.8483   2 
  -8   5   4 143.128 13.9731   2 
  -8   5   4 146.111 13.0007   2 
   7  -5  -4 5.57612 4.98019   2 
   7  -5  -4 -13.416 10.2970   2 
  -7   5   4 2.43374 5.40515   2 
  -7   5   4 0.60403 3.35500   1 
  -7   5   4 6.18230 3.51281   1 
   6  -5  -4 14.4076 4.38143   2 
   6  -5  -4 3.27678 8.72182   2 
  -6   5   4 15.8595 3.79450   1 
  -6   5   4 15.3457 5.78427   2 
  -6   5   4 20.8944 5.41936   2 
  -6   5   4 13.9233 3.66015   1 
   5  -5  -4 44.1347 10.1999   2 
   5  -5  -4 51.3935 5.99031   2 
  -5   5   4 67.6643 7.56622   2 
  -5   5   4 54.0375 6.98345   2 
  -5   5   4 49.2980 5.17251   1 
  -5   5   4 52.2532 6.64901   1 
   4  -5  -4 2.13381 3.32162   2 
   4  -5  -4 5.53403 8.82566   2 
  -4   5   4 5.51200 3.44737   1 
  -4   5   4 -1.7556 4.98019   2 
  -4   5   4 0.83995 4.05740   2 
   3  -5  -4 57.5195 9.76320   2 
   3  -5  -4 60.7840 5.90761   2 
  -3   5   4 57.3106 7.17638   1 
  -3   5   4 59.2499 7.00884   2 
  -3   5   4 59.4103 6.98024   2 
   2  -5  -4 47.5333 5.79415   2 
   2  -5  -4 53.8855 10.4773   2 
  -2   5   4 66.1505 7.17720   2 
  -2   5   4 61.8185 7.25991   1 
  -2   5   4 61.1215 7.33555   2 
   1  -5  -4 79.8344 6.53414   2 
   1  -5  -4 94.9996 11.9496   2 
  -1   5   4 95.8520 8.18485   2 
  -1   5   4 95.6975 10.0843   2 
  -1   5   4 78.6744 9.47735   1 
   0  -5  -4 101.929 7.51000   2 
   0  -5  -4 117.156 11.7100   2 
   0   5   4 104.533 11.9235   2 
   0   5   4 114.492 9.62280   2 
   0   5   4 110.732 9.98393   1 
  -1  -5  -4 9.66437 6.46865   2 
  -1  -5  -4 9.79144 3.08569   2 
   1   5   4 10.6442 5.57101   1 
   1   5   4 -3.3312 8.90089   2 
   1   5   4 9.45760 4.72836   2 
  -2  -5  -4 2.90818 6.28959   2 
  -2  -5  -4 -0.6178 3.27870   2 
   2   5   4 3.32953 11.2408   2 
   2   5   4 12.6413 6.26875   1 
   2   5   4 3.70207 5.58658   2 
  -3  -5  -4 0.46850 7.24723   2 
  -3  -5  -4 1.37970 3.61388   2 
   3   5   4 -8.2804 5.85795   2 
   3   5   4 -0.9574 8.24866   1 
   3   5   4 -7.3117 14.0863   2 
   8  -6  -4 23.6580 7.54363   2 
   8  -6  -4 5.03521 21.0998   2 
  -8   6   4 17.9008 8.81723   2 
  -8   6   4 12.5363 8.30395   2 
   7  -6  -4 37.6809 6.14219   2 
   7  -6  -4 36.5071 13.0324   2 
  -7   6   4 55.6316 7.48536   1 
  -7   6   4 36.2142 5.31660   1 
  -7   6   4 41.4730 7.53147   2 
  -7   6   4 42.0746 7.33731   2 
   6  -6  -4 22.8594 5.12191   2 
   6  -6  -4 15.9531 12.8548   2 
  -6   6   4 12.5079 6.19772   2 
  -6   6   4 16.1823 6.02042   2 
  -6   6   4 13.7916 4.50559   1 
  -6   6   4 16.6193 4.43898   1 
   5  -6  -4 13.4863 12.4359   2 
   5  -6  -4 2.81203 5.05553   2 
  -5   6   4 6.53984 5.64267   2 
  -5   6   4 -0.8344 4.40641   1 
  -5   6   4 0.51585 4.23663   1 
  -5   6   4 -1.5787 5.58476   2 
   4  -6  -4 281.775 25.4100   2 
   4  -6  -4 316.989 21.2333   2 
  -4   6   4 334.056 20.8881   2 
  -4   6   4 291.842 21.0822   2 
  -4   6   4 320.807 19.9625   1 
   3  -6  -4 67.2156 6.73681   2 
   3  -6  -4 70.5871 13.3957   2 
  -3   6   4 55.8396 7.40042   2 
  -3   6   4 57.2151 8.30564   2 
   2  -6  -4 293.808 23.7480   2 
   2  -6  -4 273.765 17.4159   2 
  -2   6   4 229.782 20.0146   2 
  -2   6   4 292.304 20.4105   2 
  -2   6   4 285.999 18.7438   1 
   1  -6  -4 386.775 23.4236   2 
   1  -6  -4 400.122 27.1726   2 
  -1   6   4 365.752 24.7593   1 
  -1   6   4 402.487 26.4498   2 
  -1   6   4 390.266 24.8581   2 
   0  -6  -4 -2.3492 8.98730   2 
   0  -6  -4 0.82817 3.75702   2 
   0   6   4 -4.0337 9.06289   2 
   0   6   4 9.81860 6.00961   1 
   0   6   4 -8.0207 6.17374   2 
  -1  -6  -4 10.4667 8.38018   2 
  -1  -6  -4 -1.9594 4.11769   2 
   1   6   4 18.0679 7.12358   1 
   1   6   4 -3.9867 6.30596   2 
   1   6   4 10.0486 11.9945   2 
   7  -7  -4 42.1326 19.7302   2 
   7  -7  -4 46.3020 7.93689   2 
  -7   7   4 37.0571 9.94075   2 
  -7   7   4 34.7417 5.87699   1 
  -7   7   4 33.3697 9.93392   2 
  -7   7   4 38.5595 6.17965   1 
   6  -7  -4 19.1716 17.3878   2 
   6  -7  -4 0.25726 6.43107   2 
  -6   7   4 -5.4474 8.40706   2 
  -6   7   4 9.78924 10.8499   2 
  -6   7   4 -5.1981 5.24506   1 
  -6   7   4 7.17418 5.82415   1 
   5  -7  -4 25.9481 15.9913   2 
   5  -7  -4 22.3980 6.01701   2 
  -5   7   4 15.1458 9.04056   2 
  -5   7   4 27.0737 6.23436   1 
  -5   7   4 37.8571 8.34967   2 
   4  -7  -4 -23.152 13.9390   2 
   4  -7  -4 2.65350 5.84825   2 
  -4   7   4 1.80999 5.80350   1 
  -4   7   4 8.33034 8.58701   2 
   3  -7  -4 -6.1076 13.4958   2 
   3  -7  -4 10.7161 4.94565   2 
  -3   7   4 23.3272 9.72407   2 
  -3   7   4 13.8832 7.38916   2 
  -3   7   4 14.0346 6.47619   1 
   2  -7  -4 19.1086 15.2483   2 
   2  -7  -4 51.8392 6.43006   2 
  -2   7   4 42.3415 8.86107   2 
  -2   7   4 54.5105 10.9386   2 
  -2   7   4 55.7583 7.70689   1 
   1  -7  -4 71.3450 8.12894   2 
   1  -7  -4 79.7698 13.9829   2 
  -1   7   4 78.8746 9.57092   2 
  -1   7   4 75.8430 12.5628   2 
  -1   7   4 75.1638 10.0111   1 
   0  -7  -4 92.6086 9.51767   2 
   0  -7  -4 114.302 14.7031   2 
   0   7   4 107.804 15.8807   2 
   0   7   4 106.778 13.9220   2 
   0   7   4 107.571 14.5965   1 
   4  -8  -4 98.7507 11.8992   2 
   4  -8  -4 51.0617 20.6757   2 
  -4   8   4 69.0266 9.46516   1 
  -4   8   4 62.1486 13.2869   2 
  -4   8   4 71.8926 11.5291   2 
   1   9  -5 -2.4258 9.78868   1 
   1   9  -5 -17.511 13.8621   2 
   1   9  -5 8.93392 10.0198   2 
  -1  -9   5 4.19446 6.92848   2 
  -1  -9   5 1.25979 11.7344   2 
  -1  -9   5 3.07080 7.15047   1 
   0   9  -5 53.5552 9.47644   2 
   0   9  -5 66.5603 13.2896   2 
   0   9  -5 39.9956 9.34295   1 
   0  -9   5 39.1129 14.1164   2 
   0  -9   5 51.3924 7.39903   1 
   0  -9   5 51.6975 8.71123   2 
  -1   9  -5 1.28202 11.4031   2 
  -1   9  -5 4.69927 7.65535   1 
  -1   9  -5 -9.1160 7.54551   2 
   1  -9   5 -9.3889 6.44074   2 
   1  -9   5 -12.930 5.68990   1 
   1  -9   5 -9.7504 12.2096   2 
  -2   9  -5 16.6085 11.6366   2 
  -2   9  -5 5.87767 6.79441   1 
  -2   9  -5 1.66916 8.22316   2 
   2  -9   5 4.26249 11.4987   2 
   2  -9   5 10.6859 6.08485   1 
   2  -9   5 6.04957 7.37930   2 
  -3   9  -5 64.1254 8.79946   1 
  -3   9  -5 68.6244 10.9475   2 
  -3   9  -5 70.8806 9.32413   2 
   3  -9   5 91.8041 9.63659   2 
   3  -9   5 81.9279 10.5939   1 
   3  -9   5 89.7666 14.2116   2 
  -4   9  -5 51.3060 10.9824   2 
  -4   9  -5 42.2126 8.54375   2 
  -4   9  -5 53.1008 8.01238   1 
   4  -9   5 49.0331 9.36808   2 
   4  -9   5 60.8045 14.8680   2 
   4  -9   5 56.4111 6.94313   1 
   3   8  -5 6.00353 9.47985   2 
   3   8  -5 2.20656 8.22477   1 
   3   8  -5 -24.281 17.2279   2 
  -3  -8   5 11.6535 7.89302   2 
  -3  -8   5 1.92063 11.5431   2 
  -3  -8   5 -4.7478 6.33666   1 
   2   8  -5 4.42381 7.22858   1 
   2   8  -5 20.3614 12.4542   2 
   2   8  -5 11.9800 8.29014   2 
  -2  -8   5 2.90686 8.60642   2 
  -2  -8   5 -0.0784 5.67400   1 
   1   8  -5 -0.1977 7.46703   2 
   1   8  -5 -0.9119 9.76445   2 
   1   8  -5 4.07786 6.64168   1 
  -1  -8   5 -5.1865 8.97782   2 
  -1  -8   5 1.15786 5.90060   2 
  -1  -8   5 1.53542 5.19811   1 
   0   8  -5 53.3142 7.56750   2 
   0   8  -5 37.9910 7.53075   1 
   0   8  -5 40.6460 10.2175   2 
   0  -8   5 58.4954 7.56946   2 
   0  -8   5 51.3999 10.3908   2 
   0  -8   5 38.8312 6.71624   1 
  -1   8  -5 10.7336 7.01826   1 
  -1   8  -5 8.80364 6.27931   2 
  -1   8  -5 4.80027 9.51296   2 
   1  -8   5 0.69332 5.20233   2 
   1  -8   5 -4.4075 8.89523   2 
  -2   8  -5 8.25371 5.58055   2 
  -2   8  -5 -16.559 8.32170   2 
  -2   8  -5 8.74616 5.33425   1 
   2  -8   5 13.5818 4.58989   1 
   2  -8   5 -0.9012 5.38916   2 
   2  -8   5 -7.9586 9.12683   2 
  -3   8  -5 15.6470 5.37703   1 
  -3   8  -5 29.9156 7.91848   2 
   3  -8   5 27.3918 10.7653   2 
   3  -8   5 29.0100 5.97859   2 
   3  -8   5 22.9664 4.90230   1 
  -4   8  -5 29.0612 7.41875   2 
  -4   8  -5 34.8689 6.16872   2 
  -4   8  -5 31.4495 5.16481   1 
   4  -8   5 37.3898 5.07974   1 
   4  -8   5 31.3211 6.23905   2 
   4  -8   5 36.5539 12.6947   2 
  -5   8  -5 127.600 12.3511   2 
  -5   8  -5 139.495 12.4258   2 
   5  -8   5 154.135 12.5558   2 
   5  -8   5 147.238 17.1082   2 
   4   7  -5 20.5662 7.75668   1 
   4   7  -5 8.08137 9.20748   2 
   4   7  -5 13.2514 14.8719   2 
  -4  -7   5 6.72488 9.46457   2 
  -4  -7   5 10.9668 7.19882   2 
  -4  -7   5 14.1025 5.73096   1 
   3   7  -5 36.6731 7.79613   2 
   3   7  -5 38.5646 6.59696   1 
   3   7  -5 31.0943 10.1447   2 
  -3  -7   5 35.5012 5.88514   1 
  -3  -7   5 30.1856 9.57123   2 
   2   7  -5 74.9592 8.87203   2 
   2   7  -5 50.5138 10.0250   2 
   2   7  -5 67.0107 9.29927   1 
  -2  -7   5 63.9966 7.91006   2 
  -2  -7   5 61.5069 8.07999   1 
  -2  -7   5 58.3169 9.38463   2 
   1   7  -5 -3.9433 5.27260   1 
   1   7  -5 0.13858 4.72074   2 
   1   7  -5 5.04455 7.50629   2 
  -1  -7   5 -4.2252 6.19205   2 
  -1  -7   5 2.62594 3.87598   1 
  -1  -7   5 0.14888 4.56929   2 
   0   7  -5 0.82196 6.59597   2 
   0   7  -5 0.91314 4.40931   2 
   0   7  -5 -1.1554 5.02714   1 
   0  -7   5 7.62746 3.81942   1 
   0  -7   5 5.90255 4.28329   2 
   0  -7   5 9.85252 6.89619   2 
  -1   7  -5 14.8476 4.83365   2 
  -1   7  -5 20.7328 4.66961   1 
   1  -7   5 17.2774 4.54476   2 
   1  -7   5 18.4549 7.56904   2 
   1  -7   5 29.9669 4.20499   1 
  -2   7  -5 4.75177 6.25096   2 
  -2   7  -5 1.68589 4.25649   1 
   2  -7   5 3.59796 4.04064   2 
   2  -7   5 -6.3539 6.93570   2 
   2  -7   5 5.18358 3.66436   1 
  -3   7  -5 -3.2571 4.02853   2 
  -3   7  -5 10.8063 4.06899   1 
  -3   7  -5 0.04577 5.48457   2 
   3  -7   5 6.51531 4.45479   2 
   3  -7   5 4.21329 3.28060   1 
   3  -7   5 5.43584 8.30772   2 
  -4   7  -5 56.1661 6.78842   1 
  -4   7  -5 45.1723 6.27570   2 
  -4   7  -5 51.5025 6.01205   2 
   4  -7   5 59.7264 6.01683   1 
   4  -7   5 52.9566 6.48073   2 
   4  -7   5 42.4591 10.0151   2 
  -5   7  -5 -4.0484 4.64380   2 
  -5   7  -5 -3.7811 4.41061   2 
   5  -7   5 2.15311 9.81038   2 
   5  -7   5 -5.6000 4.52523   2 
  -6   7  -5 21.6576 5.02373   2 
  -6   7  -5 30.5667 5.60249   2 
   6  -7   5 35.1221 6.16439   2 
   6  -7   5 54.0907 13.1509   2 
   5   6  -5 123.286 16.3391   2 
   5   6  -5 183.069 15.1499   1 
  -5  -6   5 165.728 14.2817   2 
  -5  -6   5 158.790 13.2622   1 
  -5  -6   5 152.904 15.5077   2 
   4   6  -5 4.50675 5.57597   2 
   4   6  -5 9.96544 6.23251   1 
   4   6  -5 -12.886 9.72282   2 
  -4  -6   5 2.51507 4.50925   1 
  -4  -6   5 8.15353 7.40504   2 
   3   6  -5 0.77440 4.81682   1 
   3   6  -5 10.5955 5.17127   2 
   3   6  -5 9.99836 7.66359   2 
  -3  -6   5 10.6183 4.11979   2 
  -3  -6   5 -8.0456 5.68403   2 
  -3  -6   5 11.7756 3.91670   1 
   2   6  -5 86.2361 9.93973   1 
   2   6  -5 120.720 13.3302   2 
   2   6  -5 109.214 9.73638   2 
  -2  -6   5 106.480 9.27407   2 
  -2  -6   5 109.488 11.4021   2 
  -2  -6   5 112.896 9.04972   1 
   1   6  -5 -13.543 5.63384   2 
   1   6  -5 2.98353 3.66984   2 
   1   6  -5 7.27605 3.85775   1 
  -1  -6   5 0.83532 2.92580   1 
  -1  -6   5 2.23615 3.11878   2 
  -1  -6   5 -1.8892 5.08110   2 
   0   6  -5 263.080 18.4044   2 
   0   6  -5 258.367 16.5453   1 
   0   6  -5 255.707 16.7155   2 
   0  -6   5 262.603 16.7549   2 
   0  -6   5 259.955 18.4381   2 
   0  -6   5 267.867 16.1934   1 
  -1   6  -5 616.704 33.9447   1 
  -1   6  -5 551.135 35.3363   2 
   1  -6   5 563.306 34.3680   2 
   1  -6   5 546.250 35.4557   2 
   1  -6   5 605.288 33.7159   1 
  -2   6  -5 234.045 14.7190   1 
  -2   6  -5 234.752 16.1326   2 
  -2   6  -5 235.479 15.0164   2 
   2  -6   5 226.271 17.0806   2 
   2  -6   5 249.338 14.4792   1 
   2  -6   5 224.895 15.2079   2 
  -3   6  -5 476.156 26.7530   1 
  -3   6  -5 461.023 27.5812   2 
  -3   6  -5 437.903 27.0244   2 
   3  -6   5 440.333 28.8670   2 
   3  -6   5 440.655 27.4301   2 
   3  -6   5 459.955 26.4974   1 
  -4   6  -5 169.854 11.3581   2 
  -4   6  -5 164.873 11.5389   2 
   4  -6   5 164.671 11.8742   2 
   4  -6   5 171.469 10.6265   1 
   4  -6   5 179.524 15.0542   2 
  -5   6  -5 1.20721 3.43198   2 
  -5   6  -5 11.2979 3.60827   2 
   5  -6   5 4.84267 8.34356   2 
  -6   6  -5 55.2109 5.53466   2 
  -6   6  -5 35.7105 4.15762   2 
   6  -6   5 57.3038 11.2382   2 
   6  -6   5 56.3723 7.13292   2 
   6   5  -5 7.35175 13.0775   2 
   6   5  -5 -4.2011 7.76789   2 
   6   5  -5 3.17916 8.86625   1 
  -6  -5   5 0.17155 6.62675   2 
  -6  -5   5 0.28078 5.58935   1 
  -6  -5   5 0.11135 6.60151   2 
   5   5  -5 5.75023 8.59855   2 
   5   5  -5 -5.3132 5.31958   2 
   5   5  -5 2.95873 5.95025   1 
  -5  -5   5 8.33151 5.01687   2 
  -5  -5   5 2.12338 4.43432   1 
  -5  -5   5 -1.1257 5.71970   2 
   4   5  -5 100.217 12.7724   2 
   4   5  -5 86.6102 8.69651   2 
   4   5  -5 87.4046 8.57622   1 
  -4  -5   5 87.3038 8.97644   2 
  -4  -5   5 102.902 10.1921   2 
  -4  -5   5 100.653 7.93340   1 
   3   5  -5 41.5416 6.05921   1 
   3   5  -5 39.4772 5.32464   2 
   3   5  -5 51.4849 8.02495   2 
  -3  -5   5 43.1623 6.26485   2 
  -3  -5   5 51.3350 6.25166   2 
  -3  -5   5 50.5449 5.67417   1 
   2   5  -5 109.987 8.77871   2 
   2   5  -5 126.436 11.3951   2 
   2   5  -5 119.203 9.08231   1 
  -2  -5   5 108.295 10.0596   2 
  -2  -5   5 125.083 8.95665   2 
  -2  -5   5 123.620 8.37964   1 
   1   5  -5 95.3030 9.46262   2 
   1   5  -5 94.6931 7.25512   2 
   1   5  -5 89.1490 7.05734   1 
  -1  -5   5 82.4749 8.79953   2 
  -1  -5   5 94.1496 7.13034   2 
  -1  -5   5 82.2657 6.56296   1 
   0   5  -5 50.1924 5.38652   1 
   0   5  -5 45.8932 5.11667   2 
   0   5  -5 48.7896 6.06262   2 
   0  -5   5 41.6287 5.02303   2 
   0  -5   5 47.2569 4.43223   1 
   0  -5   5 41.2881 6.15499   2 
  -1   5  -5 165.382 11.0000   1 
  -1   5  -5 167.001 10.8644   2 
  -1   5  -5 177.788 12.1003   2 
   1  -5   5 177.914 11.3740   2 
   1  -5   5 178.415 10.6845   1 
   1  -5   5 147.250 12.4966   2 
  -2   5  -5 159.399 10.2432   1 
  -2   5  -5 151.053 9.97797   2 
  -2   5  -5 162.696 11.1136   2 
   2  -5   5 153.308 12.1458   2 
   2  -5   5 155.243 10.7169   2 
   2  -5   5 155.600 9.90427   1 
  -3   5  -5 13.9889 2.76004   2 
  -3   5  -5 16.6349 3.18934   2 
  -3   5  -5 14.2103 3.23097   1 
   3  -5   5 4.79875 5.04959   2 
   3  -5   5 12.8162 2.53572   1 
   3  -5   5 11.9103 3.32204   2 
  -4   5  -5 3.83754 2.48773   2 
  -4   5  -5 11.2278 2.34454   2 
   4  -5   5 -0.1761 2.96570   2 
   4  -5   5 4.71978 2.32844   1 
   5  -5   5 32.8111 3.99990   2 
   5  -5   5 30.6716 7.30541   2 
   6  -5   5 297.844 21.6058   2 
   6  -5   5 294.703 18.2550   2 
   7  -5   5 15.1458 10.7695   2 
   7  -5   5 18.6122 5.58474   2 
   7   4  -5 7.42927 13.3313   2 
   7   4  -5 -2.1652 8.15036   2 
   7   4  -5 11.5743 8.92335   1 
  -7  -4   5 -3.9900 5.97601   2 
  -7  -4   5 -7.1060 6.21901   1 
  -7  -4   5 -8.2577 6.41737   2 
   6   4  -5 20.3338 6.64707   1 
   6   4  -5 27.0617 6.69829   2 
   6   4  -5 17.3892 10.5926   2 
  -6  -4   5 24.5524 5.45967   2 
  -6  -4   5 21.2607 5.01625   1 
  -6  -4   5 23.8941 5.97890   2 
   5   4  -5 15.8910 8.07074   2 
   5   4  -5 0.63311 4.16369   2 
   5   4  -5 8.67406 5.16692   1 
  -5  -4   5 6.05803 4.00265   2 
  -5  -4   5 3.60507 3.96843   2 
  -5  -4   5 0.23100 3.59734   1 
   4   4  -5 406.460 23.7837   2 
   4   4  -5 408.445 23.8368   1 
   4   4  -5 357.160 25.0982   2 
  -4  -4   5 355.513 23.4535   2 
  -4  -4   5 392.656 24.3169   2 
  -4  -4   5 396.998 23.2107   1 
   3   4  -5 1182.23 67.3306   2 
   3   4  -5 1094.85 67.3247   1 
   3   4  -5 1259.10 68.7753   2 
  -3  -4   5 1171.32 67.4224   2 
  -3  -4   5 1177.90 67.9384   2 
  -3  -4   5 1149.00 67.1052   1 
   2   4  -5 84.8650 8.11567   2 
   2   4  -5 77.4821 6.40478   1 
   2   4  -5 77.2558 6.24837   2 
  -2  -4   5 71.4891 5.99624   2 
  -2  -4   5 79.3696 5.86529   1 
  -2  -4   5 76.8950 7.24797   2 
   1   4  -5 301.887 18.1696   2 
   1   4  -5 308.854 18.2449   1 
   1   4  -5 312.877 19.3577   2 
  -1  -4   5 279.181 18.9100   2 
  -1  -4   5 310.948 18.0565   1 
  -1  -4   5 304.369 18.3165   2 
   0   4  -5 22.8394 3.16100   2 
   0   4  -5 31.5813 4.00060   2 
   0   4  -5 36.2473 4.28742   1 
   0  -4   5 39.2123 4.56453   2 
   0  -4   5 31.6098 3.72686   2 
   0  -4   5 36.8192 3.51600   1 
  -1   4  -5 114.755 8.26833   2 
  -1   4  -5 114.745 7.47110   1 
  -1   4  -5 103.088 7.05592   2 
   1  -4   5 107.902 7.79108   2 
   1  -4   5 110.276 8.66289   2 
   1  -4   5 109.303 7.26660   1 
  -2   4  -5 136.167 9.19463   2 
  -2   4  -5 128.985 8.47087   2 
  -2   4  -5 147.845 9.14726   1 
   2  -4   5 121.976 10.0244   2 
   2  -4   5 156.344 8.85733   1 
   2  -4   5 121.757 9.21184   2 
  -3   4  -5 -0.1668 1.51396   2 
  -3   4  -5 0.78955 1.22823   2 
   3  -4   5 0.30482 1.87466   1 
   3  -4   5 1.67627 2.31036   2 
   3  -4   5 7.31942 4.14295   2 
   4  -4   5 36.2792 4.59270   1 
   4  -4   5 55.0515 6.04781   2 
   5  -4   5 125.911 11.1745   2 
   5  -4   5 119.742 7.98105   2 
   5  -4   5 110.060 8.28920   1 
   5  -4   5 115.763 8.60973   1 
   6  -4   5 46.3447 8.32128   2 
   6  -4   5 55.2654 5.64018   2 
   7  -4   5 6.16057 9.95157   2 
   7  -4   5 20.1621 5.60024   2 
   8   3  -5 57.5930 10.7807   2 
   7   3  -5 4.08188 7.05794   1 
   7   3  -5 -0.9896 6.94673   2 
   7   3  -5 11.7202 10.2636   2 
  -7  -3   5 12.8017 5.92360   2 
  -7  -3   5 11.7816 5.05957   2 
  -7  -3   5 11.1883 5.23384   1 
   6   3  -5 53.1754 6.45895   2 
   6   3  -5 45.6856 6.84632   1 
   6   3  -5 50.8791 8.21023   2 
  -6  -3   5 50.1732 6.92125   1 
  -6  -3   5 44.7347 5.74045   2 
   5   3  -5 67.3820 8.00853   2 
   5   3  -5 60.4544 6.46171   2 
   5   3  -5 59.4042 7.03290   1 
  -5  -3   5 59.7208 6.05800   1 
  -5  -3   5 53.2126 6.27220   2 
  -5  -3   5 65.5580 6.67150   2 
   4   3  -5 38.1154 4.52644   2 
   4   3  -5 34.3314 4.25727   1 
   4   3  -5 39.7834 5.58944   2 
  -4  -3   5 39.9596 4.23701   1 
  -4  -3   5 39.7101 5.19772   2 
  -4  -3   5 33.6259 3.90057   2 
   3   3  -5 8.99882 4.06149   2 
   3   3  -5 4.49002 2.21144   2 
   3   3  -5 8.78322 2.38272   1 
  -3  -3   5 6.57790 1.95480   1 
  -3  -3   5 2.12397 2.05230   2 
  -3  -3   5 3.08433 2.80883   2 
   2   3  -5 -1.8253 2.62403   2 
   2   3  -5 0.49252 2.17162   1 
   2   3  -5 1.35674 1.97293   2 
  -2  -3   5 -1.1304 1.76536   1 
  -2  -3   5 2.03461 1.89273   2 
  -2  -3   5 -2.5801 2.55187   2 
   1   3  -5 438.124 26.3798   2 
   1   3  -5 435.034 25.8172   1 
  -1  -3   5 468.020 26.3650   2 
  -1  -3   5 437.943 25.7776   2 
  -1  -3   5 434.013 25.7115   1 
   0   3  -5 26.9407 2.57920   2 
   0   3  -5 23.6862 3.30226   2 
   0   3  -5 23.3951 2.74501   1 
   0  -3   5 29.1547 3.29915   1 
   0  -3   5 21.7753 3.19272   2 
   0  -3   5 25.2901 3.08915   2 
  -1   3  -5 279.003 16.8823   2 
  -1   3  -5 265.267 16.3066   2 
  -1   3  -5 294.407 16.9452   1 
   1  -3   5 305.664 16.8499   1 
   1  -3   5 281.981 17.2344   2 
   1  -3   5 270.530 16.7072   2 
   2  -3   5 55.5184 4.87910   2 
   2  -3   5 76.9220 5.24944   1 
   2  -3   5 73.1228 5.98454   2 
   3  -3   5 97.6531 6.77443   1 
   3  -3   5 81.9088 6.05250   2 
   3  -3   5 98.7472 7.39203   2 
   4  -3   5 169.358 10.8577   1 
   4  -3   5 172.302 11.6234   2 
   4  -3   5 166.198 11.2294   1 
   4  -3   5 165.157 10.0951   2 
   5  -3   5 105.810 8.25834   1 
   5  -3   5 114.055 7.01528   2 
   5  -3   5 106.232 8.78548   1 
   5  -3   5 91.2504 9.27273   2 
   6  -3   5 25.9439 4.42490   2 
   6  -3   5 28.3594 4.79974   1 
   6  -3   5 38.8874 5.52988   1 
   6  -3   5 32.9710 7.06212   2 
   7  -3   5 163.969 15.4568   2 
   7  -3   5 187.210 13.2356   1 
   7  -3   5 158.944 13.2756   2 
   8   2  -5 79.7327 9.72319   1 
   8   2  -5 62.4635 12.8643   2 
   8   2  -5 66.2456 10.2140   2 
  -8  -2   5 81.4731 10.2430   1 
  -8  -2   5 78.3597 8.19683   2 
  -8  -2   5 47.3003 7.93144   2 
   7   2  -5 108.336 10.6364   2 
   7   2  -5 115.256 11.3610   1 
   7   2  -5 110.890 13.7122   2 
  -7  -2   5 107.872 9.43633   2 
  -7  -2   5 104.423 9.30833   1 
  -7  -2   5 117.259 9.26141   2 
   6   2  -5 188.715 14.3074   2 
   6   2  -5 171.054 12.5722   2 
   6   2  -5 185.857 12.8365   1 
  -6  -2   5 175.367 11.8334   2 
  -6  -2   5 176.577 11.9206   1 
  -6  -2   5 151.697 11.6921   2 
   5   2  -5 22.1627 4.17557   1 
   5   2  -5 26.7155 5.18674   2 
   5   2  -5 22.3428 4.12431   2 
  -5  -2   5 18.3239 3.28006   2 
  -5  -2   5 19.0546 3.23792   2 
  -5  -2   5 21.0163 2.99529   1 
   4   2  -5 53.3710 5.10796   2 
   4   2  -5 55.3375 6.04922   2 
   4   2  -5 53.5676 5.56803   1 
  -4  -2   5 53.9450 4.84302   2 
  -4  -2   5 59.6248 5.31016   2 
  -4  -2   5 55.8222 4.82707   1 
   3   2  -5 11.0146 3.39126   2 
   3   2  -5 0.34273 2.21009   1 
   3   2  -5 2.91532 2.08175   2 
  -3  -2   5 2.45944 1.52557   2 
  -3  -2   5 4.85137 2.20389   2 
  -3  -2   5 4.02088 1.78834   1 
   2   2  -5 723.775 41.2167   1 
   2   2  -5 721.677 41.0160   2 
   2   2  -5 764.168 41.6310   2 
  -2  -2   5 689.022 40.9847   2 
  -2  -2   5 714.064 41.2767   2 
  -2  -2   5 676.533 41.0894   1 
   1   2  -5 264.350 15.0814   2 
   1   2  -5 251.350 15.6113   2 
   1   2  -5 257.141 15.4341   1 
  -1  -2   5 236.000 16.0353   2 
  -1  -2   5 267.235 15.4520   1 
  -1  -2   5 260.385 15.4665   2 
   0   2  -5 5.45945 2.09895   2 
   0   2  -5 5.48056 1.93652   1 
   0   2  -5 7.08614 1.16295   2 
   0  -2   5 6.60634 1.54793   2 
   0  -2   5 4.20021 1.64113   1 
   0  -2   5 6.04402 1.82369   2 
   1  -2   5 279.576 16.5779   2 
   1  -2   5 281.507 16.8507   2 
   1  -2   5 297.357 16.9380   1 
   2  -2   5 71.4090 5.49997   1 
   3  -2   5 30.7808 4.38443   1 
   3  -2   5 30.1764 3.79101   1 
   4  -2   5 65.1782 6.05205   1 
   4  -2   5 57.4334 6.66696   1 
   5  -2   5 116.902 9.30696   2 
   5  -2   5 125.661 8.39269   2 
   5  -2   5 131.301 9.76574   1 
   5  -2   5 133.169 10.3425   1 
   6  -2   5 17.0851 5.49286   1 
   6  -2   5 7.25794 5.01829   2 
   6  -2   5 13.1731 5.23804   1 
   6  -2   5 3.37774 5.34199   2 
   8   1  -5 21.5066 7.39870   1 
   8   1  -5 5.26702 9.50311   2 
   8   1  -5 16.1404 7.84349   2 
  -8  -1   5 23.9155 5.56500   2 
  -8  -1   5 20.3900 5.01852   2 
  -8  -1   5 29.1904 6.15956   1 
   7   1  -5 -0.6173 6.14195   2 
   7   1  -5 -5.7171 5.25501   2 
   7   1  -5 3.90668 5.50716   1 
  -7  -1   5 3.07888 3.51439   1 
  -7  -1   5 10.9505 4.13677   2 
  -7  -1   5 13.4304 5.33891   2 
   6   1  -5 -1.1986 3.87696   2 
   6   1  -5 4.94672 4.03224   1 
   6   1  -5 6.71882 4.58784   2 
  -6  -1   5 4.11206 2.79402   2 
  -6  -1   5 -1.4473 2.79453   2 
  -6  -1   5 2.29726 2.72518   1 
   5   1  -5 50.3234 6.08610   2 
   5   1  -5 45.6210 5.51844   2 
   5   1  -5 39.5099 5.79733   1 
  -5  -1   5 41.9838 4.71185   1 
  -5  -1   5 43.7919 4.43632   2 
  -5  -1   5 47.9323 4.72090   2 
   4   1  -5 206.142 13.0933   1 
   4   1  -5 200.815 12.9567   2 
   4   1  -5 201.362 13.2835   2 
  -4  -1   5 204.332 12.7670   1 
  -4  -1   5 200.642 12.7691   2 
  -4  -1   5 233.895 12.8782   2 
   3   1  -5 27.8582 3.51029   1 
   3   1  -5 32.3262 3.79405   2 
   3   1  -5 28.5201 3.60060   2 
  -3  -1   5 29.0843 3.10541   2 
  -3  -1   5 31.2143 3.02467   2 
  -3  -1   5 28.5516 3.33206   1 
   2   1  -5 167.043 10.3711   1 
   2   1  -5 158.807 10.2046   2 
  -2  -1   5 163.580 9.94909   2 
  -2  -1   5 157.520 10.1784   1 
  -2  -1   5 166.509 9.87216   2 
   1   1  -5 106.011 6.81085   2 
   1   1  -5 99.0518 6.94243   1 
   1   1  -5 99.8019 6.46065   2 
  -1  -1   5 101.327 6.43077   2 
  -1  -1   5 100.981 6.92470   1 
  -1  -1   5 105.698 6.38495   2 
   0  -1   5 100.762 6.17087   2 
   0  -1   5 98.6081 6.78500   1 
   0  -1   5 102.716 6.18127   2 
   1  -1   5 498.009 28.9587   1 
   2  -1   5 207.774 12.9398   1 
   3  -1   5 463.079 27.4556   1 
   4  -1   5 28.7364 4.40938   1 
   5  -1   5 85.2534 9.03983   1 
   5  -1   5 57.9723 6.77884   2 
   5  -1   5 57.6016 5.52493   2 
   6  -1   5 32.6143 6.91972   1 
   6  -1   5 21.8757 4.96100   2 
   6  -1   5 20.4073 7.16852   2 
   9   0  -5 13.9137 10.2910   2 
   9   0  -5 -18.471 10.7047   2 
  -9   0   5 -8.5334 6.86467   2 
  -9   0   5 -7.2130 7.58247   1 
  -9   0   5 -5.7928 6.06124   2 
   8   0  -5 30.5795 8.35256   2 
   8   0  -5 34.2388 6.56340   1 
  -8   0   5 27.6034 5.45079   2 
  -8   0   5 25.1079 4.68970   2 
  -8   0   5 32.6553 4.82552   1 
   7   0  -5 41.9786 6.37074   2 
   7   0  -5 44.8305 6.24059   2 
   7   0  -5 40.0989 5.95427   1 
  -7   0   5 42.6760 5.59178   2 
  -7   0   5 48.7829 5.83897   1 
  -7   0   5 45.2967 5.94851   2 
   6   0  -5 605.281 35.3735   2 
   6   0  -5 623.520 35.5485   2 
   6   0  -5 568.883 34.8968   1 
  -6   0   5 619.547 34.7066   1 
  -6   0   5 613.227 34.9434   2 
  -6   0   5 548.499 34.6197   2 
   5   0  -5 5.85061 2.60710   1 
   5   0  -5 4.42785 3.04560   2 
   5   0  -5 3.58346 2.96324   2 
  -5   0   5 9.71060 2.22979   2 
  -5   0   5 6.08783 2.35922   1 
  -5   0   5 9.10141 2.15674   2 
   4   0  -5 418.723 26.2760   2 
   4   0  -5 465.678 26.2802   1 
   4   0  -5 440.470 26.3728   2 
  -4   0   5 465.045 26.2076   1 
  -4   0   5 429.930 25.9717   2 
  -4   0   5 461.350 26.1377   2 
   3   0  -5 61.1119 5.11225   2 
   3   0  -5 63.3677 4.81666   2 
   3   0  -5 60.7924 5.03164   1 
  -3   0   5 64.5332 5.11819   1 
  -3   0   5 63.4167 4.71639   2 
  -3   0   5 60.5627 4.37629   2 
   2   0  -5 809.474 47.8607   1 
   2   0  -5 817.083 47.7326   2 
  -2   0   5 864.696 47.9195   1 
  -2   0   5 856.902 47.7172   2 
  -2   0   5 820.529 47.5679   2 
   1   0  -5 892.548 51.8431   2 
   1   0  -5 925.122 51.6684   2 
  -1   0   5 932.270 51.9541   1 
  -1   0   5 926.292 51.6623   2 
  -1   0   5 852.206 51.4723   2 
   0   0   5 544.343 31.2826   1 
   0   0   5 555.096 30.8668   2 
   0   0   5 517.308 30.6813   2 
   2   0   5 345.816 20.9557   1 
   3   0   5 34.5203 4.71954   1 
   4   0   5 102.840 9.99936   1 
   5   0   5 19.4820 3.37890   2 
   5   0   5 19.1266 6.48021   2 
   5   0   5 28.8396 10.0032   1 
   6   0   5 12.3922 8.45579   1 
   6   0   5 17.0369 9.32037   2 
   6   0   5 7.46815 4.46435   2 
   9  -1  -5 -4.2304 9.94110   2 
   9  -1  -5 4.59225 6.59137   1 
   9  -1  -5 7.63234 10.2581   2 
  -9   1   5 1.31441 6.60288   2 
  -9   1   5 1.76636 5.08713   1 
  -9   1   5 -1.3005 5.90442   2 
   8  -1  -5 112.391 11.4140   2 
   8  -1  -5 103.340 10.0511   1 
   8  -1  -5 105.995 11.9990   2 
  -8   1   5 98.4085 9.44556   2 
  -8   1   5 105.111 9.19722   2 
  -8   1   5 112.021 8.88563   1 
   7  -1  -5 16.1245 4.50623   1 
   7  -1  -5 10.4034 5.24266   2 
   7  -1  -5 23.5873 6.07172   2 
  -7   1   5 9.78973 3.28318   2 
  -7   1   5 18.2302 3.32454   1 
  -7   1   5 15.3592 3.79078   2 
   6  -1  -5 71.3501 8.30417   2 
   6  -1  -5 82.2874 7.58729   1 
   6  -1  -5 101.410 7.80213   2 
  -6   1   5 98.7285 7.13365   2 
  -6   1   5 103.119 7.30291   1 
  -6   1   5 106.111 7.65250   2 
   5  -1  -5 76.5741 5.99372   1 
   5  -1  -5 72.8978 6.05722   2 
   5  -1  -5 65.8307 6.77387   2 
  -5   1   5 70.5258 5.30549   2 
  -5   1   5 68.6796 5.84859   1 
  -5   1   5 72.0089 5.73985   2 
   4  -1  -5 -0.0684 2.02684   2 
   4  -1  -5 -1.6588 2.23706   1 
   4  -1  -5 -0.5652 2.81892   2 
  -4   1   5 1.39905 2.22379   1 
  -4   1   5 -0.2192 1.29306   2 
  -4   1   5 0.28313 2.05389   2 
   3  -1  -5 2.82496 3.09442   2 
   3  -1  -5 1.78154 1.60674   2 
  -3   1   5 1.61482 2.04857   1 
  -3   1   5 -0.4392 1.29544   2 
  -3   1   5 0.46982 1.76109   2 
   2  -1  -5 130.381 8.83649   2 
   2  -1  -5 133.384 7.73452   2 
  -2   1   5 124.717 8.21798   1 
  -2   1   5 117.297 8.05262   2 
  -2   1   5 118.883 7.63446   2 
   1  -1  -5 1865.17 107.552   2 
   1  -1  -5 1903.17 108.165   2 
  -1   1   5 1980.39 107.910   2 
  -1   1   5 1864.40 107.592   2 
  -1   1   5 1873.80 107.985   1 
   0  -1  -5 352.605 20.0140   2 
   0  -1  -5 323.645 20.4166   2 
   0   1   5 346.072 20.1935   2 
   0   1   5 369.050 20.6059   2 
   0   1   5 354.557 20.9332   1 
   1   1   5 62.1430 5.67798   2 
   1   1   5 67.0604 4.70365   2 
   1   1   5 70.6035 6.15194   1 
   2   1   5 102.141 6.79985   2 
   2   1   5 111.862 8.34472   1 
   2   1   5 92.6402 8.05244   2 
   3   1   5 1.38596 2.03510   2 
   3   1   5 2.13472 4.28682   1 
   3   1   5 6.53124 4.33439   2 
   4   1   5 812.701 45.2050   1 
   4   1   5 725.167 43.5084   2 
   4   1   5 743.595 44.8145   2 
   5   1   5 159.243 14.1727   1 
   5   1   5 123.420 9.57368   2 
   5   1   5 144.634 15.0771   2 
   9  -2  -5 7.90968 8.76482   2 
   9  -2  -5 -1.7126 10.7301   2 
   9  -2  -5 3.63132 5.66449   1 
  -9   2   5 0.59178 5.82945   2 
  -9   2   5 17.6110 4.88048   1 
  -9   2   5 9.00217 5.97513   2 
   8  -2  -5 116.727 11.0989   2 
   8  -2  -5 101.269 12.3566   2 
   8  -2  -5 91.7462 9.33620   1 
  -8   2   5 125.170 9.61743   2 
  -8   2   5 110.836 8.40836   1 
  -8   2   5 112.376 9.61573   2 
   7  -2  -5 44.4807 7.49738   2 
   7  -2  -5 49.7338 5.83888   2 
  -7   2   5 41.3654 4.83210   2 
  -7   2   5 35.3790 4.26284   1 
  -7   2   5 45.5916 5.12641   2 
   6  -2  -5 9.20861 4.94057   2 
   6  -2  -5 13.8101 3.67916   2 
  -6   2   5 12.3005 3.20187   1 
  -6   2   5 12.0118 3.06175   2 
  -6   2   5 12.6261 3.16355   2 
   5  -2  -5 0.54394 2.19886   2 
   5  -2  -5 -0.0186 3.82974   2 
  -5   2   5 -2.1009 2.59501   2 
  -5   2   5 -0.8620 2.39097   2 
  -5   2   5 4.04215 2.68825   1 
   4  -2  -5 14.4847 4.03433   2 
   4  -2  -5 3.18138 2.00643   2 
  -4   2   5 1.45736 2.32446   1 
  -4   2   5 6.58547 2.37919   2 
  -4   2   5 2.28194 1.74148   2 
   3  -2  -5 397.926 25.5692   2 
   3  -2  -5 431.790 24.4195   2 
  -3   2   5 411.535 24.6851   1 
  -3   2   5 427.124 24.8832   2 
  -3   2   5 423.602 24.4578   2 
   2  -2  -5 740.302 44.9433   2 
   2  -2  -5 785.259 43.9797   2 
  -2   2   5 803.519 44.5247   2 
  -2   2   5 741.226 44.3252   1 
  -2   2   5 769.639 44.0691   2 
   1  -2  -5 -0.3465 3.53670   2 
   1  -2  -5 -0.2949 1.13160   2 
  -1   2   5 1.66419 1.72627   2 
  -1   2   5 1.64806 2.49386   1 
  -1   2   5 -1.3682 2.91203   2 
   0  -2  -5 17.3697 3.10522   2 
   0  -2  -5 14.3050 1.87144   2 
   0   2   5 18.8522 3.86554   2 
   0   2   5 16.9917 3.29926   1 
   0   2   5 20.4376 2.48267   2 
   1   2   5 27.8454 4.75907   2 
   1   2   5 30.4774 3.76524   2 
   1   2   5 30.3507 4.07291   1 
   2   2   5 33.8728 4.21200   2 
   2   2   5 39.6769 5.82964   2 
   2   2   5 37.7510 6.27659   1 
   3   2   5 38.8253 7.18640   2 
   3   2   5 44.6782 6.42181   1 
   3   2   5 32.0358 3.76254   2 
   4   2   5 2.22580 3.29408   2 
   4   2   5 8.61876 6.42235   1 
   4   2   5 6.14397 8.17796   2 
   5   2   5 147.983 11.2288   2 
   5   2   5 173.745 16.0615   1 
   5   2   5 176.007 20.1554   2 
   9  -3  -5 15.1593 12.8273   2 
   9  -3  -5 13.3168 8.41158   2 
  -9   3   5 -1.0167 6.39307   2 
  -9   3   5 2.00112 6.59336   2 
  -9   3   5 3.52694 4.31929   1 
   8  -3  -5 43.1018 10.1971   2 
   8  -3  -5 42.6298 7.04316   2 
  -8   3   5 45.8500 6.67551   2 
  -8   3   5 47.8555 5.98878   1 
  -8   3   5 42.9390 5.96736   2 
   7  -3  -5 7.56306 4.26475   2 
   7  -3  -5 2.16963 6.89222   2 
  -7   3   5 4.55046 3.33461   1 
  -7   3   5 7.32329 4.74741   2 
  -7   3   5 1.50616 3.36138   2 
   6  -3  -5 30.4141 6.81871   2 
   6  -3  -5 44.8827 5.78774   2 
  -6   3   5 37.7842 4.66610   1 
  -6   3   5 47.7411 5.22464   2 
  -6   3   5 43.4343 5.30300   2 
   5  -3  -5 21.3965 6.03920   2 
   5  -3  -5 22.7781 3.32145   2 
  -5   3   5 27.7736 3.75484   1 
  -5   3   5 28.1951 3.61422   2 
  -5   3   5 25.8987 4.06129   2 
   4  -3  -5 1.61716 5.58560   2 
   4  -3  -5 10.7314 2.51363   2 
  -4   3   5 7.53676 3.28505   2 
  -4   3   5 6.40350 2.86743   1 
  -4   3   5 3.83792 2.48901   2 
   3  -3  -5 933.314 58.5099   2 
   3  -3  -5 981.762 57.1709   2 
  -3   3   5 1014.44 57.4697   1 
  -3   3   5 1009.75 57.8305   2 
  -3   3   5 1044.59 57.6104   1 
  -3   3   5 1002.79 57.3948   2 
   2  -3  -5 88.4509 5.83232   2 
   2  -3  -5 75.1068 9.27516   2 
  -2   3   5 87.8028 7.19412   1 
  -2   3   5 91.0133 6.64615   2 
  -2   3   5 81.2600 7.48342   2 
   1  -3  -5 3.21010 1.55802   2 
   1  -3  -5 3.32645 4.40639   2 
  -1   3   5 0.69441 2.55136   1 
  -1   3   5 5.36168 2.68909   2 
  -1   3   5 3.00936 4.39794   2 
   0  -3  -5 392.713 23.8367   2 
   0  -3  -5 367.419 22.4353   2 
   0   3   5 386.369 23.5971   1 
   0   3   5 397.235 24.1553   2 
   0   3   5 396.959 23.1053   2 
  -1  -3  -5 224.785 13.3332   2 
  -1  -3  -5 189.784 12.1459   2 
   1   3   5 204.653 14.9329   2 
   1   3   5 212.268 14.1462   1 
   2   3   5 121.715 12.5874   2 
   2   3   5 133.114 9.22835   2 
   2   3   5 117.477 11.0542   1 
   3   3   5 14.8609 4.09129   2 
   3   3   5 10.4950 6.52998   1 
   3   3   5 5.76486 8.52764   2 
   4   3   5 9.26065 9.08558   1 
   4   3   5 9.06131 4.41329   2 
   4   3   5 14.1231 11.1399   2 
   9  -4  -5 18.6044 9.04568   2 
   9  -4  -5 3.68113 14.4479   2 
  -9   4   5 34.0656 8.08803   2 
  -9   4   5 18.2285 7.66418   2 
   8  -4  -5 8.41280 6.24586   2 
   8  -4  -5 -11.424 11.7783   2 
  -8   4   5 7.47208 3.70025   1 
  -8   4   5 15.3859 6.32047   2 
   7  -4  -5 25.1070 10.3498   2 
   7  -4  -5 39.4492 5.72292   2 
  -7   4   5 28.6761 5.62951   2 
  -7   4   5 25.7928 4.39356   1 
   6  -4  -5 32.3809 9.48805   2 
   6  -4  -5 34.8444 4.57408   2 
  -6   4   5 33.1837 5.09984   2 
  -6   4   5 24.0604 4.88779   2 
  -6   4   5 30.0674 4.71260   1 
  -6   4   5 39.0617 4.71746   1 
   5  -4  -5 11.8178 7.06820   2 
   5  -4  -5 29.4907 4.16502   2 
  -5   4   5 28.1556 4.00919   1 
  -5   4   5 29.5930 4.69005   2 
  -5   4   5 21.5922 4.84774   2 
  -5   4   5 30.0217 4.02342   1 
   4  -4  -5 32.0109 3.91932   2 
   4  -4  -5 19.8166 8.05226   2 
  -4   4   5 39.3656 5.50713   1 
  -4   4   5 22.7405 4.19977   2 
  -4   4   5 32.8510 4.40860   1 
  -4   4   5 32.5810 5.26852   2 
   3  -4  -5 245.988 13.8473   2 
   3  -4  -5 199.489 17.4603   2 
  -3   4   5 232.964 14.5759   2 
  -3   4   5 202.031 15.0279   2 
  -3   4   5 218.334 14.3605   1 
   2  -4  -5 360.283 21.5942   2 
   2  -4  -5 326.556 23.8524   2 
  -2   4   5 384.854 22.2710   2 
  -2   4   5 362.368 22.3519   1 
  -2   4   5 381.715 23.0405   2 
   1  -4  -5 127.026 11.8823   2 
   1  -4  -5 112.523 7.81519   2 
  -1   4   5 103.421 12.8835   2 
  -1   4   5 129.629 9.34021   2 
   0  -4  -5 390.013 24.0671   2 
   0  -4  -5 346.964 22.2110   2 
   0   4   5 384.677 23.6395   1 
   0   4   5 388.121 23.2182   2 
   0   4   5 400.536 25.0242   2 
  -1  -4  -5 23.2461 3.01695   2 
  -1  -4  -5 34.9703 5.27522   2 
   1   4   5 28.1191 5.97068   1 
   1   4   5 31.9561 7.71405   2 
   1   4   5 32.2824 4.93725   2 
  -2  -4  -5 9.71447 2.47004   2 
  -2  -4  -5 10.4938 4.06583   2 
   2   4   5 1.06221 6.08272   1 
   2   4   5 10.9224 9.31397   2 
   2   4   5 12.6580 4.56399   2 
   3   4   5 18.8242 5.45454   2 
   3   4   5 20.4397 12.3782   2 
   3   4   5 28.8942 8.38667   1 
   8  -5  -5 34.1400 7.50344   2 
   8  -5  -5 21.6875 14.7291   2 
  -8   5   5 35.6720 8.26316   2 
  -8   5   5 27.0405 7.52775   2 
  -8   5   5 18.4979 4.91665   1 
  -8   5   5 21.7508 4.99979   1 
   7  -5  -5 32.7293 11.5792   2 
   7  -5  -5 23.9618 5.48016   2 
  -7   5   5 19.2572 4.75898   1 
  -7   5   5 27.3883 6.45865   2 
  -7   5   5 23.1639 4.80014   1 
  -7   5   5 17.6376 6.49778   2 
   6  -5  -5 6.18093 3.96377   2 
   6  -5  -5 6.78224 10.4993   2 
  -6   5   5 11.3248 5.35022   2 
  -6   5   5 8.91833 4.32555   1 
  -6   5   5 3.11089 4.41085   1 
  -6   5   5 1.89470 5.50498   2 
   5  -5  -5 129.085 9.93838   2 
   5  -5  -5 116.579 13.8914   2 
  -5   5   5 129.546 10.2299   1 
  -5   5   5 104.507 11.3728   2 
  -5   5   5 112.259 9.90877   1 
  -5   5   5 123.992 10.0533   2 
   4  -5  -5 160.423 17.8416   2 
  -4   5   5 167.159 12.1898   2 
  -4   5   5 166.100 13.3893   2 
  -4   5   5 170.738 12.4526   1 
   3  -5  -5 453.808 25.8254   2 
   3  -5  -5 454.770 30.5134   2 
  -3   5   5 410.934 27.3609   2 
  -3   5   5 412.441 26.6486   1 
  -3   5   5 428.432 26.4958   2 
   2  -5  -5 8.23569 3.12307   2 
   2  -5  -5 10.6723 8.26520   2 
  -2   5   5 14.7775 6.22588   2 
  -2   5   5 8.75304 4.74470   1 
   1  -5  -5 18.5592 8.39387   2 
   1  -5  -5 11.3191 3.13667   2 
  -1   5   5 1.76774 4.80241   1 
  -1   5   5 7.25999 6.98654   2 
  -1   5   5 10.6031 4.98884   2 
   0  -5  -5 358.460 24.3063   2 
   0  -5  -5 331.214 21.5367   2 
   0   5   5 384.399 23.1610   2 
   0   5   5 417.741 26.0988   2 
   0   5   5 339.753 23.3392   1 
  -1  -5  -5 3.10203 3.24415   2 
  -1  -5  -5 3.53521 6.49587   2 
   1   5   5 3.51272 10.3989   2 
   1   5   5 7.71757 6.47090   1 
   1   5   5 3.06291 5.16637   2 
  -2  -5  -5 5.46144 3.47536   2 
   2   5   5 -9.5324 12.6267   2 
   2   5   5 9.62742 5.98828   2 
   2   5   5 1.22560 7.52890   1 
   7  -6  -5 9.52311 6.70640   2 
   7  -6  -5 14.6611 16.6022   2 
  -7   6   5 6.73305 5.50753   1 
  -7   6   5 22.0239 7.03926   2 
  -7   6   5 17.3042 7.67023   2 
  -7   6   5 20.0083 5.70521   1 
   6  -6  -5 6.27357 5.40373   2 
   6  -6  -5 -6.0484 14.6029   2 
  -6   6   5 4.73067 6.61973   2 
  -6   6   5 8.28421 4.94699   1 
  -6   6   5 2.56661 6.31902   2 
  -6   6   5 -0.2398 5.09040   1 
   5  -6  -5 9.16541 4.74901   2 
   5  -6  -5 6.23304 14.1603   2 
  -5   6   5 2.59543 5.09068   1 
  -5   6   5 3.12088 6.06750   2 
  -5   6   5 5.98621 4.98029   1 
  -5   6   5 0.77511 7.11297   2 
   4  -6  -5 54.1648 14.0451   2 
   4  -6  -5 46.8269 5.83475   2 
  -4   6   5 41.5550 8.09369   2 
  -4   6   5 47.0726 6.56529   1 
   3  -6  -5 48.1942 14.0279   2 
   3  -6  -5 49.8810 6.38492   2 
  -3   6   5 51.9332 6.92652   1 
  -3   6   5 41.2563 7.65044   2 
  -3   6   5 44.9621 8.35779   2 
   2  -6  -5 48.6621 5.60166   2 
   2  -6  -5 21.1917 12.1029   2 
  -2   6   5 44.6829 7.32865   1 
  -2   6   5 45.9279 7.59492   2 
  -2   6   5 58.9057 10.4084   2 
   1  -6  -5 23.1004 4.29571   2 
   1  -6  -5 51.0958 11.3195   2 
  -1   6   5 24.5685 8.99940   2 
  -1   6   5 26.0421 7.51846   2 
  -1   6   5 27.4075 7.04367   1 
   0  -6  -5 17.7455 10.3324   2 
   0  -6  -5 24.3533 4.41539   2 
   0   6   5 44.3786 7.87197   1 
   0   6   5 44.7030 14.8280   2 
   0   6   5 23.5625 7.31003   2 
   6  -7  -5 48.1884 7.64432   2 
   6  -7  -5 69.7110 20.2373   2 
  -6   7   5 54.1994 8.42262   1 
  -6   7   5 49.8808 10.6686   2 
  -6   7   5 47.4706 8.17235   1 
  -6   7   5 70.4696 11.3933   2 
   5  -7  -5 20.7227 18.1867   2 
   5  -7  -5 10.9457 6.35239   2 
  -5   7   5 4.15864 6.91958   1 
  -5   7   5 1.30948 8.38053   2 
  -5   7   5 9.46756 9.51493   2 
   4  -7  -5 -3.8532 17.6420   2 
   4  -7  -5 5.92400 5.63631   2 
  -4   7   5 1.52933 9.40222   2 
  -4   7   5 3.28164 6.76629   1 
  -4   7   5 10.3565 7.94989   2 
   3  -7  -5 8.88353 15.7208   2 
   3  -7  -5 32.9009 6.51528   2 
  -3   7   5 30.2747 8.74402   2 
  -3   7   5 32.3544 10.3710   2 
  -3   7   5 31.0142 8.33981   1 
   2  -7  -5 -3.7965 5.44533   2 
   2  -7  -5 8.40352 15.1368   2 
  -2   7   5 2.66145 8.23812   1 
  -2   7   5 -7.3299 8.92906   2 
  -2   7   5 3.43408 11.6788   2 
   1   9  -6 28.8774 10.7360   1 
   1   9  -6 19.3500 14.2564   2 
   1   9  -6 30.8469 10.0105   2 
  -1  -9   6 36.4639 8.57548   2 
  -1  -9   6 15.2693 7.42316   1 
  -1  -9   6 17.8683 12.0098   2 
   0   9  -6 43.7679 10.1129   2 
   0   9  -6 12.6277 8.13361   1 
   0   9  -6 18.9900 12.2811   2 
   0  -9   6 25.2200 6.61878   1 
   0  -9   6 27.5896 7.99445   2 
   0  -9   6 22.5063 11.8464   2 
  -1   9  -6 -4.2865 11.0881   2 
  -1   9  -6 10.5505 7.42228   2 
  -1   9  -6 13.4416 8.10265   1 
   1  -9   6 4.49072 7.24745   2 
   1  -9   6 13.0685 11.1713   2 
   1  -9   6 3.12958 6.64687   1 
  -2   9  -6 96.5028 13.4370   2 
  -2   9  -6 76.7999 9.29731   2 
  -2   9  -6 66.3101 9.26867   1 
   2  -9   6 53.9402 13.5638   2 
   2  -9   6 91.7581 10.4024   2 
   2  -9   6 75.2080 10.2912   1 
  -3   9  -6 214.070 16.7171   2 
  -3   9  -6 196.845 16.7610   1 
  -3   9  -6 188.508 19.0809   2 
   3  -9   6 206.040 17.2706   2 
   3  -9   6 204.653 15.1706   1 
   3  -9   6 172.721 22.5127   2 
   3   8  -6 105.355 17.2433   2 
   3   8  -6 145.002 15.7254   1 
   3   8  -6 132.827 15.9307   2 
  -3  -8   6 125.231 14.2524   2 
  -3  -8   6 115.362 12.7033   1 
  -3  -8   6 113.885 15.3337   2 
   2   8  -6 4.96630 8.52855   2 
   2   8  -6 27.8645 8.14743   1 
   2   8  -6 -1.8547 12.0715   2 
  -2  -8   6 17.6423 9.17734   2 
  -2  -8   6 18.3357 6.32603   1 
  -2  -8   6 28.0617 7.25268   2 
   1   8  -6 57.8548 8.79995   2 
   1   8  -6 53.1135 8.29826   1 
   1   8  -6 58.8187 12.1008   2 
  -1  -8   6 54.7274 7.98095   2 
  -1  -8   6 63.1562 10.5895   2 
  -1  -8   6 50.1254 7.33134   1 
   0   8  -6 81.6629 11.8590   2 
   0   8  -6 79.6706 11.0730   1 
   0   8  -6 100.324 11.3336   2 
   0  -8   6 104.774 9.96955   1 
   0  -8   6 47.3048 15.6596   2 
   0  -8   6 101.837 10.5000   2 
  -1   8  -6 88.6093 11.7065   2 
  -1   8  -6 92.9075 10.3280   1 
  -1   8  -6 93.2712 10.2308   2 
   1  -8   6 96.0446 10.6237   2 
   1  -8   6 95.3924 12.1372   2 
   1  -8   6 88.9646 8.98080   1 
  -2   8  -6 3.72250 5.72801   1 
  -2   8  -6 -16.502 8.12057   2 
   2  -8   6 0.38186 6.04846   2 
   2  -8   6 1.30514 4.48714   1 
   2  -8   6 7.06608 9.44303   2 
  -3   8  -6 45.8511 8.05378   2 
  -3   8  -6 41.3897 7.16059   1 
  -3   8  -6 53.0932 7.01392   2 
   3  -8   6 58.5076 11.7384   2 
   3  -8   6 53.5800 6.11596   1 
   3  -8   6 53.6119 7.19499   2 
  -4   8  -6 39.0005 6.58566   2 
  -4   8  -6 39.1847 6.32479   1 
  -4   8  -6 42.3911 7.09548   2 
   4  -8   6 52.2384 5.83351   1 
   4  -8   6 54.2612 12.2315   2 
  -5   8  -6 22.0318 6.74091   2 
  -5   8  -6 25.8431 6.36648   2 
   5  -8   6 33.1617 13.1604   2 
   5  -8   6 21.8593 6.73725   2 
   4   7  -6 -13.118 7.94482   2 
   4   7  -6 4.45117 8.19982   1 
  -4  -7   6 -1.6839 5.89170   1 
  -4  -7   6 -1.0784 7.03419   2 
  -4  -7   6 -2.8855 8.47084   2 
   3   7  -6 13.3896 6.33588   1 
   3   7  -6 14.0812 7.22237   2 
  -3  -7   6 16.0242 8.75605   2 
  -3  -7   6 9.63099 4.84173   1 
  -3  -7   6 10.4501 5.73493   2 
   2   7  -6 21.4712 6.39358   1 
   2   7  -6 25.0799 6.50464   2 
  -2  -7   6 32.6117 5.98522   2 
  -2  -7   6 22.3320 4.72909   1 
  -2  -7   6 23.9747 7.42741   2 
   1   7  -6 73.1977 9.85263   1 
   1   7  -6 97.6431 9.59227   2 
   1   7  -6 105.301 13.5094   2 
  -1  -7   6 91.3686 9.27453   2 
  -1  -7   6 78.7548 9.38171   2 
  -1  -7   6 87.4997 8.62084   1 
   0   7  -6 17.6060 7.36189   2 
   0   7  -6 14.0170 5.13903   2 
   0  -7   6 21.6925 4.95350   2 
   0  -7   6 16.7160 7.46507   2 
  -1   7  -6 6.08140 4.57604   1 
  -1   7  -6 -7.0306 6.76015   2 
   1  -7   6 8.66190 4.41204   2 
   1  -7   6 5.74267 7.21698   2 
   1  -7   6 9.89067 3.75334   1 
  -2   7  -6 -8.4431 3.88444   2 
  -2   7  -6 6.46969 4.53753   1 
  -2   7  -6 -6.9834 6.51000   2 
   2  -7   6 -10.788 6.29896   2 
   2  -7   6 6.52676 3.59032   1 
   2  -7   6 -2.7546 4.32834   2 
  -3   7  -6 52.8674 7.29073   2 
  -3   7  -6 61.3079 8.25982   1 
  -3   7  -6 59.1517 7.04153   2 
   3  -7   6 60.5613 6.71810   1 
   3  -7   6 67.3888 7.35560   2 
   3  -7   6 64.9403 10.0300   2 
  -4   7  -6 1.69456 4.80463   1 
  -4   7  -6 -1.7496 4.52858   2 
  -4   7  -6 2.35914 4.30869   2 
   4  -7   6 2.43555 8.61414   2 
   4  -7   6 3.36908 3.76916   1 
   4  -7   6 9.36523 5.45413   2 
  -5   7  -6 8.95776 4.43133   2 
  -5   7  -6 7.99125 3.83577   2 
   5  -7   6 -3.5333 4.88565   2 
   5  -7   6 -2.7089 10.2271   2 
   6  -7   6 5.78421 11.9497   2 
   6  -7   6 9.40628 5.83450   2 
   5   6  -6 0.12753 7.59705   2 
   5   6  -6 3.95684 7.97975   1 
   5   6  -6 2.18624 13.6164   2 
  -5  -6   6 8.02069 5.75005   1 
  -5  -6   6 5.42802 8.17007   2 
  -5  -6   6 0.56012 6.39747   2 
   4   6  -6 73.2614 8.74665   1 
   4   6  -6 69.3117 12.0372   2 
   4   6  -6 78.5296 9.90908   2 
  -4  -6   6 76.9147 9.56735   2 
  -4  -6   6 82.5204 8.25068   1 
  -4  -6   6 68.6405 7.95435   2 
   3   6  -6 8.33884 5.34358   1 
   3   6  -6 -1.6704 7.72213   2 
   3   6  -6 8.91721 5.10774   2 
  -3  -6   6 4.04001 4.33832   2 
  -3  -6   6 7.66911 3.59919   1 
  -3  -6   6 -0.0514 6.54689   2 
   2   6  -6 8.86278 7.80256   2 
   2   6  -6 18.7852 4.85053   2 
   2   6  -6 17.1257 4.57081   1 
  -2  -6   6 18.9506 3.82021   1 
  -2  -6   6 16.2388 3.88007   2 
  -2  -6   6 23.1539 6.17756   2 
   1   6  -6 9.52645 4.60423   1 
   1   6  -6 7.69123 6.14184   2 
   1   6  -6 8.55443 3.95460   2 
  -1  -6   6 4.46832 5.61029   2 
  -1  -6   6 10.8499 3.05750   1 
  -1  -6   6 9.96630 3.79838   2 
   0   6  -6 116.665 10.9272   2 
   0   6  -6 99.3814 8.39225   2 
   0   6  -6 88.6512 8.53010   1 
   0  -6   6 113.242 11.0252   2 
   0  -6   6 92.7206 7.54603   1 
   0  -6   6 105.956 8.78136   2 
  -1   6  -6 14.7829 3.85478   1 
  -1   6  -6 2.59133 3.32089   2 
   1  -6   6 6.77430 2.96794   1 
   1  -6   6 12.6388 3.62961   2 
   1  -6   6 9.90489 5.73247   2 
  -2   6  -6 187.131 13.8660   2 
  -2   6  -6 205.202 12.9548   1 
  -2   6  -6 198.954 12.7687   2 
   2  -6   6 206.138 12.4202   1 
   2  -6   6 174.889 15.0558   2 
   2  -6   6 179.432 13.5586   2 
  -3   6  -6 49.9492 6.10253   2 
  -3   6  -6 53.8541 7.32887   2 
  -3   6  -6 87.2884 7.04783   1 
   3  -6   6 64.2382 5.86672   1 
   3  -6   6 55.0752 7.33700   2 
   3  -6   6 57.2571 8.32390   2 
  -4   6  -6 240.561 15.1632   2 
  -4   6  -6 247.876 15.4923   2 
   4  -6   6 243.492 16.3449   2 
   4  -6   6 246.564 15.1533   1 
   4  -6   6 277.953 19.1805   2 
   5  -6   6 50.4934 9.62624   2 
   6  -6   6 92.1266 11.8304   2 
   6  -6   6 65.1040 7.11728   2 
   6   5  -6 -6.9591 7.97039   2 
   6   5  -6 19.0667 13.9635   2 
   6   5  -6 -3.3898 7.85010   1 
  -6  -5   6 -5.2630 7.07384   2 
  -6  -5   6 3.11456 6.55877   2 
  -6  -5   6 3.45452 5.68900   1 
   5   5  -6 12.5192 5.96600   2 
   5   5  -6 12.1621 10.7545   2 
   5   5  -6 12.1517 6.02371   1 
  -5  -5   6 25.1470 4.92373   1 
  -5  -5   6 24.2052 6.46667   2 
  -5  -5   6 17.8456 6.61532   2 
   4   5  -6 13.6883 5.03638   1 
   4   5  -6 20.1347 4.81225   2 
   4   5  -6 20.7581 8.50487   2 
  -4  -5   6 22.7221 4.38422   2 
  -4  -5   6 23.5320 3.73491   1 
  -4  -5   6 26.0712 5.98143   2 
   3   5  -6 116.675 11.4243   1 
   3   5  -6 140.968 10.1032   2 
   3   5  -6 138.113 13.3917   2 
  -3  -5   6 143.937 10.5512   2 
  -3  -5   6 141.048 11.8992   2 
   2   5  -6 11.4182 3.44825   2 
   2   5  -6 17.0678 3.78639   1 
   2   5  -6 22.2959 5.87936   2 
  -2  -5   6 18.5486 3.56276   2 
  -2  -5   6 12.2773 4.70921   2 
  -2  -5   6 16.4578 2.99179   1 
   1   5  -6 27.4867 3.79649   2 
   1   5  -6 28.4082 4.13513   1 
   1   5  -6 34.2657 5.78838   2 
  -1  -5   6 19.4201 5.02558   2 
  -1  -5   6 34.1509 3.71323   1 
  -1  -5   6 23.0401 3.67876   2 
   0   5  -6 193.162 12.7995   2 
   0   5  -6 160.837 11.2975   1 
   0   5  -6 149.840 10.7560   2 
   0  -5   6 180.004 11.3220   2 
   0  -5   6 180.126 11.0074   1 
   0  -5   6 167.200 12.8883   2 
  -1   5  -6 -4.7741 2.08639   2 
  -1   5  -6 -0.2956 2.91252   1 
  -1   5  -6 5.38054 4.15825   2 
   1  -5   6 -3.1033 2.86313   2 
   1  -5   6 -2.4177 2.41353   1 
   1  -5   6 -2.4847 4.18531   2 
  -2   5  -6 186.736 12.3974   1 
  -2   5  -6 186.676 11.7695   2 
  -2   5  -6 188.425 12.7105   2 
   2  -5   6 195.263 12.0413   1 
   2  -5   6 188.120 12.6528   2 
   2  -5   6 197.826 13.7463   2 
  -3   5  -6 468.737 28.1299   2 
   3  -5   6 485.026 28.9120   2 
   3  -5   6 513.383 28.5738   1 
   4  -5   6 3.89585 3.19230   1 
   4  -5   6 1.36646 5.67497   2 
   4  -5   6 2.49417 3.11140   2 
   5  -5   6 140.837 9.36082   2 
   5  -5   6 153.203 13.7912   2 
   5  -5   6 149.189 10.2866   1 
   5  -5   6 114.478 9.49744   1 
   6  -5   6 100.533 11.6147   2 
   6  -5   6 83.5395 7.58420   2 
   7   4  -6 31.2217 9.36731   1 
   7   4  -6 31.7160 9.13591   2 
   7   4  -6 25.3033 13.3557   2 
  -7  -4   6 28.4755 8.13236   2 
  -7  -4   6 37.6960 7.01606   2 
  -7  -4   6 26.5573 7.05846   1 
   6   4  -6 17.4683 6.51829   2 
   6   4  -6 31.3248 9.45020   2 
   6   4  -6 13.8370 7.42323   1 
  -6  -4   6 20.7855 5.50589   2 
  -6  -4   6 17.2612 5.58857   1 
  -6  -4   6 22.9094 5.95590   2 
   5   4  -6 42.7528 6.29497   1 
   5   4  -6 50.2964 8.86939   2 
   5   4  -6 51.0221 6.40318   2 
  -5  -4   6 51.4126 6.42309   2 
  -5  -4   6 46.5315 6.53895   1 
  -5  -4   6 45.1877 5.60226   2 
   4   4  -6 322.851 21.2924   2 
   4   4  -6 370.872 23.7047   2 
  -4  -4   6 354.413 22.0688   2 
  -4  -4   6 348.401 21.4880   2 
   3   4  -6 -2.3689 2.70606   2 
   3   4  -6 -1.4340 5.32364   2 
   3   4  -6 2.57434 3.37281   1 
  -3  -4   6 5.22001 3.92840   2 
  -3  -4   6 0.42791 2.47155   1 
  -3  -4   6 3.41261 3.02461   2 
   2   4  -6 379.231 23.4487   2 
   2   4  -6 363.389 22.1834   2 
   2   4  -6 351.057 22.4279   1 
  -2  -4   6 369.510 22.3258   2 
  -2  -4   6 395.375 23.1020   2 
  -2  -4   6 376.801 22.1425   1 
   1   4  -6 61.9496 5.79344   1 
   1   4  -6 69.2603 6.99582   2 
  -1  -4   6 66.1226 5.44134   2 
  -1  -4   6 61.4018 5.36581   1 
  -1  -4   6 66.3619 6.59028   2 
   0   4  -6 45.0797 5.09371   2 
   0   4  -6 48.9788 4.25296   2 
   0   4  -6 53.3275 5.31764   1 
   0  -4   6 43.6822 5.02584   2 
   0  -4   6 56.5709 4.89319   2 
   0  -4   6 47.4456 4.80862   1 
  -1   4  -6 226.421 13.1924   2 
  -1   4  -6 216.893 13.7636   1 
  -1   4  -6 226.563 14.1385   2 
   1  -4   6 212.279 13.7321   2 
   1  -4   6 236.622 13.6487   1 
   1  -4   6 206.447 14.3849   2 
  -2   4  -6 0.00562 1.24814   2 
  -2   4  -6 -2.2970 2.00225   2 
  -2   4  -6 1.99482 3.04082   1 
   2  -4   6 2.42784 2.25335   1 
   2  -4   6 -0.8928 2.41956   2 
   2  -4   6 7.95491 3.50223   2 
   3  -4   6 246.970 14.2755   1 
   3  -4   6 226.533 15.1092   2 
   3  -4   6 210.271 13.8749   2 
   4  -4   6 5.36774 3.34945   1 
   4  -4   6 4.85873 5.13111   2 
   5  -4   6 606.200 36.0122   1 
   5  -4   6 622.372 36.9956   2 
   5  -4   6 643.233 35.7679   1 
   5  -4   6 584.255 35.3059   2 
   6  -4   6 134.411 13.9529   2 
   6  -4   6 151.554 11.4136   1 
   6  -4   6 121.447 10.5354   1 
   6  -4   6 126.599 9.31920   2 
   7   3  -6 10.5992 7.68455   1 
   7   3  -6 0.49747 6.39709   2 
   7   3  -6 16.1440 10.5960   2 
  -7  -3   6 4.13665 5.73891   2 
  -7  -3   6 -6.3773 5.15665   1 
  -7  -3   6 5.42959 5.21188   2 
   6   3  -6 39.2122 9.28997   2 
   6   3  -6 38.5975 5.99082   2 
   6   3  -6 32.7033 6.15940   1 
  -6  -3   6 29.4988 5.38394   2 
  -6  -3   6 35.8819 5.43343   2 
  -6  -3   6 36.0186 4.88511   1 
   5   3  -6 -1.2874 4.29670   2 
   5   3  -6 9.89206 5.71157   2 
   5   3  -6 -1.7068 4.71020   1 
  -5  -3   6 0.46493 3.28123   2 
  -5  -3   6 1.95142 2.89725   1 
  -5  -3   6 8.23417 3.68891   2 
   4   3  -6 168.089 11.3480   2 
   4   3  -6 196.519 13.0946   2 
   4   3  -6 160.534 11.5919   1 
  -4  -3   6 156.528 10.8212   2 
  -4  -3   6 169.178 10.8197   1 
  -4  -3   6 155.737 11.3127   2 
   3   3  -6 51.5278 6.60835   2 
   3   3  -6 48.6366 4.77946   2 
   3   3  -6 42.9716 5.45590   1 
  -3  -3   6 39.9579 4.52517   1 
  -3  -3   6 50.0440 4.55619   2 
  -3  -3   6 38.4216 4.99601   2 
   2   3  -6 111.882 7.48983   2 
   2   3  -6 117.241 8.59059   2 
   2   3  -6 104.758 7.86102   1 
  -2  -3   6 110.076 7.34216   2 
  -2  -3   6 109.862 7.95818   2 
  -2  -3   6 95.9821 7.46885   1 
   1   3  -6 19.8201 2.69172   1 
   1   3  -6 14.8267 3.32270   2 
   1   3  -6 17.9428 2.26364   2 
  -1  -3   6 17.7887 3.19095   2 
  -1  -3   6 17.6304 2.55009   2 
  -1  -3   6 17.7553 2.52073   1 
   0   3  -6 60.1821 5.18304   1 
   0   3  -6 55.4002 3.96085   2 
   0   3  -6 54.0723 5.12371   2 
   0  -3   6 47.6544 5.15611   2 
   0  -3   6 57.6327 4.87701   1 
   0  -3   6 57.9278 4.60293   2 
  -1   3  -6 43.9731 3.12443   2 
  -1   3  -6 48.5613 3.88039   2 
  -1   3  -6 47.7950 5.12588   1 
   1  -3   6 42.4220 4.71189   2 
   1  -3   6 43.7332 4.07286   2 
   1  -3   6 44.6868 4.69657   1 
   2  -3   6 3.09645 2.44491   1 
   2  -3   6 1.30961 2.87045   2 
   2  -3   6 2.00741 2.05152   2 
   3  -3   6 187.976 11.4075   1 
   3  -3   6 160.301 10.4645   2 
   3  -3   6 176.820 11.4228   2 
   4  -3   6 132.849 9.60701   1 
   4  -3   6 130.496 10.2242   1 
   5  -3   6 12.2791 4.32618   1 
   5  -3   6 31.2514 5.49830   2 
   5  -3   6 8.34617 4.97936   1 
   6  -3   6 64.4201 6.96737   2 
   6  -3   6 65.4236 9.01913   1 
   6  -3   6 89.1164 10.3512   1 
   8   2  -6 50.7327 12.5884   2 
   8   2  -6 41.1706 9.08022   2 
   8   2  -6 43.7791 9.19346   1 
  -8  -2   6 48.6204 6.57173   2 
  -8  -2   6 46.6745 6.91013   1 
  -8  -2   6 36.3759 7.20685   2 
   7   2  -6 221.616 18.6781   2 
   7   2  -6 229.730 16.8550   1 
   7   2  -6 219.718 16.5530   2 
  -7  -2   6 228.402 15.1088   1 
  -7  -2   6 212.321 15.2705   2 
  -7  -2   6 218.427 15.0883   2 
   6   2  -6 14.3278 5.08828   1 
   6   2  -6 10.7872 4.75219   2 
   6   2  -6 9.03014 6.91863   2 
  -6  -2   6 16.2215 3.98467   2 
  -6  -2   6 12.4034 3.55261   1 
  -6  -2   6 12.1513 4.06522   2 
   5   2  -6 -4.0885 3.24986   2 
   5   2  -6 -4.4098 4.03255   1 
   5   2  -6 9.03141 5.41573   2 
  -5  -2   6 1.11821 2.41670   2 
  -5  -2   6 4.05187 3.01234   2 
  -5  -2   6 3.96866 2.74008   1 
   4   2  -6 720.496 40.7572   2 
   4   2  -6 646.466 39.8309   2 
   4   2  -6 679.124 40.0195   1 
  -4  -2   6 699.149 39.9338   2 
  -4  -2   6 698.650 39.8134   2 
  -4  -2   6 674.474 39.7641   1 
   3   2  -6 7.72187 2.70401   1 
   3   2  -6 3.61122 2.29899   2 
   3   2  -6 8.91794 3.45311   2 
  -3  -2   6 8.24377 2.59372   2 
  -3  -2   6 7.27522 2.24639   1 
  -3  -2   6 5.98905 2.04423   2 
   2   2  -6 703.627 39.8833   2 
   2   2  -6 643.676 39.5138   1 
  -2  -2   6 705.003 39.5246   1 
  -2  -2   6 656.180 39.4587   2 
  -2  -2   6 706.214 39.3149   2 
   1   2  -6 66.8467 5.47534   1 
   1   2  -6 67.5650 4.70479   2 
   1   2  -6 66.5672 5.49546   2 
  -1  -2   6 63.7736 4.97782   2 
  -1  -2   6 61.8986 5.28631   1 
  -1  -2   6 66.8521 4.91224   2 
   0   2  -6 38.0371 3.71097   2 
   0   2  -6 36.5918 4.35973   1 
   0   2  -6 35.9454 2.93240   2 
   0  -2   6 35.1564 3.33259   2 
   0  -2   6 30.6455 4.03653   1 
   0  -2   6 40.5817 3.26200   2 
   1  -2   6 108.823 6.93185   2 
   1  -2   6 105.447 6.70293   2 
   1  -2   6 111.645 7.53354   1 
   2  -2   6 12.5875 2.93839   1 
   3  -2   6 141.939 10.8468   1 
   3  -2   6 150.077 10.1031   1 
   4  -2   6 55.0168 5.78105   1 
   4  -2   6 49.3068 6.72756   1 
   5  -2   6 7.72247 5.21427   1 
   5  -2   6 0.58833 4.79831   1 
   6  -2   6 7.88911 7.09893   1 
   6  -2   6 12.0891 6.57608   1 
   8   1  -6 -4.5785 8.75473   2 
   8   1  -6 21.2538 7.17653   1 
  -8  -1   6 5.39423 5.65291   2 
  -8  -1   6 7.14692 5.36420   2 
  -8  -1   6 10.5377 5.41880   1 
   7   1  -6 0.87966 7.56672   2 
   7   1  -6 12.0846 5.71495   1 
   7   1  -6 -1.1890 6.17728   2 
  -7  -1   6 4.27636 3.84727   1 
  -7  -1   6 4.41711 4.10247   2 
  -7  -1   6 0.10549 4.29173   2 
   6   1  -6 -1.2974 5.58385   2 
   6   1  -6 10.5252 4.73026   1 
   6   1  -6 8.60362 4.33768   2 
  -6  -1   6 2.99986 3.38377   2 
  -6  -1   6 1.88016 2.68296   2 
  -6  -1   6 4.58694 2.92842   1 
   5   1  -6 -2.2393 3.22426   2 
   5   1  -6 2.96708 4.04924   2 
   5   1  -6 1.39096 3.46472   1 
  -5  -1   6 0.14869 2.53268   1 
  -5  -1   6 0.31525 2.24281   2 
  -5  -1   6 0.25300 2.28623   2 
   4   1  -6 92.4771 7.07780   2 
   4   1  -6 82.6199 7.01381   1 
   4   1  -6 105.489 7.58822   2 
  -4  -1   6 85.1177 6.42624   2 
  -4  -1   6 87.9660 6.43213   2 
  -4  -1   6 96.9743 7.09756   1 
   3   1  -6 148.320 10.5700   1 
   3   1  -6 150.208 10.3991   2 
   3   1  -6 182.202 10.9455   2 
  -3  -1   6 163.388 10.4225   1 
  -3  -1   6 161.397 10.1346   2 
  -3  -1   6 168.073 10.1022   2 
   2   1  -6 -1.0043 2.37491   2 
   2   1  -6 -2.0322 1.83267   1 
   2   1  -6 0.91953 2.04418   2 
  -2  -1   6 -0.2065 1.29859   2 
  -2  -1   6 0.99240 1.50266   2 
  -2  -1   6 2.40871 1.98053   1 
   1   1  -6 56.4723 4.46397   2 
   1   1  -6 51.7077 4.15245   2 
   1   1  -6 57.1500 4.84572   1 
  -1  -1   6 47.9100 4.60604   1 
  -1  -1   6 53.7820 3.71903   2 
  -1  -1   6 50.0058 3.94691   2 
   0  -1   6 1293.05 71.7711   2 
   0  -1   6 1252.45 71.7460   2 
   0  -1   6 1246.31 72.2971   1 
   1  -1   6 4.91568 0.95990   2 
   1  -1   6 1.81707 2.38066   1 
   2  -1   6 243.563 14.9407   1 
   2  -1   6 229.107 15.0856   1 
   3  -1   6 663.915 36.9456   1 
   3  -1   6 593.069 37.0286   1 
   4  -1   6 234.768 16.4467   1 
   4  -1   6 256.304 16.2792   1 
   5  -1   6 15.1229 14.2495   1 
   9   0  -6 15.8037 7.60985   1 
   9   0  -6 27.1712 11.1770   2 
   9   0  -6 37.2435 12.3122   2 
  -9   0   6 35.0338 6.50285   2 
  -9   0   6 31.1283 7.37262   2 
  -9   0   6 38.0302 6.50490   1 
   8   0  -6 36.4207 6.60106   1 
   8   0  -6 37.2843 8.86438   2 
   8   0  -6 25.5483 8.91887   2 
  -8   0   6 44.3313 6.09074   2 
  -8   0   6 41.0928 5.40415   2 
  -8   0   6 35.4552 5.35703   1 
   7   0  -6 -1.0899 4.24836   1 
   7   0  -6 -1.9027 5.45086   2 
   7   0  -6 7.32506 6.30017   2 
  -7   0   6 4.32264 3.80327   2 
  -7   0   6 5.22713 3.39863   1 
  -7   0   6 4.34984 3.55396   2 
   6   0  -6 2.08147 4.69087   2 
   6   0  -6 2.74218 4.90843   2 
   6   0  -6 7.72638 3.77911   1 
  -6   0   6 6.81093 3.12533   1 
  -6   0   6 9.38894 3.29441   2 
  -6   0   6 3.15886 2.51680   2 
   5   0  -6 27.7386 4.63243   2 
   5   0  -6 27.0674 4.02521   2 
   5   0  -6 25.3818 4.04974   1 
  -5   0   6 31.1414 3.58513   2 
  -5   0   6 31.0500 3.80672   1 
  -5   0   6 23.4858 3.16791   2 
   4   0  -6 0.62090 3.11490   2 
   4   0  -6 2.18435 2.63289   2 
   4   0  -6 1.97705 2.57603   1 
  -4   0   6 4.66842 2.33552   1 
  -4   0   6 0.30888 1.87110   2 
  -4   0   6 3.17061 1.88371   2 
   3   0  -6 328.232 20.2938   2 
   3   0  -6 335.440 20.4078   1 
  -3   0   6 322.412 20.3571   1 
  -3   0   6 350.988 20.2187   2 
  -3   0   6 370.456 20.0913   2 
   2   0  -6 64.3176 5.71619   2 
   2   0  -6 75.5283 5.26940   2 
  -2   0   6 76.8582 4.81719   2 
  -2   0   6 69.8669 5.23257   2 
  -2   0   6 70.4785 5.66295   1 
   1   0  -6 7.24891 2.74493   2 
   1   0  -6 9.34516 1.88301   2 
  -1   0   6 10.6210 1.41751   2 
  -1   0   6 8.95864 2.23404   1 
  -1   0   6 11.2299 2.04909   2 
   0   0   6 58.5561 4.74110   1 
   0   0   6 48.1295 3.46738   2 
   0   0   6 48.5565 3.91680   2 
   1   0   6 3.40599 1.72122   2 
   1   0   6 -0.2110 1.21298   2 
   1   0   6 -5.0157 2.63152   1 
   2   0   6 94.1025 8.31247   1 
   3   0   6 301.973 19.5440   1 
   4   0   6 11.8535 5.89994   1 
   5   0   6 16.7997 7.50550   1 
   9  -1  -6 15.4418 7.25612   1 
   9  -1  -6 14.0388 11.4264   2 
   9  -1  -6 32.0222 11.4887   2 
  -9   1   6 28.0170 7.66336   2 
  -9   1   6 15.7127 6.27146   2 
  -9   1   6 17.4943 5.60093   1 
   8  -1  -6 0.84267 8.26586   2 
   8  -1  -6 1.15097 6.67122   2 
   8  -1  -6 1.30593 5.73457   1 
  -8   1   6 5.57185 5.07176   2 
  -8   1   6 -3.2865 4.67997   2 
  -8   1   6 6.79544 3.99809   1 
   7  -1  -6 103.342 9.65941   2 
   7  -1  -6 95.1132 8.82653   1 
   7  -1  -6 74.3015 10.2325   2 
  -7   1   6 112.890 8.29589   2 
  -7   1   6 87.8954 7.99844   1 
  -7   1   6 109.943 8.62222   2 
   6  -1  -6 21.3814 4.53162   2 
   6  -1  -6 25.2113 4.01738   1 
   6  -1  -6 19.7037 5.59902   2 
  -6   1   6 19.2136 3.34405   2 
  -6   1   6 18.6599 3.55840   1 
  -6   1   6 21.9636 3.54930   2 
   5  -1  -6 112.468 9.34395   1 
   5  -1  -6 131.823 10.6522   2 
   5  -1  -6 140.970 9.52786   2 
  -5   1   6 148.563 9.40166   2 
  -5   1   6 136.678 9.84861   1 
  -5   1   6 146.503 9.02227   2 
   4  -1  -6 89.4589 6.50723   2 
   4  -1  -6 73.9706 7.79893   2 
  -4   1   6 95.2942 6.85138   2 
  -4   1   6 93.2430 6.23012   2 
  -4   1   6 84.8377 6.79086   1 
   3  -1  -6 12.1796 2.18980   2 
  -3   1   6 9.15882 2.57852   1 
  -3   1   6 8.40871 2.33128   2 
  -3   1   6 9.04225 1.75268   2 
   2  -1  -6 775.706 46.0311   2 
   2  -1  -6 783.793 46.7602   2 
  -2   1   6 836.896 46.3600   2 
  -2   1   6 802.246 46.0015   2 
  -2   1   6 821.574 46.5006   1 
   1  -1  -6 568.375 33.4769   2 
   1  -1  -6 565.110 32.6883   2 
  -1   1   6 580.859 33.1297   2 
  -1   1   6 573.464 33.3210   1 
  -1   1   6 561.718 32.7204   2 
   0   1   6 91.0346 6.36516   2 
   0   1   6 77.5050 6.99607   1 
   0   1   6 73.0259 5.45131   2 
   1   1   6 15.9302 2.31109   2 
   1   1   6 18.7519 3.68919   1 
   1   1   6 9.93226 3.21236   2 
   2   1   6 192.690 13.1392   1 
   2   1   6 179.899 12.4133   2 
   2   1   6 187.523 11.4348   2 
   3   1   6 401.891 26.5847   2 
   3   1   6 450.474 25.5906   2 
   3   1   6 468.382 27.4378   1 
   4   1   6 83.1191 11.5660   1 
   4   1   6 74.0757 8.22553   2 
   4   1   6 55.6264 5.54688   2 
   9  -2  -6 -2.0166 12.4572   2 
   9  -2  -6 6.19696 8.68973   2 
  -9   2   6 13.9780 6.62031   2 
  -9   2   6 9.44693 4.97138   1 
  -9   2   6 17.2367 6.88386   2 
   8  -2  -6 21.5233 8.79811   2 
   8  -2  -6 30.3324 7.74695   2 
  -8   2   6 32.7484 5.84318   2 
  -8   2   6 25.3915 4.58588   1 
  -8   2   6 22.2320 5.24239   2 
   7  -2  -6 2.06635 4.93538   2 
   7  -2  -6 8.66538 6.77254   2 
  -7   2   6 -2.7793 3.37624   2 
  -7   2   6 -3.3449 3.53082   1 
  -7   2   6 1.81882 4.30947   2 
   6  -2  -6 21.4699 4.11009   2 
   6  -2  -6 26.6243 6.24453   2 
  -6   2   6 17.8312 3.44192   2 
  -6   2   6 23.7500 4.39319   2 
  -6   2   6 22.4189 3.92900   1 
   5  -2  -6 198.363 12.6368   2 
   5  -2  -6 184.968 14.3306   2 
  -5   2   6 186.441 12.9487   1 
  -5   2   6 193.086 12.8339   2 
  -5   2   6 209.648 12.4835   2 
   4  -2  -6 274.080 20.1686   2 
   4  -2  -6 324.439 18.7942   2 
  -4   2   6 332.116 18.7417   2 
  -4   2   6 304.130 18.9929   1 
  -4   2   6 317.809 19.1343   2 
   3  -2  -6 316.336 18.0277   2 
  -3   2   6 298.796 18.0089   2 
  -3   2   6 287.473 18.3968   2 
  -3   2   6 307.668 18.6763   1 
   2  -2  -6 60.9080 4.31091   2 
   2  -2  -6 54.0962 6.71134   2 
  -2   2   6 50.8166 5.62007   1 
  -2   2   6 55.4787 4.39100   2 
  -2   2   6 50.5467 5.97710   2 
   1  -2  -6 50.9722 4.10522   2 
   1  -2  -6 59.2420 6.97725   2 
  -1   2   6 54.7041 6.39254   2 
  -1   2   6 73.1081 6.58930   1 
  -1   2   6 56.2250 4.77040   2 
   0  -2  -6 4.77667 3.06998   2 
   0  -2  -6 -2.4041 1.41768   2 
   0   2   6 -2.6733 3.64717   2 
   0   2   6 -2.0419 2.98970   1 
   0   2   6 0.12758 2.17626   2 
   1   2   6 18.0993 4.69168   1 
   1   2   6 22.8916 5.17722   2 
   2   2   6 6.45525 2.79572   2 
   2   2   6 13.3965 5.17481   1 
   2   2   6 4.80386 5.37754   2 
   3   2   6 15.8952 7.42697   2 
   3   2   6 12.1245 6.26267   1 
   3   2   6 16.7347 3.47148   2 
   4   2   6 15.9154 9.26816   2 
   4   2   6 15.0672 4.06075   2 
   4   2   6 8.85755 8.43011   1 
   9  -3  -6 88.0866 11.5324   2 
   9  -3  -6 87.1893 15.2537   2 
  -9   3   6 60.4896 9.02303   2 
  -9   3   6 69.8669 8.66118   2 
  -9   3   6 76.7946 8.53197   1 
   8  -3  -6 11.5389 10.8933   2 
   8  -3  -6 31.2832 7.69663   2 
  -8   3   6 23.4918 4.88362   1 
  -8   3   6 25.0208 5.26307   2 
  -8   3   6 32.5923 6.75520   2 
   7  -3  -6 3.81250 4.78330   2 
   7  -3  -6 -3.4611 8.73141   2 
  -7   3   6 3.46296 4.85922   2 
  -7   3   6 -0.2368 4.03556   2 
  -7   3   6 2.28177 4.06138   1 
   6  -3  -6 102.381 12.2690   2 
   6  -3  -6 119.803 9.15547   2 
  -6   3   6 129.955 9.12371   2 
  -6   3   6 118.129 9.86178   1 
  -6   3   6 118.801 9.77272   2 
   5  -3  -6 159.878 10.3691   2 
   5  -3  -6 132.172 13.2901   2 
  -5   3   6 149.456 10.1796   2 
  -5   3   6 132.967 10.4771   1 
  -5   3   6 157.043 11.0098   2 
   4  -3  -6 978.840 51.6008   2 
   4  -3  -6 808.604 53.0246   2 
  -4   3   6 862.985 51.9320   2 
  -4   3   6 914.528 51.8244   1 
   3  -3  -6 113.770 7.78772   2 
  -3   3   6 121.441 8.87895   1 
  -3   3   6 112.102 8.38153   2 
  -3   3   6 122.213 9.62551   2 
  -3   3   6 119.009 9.25092   1 
   2  -3  -6 348.744 21.1025   2 
   2  -3  -6 349.947 23.5834   2 
  -2   3   6 375.984 21.6542   2 
  -2   3   6 361.177 22.1591   1 
   1  -3  -6 192.743 12.0273   2 
   1  -3  -6 203.836 14.6778   2 
  -1   3   6 192.767 13.8649   2 
  -1   3   6 202.560 12.6525   2 
   0  -3  -6 210.690 14.0293   2 
   0  -3  -6 256.931 15.7019   2 
   0   3   6 240.885 15.9941   1 
   0   3   6 254.681 15.0786   2 
   0   3   6 238.199 16.5597   2 
   1   3   6 13.7763 6.52654   2 
   1   3   6 13.6879 4.87014   1 
   1   3   6 9.77133 3.49031   2 
   2   3   6 2.23371 5.89700   1 
   2   3   6 6.95724 3.91582   2 
   2   3   6 4.99409 7.58331   2 
   3   3   6 65.1364 10.2012   1 
   3   3   6 61.9005 11.1196   2 
   3   3   6 55.0278 7.27118   2 
   8  -4  -6 12.8947 13.8531   2 
  -8   4   6 13.2108 6.68843   2 
  -8   4   6 8.74941 4.97321   1 
   7  -4  -6 17.0954 11.1941   2 
   7  -4  -6 1.50340 8.91908   2 
  -7   4   6 10.1755 5.19171   2 
  -7   4   6 5.79968 4.74058   1 
   6  -4  -6 22.9329 9.75988   2 
   6  -4  -6 15.7748 7.65940   2 
  -6   4   6 11.3768 4.51412   2 
  -6   4   6 22.1736 4.98282   1 
  -6   4   6 9.30808 4.43714   1 
  -6   4   6 16.0372 5.47381   2 
   5  -4  -6 -5.4719 8.37572   2 
  -5   4   6 -3.1913 4.89747   2 
  -5   4   6 5.10145 4.58262   1 
  -5   4   6 -2.5983 3.74818   1 
  -5   4   6 0.19922 4.02204   2 
   4  -4  -6 -5.6029 3.42673   2 
   4  -4  -6 8.47757 8.10087   2 
  -4   4   6 -3.3537 3.45560   2 
  -4   4   6 -3.2534 3.81145   1 
  -4   4   6 2.99545 4.12696   1 
  -4   4   6 -4.8367 4.74082   2 
   3  -4  -6 92.8742 6.86760   2 
  -3   4   6 100.720 9.31832   1 
  -3   4   6 81.0866 9.49145   2 
  -3   4   6 92.1659 8.12799   2 
   2  -4  -6 23.3747 2.86972   2 
   2  -4  -6 22.2062 7.41672   2 
  -2   4   6 23.2769 4.76669   1 
  -2   4   6 24.9760 5.39235   2 
   1  -4  -6 57.0553 4.84699   2 
   1  -4  -6 73.9988 9.10245   2 
  -1   4   6 58.5546 8.16593   2 
  -1   4   6 67.1511 7.68360   2 
  -1   4   6 51.0298 6.30298   1 
   0  -4  -6 33.1719 3.85266   2 
   0  -4  -6 33.9000 6.76328   2 
   0   4   6 37.8400 6.13005   1 
   0   4   6 34.5342 8.61440   2 
   0   4   6 41.9561 5.11006   2 
  -1  -4  -6 65.9066 7.93049   2 
  -1  -4  -6 48.1461 4.63050   2 
   1   4   6 57.6059 10.1573   2 
   1   4   6 57.8089 7.39866   1 
   1   4   6 63.8287 6.45699   2 
   2   4   6 73.6018 12.6279   2 
   2   4   6 79.6965 9.70934   1 
   2   4   6 76.6936 9.11877   2 
   8  -5  -6 5.37689 16.0781   2 
   8  -5  -6 -8.1737 7.98886   2 
  -8   5   6 4.53706 5.79970   1 
  -8   5   6 7.07580 8.70515   2 
  -8   5   6 3.42940 8.12460   2 
  -8   5   6 -2.9109 5.52130   1 
   7  -5  -6 63.7418 15.7761   2 
   7  -5  -6 73.4816 7.47975   2 
  -7   5   6 58.9408 8.20069   2 
  -7   5   6 78.2769 9.54687   1 
  -7   5   6 66.5774 8.94870   2 
  -7   5   6 52.4603 7.00565   1 
   6  -5  -6 14.0426 13.1927   2 
   6  -5  -6 -2.7117 4.92904   2 
  -6   5   6 -3.1444 6.60712   2 
  -6   5   6 -9.2653 4.85516   1 
  -6   5   6 1.10112 4.76256   1 
  -6   5   6 -1.2533 5.34543   2 
   5  -5  -6 34.8178 5.55220   2 
   5  -5  -6 39.1759 13.0162   2 
  -5   5   6 42.0774 7.05826   2 
  -5   5   6 28.4401 6.08619   1 
  -5   5   6 29.2713 6.22821   2 
   4  -5  -6 2.50781 3.74268   2 
   4  -5  -6 1.20373 11.5550   2 
  -4   5   6 -2.7979 6.16048   2 
  -4   5   6 -1.3127 6.33750   2 
  -4   5   6 0.35913 4.68079   1 
  -4   5   6 -2.9338 4.80900   1 
   3  -5  -6 6.50428 3.40787   2 
  -3   5   6 8.52606 5.83608   2 
  -3   5   6 3.70801 5.38385   1 
  -3   5   6 4.17858 5.47240   2 
   2  -5  -6 0.91165 3.22724   2 
   2  -5  -6 11.9257 8.74453   2 
  -2   5   6 3.19749 6.54054   2 
  -2   5   6 -0.7090 5.33777   1 
  -2   5   6 4.52140 5.66778   2 
   1  -5  -6 230.362 15.5202   2 
   1  -5  -6 267.409 20.6646   2 
  -1   5   6 247.684 20.6305   2 
  -1   5   6 277.712 17.7902   2 
  -1   5   6 263.491 18.1386   1 
   0  -5  -6 27.9933 8.73070   2 
   0  -5  -6 30.8308 3.87595   2 
   0   5   6 48.2561 6.94914   2 
   0   5   6 44.6611 7.65862   1 
   0   5   6 49.2526 10.1089   2 
  -1  -5  -6 22.6289 9.27494   2 
  -1  -5  -6 21.0856 3.64297   2 
   1   5   6 18.2301 12.2593   2 
   1   5   6 17.5167 8.18601   1 
   1   5   6 31.6686 6.28108   2 
   7  -6  -6 29.2309 8.09425   2 
   7  -6  -6 51.1811 20.6826   2 
  -7   6   6 40.3027 7.74684   1 
  -7   6   6 32.3645 7.11263   1 
   6  -6  -6 119.437 19.4238   2 
   6  -6  -6 119.468 10.7245   2 
  -6   6   6 96.8438 12.2425   1 
  -6   6   6 96.4567 11.1661   1 
  -6   6   6 127.239 13.1712   2 
  -6   6   6 94.5537 11.4826   2 
   5  -6  -6 29.1559 17.9380   2 
   5  -6  -6 8.45734 5.67473   2 
  -5   6   6 8.32302 5.86544   1 
  -5   6   6 5.74598 8.64269   2 
  -5   6   6 4.57918 6.88614   2 
  -5   6   6 6.86450 6.00752   1 
   4  -6  -6 -8.9701 15.7174   2 
   4  -6  -6 -1.6567 4.41889   2 
  -4   6   6 8.29512 8.14975   2 
  -4   6   6 6.73050 6.31127   1 
  -4   6   6 -8.7481 6.56771   2 
   3  -6  -6 122.469 9.35941   2 
   3  -6  -6 35.5624 16.0860   2 
  -3   6   6 125.968 12.2271   1 
  -3   6   6 140.941 12.8797   2 
  -3   6   6 108.794 13.5888   2 
   2  -6  -6 11.2028 13.5564   2 
   2  -6  -6 2.42759 4.04356   2 
  -2   6   6 11.8271 9.21361   2 
  -2   6   6 -5.0856 7.06305   2 
  -2   6   6 10.4991 6.85040   1 
   1  -6  -6 -1.8450 4.20288   2 
   1  -6  -6 7.16976 11.9706   2 
  -1   6   6 -1.3205 7.66891   1 
  -1   6   6 4.48169 7.61780   2 
  -1   6   6 12.5482 13.6955   2 
   0   9  -7 4.21487 9.22955   1 
   0   9  -7 39.2884 9.11027   2 
   0   9  -7 17.1976 13.8319   2 
   0  -9   7 23.5023 12.2099   2 
   0  -9   7 24.5752 7.04901   1 
   0  -9   7 37.1959 8.53511   2 
  -1   9  -7 8.52724 12.4089   2 
  -1   9  -7 6.28981 7.30667   2 
  -1   9  -7 -0.9118 8.66683   1 
   1  -9   7 -2.3172 6.54968   1 
   1  -9   7 3.08364 7.04311   2 
   1  -9   7 5.61201 11.3440   2 
  -2   9  -7 51.5008 8.69157   1 
  -2   9  -7 52.3485 8.13809   2 
  -2   9  -7 53.5921 11.9252   2 
   2  -9   7 51.8539 14.6221   2 
   2  -9   7 54.5464 9.87624   2 
   2  -9   7 59.7090 8.03689   1 
   3   8  -7 7.38372 9.17567   2 
   3   8  -7 -5.6401 8.97900   1 
   3   8  -7 11.0070 14.4884   2 
  -3  -8   7 14.5987 11.9594   2 
  -3  -8   7 1.24159 9.55662   2 
  -3  -8   7 0.69231 6.90670   1 
   2   8  -7 16.5269 8.94740   1 
   2   8  -7 3.15592 12.3658   2 
   2   8  -7 13.6303 7.90549   2 
  -2  -8   7 5.26884 5.93954   1 
  -2  -8   7 12.3137 6.94010   2 
   1   8  -7 2.67006 10.5133   2 
   1   8  -7 10.0582 7.11734   1 
   1   8  -7 2.13544 6.90649   2 
  -1  -8   7 5.44832 5.56778   1 
  -1  -8   7 7.15189 8.98702   2 
  -1  -8   7 12.0339 6.80733   2 
   0   8  -7 31.6613 6.65190   2 
   0   8  -7 39.3903 10.7115   2 
   0   8  -7 22.5901 7.09900   1 
   0  -8   7 19.1251 9.09698   2 
   0  -8   7 34.1304 5.86527   1 
   0  -8   7 36.9020 6.52035   2 
  -1   8  -7 2.79953 6.19249   1 
  -1   8  -7 5.18675 9.06556   2 
   1  -8   7 7.36098 6.33343   2 
   1  -8   7 5.20069 5.03802   1 
   1  -8   7 -0.7586 8.49582   2 
  -2   8  -7 10.2914 5.72759   2 
  -2   8  -7 17.6606 8.31107   2 
  -2   8  -7 11.8846 11.5566   1 
   2  -8   7 17.2441 5.82316   2 
   2  -8   7 9.37858 10.3926   2 
   2  -8   7 19.4124 8.16603   1 
  -3   8  -7 15.0496 6.59903   1 
  -3   8  -7 1.20003 5.43887   2 
  -3   8  -7 -3.8639 7.36202   2 
   3  -8   7 0.49508 9.73079   2 
   3  -8   7 6.12798 5.25884   1 
  -4   8  -7 6.30100 5.16185   2 
  -4   8  -7 8.64080 6.39023   1 
  -4   8  -7 2.78955 6.54517   2 
   4  -8   7 0.72473 5.25922   1 
   4  -8   7 4.29641 6.98656   2 
   4  -8   7 -4.6185 11.7265   2 
   4   7  -7 13.4839 13.9694   2 
   4   7  -7 -7.6116 8.37444   2 
   4   7  -7 -5.2171 7.73381   1 
  -4  -7   7 20.6285 9.70378   2 
  -4  -7   7 -5.3646 7.13354   2 
  -4  -7   7 10.1515 5.80451   1 
   3   7  -7 62.7289 13.5096   2 
   3   7  -7 54.9370 8.18221   2 
   3   7  -7 60.5489 8.34037   1 
  -3  -7   7 59.6705 9.59357   2 
  -3  -7   7 56.0008 6.86731   1 
  -3  -7   7 68.4919 8.04414   2 
   2   7  -7 154.806 13.7746   1 
   2   7  -7 174.101 17.8285   2 
   2   7  -7 166.533 13.5685   2 
  -2  -7   7 154.971 12.0878   1 
  -2  -7   7 167.283 14.9283   2 
  -2  -7   7 151.113 12.8122   2 
   1   7  -7 9.40731 8.43302   2 
   1   7  -7 18.5085 5.28161   2 
   1   7  -7 23.3294 6.50478   1 
  -1  -7   7 15.6246 7.25362   2 
  -1  -7   7 21.3906 4.60625   1 
  -1  -7   7 27.6605 5.11028   2 
   0   7  -7 102.616 13.1770   2 
   0   7  -7 86.2485 10.0782   1 
   0  -7   7 115.218 13.1896   2 
   0  -7   7 108.880 9.00187   1 
   0  -7   7 109.979 9.79111   2 
  -1   7  -7 37.7103 7.95794   2 
  -1   7  -7 58.1138 8.10031   1 
  -1   7  -7 42.6749 5.56641   2 
   1  -7   7 48.6805 8.53117   2 
   1  -7   7 49.7609 6.01338   2 
   1  -7   7 52.9542 6.57829   1 
  -2   7  -7 46.0889 7.20841   2 
  -2   7  -7 39.9723 5.61438   1 
  -2   7  -7 34.4665 4.97275   2 
   2  -7   7 37.3458 8.81872   2 
   2  -7   7 50.9168 6.48520   1 
   2  -7   7 56.2946 6.85209   2 
  -3   7  -7 1.42186 5.56854   1 
  -3   7  -7 1.30256 5.47800   2 
  -3   7  -7 -3.4044 3.80158   2 
   3  -7   7 -10.950 7.40932   2 
   3  -7   7 4.44052 5.82497   2 
   3  -7   7 5.98918 4.07276   1 
  -4   7  -7 32.2894 5.37740   2 
  -4   7  -7 32.1286 4.58341   2 
   4  -7   7 57.4101 10.1098   2 
   4  -7   7 44.4789 5.01887   1 
   4  -7   7 33.6543 6.28977   2 
   5  -7   7 5.65920 4.28854   1 
   5  -7   7 8.45722 11.2044   2 
   5   6  -7 -0.6943 7.63167   2 
   5   6  -7 5.06964 7.26803   1 
   5   6  -7 14.4102 13.4381   2 
  -5  -6   7 2.21295 7.86219   2 
  -5  -6   7 -9.1075 5.28451   1 
  -5  -6   7 -0.0989 7.09150   2 
   4   6  -7 105.210 12.2514   1 
   4   6  -7 97.5948 15.9604   2 
   4   6  -7 106.320 11.4339   2 
  -4  -6   7 91.6357 11.7170   2 
  -4  -6   7 120.599 11.5145   2 
  -4  -6   7 101.497 9.86143   1 
   3   6  -7 -4.6076 5.16818   2 
   3   6  -7 4.17189 5.15270   1 
  -3  -6   7 3.00703 3.32169   1 
  -3  -6   7 7.82044 4.84235   2 
  -3  -6   7 7.29233 6.95509   2 
   2   6  -7 4.74165 4.86097   1 
   2   6  -7 -6.9148 4.67123   2 
  -2  -6   7 1.21370 4.20007   2 
  -2  -6   7 5.94740 3.57639   1 
  -2  -6   7 -12.728 5.53403   2 
   1   6  -7 35.6066 7.08455   2 
   1   6  -7 18.0592 4.56400   2 
  -1  -6   7 13.9063 5.81315   2 
  -1  -6   7 23.5807 4.17272   2 
   0   6  -7 6.85390 3.30778   2 
   0   6  -7 11.4485 4.80059   1 
   0   6  -7 11.5790 5.66559   2 
   0  -6   7 8.97423 5.85468   2 
   0  -6   7 18.8343 4.40030   2 
   0  -6   7 13.0402 3.58538   1 
  -1   6  -7 13.3943 5.20952   2 
  -1   6  -7 13.3160 4.14186   1 
  -1   6  -7 3.85143 2.95123   2 
   1  -6   7 8.85705 3.43252   1 
   1  -6   7 0.94958 4.02983   2 
  -2   6  -7 54.3323 5.47889   2 
  -2   6  -7 70.9461 7.30958   1 
  -2   6  -7 49.6597 6.30054   2 
   2  -6   7 61.0398 6.26250   1 
   2  -6   7 59.0188 7.56546   2 
   2  -6   7 64.7119 7.57158   2 
  -3   6  -7 680.958 39.1770   2 
  -3   6  -7 628.985 38.5675   2 
  -3   6  -7 702.777 39.5186   1 
   3  -6   7 675.260 40.7761   2 
   3  -6   7 670.991 38.9652   1 
   3  -6   7 664.056 39.6938   2 
   4  -6   7 266.345 18.6157   2 
   4  -6   7 232.574 15.8816   2 
   4  -6   7 231.754 15.1545   1 
   5  -6   7 4.55817 4.58415   2 
   5  -6   7 9.77487 4.05745   1 
   5  -6   7 19.3926 9.06289   2 
   6   5  -7 16.1023 16.8498   2 
   6   5  -7 13.2878 8.30580   2 
   6   5  -7 16.8121 8.55241   1 
  -6  -5   7 26.3662 7.03955   1 
  -6  -5   7 14.3314 6.87875   2 
  -6  -5   7 13.8018 6.93107   2 
   5   5  -7 12.1158 10.4134   2 
   5   5  -7 19.3703 6.37150   1 
   5   5  -7 18.2922 6.69165   2 
  -5  -5   7 22.8956 5.75383   2 
  -5  -5   7 20.2276 6.23837   2 
  -5  -5   7 28.5264 4.77255   1 
   4   5  -7 3.75095 5.11867   1 
   4   5  -7 2.07338 4.93072   2 
   4   5  -7 -6.8893 8.01003   2 
  -4  -5   7 2.60210 4.30989   2 
  -4  -5   7 -1.0952 6.14784   2 
  -4  -5   7 4.51861 3.47832   1 
   3   5  -7 14.0554 7.41321   2 
   3   5  -7 13.4552 4.45687   2 
   3   5  -7 6.16128 4.61232   1 
  -3  -5   7 11.7628 4.94618   2 
  -3  -5   7 18.4460 3.28582   1 
  -3  -5   7 14.8320 4.22807   2 
   2   5  -7 -0.8316 4.13646   1 
   2   5  -7 1.43514 6.03045   2 
   2   5  -7 0.56418 3.65295   2 
  -2  -5   7 2.98500 2.91996   1 
  -2  -5   7 1.07695 3.33871   2 
  -2  -5   7 1.22939 4.91935   2 
   1   5  -7 17.4055 4.18120   1 
   1   5  -7 12.5981 5.38820   2 
  -1  -5   7 17.7859 4.61764   2 
  -1  -5   7 14.9315 3.14630   1 
  -1  -5   7 16.2103 3.52743   2 
   0   5  -7 114.458 8.80665   1 
   0   5  -7 121.746 7.97497   2 
   0   5  -7 121.774 9.97982   2 
   0  -5   7 114.044 8.57921   1 
   0  -5   7 93.0143 9.45857   2 
  -1   5  -7 18.3396 5.99355   2 
  -1   5  -7 26.3240 4.37290   1 
  -1   5  -7 27.2201 3.14722   2 
   1  -5   7 25.1576 3.65630   1 
   1  -5   7 24.9746 4.92423   2 
   1  -5   7 29.8632 4.27158   2 
  -2   5  -7 583.537 32.5133   2 
  -2   5  -7 574.314 32.7325   1 
  -2   5  -7 518.486 31.8204   2 
   2  -5   7 553.406 32.4468   1 
   2  -5   7 543.093 32.6766   2 
   3  -5   7 48.4945 5.05327   2 
   3  -5   7 57.6904 6.40094   1 
   3  -5   7 40.2175 6.16508   2 
   4  -5   7 5.10857 3.43875   2 
   4  -5   7 0.52019 3.85250   1 
   4  -5   7 14.2510 6.01709   2 
   5  -5   7 15.7105 7.99394   2 
   5  -5   7 22.5380 5.57056   1 
   5  -5   7 18.7576 4.07729   2 
   5  -5   7 14.8903 4.89680   1 
   7   4  -7 5.85901 9.55424   1 
   7   4  -7 1.15634 13.5831   2 
  -7  -4   7 8.07592 7.14127   2 
  -7  -4   7 6.63420 7.22376   2 
  -7  -4   7 1.76624 6.96859   1 
   6   4  -7 29.6140 7.58404   2 
   6   4  -7 38.6723 7.75668   1 
   6   4  -7 32.8976 10.9222   2 
  -6  -4   7 26.1801 5.60754   1 
  -6  -4   7 29.2601 6.31452   2 
   5   4  -7 1.54800 4.54218   2 
   5   4  -7 5.14918 8.00048   2 
   5   4  -7 9.14536 5.44112   1 
  -5  -4   7 10.6372 5.33296   2 
  -5  -4   7 1.06279 4.22932   2 
  -5  -4   7 3.16577 3.89655   1 
   4   4  -7 430.173 26.6619   2 
   4   4  -7 397.519 24.6267   2 
   4   4  -7 402.773 25.0085   1 
  -4  -4   7 429.544 25.2342   2 
  -4  -4   7 384.642 24.4956   2 
  -4  -4   7 391.540 24.2972   1 
   3   4  -7 43.6893 6.86666   2 
   3   4  -7 37.2568 5.17149   1 
   3   4  -7 35.5136 4.56253   2 
  -3  -4   7 36.6690 4.56578   2 
  -3  -4   7 46.7211 5.28129   1 
  -3  -4   7 44.0941 5.29457   2 
   2   4  -7 0.08465 2.95307   2 
   2   4  -7 4.56572 3.16721   1 
   2   4  -7 -5.7823 4.26133   2 
  -2  -4   7 0.26387 2.95389   2 
  -2  -4   7 1.06519 2.52198   1 
  -2  -4   7 -5.3516 3.42797   2 
   1   4  -7 65.6600 7.17591   2 
   1   4  -7 65.3079 5.15965   2 
   1   4  -7 62.4999 6.22688   1 
  -1  -4   7 59.8557 5.81361   2 
  -1  -4   7 66.5285 5.83218   1 
  -1  -4   7 64.6143 6.52912   2 
   0   4  -7 50.3794 5.81817   1 
   0   4  -7 49.0525 6.29233   2 
   0   4  -7 48.1447 4.06074   2 
   0  -4   7 46.1521 5.26250   2 
   0  -4   7 47.4343 5.16047   1 
   0  -4   7 36.7761 5.04343   2 
  -1   4  -7 386.233 22.8672   2 
  -1   4  -7 389.224 23.1878   1 
  -1   4  -7 372.081 22.0804   2 
   1  -4   7 391.315 22.9009   1 
   1  -4   7 372.764 22.7016   2 
   2  -4   7 14.4270 3.46016   1 
   2  -4   7 7.25577 3.71882   2 
   2  -4   7 8.63625 3.04553   2 
   3  -4   7 6.92131 2.57207   2 
   3  -4   7 6.44537 4.36726   2 
   3  -4   7 5.21190 3.86418   1 
   4  -4   7 251.828 16.4930   2 
   4  -4   7 305.896 18.2922   2 
   4  -4   7 289.879 17.7594   1 
   5  -4   7 96.0621 7.15025   2 
   5  -4   7 114.907 9.98488   1 
   5  -4   7 109.817 10.6242   1 
   5  -4   7 117.857 11.1512   2 
   7   3  -7 27.2254 11.8057   2 
   7   3  -7 25.5559 8.50139   1 
   7   3  -7 14.3528 6.99420   2 
  -7  -3   7 16.5735 6.18795   2 
  -7  -3   7 21.8276 5.47205   2 
  -7  -3   7 37.5725 5.97532   1 
   6   3  -7 125.375 11.4499   2 
   6   3  -7 160.229 14.7810   2 
   6   3  -7 117.611 12.3792   1 
  -6  -3   7 146.264 10.9566   2 
  -6  -3   7 141.903 10.5696   1 
  -6  -3   7 128.335 10.8581   2 
   5   3  -7 216.013 15.8357   2 
   5   3  -7 190.444 14.0690   1 
   5   3  -7 186.179 13.3148   2 
  -5  -3   7 197.112 13.4523   2 
  -5  -3   7 207.140 13.4754   2 
  -5  -3   7 191.778 12.9725   1 
   4   3  -7 1.36258 5.37587   2 
   4   3  -7 2.48432 3.71330   1 
   4   3  -7 -3.5443 3.57930   2 
  -4  -3   7 -0.2837 3.35269   2 
  -4  -3   7 -2.0603 2.57969   2 
  -4  -3   7 1.59522 2.39843   1 
   3   3  -7 36.9794 4.71428   1 
   3   3  -7 41.8140 5.52202   2 
   3   3  -7 32.3787 4.12478   2 
  -3  -3   7 34.4072 4.48610   2 
  -3  -3   7 41.1035 4.82911   1 
  -3  -3   7 41.7846 5.21977   2 
   2   3  -7 183.527 12.7123   2 
   2   3  -7 174.109 11.9772   1 
  -2  -3   7 175.827 11.8412   1 
  -2  -3   7 198.319 11.7275   2 
  -2  -3   7 181.551 12.0927   2 
   1   3  -7 356.805 22.0757   2 
   1   3  -7 366.054 21.1693   2 
   1   3  -7 371.961 21.7874   1 
  -1  -3   7 336.815 21.4897   1 
  -1  -3   7 365.999 21.6427   2 
  -1  -3   7 368.124 21.4329   2 
   0   3  -7 -2.1701 1.56759   2 
   0   3  -7 4.47959 3.16232   1 
   0   3  -7 2.31640 2.81667   2 
   0  -3   7 -0.8944 1.86497   2 
   0  -3   7 3.86697 2.57988   1 
   0  -3   7 1.30730 2.41695   2 
   1  -3   7 251.580 16.0686   1 
   1  -3   7 271.803 15.6431   2 
   1  -3   7 257.359 15.8888   2 
   2  -3   7 1121.34 58.0173   1 
   2  -3   7 892.824 57.2905   2 
   3  -3   7 14.7962 3.78149   1 
   4  -3   7 51.9067 6.74154   1 
   4  -3   7 58.7205 7.65874   1 
   5  -3   7 9.38561 5.80144   1 
   5  -3   7 17.9417 5.92280   1 
   8   2  -7 0.84725 12.6135   2 
   8   2  -7 -2.4678 8.17579   1 
  -8  -2   7 2.77850 5.54096   2 
  -8  -2   7 6.78122 6.55897   2 
  -8  -2   7 7.17544 5.94567   1 
   7   2  -7 7.36575 9.28516   2 
   7   2  -7 6.30215 6.29860   1 
   7   2  -7 14.9503 6.67601   2 
  -7  -2   7 13.2971 4.51664   1 
  -7  -2   7 5.69201 4.82519   2 
   6   2  -7 71.6168 8.99693   2 
   6   2  -7 75.5386 9.38278   2 
   6   2  -7 70.9691 8.78230   1 
  -6  -2   7 67.2737 6.86877   2 
  -6  -2   7 67.0863 6.68782   2 
  -6  -2   7 55.5774 6.75041   1 
   5   2  -7 168.602 11.8690   1 
   5   2  -7 168.232 12.9034   2 
   5   2  -7 158.915 11.7026   2 
  -5  -2   7 143.955 10.8122   1 
  -5  -2   7 146.919 10.7490   2 
  -5  -2   7 165.693 10.8819   2 
   4   2  -7 90.6118 7.64802   1 
   4   2  -7 112.716 9.01314   2 
   4   2  -7 95.3405 7.72660   2 
  -4  -2   7 94.4924 7.12585   2 
  -4  -2   7 90.8847 7.13907   2 
  -4  -2   7 80.8202 7.36524   1 
   3   2  -7 373.860 24.1668   2 
   3   2  -7 415.109 24.4780   1 
   3   2  -7 404.248 24.8148   2 
  -3  -2   7 402.125 24.2493   1 
  -3  -2   7 445.374 24.3066   2 
  -3  -2   7 404.246 23.9873   2 
   2   2  -7 14.7140 3.62553   2 
   2   2  -7 15.2442 2.69265   2 
   2   2  -7 20.1017 3.39667   1 
  -2  -2   7 19.1011 2.97591   1 
  -2  -2   7 17.8085 2.41526   2 
  -2  -2   7 18.4688 2.63008   2 
   1   2  -7 -0.8739 2.84502   2 
   1   2  -7 -1.4588 1.98880   2 
   1   2  -7 6.36484 2.73730   1 
  -1  -2   7 -0.5313 1.93982   2 
  -1  -2   7 1.67465 2.16729   1 
  -1  -2   7 1.05920 1.80599   2 
   0  -2   7 68.4994 4.93440   2 
   0  -2   7 54.8740 5.98764   1 
   0  -2   7 72.7724 4.89715   2 
   1  -2   7 536.184 29.9302   2 
   1  -2   7 517.828 29.9098   2 
   1  -2   7 508.073 30.6187   1 
   2  -2   7 130.318 9.40226   1 
   3  -2   7 12.4121 4.20079   1 
   3  -2   7 19.8131 4.91607   1 
   4  -2   7 291.836 18.6988   1 
   4  -2   7 286.436 19.1997   1 
   5  -2   7 67.3067 9.85320   1 
   5  -2   7 69.6917 11.9414   1 
   8   1  -7 69.2869 11.8297   2 
   8   1  -7 94.1922 11.3279   2 
   8   1  -7 96.6501 11.8016   1 
  -8  -1   7 114.163 9.82804   1 
  -8  -1   7 83.2277 9.93566   2 
  -8  -1   7 91.9181 9.72491   2 
   7   1  -7 25.8089 6.78505   2 
   7   1  -7 19.4180 8.62953   2 
   7   1  -7 24.0565 6.05072   1 
  -7  -1   7 30.0982 4.96802   2 
  -7  -1   7 26.6141 5.29265   2 
  -7  -1   7 29.7709 4.88053   1 
   6   1  -7 7.01132 5.49072   2 
   6   1  -7 11.6392 5.21011   2 
   6   1  -7 13.7533 4.51246   1 
  -6  -1   7 10.0941 3.91186   1 
  -6  -1   7 10.5906 3.27604   2 
  -6  -1   7 9.82618 3.48054   2 
   5   1  -7 144.058 10.6829   2 
   5   1  -7 164.671 11.5594   2 
   5   1  -7 143.100 10.6966   1 
  -5  -1   7 161.059 10.0569   2 
  -5  -1   7 140.496 10.3743   1 
  -5  -1   7 137.777 9.91528   2 
   4   1  -7 126.147 9.45336   2 
   4   1  -7 118.793 9.30324   1 
   4   1  -7 128.593 9.57164   2 
  -4  -1   7 125.446 8.51665   2 
  -4  -1   7 127.936 9.12147   1 
  -4  -1   7 133.768 8.67352   2 
   3   1  -7 1.12023 2.95341   2 
   3   1  -7 -1.3238 2.67619   1 
  -3  -1   7 1.79104 2.50763   1 
  -3  -1   7 -2.0487 1.94507   2 
  -3  -1   7 -0.3823 1.90653   2 
   2   1  -7 91.0964 7.17027   1 
   2   1  -7 82.3884 6.63945   2 
   2   1  -7 90.4991 6.88226   2 
  -2  -1   7 90.0520 6.19016   2 
  -2  -1   7 93.3380 5.95229   2 
  -2  -1   7 79.3649 6.73161   1 
   1   1  -7 3.23568 2.23879   2 
   1   1  -7 4.41167 2.41367   2 
  -1  -1   7 0.98137 1.85901   2 
  -1  -1   7 0.57393 1.31344   2 
  -1  -1   7 0.12269 2.04654   1 
   0  -1   7 93.3642 5.84096   2 
   0  -1   7 95.5118 6.16648   2 
   0  -1   7 93.4431 7.28516   1 
   1  -1   7 74.2308 4.84041   2 
   1  -1   7 76.1306 6.82641   1 
   2  -1   7 5.49743 4.12785   1 
   2  -1   7 0.46650 3.75870   1 
   3  -1   7 78.4416 8.63146   1 
   3  -1   7 87.8640 8.63431   1 
   4  -1   7 5.63278 5.71091   1 
   4  -1   7 24.7495 5.79252   1 
   5  -1   7 147.202 15.2783   1 
   5  -1   7 114.961 13.2139   1 
   8   0  -7 91.6536 11.9018   2 
   8   0  -7 95.9142 11.7798   2 
   8   0  -7 112.828 11.5190   1 
  -8   0   7 100.237 9.37547   2 
  -8   0   7 97.8810 10.5505   2 
  -8   0   7 125.052 10.0120   1 
   7   0  -7 31.7731 7.61663   2 
   7   0  -7 41.8681 6.22544   1 
   7   0  -7 33.0452 7.51025   2 
  -7   0   7 40.3995 5.58477   2 
  -7   0   7 45.8225 5.34719   2 
  -7   0   7 36.9615 4.96922   1 
   6   0  -7 286.407 18.1780   1 
   6   0  -7 257.760 18.5447   2 
   6   0  -7 329.835 18.9859   2 
  -6   0   7 282.522 18.0161   1 
  -6   0   7 276.557 17.3944   2 
  -6   0   7 273.641 17.7193   2 
   5   0  -7 63.3866 6.54649   1 
   5   0  -7 59.1635 7.16585   2 
   5   0  -7 63.6106 6.97378   2 
  -5   0   7 54.2004 5.47920   2 
  -5   0   7 55.7347 6.64313   1 
  -5   0   7 60.4297 5.21004   2 
   4   0  -7 220.505 13.1995   2 
   4   0  -7 183.860 12.9245   1 
   4   0  -7 189.695 13.5803   2 
  -4   0   7 193.139 12.5417   2 
  -4   0   7 205.295 13.1010   1 
  -4   0   7 202.086 12.3358   2 
   3   0  -7 50.1932 5.79613   2 
   3   0  -7 58.2076 5.30784   2 
  -3   0   7 62.1873 4.65286   2 
  -3   0   7 57.8489 5.71947   1 
  -3   0   7 62.9944 4.90509   2 
   2   0  -7 2.33860 2.32890   2 
   2   0  -7 2.26792 3.05896   2 
  -2   0   7 0.91400 2.01199   2 
  -2   0   7 -2.9715 2.33337   1 
  -2   0   7 1.48780 1.39674   2 
   1   0  -7 -1.9140 2.24789   2 
   1   0  -7 2.46499 3.31281   2 
  -1   0   7 -2.0119 2.23995   1 
  -1   0   7 0.93127 2.36614   2 
  -1   0   7 1.79056 1.34268   2 
   0   0   7 125.964 9.17944   1 
   0   0   7 126.531 8.04039   2 
   0   0   7 122.000 7.64787   2 
   1   0   7 227.307 13.6801   2 
   1   0   7 244.565 15.2217   1 
   1   0   7 229.901 13.7751   2 
   1   0   7 232.860 15.5290   1 
   3   0   7 10.8641 5.37672   1 
   4   0   7 14.3081 7.44108   1 
   9  -1  -7 -1.3160 12.2239   2 
  -9   1   7 8.26469 6.37551   1 
  -9   1   7 0.20112 6.50471   2 
  -9   1   7 6.72386 7.58563   2 
   8  -1  -7 7.72185 7.59918   1 
   8  -1  -7 7.33194 8.28975   2 
   8  -1  -7 12.9121 9.61901   2 
  -8   1   7 12.0299 4.81034   2 
  -8   1   7 10.8641 5.73854   2 
  -8   1   7 8.98263 5.09984   1 
   7  -1  -7 10.0889 6.67535   2 
   7  -1  -7 3.17929 4.53545   1 
   7  -1  -7 1.43807 6.17077   2 
  -7   1   7 9.66645 4.27432   1 
  -7   1   7 8.44023 4.17378   2 
  -7   1   7 9.12413 4.61315   2 
   6  -1  -7 246.365 16.5540   1 
   6  -1  -7 258.428 16.8653   2 
   6  -1  -7 247.088 18.1723   2 
  -6   1   7 235.853 16.7887   1 
  -6   1   7 285.322 16.2280   2 
  -6   1   7 274.981 16.6967   2 
   5  -1  -7 48.0032 6.15156   2 
   5  -1  -7 41.5749 6.31617   2 
  -5   1   7 42.4137 4.57636   2 
  -5   1   7 58.4845 5.71990   2 
  -5   1   7 48.6168 6.49132   1 
   4  -1  -7 43.6058 6.01071   2 
   4  -1  -7 41.1247 4.74782   2 
  -4   1   7 41.5310 4.35358   2 
  -4   1   7 39.9317 5.59321   1 
  -4   1   7 42.8866 4.90154   2 
   3  -1  -7 110.960 9.82461   2 
   3  -1  -7 122.827 8.12619   2 
  -3   1   7 127.907 7.91412   2 
  -3   1   7 111.925 8.31514   2 
  -3   1   7 121.617 8.93724   1 
   2  -1  -7 25.2363 5.19750   2 
   2  -1  -7 34.6430 3.48543   2 
  -2   1   7 26.8655 3.08435   2 
  -2   1   7 32.2540 4.03891   1 
  -2   1   7 33.0916 4.27304   2 
   1  -1  -7 135.178 8.61118   2 
   1  -1  -7 139.278 10.1049   2 
  -1   1   7 137.372 9.31332   2 
  -1   1   7 135.299 8.49591   2 
  -1   1   7 133.319 9.81685   1 
   0   1   7 81.3533 6.80616   1 
   0   1   7 62.8154 6.25719   2 
   0   1   7 61.7830 5.01714   2 
   0   1   7 72.2924 7.27061   1 
   1   1   7 66.6316 8.11661   1 
   1   1   7 78.8989 6.66798   2 
   2   1   7 8.62681 2.55330   2 
   2   1   7 8.92062 4.02619   2 
   2   1   7 11.8566 5.04924   1 
   3   1   7 77.9638 10.8904   1 
   4   1   7 143.011 16.9118   1 
   8  -2  -7 26.6486 10.6433   2 
  -8   2   7 16.6582 5.40636   1 
  -8   2   7 14.6333 6.36681   2 
  -8   2   7 10.0033 5.31550   2 
   7  -2  -7 37.5511 8.96479   2 
   7  -2  -7 21.4975 6.49255   2 
  -7   2   7 21.6696 4.76982   2 
  -7   2   7 15.9152 4.71193   1 
  -7   2   7 17.4452 5.50162   2 
   6  -2  -7 260.836 15.8648   2 
   6  -2  -7 218.356 18.0124   2 
  -6   2   7 235.615 16.4175   1 
  -6   2   7 246.187 15.3372   2 
  -6   2   7 223.588 15.5694   2 
   5  -2  -7 4.21842 6.68872   2 
   5  -2  -7 2.00635 3.77995   2 
  -5   2   7 -0.2986 3.25286   1 
  -5   2   7 5.61356 4.11261   2 
  -5   2   7 4.52799 2.90162   2 
   4  -2  -7 10.3951 6.79732   2 
   4  -2  -7 22.6817 3.31762   2 
  -4   2   7 22.5878 3.76490   1 
  -4   2   7 26.3081 3.39773   2 
  -4   2   7 27.2275 4.28676   2 
   3  -2  -7 213.632 12.5710   2 
   3  -2  -7 179.850 14.8803   2 
  -3   2   7 196.841 13.4938   1 
  -3   2   7 206.220 12.5901   2 
  -3   2   7 208.182 13.3923   2 
   2  -2  -7 596.753 34.6681   2 
  -2   2   7 564.623 33.5805   1 
  -2   2   7 546.323 33.4264   2 
   1  -2  -7 0.26347 4.70703   2 
   1  -2  -7 -1.1014 2.03275   2 
  -1   2   7 0.85339 2.65048   2 
  -1   2   7 3.11401 3.76703   2 
   0   2   7 255.036 16.7284   2 
   0   2   7 263.449 16.0042   2 
   0   2   7 261.046 17.1902   1 
   1   2   7 61.9392 7.33413   2 
   1   2   7 93.0042 9.17423   1 
   1   2   7 72.7161 6.57569   2 
   2   2   7 -3.9567 5.97726   1 
   2   2   7 -5.9537 6.30396   2 
   2   2   7 1.16529 3.35507   2 
   3   2   7 3.87846 3.65568   2 
   3   2   7 -1.2311 7.82716   1 
   3   2   7 11.8722 7.95865   2 
   8  -3  -7 -10.541 10.6576   2 
   8  -3  -7 8.72720 7.81601   2 
  -8   3   7 3.78508 8.67539   2 
  -8   3   7 -7.8942 5.22853   1 
  -8   3   7 -1.1848 5.54860   2 
   7  -3  -7 16.6328 10.1009   2 
   7  -3  -7 37.3082 5.93558   2 
  -7   3   7 25.9582 6.32221   2 
  -7   3   7 26.1935 5.33469   2 
  -7   3   7 28.0246 5.63801   1 
   6  -3  -7 -3.9550 8.79217   2 
   6  -3  -7 4.28504 4.93167   2 
  -6   3   7 3.77843 4.67174   1 
  -6   3   7 0.01080 4.12541   2 
  -6   3   7 6.54943 3.90689   2 
   5  -3  -7 104.794 8.64347   2 
   5  -3  -7 97.0784 12.8723   2 
  -5   3   7 111.359 9.54156   2 
  -5   3   7 113.858 8.58285   2 
  -5   3   7 101.581 9.29909   1 
   4  -3  -7 3.19072 3.34819   2 
  -4   3   7 0.40938 4.43277   2 
  -4   3   7 6.69336 3.80967   1 
   3  -3  -7 767.457 43.9320   2 
   3  -3  -7 729.356 46.0563   2 
  -3   3   7 764.685 44.4186   2 
  -3   3   7 773.721 44.7190   2 
   2  -3  -7 170.067 10.9365   2 
   2  -3  -7 177.653 14.6770   2 
  -2   3   7 175.745 11.7215   2 
  -2   3   7 168.675 12.4811   1 
  -2   3   7 162.088 12.9423   2 
  -2   3   7 183.600 12.7707   1 
   1  -3  -7 53.6119 4.63898   2 
   1  -3  -7 67.9748 7.76761   2 
  -1   3   7 55.7322 7.02919   2 
  -1   3   7 54.9859 6.29555   2 
  -1   3   7 59.2979 7.55501   1 
   0  -3  -7 5.01878 4.41441   2 
   0  -3  -7 7.46805 2.25290   2 
   0   3   7 8.97645 5.94910   2 
   0   3   7 3.36935 4.26186   2 
   0   3   7 2.89723 4.83018   1 
   1   3   7 39.8158 6.72039   1 
   1   3   7 47.5017 5.28216   2 
   1   3   7 42.4870 8.98337   2 
   2   3   7 175.712 16.6569   2 
   2   3   7 177.506 16.2521   1 
   2   3   7 170.494 12.6480   2 
   8  -4  -7 -4.9056 8.72933   2 
   8  -4  -7 -12.523 14.2571   2 
  -8   4   7 6.63393 7.65592   2 
  -8   4   7 5.14452 5.86527   1 
   7  -4  -7 51.8549 13.6122   2 
   7  -4  -7 53.6494 7.85085   2 
  -7   4   7 58.2479 8.26996   2 
  -7   4   7 44.1598 6.81126   1 
   6  -4  -7 24.4892 6.08419   2 
   6  -4  -7 9.51063 11.3872   2 
  -6   4   7 32.6421 10.6718   1 
  -6   4   7 21.1151 6.29860   2 
  -6   4   7 14.1775 5.06362   2 
  -6   4   7 6.93480 5.78316   1 
   5  -4  -7 -0.8650 4.06213   2 
   5  -4  -7 12.1480 10.8971   2 
  -5   4   7 -1.5761 5.08362   1 
  -5   4   7 2.06128 5.35199   1 
  -5   4   7 -6.9398 5.33142   2 
   4  -4  -7 14.8723 3.98929   2 
  -4   4   7 16.5720 4.93935   2 
  -4   4   7 20.0808 4.95525   1 
  -4   4   7 22.0011 5.84684   1 
  -4   4   7 19.7187 5.26839   2 
   3  -4  -7 47.0256 10.5066   2 
   3  -4  -7 36.7924 4.67581   2 
  -3   4   7 30.4390 6.44830   2 
  -3   4   7 43.5747 5.58236   2 
  -3   4   7 45.7614 5.95860   1 
  -3   4   7 27.3764 5.85815   1 
   2  -4  -7 17.7497 9.17964   2 
   2  -4  -7 17.9030 3.20430   2 
  -2   4   7 8.52585 5.26754   1 
  -2   4   7 20.3956 4.83612   2 
  -2   4   7 14.2393 7.14564   2 
   1  -4  -7 13.8526 7.74692   2 
   1  -4  -7 7.57196 2.71523   2 
  -1   4   7 0.73087 5.04182   1 
  -1   4   7 19.7910 7.65853   2 
  -1   4   7 13.5695 5.43314   2 
   0  -4  -7 26.3095 3.42750   2 
   0  -4  -7 36.7997 6.62163   2 
   0   4   7 26.8391 5.88077   2 
   0   4   7 28.2237 8.76101   2 
   0   4   7 31.2709 6.89265   1 
   1   4   7 0.23416 10.4086   2 
   1   4   7 0.64601 5.69492   2 
   1   4   7 -3.3859 7.31250   1 
   7  -5  -7 32.3430 17.9972   2 
   7  -5  -7 38.1186 8.28234   2 
  -7   5   7 36.9974 8.06921   2 
  -7   5   7 41.7521 7.38921   1 
  -7   5   7 25.2372 6.91890   1 
  -7   5   7 51.8059 9.25222   2 
   6  -5  -7 187.394 23.9163   2 
   6  -5  -7 227.811 15.5760   2 
  -6   5   7 215.470 16.4261   2 
  -6   5   7 201.271 17.0557   2 
  -6   5   7 190.896 16.2730   1 
  -6   5   7 231.779 16.4994   1 
   5  -5  -7 325.943 19.5941   2 
   5  -5  -7 267.969 27.9050   2 
  -5   5   7 284.990 20.3285   1 
  -5   5   7 312.399 20.4979   2 
  -5   5   7 274.774 20.9855   2 
  -5   5   7 317.885 20.4166   1 
   4  -5  -7 0.33923 4.38850   2 
  -4   5   7 2.87503 7.27121   2 
  -4   5   7 10.1122 5.43252   1 
  -4   5   7 -9.9493 5.47061   1 
  -4   5   7 -2.5897 6.56592   2 
   3  -5  -7 -0.8858 3.94303   2 
   3  -5  -7 -0.7266 11.3332   2 
  -3   5   7 2.95089 6.04915   1 
  -3   5   7 -6.6970 5.89559   2 
  -3   5   7 6.26495 7.52871   2 
   2  -5  -7 -5.0679 3.31203   2 
   2  -5  -7 -9.7116 11.1887   2 
  -2   5   7 -2.2260 6.45212   1 
  -2   5   7 1.34752 13.2185   2 
  -2   5   7 2.23481 6.93276   2 
   1  -5  -7 125.591 16.0153   2 
   1  -5  -7 82.6261 7.68372   2 
  -1   5   7 108.502 12.9967   2 
  -1   5   7 121.466 12.8851   1 
  -1   5   7 108.704 11.4750   2 
   5  -6  -7 -5.8269 19.5065   2 
   5  -6  -7 1.31826 5.87056   2 
  -5   6   7 1.93758 7.64176   1 
  -5   6   7 1.91030 8.05410   2 
  -5   6   7 -2.0462 9.02796   2 
   4  -6  -7 6.46440 5.83552   2 
  -4   6   7 -1.1270 8.90877   2 
  -4   6   7 -8.8577 8.16311   2 
  -4   6   7 13.6568 7.73051   1 
  -4   6   7 -2.7631 7.74210   1 
   3  -6  -7 -9.1716 4.92949   2 
   3  -6  -7 -3.2374 13.8297   2 
  -3   6   7 1.26867 8.59014   2 
  -3   6   7 4.04711 8.67746   1 
  -3   6   7 9.88850 10.3635   2 
   2   8  -8 -2.5439 8.01565   2 
   2   8  -8 14.7045 12.2290   2 
   2   8  -8 -1.5530 8.52086   1 
  -2  -8   8 2.22410 7.43821   2 
  -2  -8   8 0.35385 6.17733   1 
  -2  -8   8 15.1279 10.7603   2 
   1   8  -8 17.2228 8.50851   1 
   1   8  -8 8.68692 7.56379   2 
   1   8  -8 20.4043 11.4596   2 
  -1  -8   8 13.6896 10.6964   2 
  -1  -8   8 19.0384 6.82834   2 
  -1  -8   8 18.4666 6.61224   1 
   0   8  -8 14.8222 7.53656   1 
   0   8  -8 18.3445 11.0489   2 
   0  -8   8 8.88623 9.17110   2 
   0  -8   8 28.8194 6.25681   1 
   0  -8   8 17.8109 6.56824   2 
  -1   8  -8 15.4076 7.29816   1 
  -1   8  -8 2.10731 4.78123   2 
  -1   8  -8 7.10568 9.66414   2 
   1  -8   8 3.64164 6.01193   2 
   1  -8   8 -2.6586 5.25787   1 
   1  -8   8 2.50958 8.76881   2 
  -2   8  -8 20.8633 7.28018   1 
  -2   8  -8 23.6029 5.28315   2 
  -2   8  -8 20.5465 8.59303   2 
   2  -8   8 26.9221 10.5504   2 
   2  -8   8 33.6326 5.60808   1 
   2  -8   8 19.4571 7.64738   2 
  -3   8  -8 86.3823 10.2598   1 
  -3   8  -8 59.6356 6.95095   2 
  -3   8  -8 70.2675 9.45612   2 
   3  -8   8 75.6360 12.2286   2 
   3  -8   8 74.3137 9.64122   2 
   3  -8   8 72.7172 10.8100   1 
   4   7  -8 114.861 13.9916   1 
   4   7  -8 84.3992 11.4695   2 
   4   7  -8 86.3654 16.1564   2 
  -4  -7   8 121.978 13.3027   2 
  -4  -7   8 118.431 11.4818   1 
   3   7  -8 0.80575 12.0282   2 
   3   7  -8 -1.0922 6.87526   2 
   3   7  -8 6.49826 7.46803   1 
  -3  -7   8 -5.4450 10.7597   2 
  -3  -7   8 -6.2978 5.18086   1 
  -3  -7   8 3.86482 6.27682   2 
   2   7  -8 9.30805 6.23518   2 
   2   7  -8 2.35824 6.77830   1 
   2   7  -8 4.86500 10.3860   2 
  -2  -7   8 13.9581 4.92917   1 
  -2  -7   8 8.28944 5.95803   2 
  -2  -7   8 2.19234 8.02583   2 
   1   7  -8 55.5410 7.98457   1 
   1   7  -8 62.5663 10.5701   2 
   1   7  -8 61.2472 7.30676   2 
  -1  -7   8 77.4676 8.19290   2 
  -1  -7   8 59.9825 9.50089   2 
  -1  -7   8 67.3653 8.72464   1 
   0   7  -8 9.10550 6.05469   1 
   0   7  -8 6.34053 7.64388   2 
   0   7  -8 9.78148 4.18166   2 
   0  -7   8 -10.491 4.75182   2 
   0  -7   8 -3.4623 6.93965   2 
   0  -7   8 2.58964 4.53583   1 
  -1   7  -8 19.6048 7.61937   2 
  -1   7  -8 26.2814 4.63728   2 
  -1   7  -8 22.7700 5.88551   1 
   1  -7   8 21.3409 4.79844   1 
   1  -7   8 22.6850 8.07344   2 
   1  -7   8 23.4754 6.52659   2 
  -2   7  -8 47.1233 7.51031   1 
  -2   7  -8 38.4565 7.03997   2 
  -2   7  -8 49.9847 6.61234   2 
   2  -7   8 67.8648 8.81832   2 
   2  -7   8 56.1599 7.50252   1 
   2  -7   8 50.7796 7.27907   2 
  -3   7  -8 -6.9987 6.15134   1 
  -3   7  -8 -6.8022 5.09035   2 
  -3   7  -8 -2.2646 3.63511   2 
   3  -7   8 1.47877 6.01355   2 
   3  -7   8 7.45437 4.64810   1 
   3  -7   8 1.03457 8.39870   2 
   4  -7   8 -3.9310 4.81779   1 
   4  -7   8 14.2041 9.28638   2 
   4  -7   8 6.54142 5.46303   2 
   5   6  -8 5.51305 7.95548   1 
   5   6  -8 6.37110 14.1212   2 
   5   6  -8 -0.5201 7.42788   2 
  -5  -6   8 2.10120 5.83530   1 
  -5  -6   8 17.8659 8.71271   2 
   4   6  -8 20.3573 6.92818   2 
   4   6  -8 19.0265 7.47663   1 
   4   6  -8 25.0564 11.4274   2 
  -4  -6   8 18.9881 8.05590   2 
  -4  -6   8 12.4117 4.86143   1 
  -4  -6   8 18.3617 6.38812   2 
   3   6  -8 0.76472 5.45295   1 
   3   6  -8 0.67159 9.03382   2 
   3   6  -8 3.24192 5.67028   2 
  -3  -6   8 8.26133 5.53292   2 
  -3  -6   8 13.0081 6.84877   2 
  -3  -6   8 5.82935 4.10579   1 
   2   6  -8 6.14735 8.61451   2 
   2   6  -8 13.1979 5.01557   2 
   2   6  -8 -4.2299 5.30886   1 
  -2  -6   8 9.52426 6.81565   2 
  -2  -6   8 9.94033 3.96316   1 
  -2  -6   8 9.45505 4.88364   2 
   1   6  -8 11.6711 4.98774   1 
   1   6  -8 7.15728 6.61927   2 
   1   6  -8 1.18033 3.87141   2 
  -1  -6   8 19.6699 3.91053   1 
  -1  -6   8 16.9352 7.81745   2 
  -1  -6   8 15.3573 4.36139   2 
   0   6  -8 0.50292 5.75597   2 
   0   6  -8 -0.3437 3.30360   2 
   0   6  -8 -0.4082 4.91973   1 
   0  -6   8 -9.5316 5.38206   2 
   0  -6   8 -1.0634 4.02560   2 
  -1   6  -8 29.8471 5.60137   1 
  -1   6  -8 29.2770 6.01042   2 
  -1   6  -8 23.7504 3.89934   2 
   1  -6   8 25.0543 4.39621   1 
   1  -6   8 20.7193 6.14670   2 
   1  -6   8 33.7234 5.35331   2 
  -2   6  -8 190.296 12.6272   2 
  -2   6  -8 212.604 14.5860   1 
  -2   6  -8 210.561 14.0797   2 
   2  -6   8 203.343 13.8109   1 
   2  -6   8 211.198 14.6597   2 
   2  -6   8 190.293 15.5357   2 
   3  -6   8 122.592 10.9460   2 
   3  -6   8 130.383 10.4265   1 
   3  -6   8 140.977 13.7063   2 
   4  -6   8 4.34451 7.26877   2 
   4  -6   8 3.77211 4.91000   2 
   4  -6   8 1.38145 4.95004   1 
   6   5  -8 1.92410 9.29296   1 
   6   5  -8 -8.1690 8.12653   2 
   6   5  -8 -10.835 14.5309   2 
  -6  -5   8 4.34382 6.07766   1 
  -6  -5   8 5.99609 7.34629   2 
  -6  -5   8 -4.3724 7.54973   2 
   5   5  -8 -1.5102 6.21439   1 
   5   5  -8 17.0214 11.1966   2 
   5   5  -8 5.97449 6.59972   2 
  -5  -5   8 -6.0745 5.81034   2 
  -5  -5   8 6.58566 6.90527   2 
  -5  -5   8 7.98477 4.71415   1 
   4   5  -8 59.0971 10.3925   2 
   4   5  -8 64.2303 7.42295   1 
   4   5  -8 57.6015 7.50098   2 
  -4  -5   8 68.2576 8.50756   2 
  -4  -5   8 75.1483 9.53339   2 
  -4  -5   8 76.9050 7.51213   1 
   3   5  -8 11.5931 4.78492   1 
   3   5  -8 6.85126 4.16842   2 
   3   5  -8 15.1315 7.79019   2 
  -3  -5   8 7.37313 3.36485   1 
  -3  -5   8 10.2417 3.74996   2 
  -3  -5   8 9.22056 5.73229   2 
   2   5  -8 19.3262 4.85832   1 
   2   5  -8 17.8182 6.53829   2 
  -2  -5   8 13.9319 3.49825   1 
  -2  -5   8 12.8282 4.91265   2 
  -2  -5   8 18.7460 4.47765   2 
   1   5  -8 26.4107 3.58358   2 
   1   5  -8 18.9079 6.25298   2 
  -1  -5   8 28.6309 5.78409   2 
  -1  -5   8 26.8048 4.25251   2 
   0   5  -8 390.709 23.3717   2 
   0   5  -8 399.190 24.4991   1 
   0   5  -8 403.033 24.8736   2 
   0  -5   8 410.710 24.1815   2 
   0  -5   8 382.511 24.0007   1 
  -1   5  -8 16.7613 2.70436   2 
  -1   5  -8 17.0005 4.70812   2 
  -1   5  -8 21.6749 4.99105   1 
   1  -5   8 8.65230 3.95181   1 
   1  -5   8 17.4907 4.43657   2 
   1  -5   8 18.9436 3.99350   2 
   2  -5   8 219.185 15.0010   2 
   2  -5   8 200.183 13.8783   2 
   2  -5   8 215.323 14.0564   1 
   3  -5   8 39.9379 4.77926   2 
   3  -5   8 27.8301 4.97396   1 
   3  -5   8 35.9336 6.42989   2 
   4  -5   8 4.24388 6.47214   2 
   4  -5   8 -11.431 4.79566   1 
   4  -5   8 -3.1560 3.46124   2 
   5  -5   8 -2.0629 7.50189   2 
   5  -5   8 14.6242 6.83829   1 
   5  -5   8 3.90189 5.96500   1 
   5  -5   8 -3.9590 6.09441   2 
   7   4  -8 1.19550 10.1435   1 
   7   4  -8 -19.238 9.23389   2 
   7   4  -8 8.23251 13.0408   2 
  -7  -4   8 8.58434 7.75014   2 
  -7  -4   8 2.35812 7.46552   2 
  -7  -4   8 -0.5398 6.45024   1 
   6   4  -8 9.64319 6.90355   2 
   6   4  -8 11.4758 7.74028   1 
   6   4  -8 11.4997 11.0911   2 
  -6  -4   8 26.1770 5.39621   1 
  -6  -4   8 18.6830 6.13602   2 
  -6  -4   8 19.5552 6.54349   2 
   5   4  -8 176.420 13.2833   2 
   5   4  -8 137.157 18.8813   2 
   5   4  -8 152.245 13.6206   1 
  -5  -4   8 165.776 11.9746   1 
  -5  -4   8 159.206 12.3983   2 
  -5  -4   8 173.907 12.9268   2 
   4   4  -8 76.6428 8.64177   2 
   4   4  -8 91.4610 9.42877   1 
  -4  -4   8 89.4912 8.95263   2 
  -4  -4   8 77.8162 8.12814   2 
  -4  -4   8 88.8861 7.65511   1 
   3   4  -8 79.2998 13.5503   2 
   3   4  -8 96.5453 8.43307   2 
   3   4  -8 107.841 9.33154   1 
  -3  -4   8 99.3466 8.02136   2 
  -3  -4   8 98.3731 8.75647   2 
  -3  -4   8 85.3651 7.89030   1 
   2   4  -8 58.1527 5.87320   2 
   2   4  -8 68.8589 7.29365   1 
  -2  -4   8 61.1737 7.05419   2 
  -2  -4   8 63.5298 6.05635   1 
  -2  -4   8 62.6274 6.25236   2 
   1   4  -8 3.58119 2.59735   2 
   1   4  -8 9.14718 3.74495   1 
  -1  -4   8 8.03463 3.18267   2 
  -1  -4   8 12.8460 3.65008   2 
  -1  -4   8 5.50752 3.28996   1 
   0   4  -8 876.939 49.4667   2 
   0   4  -8 877.498 50.2617   1 
   0   4  -8 745.395 51.0475   2 
   0  -4   8 925.453 49.9856   2 
   0  -4   8 833.099 50.0088   1 
   0  -4   8 917.905 50.3555   2 
  -1   4  -8 103.175 9.46159   1 
   1  -4   8 86.9687 7.97217   1 
   1  -4   8 101.986 7.66222   2 
   2  -4   8 223.342 14.2207   2 
   2  -4   8 229.480 15.1326   1 
   3  -4   8 204.214 13.8993   2 
   3  -4   8 253.134 15.2270   1 
   4  -4   8 -14.245 5.43398   1 
   4  -4   8 5.50819 6.50151   1 
   5  -4   8 5.73980 6.85572   1 
   5  -4   8 7.91704 6.52579   1 
   7   3  -8 145.256 15.4597   1 
   7   3  -8 111.132 14.2736   2 
  -7  -3   8 121.667 11.0783   2 
  -7  -3   8 116.253 11.3730   1 
  -7  -3   8 112.391 12.0299   2 
   6   3  -8 8.09264 6.66991   1 
   6   3  -8 0.70099 5.70591   2 
  -6  -3   8 3.21352 5.02480   2 
  -6  -3   8 1.45838 5.06857   2 
  -6  -3   8 5.88866 4.64429   1 
   5   3  -8 71.8487 8.48337   2 
   5   3  -8 83.4353 9.85332   1 
   5   3  -8 104.736 11.7201   2 
  -5  -3   8 93.7809 8.46532   2 
  -5  -3   8 81.5707 8.15912   1 
  -5  -3   8 83.6773 8.10973   2 
   4   3  -8 6.86024 6.63152   2 
   4   3  -8 1.53015 3.67969   2 
   4   3  -8 5.46883 3.95452   1 
  -4  -3   8 2.12760 3.19828   2 
  -4  -3   8 2.01550 3.81790   2 
  -4  -3   8 5.66924 3.25982   1 
   3   3  -8 14.3863 5.07257   2 
   3   3  -8 17.4369 4.31659   1 
  -3  -3   8 18.6220 3.86957   2 
  -3  -3   8 23.7238 3.73204   2 
  -3  -3   8 20.2852 3.42690   1 
   2   3  -8 39.1126 5.41761   2 
   2   3  -8 46.2272 5.08553   2 
   2   3  -8 56.1643 6.32407   1 
  -2  -3   8 40.6065 4.79144   2 
  -2  -3   8 45.9656 5.36009   1 
  -2  -3   8 47.0212 5.32696   2 
   1   3  -8 89.4405 7.73572   1 
   1   3  -8 81.2817 7.56012   2 
   1   3  -8 76.2404 6.15609   2 
  -1  -3   8 86.0724 6.64612   2 
  -1  -3   8 88.8094 6.53993   2 
  -1  -3   8 82.4817 7.39420   1 
   0   3  -8 254.698 15.8571   2 
   0   3  -8 266.550 16.4410   2 
   0   3  -8 269.574 17.3428   1 
   0  -3   8 272.715 16.4640   2 
   0  -3   8 272.607 17.0248   1 
   0  -3   8 279.784 16.3020   2 
   1  -3   8 279.932 16.3653   2 
   1  -3   8 284.267 16.2953   2 
   1  -3   8 244.198 16.9213   1 
   2  -3   8 0.43346 4.18290   1 
   2  -3   8 7.24303 3.38156   2 
   2  -3   8 8.94396 2.32879   2 
   3  -3   8 131.147 10.7348   1 
   4  -3   8 122.523 15.5510   1 
   4  -3   8 109.682 16.0033   1 
   5  -3   8 0.71816 7.17277   1 
   5  -3   8 -7.6099 6.98058   1 
   8   2  -8 39.0753 9.73639   1 
   8   2  -8 30.4812 13.7165   2 
   8   2  -8 22.2950 10.6535   2 
  -8  -2   8 43.7983 7.10320   1 
  -8  -2   8 10.1315 7.20572   2 
  -8  -2   8 29.2303 7.05429   2 
   7   2  -8 155.674 14.4814   2 
   7   2  -8 153.467 13.8007   1 
  -7  -2   8 165.938 12.2316   1 
  -7  -2   8 136.372 11.5843   2 
  -7  -2   8 166.984 12.8772   2 
   6   2  -8 3.24776 5.13316   1 
   6   2  -8 15.9282 9.60021   2 
   6   2  -8 -2.8098 6.14517   2 
  -6  -2   8 -5.9463 4.03305   1 
  -6  -2   8 6.55637 3.87954   2 
  -6  -2   8 0.29656 4.22505   2 
   5   2  -8 12.1698 6.26900   2 
   5   2  -8 10.8400 4.42717   1 
   5   2  -8 24.2573 5.16895   2 
  -5  -2   8 17.9769 4.15424   2 
  -5  -2   8 17.5349 3.97878   2 
  -5  -2   8 21.3397 3.91430   1 
   4   2  -8 20.6591 4.79496   1 
   4   2  -8 18.8550 3.97608   2 
   4   2  -8 36.0665 5.87201   2 
  -4  -2   8 19.4883 3.67486   2 
  -4  -2   8 16.5698 3.62774   1 
  -4  -2   8 18.4394 3.40633   2 
   3   2  -8 11.3495 3.25179   2 
   3   2  -8 22.7813 3.89505   1 
   3   2  -8 21.3512 4.49489   2 
  -3  -2   8 18.4797 3.20742   1 
  -3  -2   8 20.4050 3.20295   2 
  -3  -2   8 20.9219 3.09375   2 
   2   2  -8 331.976 19.8673   1 
   2   2  -8 315.232 19.7983   2 
   2   2  -8 305.115 19.1644   2 
  -2  -2   8 336.023 19.1346   2 
  -2  -2   8 318.735 19.1319   2 
  -2  -2   8 308.343 19.6809   1 
   1   2  -8 18.8172 3.37242   2 
   1   2  -8 17.0341 2.89516   2 
  -1  -2   8 12.5160 2.38479   2 
  -1  -2   8 12.8821 2.57092   2 
  -1  -2   8 9.61618 3.10107   1 
   0  -2   8 34.7426 4.61421   1 
   0  -2   8 39.5580 3.67576   2 
   0  -2   8 39.7701 3.95838   2 
   1  -2   8 46.7175 4.13578   2 
   1  -2   8 45.5885 3.57177   2 
   1  -2   8 38.4225 4.89691   1 
   2  -2   8 79.2736 8.30252   1 
   3  -2   8 526.301 32.6982   1 
   3  -2   8 512.188 32.4290   1 
   4  -2   8 13.3354 7.03263   1 
   4  -2   8 14.7112 6.79876   1 
   8   1  -8 23.0574 9.03797   2 
   8   1  -8 22.7244 12.2996   2 
   8   1  -8 26.9253 8.48946   1 
  -8  -1   8 32.9552 7.42350   2 
  -8  -1   8 30.4051 6.51634   2 
  -8  -1   8 34.7886 6.34566   1 
   7   1  -8 8.59118 6.55584   1 
   7   1  -8 13.3752 7.69544   2 
  -7  -1   8 5.68930 4.65114   2 
  -7  -1   8 6.89956 5.07288   1 
  -7  -1   8 -1.1775 4.98626   2 
   6   1  -8 53.6946 7.46908   2 
   6   1  -8 48.0627 6.48184   1 
   6   1  -8 51.6288 8.34313   2 
  -6  -1   8 60.7099 6.96486   2 
  -6  -1   8 46.3374 6.11905   1 
  -6  -1   8 58.0487 6.20017   2 
   5   1  -8 1.11247 4.71215   2 
   5   1  -8 0.81038 5.44170   2 
  -5  -1   8 8.16094 2.92203   2 
  -5  -1   8 3.21139 2.71855   2 
   4   1  -8 -2.6237 3.48496   1 
   4   1  -8 -3.6408 3.73512   2 
   4   1  -8 -5.5405 3.88769   2 
  -4  -1   8 3.05791 3.10641   1 
  -4  -1   8 2.66675 2.63070   2 
  -4  -1   8 1.58573 2.44735   2 
   3   1  -8 220.091 15.1136   2 
   3   1  -8 229.473 15.2640   1 
   3   1  -8 255.451 15.4547   2 
  -3  -1   8 241.906 15.2189   1 
  -3  -1   8 236.155 14.6099   2 
  -3  -1   8 248.298 14.5020   2 
   2   1  -8 202.820 12.7327   2 
   2   1  -8 182.154 12.4364   2 
  -2  -1   8 193.206 11.9900   2 
  -2  -1   8 188.095 12.7679   1 
  -2  -1   8 196.354 11.7072   2 
   1   1  -8 27.5108 3.61053   2 
   1   1  -8 28.1291 3.75492   2 
  -1  -1   8 22.5043 3.57731   1 
  -1  -1   8 27.6990 2.90791   2 
  -1  -1   8 28.1254 3.57365   2 
   0  -1   8 8.67717 1.63463   2 
   0  -1   8 7.51062 2.18900   2 
   0  -1   8 7.22495 3.43356   1 
   2  -1   8 -0.4372 4.93306   1 
   2  -1   8 2.62502 5.38791   1 
   3  -1   8 3.11815 5.72090   1 
   3  -1   8 5.73267 6.07248   1 
   4  -1   8 94.9800 13.4244   1 
   4  -1   8 86.5589 10.3310   1 
   8   0  -8 42.9287 10.8340   2 
   8   0  -8 41.2306 9.55606   2 
   8   0  -8 47.4490 8.01147   1 
  -8   0   8 34.3854 6.20843   2 
  -8   0   8 47.9335 6.77795   2 
  -8   0   8 49.0865 6.53453   1 
   7   0  -8 21.0741 8.76531   2 
   7   0  -8 20.0742 7.80033   2 
   7   0  -8 27.2198 6.26398   1 
  -7   0   8 22.9942 4.61761   2 
  -7   0   8 20.2363 5.27248   2 
  -7   0   8 29.7733 5.39764   1 
   6   0  -8 13.4412 6.69896   2 
   6   0  -8 24.9533 6.41657   1 
  -6   0   8 22.2032 4.49807   2 
  -6   0   8 22.1185 3.77286   2 
   5   0  -8 21.4402 5.01927   1 
   5   0  -8 19.9263 6.39960   2 
   5   0  -8 19.7528 6.19295   2 
  -5   0   8 14.3837 4.16109   1 
  -5   0   8 24.9132 3.34197   2 
  -5   0   8 20.0566 3.84216   2 
   4   0  -8 46.8020 5.50341   2 
  -4   0   8 47.0749 4.71554   2 
  -4   0   8 46.7667 6.36677   1 
  -4   0   8 43.6875 5.41264   2 
   3   0  -8 53.4975 6.73356   2 
   3   0  -8 47.0668 5.36314   2 
  -3   0   8 44.0379 5.13142   1 
  -3   0   8 57.1599 5.11017   2 
  -3   0   8 54.9496 4.47714   2 
   2   0  -8 77.2623 6.45625   2 
   2   0  -8 70.0157 7.39059   2 
  -2   0   8 71.6896 5.13079   2 
  -2   0   8 70.7935 5.92376   2 
  -2   0   8 68.5923 6.74152   1 
   1   0  -8 91.7029 7.57909   2 
   1   0  -8 84.9732 6.62864   2 
  -1   0   8 90.8233 6.08074   2 
  -1   0   8 93.3015 7.82449   1 
  -1   0   8 87.1914 6.53483   2 
   0   0   8 107.595 9.89902   1 
   0   0   8 109.843 7.52323   2 
   1   0   8 78.7273 6.17382   2 
   1   0   8 85.4380 6.05668   2 
   1   0   8 91.6852 8.90164   1 
   1   0   8 93.6769 9.80974   1 
   2   0   8 42.0939 7.16906   1 
   2   0   8 41.5921 6.37738   1 
   3   0   8 24.8116 7.08694   1 
   3   0   8 -0.1239 6.68847   1 
   8  -1  -8 43.3140 10.2767   2 
   8  -1  -8 62.6074 11.8015   2 
   8  -1  -8 44.0728 7.89260   1 
  -8   1   8 47.0541 6.84655   2 
  -8   1   8 45.8547 6.84429   1 
   7  -1  -8 111.223 13.1791   2 
   7  -1  -8 97.0846 11.0270   2 
  -7   1   8 98.5487 8.94785   2 
  -7   1   8 86.4876 9.45312   2 
  -7   1   8 85.3423 9.79422   1 
   6  -1  -8 6.33719 7.52086   2 
   6  -1  -8 9.72808 5.38440   2 
  -6   1   8 16.8036 4.76653   2 
  -6   1   8 15.1469 3.86697   2 
   5  -1  -8 97.3180 11.2568   2 
   5  -1  -8 131.568 9.65847   2 
  -5   1   8 120.792 8.48527   2 
  -5   1   8 108.441 11.0531   1 
  -5   1   8 112.333 8.99560   2 
   4  -1  -8 29.1144 4.01480   2 
  -4   1   8 27.9418 4.02434   2 
  -4   1   8 20.5154 4.34141   1 
  -4   1   8 24.5010 3.42619   2 
   3  -1  -8 69.4695 9.29195   2 
   3  -1  -8 86.5941 6.82433   2 
  -3   1   8 92.6227 6.47435   2 
  -3   1   8 92.3513 8.63873   1 
   2  -1  -8 3.00096 2.73570   2 
   2  -1  -8 0.70361 5.35759   2 
  -2   1   8 0.57595 3.00927   2 
  -2   1   8 -1.1978 2.14054   2 
   1  -1  -8 10.0529 4.27618   2 
   1  -1  -8 8.65662 2.82905   2 
  -1   1   8 10.9103 3.40443   2 
  -1   1   8 11.2322 4.03410   1 
   0   1   8 11.6586 2.88899   2 
   0   1   8 18.5794 4.41312   1 
   0   1   8 14.6649 3.88174   2 
   0   1   8 16.8344 5.12302   1 
   1   1   8 65.2058 6.69167   2 
   1   1   8 68.0054 9.70162   1 
   1   1   8 69.5874 6.31557   2 
   1   1   8 67.5745 9.13003   1 
   2   1   8 -7.7509 6.44384   1 
   3   1   8 87.5152 10.7729   1 
   8  -2  -8 -11.159 8.87114   2 
   8  -2  -8 5.82090 12.2866   2 
  -8   2   8 1.54819 6.07815   2 
  -8   2   8 5.09795 6.24832   1 
   7  -2  -8 6.87473 7.10911   2 
   7  -2  -8 11.6719 10.4621   2 
  -7   2   8 12.3972 4.77226   2 
  -7   2   8 8.25901 5.00845   1 
  -7   2   8 2.37720 4.99742   2 
   6  -2  -8 7.14084 5.75035   2 
   6  -2  -8 -2.2338 8.40449   2 
  -6   2   8 1.29977 5.46023   1 
  -6   2   8 -5.2075 3.71958   2 
  -6   2   8 4.75705 4.46190   2 
   5  -2  -8 155.557 11.0725   2 
   5  -2  -8 136.595 15.2426   2 
  -5   2   8 145.684 11.1192   2 
  -5   2   8 151.687 10.2765   2 
  -5   2   8 130.812 12.0098   1 
   4  -2  -8 91.7989 11.8727   2 
   4  -2  -8 151.527 9.42579   2 
  -4   2   8 126.298 10.1278   1 
  -4   2   8 129.884 10.2228   2 
   3  -2  -8 83.1522 9.66908   2 
   3  -2  -8 76.6678 6.47160   2 
  -3   2   8 87.6734 8.11411   1 
  -3   2   8 84.9913 6.78706   2 
   2  -2  -8 0.98280 2.53258   2 
   2  -2  -8 -3.6651 6.40640   2 
  -2   2   8 2.70545 4.36044   2 
  -2   2   8 -6.0353 3.85565   1 
   1  -2  -8 100.400 9.61966   2 
   1  -2  -8 82.4370 7.14627   2 
  -1   2   8 105.389 8.86499   2 
  -1   2   8 109.947 7.89045   2 
  -1   2   8 106.197 9.47033   1 
  -1   2   8 112.849 9.97278   1 
   0   2   8 82.5640 9.09179   1 
   0   2   8 58.4953 7.24895   2 
   0   2   8 74.2285 9.21076   1 
   0   2   8 76.7848 7.13002   2 
   1   2   8 2.21528 6.22185   1 
   1   2   8 11.2390 5.38655   2 
   1   2   8 -3.7851 4.14181   2 
   2   2   8 9.67749 7.74006   1 
   2   2   8 13.4020 6.83381   2 
   2   2   8 1.94939 4.13118   2 
   8  -3  -8 36.5897 15.2704   2 
   8  -3  -8 68.8206 10.5763   2 
  -8   3   8 55.2011 8.28107   1 
   7  -3  -8 34.9924 7.38877   2 
   7  -3  -8 13.5255 13.2527   2 
  -7   3   8 37.8439 7.14958   1 
  -7   3   8 39.9647 7.51643   2 
   6  -3  -8 14.4922 10.6769   2 
   6  -3  -8 13.8604 6.14681   2 
  -6   3   8 1.80141 4.99256   1 
  -6   3   8 7.27684 6.34693   2 
  -6   3   8 3.86613 4.72208   2 
   5  -3  -8 4.80480 9.54945   2 
   5  -3  -8 20.4528 4.72834   2 
  -5   3   8 21.5522 5.94829   2 
  -5   3   8 19.0413 4.31858   2 
  -5   3   8 15.2459 4.94259   1 
   4  -3  -8 136.641 9.52186   2 
   4  -3  -8 108.052 14.2905   2 
  -4   3   8 122.558 10.6258   1 
  -4   3   8 121.515 10.6470   2 
   3  -3  -8 -8.4544 9.35974   2 
   3  -3  -8 2.24206 3.26282   2 
  -3   3   8 2.21505 4.06605   2 
  -3   3   8 1.77090 4.61740   1 
  -3   3   8 5.84806 5.24780   1 
  -3   3   8 8.41745 6.00699   2 
   2  -3  -8 48.4503 5.21933   2 
   2  -3  -8 49.5193 9.23346   2 
  -2   3   8 57.9271 7.24601   1 
  -2   3   8 58.8814 6.78096   2 
  -2   3   8 59.2287 7.27426   2 
  -2   3   8 83.3389 8.52532   1 
   1  -3  -8 1.42379 3.01368   2 
   1  -3  -8 1.90881 6.46652   2 
  -1   3   8 1.20773 4.41113   2 
  -1   3   8 3.88302 5.10614   1 
  -1   3   8 3.33000 6.32928   2 
   0   3   8 31.9244 7.78663   2 
   0   3   8 12.0678 6.45151   1 
   0   3   8 11.6799 5.03228   2 
   1   3   8 3.03744 7.44002   1 
   1   3   8 -0.4784 5.01241   2 
   1   3   8 7.18326 8.39791   2 
   7  -4  -8 36.2702 15.2953   2 
   7  -4  -8 48.6024 8.82260   2 
  -7   4   8 41.6460 9.36989   2 
  -7   4   8 44.4980 7.79382   2 
  -7   4   8 43.7845 7.19602   1 
   6  -4  -8 17.2356 6.24604   2 
   6  -4  -8 22.5627 12.9926   2 
  -6   4   8 15.2526 6.97278   1 
  -6   4   8 19.7817 7.53147   2 
  -6   4   8 9.93611 5.80907   1 
  -6   4   8 2.37556 6.09692   2 
   5  -4  -8 30.6254 5.87906   2 
   5  -4  -8 36.2133 13.4076   2 
  -5   4   8 29.6392 6.53373   1 
  -5   4   8 34.0855 6.97633   1 
  -5   4   8 38.5288 6.62773   2 
  -5   4   8 34.2490 7.18578   2 
   4  -4  -8 -8.9175 12.2244   2 
   4  -4  -8 -5.4275 4.47130   2 
  -4   4   8 4.15732 5.43591   1 
  -4   4   8 2.19295 6.17039   1 
  -4   4   8 -2.8716 5.63826   2 
  -4   4   8 1.57247 5.03644   2 
   3  -4  -8 203.506 13.2545   2 
   3  -4  -8 181.516 19.5752   2 
  -3   4   8 192.945 15.3311   2 
  -3   4   8 215.563 15.4811   1 
  -3   4   8 195.389 15.6412   1 
  -3   4   8 212.270 15.0147   2 
   2  -4  -8 18.9714 10.5483   2 
   2  -4  -8 12.6908 3.75706   2 
  -2   4   8 14.9062 5.81317   2 
  -2   4   8 9.65771 6.49028   1 
  -2   4   8 20.1971 8.08115   2 
  -2   4   8 23.1412 6.36821   1 
   1  -4  -8 16.0984 8.59888   2 
   1  -4  -8 17.9567 3.96772   2 
  -1   4   8 16.4636 6.18055   2 
  -1   4   8 2.05781 6.43527   1 
  -1   4   8 25.3921 9.03918   2 
   0   4   8 53.9480 11.5869   2 
   0   4   8 51.8482 9.07104   1 
   0   4   8 57.6814 7.71470   2 
   6  -5  -8 107.794 12.8407   2 
   6  -5  -8 74.1053 20.6140   2 
  -6   5   8 112.396 12.9933   1 
  -6   5   8 115.993 14.5358   2 
  -6   5   8 100.786 11.7510   2 
  -6   5   8 112.099 13.8002   1 
   5  -5  -8 25.4563 21.6254   2 
   5  -5  -8 22.3377 5.98538   2 
  -5   5   8 8.26437 7.07060   1 
  -5   5   8 -1.4416 7.32031   2 
  -5   5   8 13.1147 8.02688   2 
  -5   5   8 9.83265 7.07599   1 
   4  -5  -8 28.0163 5.75172   2 
   4  -5  -8 40.3027 15.2527   2 
  -4   5   8 29.6137 8.99945   2 
  -4   5   8 49.5951 8.08338   1 
  -4   5   8 31.5674 7.78161   1 
  -4   5   8 28.7213 7.06227   2 
   3  -5  -8 -3.8277 4.38790   2 
   3  -5  -8 8.44623 14.9523   2 
  -3   5   8 9.48127 7.85460   2 
  -3   5   8 -3.8775 7.26637   1 
  -3   5   8 13.3983 7.86096   1 
  -3   5   8 3.08295 8.85451   2 
  -2   5   8 13.3758 7.94579   1 
  -2   5   8 12.3241 8.07393   2 
   1   8  -9 20.1449 9.57326   1 
   1   8  -9 45.8926 12.8246   2 
  -1  -8   9 41.3084 8.12850   2 
  -1  -8   9 23.3870 9.84357   2 
  -1  -8   9 44.7213 7.10309   1 
   0   8  -9 67.2540 12.3901   2 
   0   8  -9 106.949 12.9845   1 
   0   8  -9 75.7058 9.94125   2 
   0  -8   9 105.040 12.6980   2 
   0  -8   9 95.7033 10.9360   1 
   0  -8   9 78.9959 11.7780   2 
  -1   8  -9 16.1544 7.77223   1 
  -1   8  -9 4.48301 9.64076   2 
  -1   8  -9 13.5599 5.95250   2 
   1  -8   9 17.5436 6.25885   1 
   1  -8   9 28.5998 7.47594   2 
   1  -8   9 20.2086 10.2203   2 
  -2   8  -9 143.163 12.1971   2 
  -2   8  -9 148.585 15.5793   1 
  -2   8  -9 136.890 15.0921   2 
   2  -8   9 168.504 18.1287   2 
   2  -8   9 177.138 15.3702   2 
   2  -8   9 157.922 12.7712   1 
   3   7  -9 7.89658 8.21099   1 
   3   7  -9 9.53463 12.8134   2 
   3   7  -9 -7.8264 7.77851   2 
  -3  -7   9 2.83762 7.08996   2 
  -3  -7   9 3.60797 5.61061   1 
  -3  -7   9 12.6391 9.39854   2 
   2   7  -9 43.1744 7.50187   2 
   2   7  -9 55.1302 11.9304   2 
   2   7  -9 35.9531 8.43891   1 
  -2  -7   9 55.8473 10.3704   2 
  -2  -7   9 41.6182 7.09346   2 
  -2  -7   9 51.6286 6.54268   1 
   1   7  -9 12.4281 8.11794   1 
   1   7  -9 10.6642 5.42726   2 
   1   7  -9 -11.376 8.76325   2 
  -1  -7   9 -5.1256 4.72013   1 
  -1  -7   9 6.06121 7.89241   2 
  -1  -7   9 6.69721 6.54700   2 
   0   7  -9 64.9598 7.79233   2 
   0   7  -9 53.0358 8.08498   1 
   0   7  -9 61.5808 9.10364   2 
   0  -7   9 64.4264 7.72132   2 
   0  -7   9 56.3506 7.93247   1 
   0  -7   9 60.9018 9.38102   2 
  -1   7  -9 -5.3975 7.94547   2 
  -1   7  -9 14.4187 4.73505   2 
  -1   7  -9 11.5831 6.55318   1 
   1  -7   9 9.77360 6.78676   2 
   1  -7   9 13.1950 5.14406   1 
   1  -7   9 5.04571 6.77497   2 
  -2   7  -9 9.69454 7.16321   1 
  -2   7  -9 5.03108 6.73076   2 
  -2   7  -9 4.19057 3.57852   2 
   2  -7   9 4.03777 6.75301   2 
   2  -7   9 -6.0694 7.56035   2 
   2  -7   9 -6.0341 5.53989   1 
   3  -7   9 7.27888 8.97665   2 
   3  -7   9 16.2294 6.95533   2 
   3  -7   9 10.2924 5.88111   1 
   5   6  -9 5.45461 14.9229   2 
   5   6  -9 14.6969 8.84559   1 
   5   6  -9 16.5047 8.80639   2 
  -5  -6   9 26.4096 6.58355   1 
  -5  -6   9 34.9447 9.37072   2 
  -5  -6   9 9.39383 8.42725   2 
   4   6  -9 -0.4756 7.50728   1 
   4   6  -9 32.4503 12.2444   2 
   4   6  -9 -4.3135 6.78640   2 
  -4  -6   9 11.0065 6.79170   2 
  -4  -6   9 15.7167 8.06152   2 
  -4  -6   9 12.0496 5.60908   1 
   3   6  -9 2.92563 6.71776   1 
   3   6  -9 -13.033 10.5748   2 
   3   6  -9 10.7582 5.69246   2 
  -3  -6   9 9.94339 6.88546   2 
  -3  -6   9 8.12852 6.42373   2 
  -3  -6   9 10.0355 4.63781   1 
   2   6  -9 131.598 13.0275   1 
   2   6  -9 143.100 15.5448   2 
  -2  -6   9 124.056 10.6542   1 
  -2  -6   9 138.250 11.5207   2 
  -2  -6   9 142.858 13.0101   2 
   1   6  -9 -1.2424 5.27619   1 
   1   6  -9 -1.4051 7.47246   2 
   1   6  -9 5.89696 3.68859   2 
  -1  -6   9 3.44796 4.22787   1 
  -1  -6   9 -6.6215 6.21090   2 
  -1  -6   9 -1.4939 4.48246   2 
   0   6  -9 -5.5005 3.59288   2 
   0   6  -9 -3.8003 6.85226   2 
   0   6  -9 15.1638 5.93370   1 
   0  -6   9 6.56123 4.41913   1 
   0  -6   9 -2.6970 5.16084   2 
   0  -6   9 -1.0021 5.83995   2 
  -1   6  -9 40.5218 6.56986   1 
  -1   6  -9 31.2325 4.03302   2 
  -1   6  -9 39.6697 6.76172   2 
   1  -6   9 46.8499 6.70013   2 
   1  -6   9 36.5663 5.48560   2 
   1  -6   9 30.5821 5.26861   1 
   2  -6   9 25.4413 5.54461   2 
   2  -6   9 24.6092 5.48839   1 
   2  -6   9 19.7870 6.32462   2 
   3  -6   9 4.19746 5.34668   2 
   3  -6   9 6.61097 11.0147   1 
   3  -6   9 -17.443 6.71026   2 
   6   5  -9 5.92750 9.35394   1 
   6   5  -9 -11.742 9.09095   2 
   6   5  -9 2.25373 15.1972   2 
  -6  -5   9 5.60918 6.59401   1 
   5   5  -9 51.1248 8.58289   1 
   5   5  -9 52.2817 13.1957   2 
   5   5  -9 53.3776 8.79209   2 
  -5  -5   9 67.7579 8.95809   1 
  -5  -5   9 49.8899 7.21249   2 
   4   5  -9 4.24112 6.36385   1 
   4   5  -9 8.82625 6.26917   2 
   4   5  -9 5.28328 9.53239   2 
  -4  -5   9 -0.0302 5.26276   2 
  -4  -5   9 4.06529 4.50776   1 
   3   5  -9 11.4078 5.33390   2 
   3   5  -9 0.84743 5.58316   1 
   3   5  -9 9.64489 8.17723   2 
  -3  -5   9 0.68127 4.09083   1 
  -3  -5   9 6.12790 5.72337   2 
  -3  -5   9 -2.7193 4.80845   2 
   2   5  -9 358.721 23.8464   2 
   2   5  -9 347.485 21.3183   2 
   2   5  -9 348.130 22.2213   1 
  -2  -5   9 370.559 22.0314   2 
  -2  -5   9 325.955 21.4885   1 
  -2  -5   9 334.080 22.1453   2 
   1   5  -9 42.6064 5.12517   2 
   1   5  -9 51.6871 7.00320   2 
   1   5  -9 43.8707 6.55459   1 
  -1  -5   9 45.4605 5.80725   2 
  -1  -5   9 50.2350 6.75703   1 
  -1  -5   9 55.3341 6.57959   2 
   0   5  -9 17.5082 5.25304   1 
   0   5  -9 23.7130 3.59982   2 
   0   5  -9 32.1177 5.65469   2 
   0  -5   9 25.7392 4.71341   2 
   0  -5   9 17.9949 5.19272   2 
   0  -5   9 16.0338 4.88636   1 
  -1   5  -9 40.6642 6.66060   1 
   1  -5   9 40.6688 5.83732   1 
   1  -5   9 47.3535 5.42929   2 
   1  -5   9 41.0623 6.02703   2 
   2  -5   9 199.820 13.5127   2 
   2  -5   9 197.311 14.0950   2 
   3  -5   9 -3.8215 5.67950   2 
   3  -5   9 5.88461 4.31739   2 
   4  -5   9 40.1510 9.89595   1 
   4  -5   9 52.2003 7.09359   2 
   6   4  -9 24.1033 9.84071   1 
   6   4  -9 24.1488 8.07906   2 
   6   4  -9 12.8936 12.2463   2 
  -6  -4   9 21.7634 6.97666   2 
  -6  -4   9 23.4950 6.93541   2 
  -6  -4   9 29.8689 6.19891   1 
   5   4  -9 8.55653 9.68771   2 
   5   4  -9 -9.1493 6.69493   1 
   5   4  -9 3.54202 6.30983   2 
  -5  -4   9 8.23772 4.75423   1 
  -5  -4   9 -2.9161 5.10677   2 
  -5  -4   9 7.42069 5.17192   2 
   4   4  -9 193.874 16.4455   2 
   4   4  -9 195.013 14.5176   1 
   4   4  -9 193.745 14.2522   2 
  -4  -4   9 200.237 13.8165   2 
  -4  -4   9 184.853 14.1978   2 
  -4  -4   9 192.789 13.3106   1 
   3   4  -9 3.39836 4.35026   1 
   3   4  -9 11.9793 6.87812   2 
  -3  -4   9 6.00323 3.74099   1 
  -3  -4   9 10.9137 4.32925   2 
   2   4  -9 11.1280 5.63987   2 
   2   4  -9 5.97022 3.47708   2 
   2   4  -9 1.33440 4.48525   1 
  -2  -4   9 -6.0987 4.03495   2 
  -2  -4   9 -1.3168 3.24019   2 
  -2  -4   9 2.79515 3.52407   1 
   1   4  -9 176.384 12.0919   2 
   1   4  -9 181.915 13.5755   1 
   1   4  -9 179.421 13.6039   2 
  -1  -4   9 190.485 12.5424   2 
  -1  -4   9 195.418 12.7595   1 
  -1  -4   9 192.524 12.6554   2 
   0   4  -9 -1.3604 4.26124   2 
   0   4  -9 0.77406 2.75822   2 
   0   4  -9 -2.3498 5.20645   1 
   0  -4   9 4.88158 3.42188   2 
   0  -4   9 0.83339 3.67845   2 
   0  -4   9 0.94827 4.55869   1 
   1  -4   9 435.425 25.0722   2 
   1  -4   9 452.364 25.3621   2 
   1  -4   9 366.645 26.7159   1 
   2  -4   9 62.7332 6.52662   2 
   2  -4   9 60.4613 6.95037   2 
   2  -4   9 54.1566 8.05099   1 
   3  -4   9 37.2248 6.34950   1 
   4  -4   9 3.23502 6.73502   1 
   4  -4   9 5.69993 7.63489   1 
   7   3  -9 17.5530 9.72597   2 
   7   3  -9 42.6241 13.0734   2 
   7   3  -9 23.5748 10.0986   1 
  -7  -3   9 20.9533 7.39089   2 
  -7  -3   9 31.1973 6.71339   1 
   6   3  -9 5.72570 6.83112   1 
   6   3  -9 1.23948 6.51124   2 
   6   3  -9 6.38721 9.64218   2 
  -6  -3   9 12.2969 5.88432   1 
  -6  -3   9 -3.1013 5.57092   2 
  -6  -3   9 10.2673 5.34176   2 
   5   3  -9 393.547 25.3238   2 
   5   3  -9 421.845 27.3000   2 
   5   3  -9 399.629 25.6158   1 
  -5  -3   9 404.062 24.9024   2 
  -5  -3   9 412.928 24.8872   2 
  -5  -3   9 394.348 24.9839   1 
   4   3  -9 4.88811 4.51122   1 
   4   3  -9 10.3522 4.77390   2 
   4   3  -9 12.3328 6.34157   2 
  -4  -3   9 5.74758 3.67501   1 
  -4  -3   9 12.3807 3.79942   2 
  -4  -3   9 4.62290 4.06429   2 
   3   3  -9 93.1610 8.04684   2 
   3   3  -9 91.3271 9.09535   1 
   3   3  -9 90.1552 9.84389   2 
  -3  -3   9 96.1248 8.18046   1 
  -3  -3   9 111.331 8.18469   2 
  -3  -3   9 88.6424 7.97862   2 
   2   3  -9 35.3208 4.26600   2 
   2   3  -9 28.0904 5.55004   2 
   2   3  -9 42.0929 5.24858   1 
  -2  -3   9 37.7041 4.33588   2 
  -2  -3   9 29.9933 4.11452   1 
   1   3  -9 96.1078 8.83643   2 
   1   3  -9 84.6790 7.37316   2 
   1   3  -9 110.544 9.24635   1 
  -1  -3   9 110.220 7.92117   2 
  -1  -3   9 92.6575 8.57529   1 
  -1  -3   9 104.778 7.60219   2 
   0  -3   9 35.0603 6.28600   1 
   0  -3   9 48.9296 5.15646   2 
   0  -3   9 40.9981 4.76493   2 
   1  -3   9 224.064 13.4543   2 
   1  -3   9 211.054 14.9148   1 
   1  -3   9 223.176 13.7754   2 
   2  -3   9 159.472 12.8426   1 
   3  -3   9 -8.4793 5.78991   1 
   3  -3   9 11.8494 6.89550   1 
   4  -3   9 21.9594 8.46794   1 
   4  -3   9 -9.8790 7.45477   1 
   7   2  -9 0.80075 8.16866   1 
   7   2  -9 14.3391 11.5372   2 
   7   2  -9 10.9987 8.38150   2 
  -7  -2   9 21.2326 6.06547   1 
  -7  -2   9 15.4034 5.82865   2 
  -7  -2   9 6.14226 6.07719   2 
   6   2  -9 188.353 16.6831   2 
   6   2  -9 180.808 14.9472   2 
   6   2  -9 195.938 15.5048   1 
  -6  -2   9 173.204 13.3221   2 
  -6  -2   9 182.663 13.8783   1 
  -6  -2   9 178.138 12.7795   2 
   5   2  -9 -3.8764 5.24820   2 
   5   2  -9 6.47616 6.68282   2 
   5   2  -9 5.32253 5.04352   1 
  -5  -2   9 4.69261 4.00342   2 
  -5  -2   9 -0.0897 3.37874   2 
  -5  -2   9 9.02691 4.28559   1 
   4   2  -9 20.1498 6.16972   2 
   4   2  -9 16.4027 4.79966   1 
  -4  -2   9 21.5868 3.72656   2 
  -4  -2   9 21.9827 3.72604   2 
  -4  -2   9 17.2632 4.01664   1 
   3   2  -9 65.4407 7.94914   1 
   3   2  -9 65.5765 8.06527   2 
   3   2  -9 51.2054 6.72307   2 
  -3  -2   9 59.3190 6.89210   1 
  -3  -2   9 75.9649 6.31850   2 
  -3  -2   9 77.9214 6.04567   2 
   2   2  -9 223.035 14.8867   2 
   2   2  -9 218.291 14.1948   2 
   2   2  -9 229.610 15.0345   1 
  -2  -2   9 201.332 14.4523   1 
  -2  -2   9 233.078 14.0312   2 
   1   2  -9 193.033 13.3875   2 
   1   2  -9 203.188 13.1348   2 
  -1  -2   9 209.545 12.8989   2 
  -1  -2   9 211.024 13.8309   1 
  -1  -2   9 215.270 13.1075   2 
   0  -2   9 -0.3658 2.66923   2 
   0  -2   9 4.16835 2.08433   2 
   0  -2   9 4.21059 4.30825   1 
   1  -2   9 43.8504 4.39121   2 
   1  -2   9 40.4098 5.39891   1 
   1  -2   9 38.0740 3.47151   2 
   2  -2   9 43.8224 6.07129   1 
   3  -2   9 13.0804 6.69587   1 
   3  -2   9 7.50909 7.47873   1 
   8   1  -9 21.6002 11.5324   2 
   8   1  -9 13.4977 13.3321   2 
   8   1  -9 22.4373 8.15740   1 
  -8  -1   9 8.94824 6.59632   1 
  -8  -1   9 14.6736 6.50310   2 
  -8  -1   9 7.11251 7.56781   2 
   7   1  -9 -1.8443 8.35239   2 
   7   1  -9 0.54730 9.80873   2 
   7   1  -9 1.17607 7.33100   1 
  -7  -1   9 11.0992 5.83799   2 
  -7  -1   9 4.20645 5.81751   1 
  -7  -1   9 0.94162 5.05044   2 
   6   1  -9 70.5252 8.33035   1 
   6   1  -9 61.4888 8.93348   2 
   6   1  -9 57.4078 9.31163   2 
  -6  -1   9 73.0567 8.11597   2 
  -6  -1   9 77.9126 7.60852   2 
  -6  -1   9 68.2450 8.91950   1 
   5   1  -9 3.59044 5.00424   1 
   5   1  -9 10.8422 6.01361   2 
   5   1  -9 5.26153 5.40863   2 
  -5  -1   9 1.85771 3.68036   2 
  -5  -1   9 -4.0413 3.35185   2 
  -5  -1   9 7.44796 4.52357   1 
   4   1  -9 14.1680 5.36860   2 
   4   1  -9 34.1659 6.12860   2 
   4   1  -9 43.4874 5.39273   1 
  -4  -1   9 43.3160 5.11755   2 
  -4  -1   9 43.5029 4.51032   2 
  -4  -1   9 37.2732 5.05577   1 
   3   1  -9 56.1756 7.34220   2 
   3   1  -9 60.6443 7.00368   2 
  -3  -1   9 69.6749 6.88101   2 
  -3  -1   9 51.9194 6.75410   1 
   2   1  -9 90.5471 8.34279   2 
   2   1  -9 90.6470 8.51577   2 
  -2  -1   9 104.426 7.17914   2 
  -2  -1   9 102.442 7.40143   2 
  -2  -1   9 90.7766 8.40155   1 
  -1  -1   9 6.98648 2.05023   2 
  -1  -1   9 6.18063 2.61392   2 
  -1  -1   9 16.8844 3.62600   1 
   0  -1   9 44.4043 4.00023   2 
   0  -1   9 51.4663 5.88820   1 
   0  -1   9 47.0415 4.71100   2 
   1  -1   9 -4.0308 4.86823   1 
   2  -1   9 9.14600 6.06420   1 
   2  -1   9 8.76478 6.49287   1 
   3  -1   9 97.6101 12.6458   1 
   3  -1   9 78.9309 10.1520   1 
   8   0  -9 42.0386 8.79680   1 
   8   0  -9 37.4911 12.4526   2 
   8   0  -9 28.7250 11.8184   2 
  -8   0   9 25.3721 6.48212   2 
  -8   0   9 25.7160 7.14617   1 
   7   0  -9 18.8348 8.98135   2 
   7   0  -9 16.2764 9.93405   2 
   7   0  -9 22.8780 7.09089   1 
  -7   0   9 16.8700 5.72746   1 
  -7   0   9 23.6287 6.14551   2 
  -7   0   9 28.5327 5.23358   2 
   6   0  -9 121.436 11.1146   1 
   6   0  -9 94.6256 12.5709   2 
  -6   0   9 111.155 10.6960   1 
  -6   0   9 118.078 10.3075   2 
  -6   0   9 132.068 9.95624   2 
   5   0  -9 14.9203 5.87857   2 
   5   0  -9 18.6157 6.98418   2 
  -5   0   9 6.58558 4.67382   1 
  -5   0   9 14.8234 4.02486   2 
   4   0  -9 1.56297 4.53302   2 
   4   0  -9 1.23439 5.42874   2 
  -4   0   9 12.9766 3.81918   2 
  -4   0   9 11.1060 4.01284   1 
   3   0  -9 296.961 19.9572   2 
  -3   0   9 305.998 18.8216   2 
  -3   0   9 290.559 19.2915   1 
  -3   0   9 317.348 18.2276   2 
   2   0  -9 4.36516 3.96051   2 
   2   0  -9 5.89030 5.40003   2 
  -2   0   9 5.45594 3.68660   1 
  -2   0   9 -1.3978 3.18701   2 
  -2   0   9 -0.7570 2.13067   2 
  -1   0   9 61.5218 4.76077   2 
  -1   0   9 50.5459 7.34911   1 
  -1   0   9 56.1384 5.71349   2 
   0   0   9 32.7288 5.29640   1 
   0   0   9 12.7772 3.36175   2 
   1   0   9 132.785 9.45638   2 
   1   0   9 148.281 9.56716   2 
   1   0   9 159.811 12.8505   1 
   1   0   9 159.236 13.6199   1 
   2   0   9 29.3383 7.34669   1 
   2   0   9 19.2169 7.34525   1 
   8  -1  -9 9.67387 10.9677   2 
   8  -1  -9 24.5689 12.8625   2 
  -8   1   9 9.60674 6.78480   1 
  -8   1   9 10.3163 8.21502   2 
  -8   1   9 6.18413 5.89967   2 
   7  -1  -9 7.67938 9.93213   2 
   7  -1  -9 -6.4764 8.26495   2 
  -7   1   9 7.63815 5.86154   2 
  -7   1   9 4.71421 5.23578   2 
  -7   1   9 4.78535 6.15161   1 
   6  -1  -9 41.3553 10.1711   2 
   6  -1  -9 27.3116 6.81100   2 
  -6   1   9 37.2415 5.77192   2 
  -6   1   9 27.4951 5.84674   1 
  -6   1   9 37.0866 5.10745   2 
   5  -1  -9 30.9744 5.84492   2 
  -5   1   9 27.8930 4.95448   2 
  -5   1   9 25.1022 5.14973   1 
  -5   1   9 35.1214 4.75620   2 
   4  -1  -9 92.5266 11.5552   2 
   4  -1  -9 111.181 9.01910   2 
  -4   1   9 119.585 8.30263   2 
  -4   1   9 87.6441 9.69197   1 
  -4   1   9 126.257 9.24148   2 
   3  -1  -9 -0.0694 7.30772   2 
   3  -1  -9 5.62442 4.12528   2 
  -3   1   9 11.1347 4.42117   2 
  -3   1   9 2.71375 3.91677   1 
  -3   1   9 2.53968 2.81464   2 
   2  -1  -9 108.456 8.49044   2 
   2  -1  -9 104.005 11.1029   2 
  -2   1   9 105.508 7.45490   2 
  -2   1   9 100.221 9.48080   1 
  -2   1   9 109.927 8.72579   2 
  -1   1   9 1.28380 4.71314   1 
  -1   1   9 4.46132 4.15194   2 
   0   1   9 16.2120 3.64440   2 
   0   1   9 19.3797 5.69032   1 
   0   1   9 10.4462 4.32437   2 
   0   1   9 20.6634 6.17664   1 
   1   1   9 10.8261 6.91143   1 
   1   1   9 16.3417 7.32150   1 
   1   1   9 6.65066 3.87275   2 
   1   1   9 7.49364 3.95076   2 
   2   1   9 95.0206 10.8976   1 
   2   1   9 69.5622 11.4864   1 
   7  -2  -9 21.7902 11.8999   2 
   7  -2  -9 14.6842 7.99983   2 
  -7   2   9 12.4775 6.24929   1 
  -7   2   9 11.8935 7.05756   2 
  -7   2   9 13.2824 5.65831   2 
   6  -2  -9 30.8042 7.25501   2 
   6  -2  -9 23.1853 12.0305   2 
  -6   2   9 37.9294 5.36182   2 
  -6   2   9 23.2767 6.68669   2 
  -6   2   9 27.7734 6.07133   1 
   5  -2  -9 12.0443 5.29996   2 
  -5   2   9 2.47290 5.11687   2 
  -5   2   9 9.88849 4.16437   2 
  -5   2   9 2.85992 5.12916   1 
   4  -2  -9 182.678 12.5887   2 
   4  -2  -9 168.560 16.1245   2 
  -4   2   9 180.963 13.1642   2 
  -4   2   9 199.316 12.4653   2 
  -4   2   9 179.013 13.8021   1 
   3  -2  -9 -2.4970 3.89007   2 
   3  -2  -9 -4.4894 8.35015   2 
  -3   2   9 -10.398 5.29334   2 
  -3   2   9 -5.6248 4.64617   1 
  -3   2   9 0.91740 3.30121   2 
   2  -2  -9 97.0800 11.3670   2 
   2  -2  -9 75.8777 7.27319   2 
  -2   2   9 93.7069 10.5680   1 
  -2   2   9 62.2708 9.01361   1 
  -2   2   9 68.2855 8.61963   2 
  -2   2   9 81.8545 7.39908   2 
  -1   2   9 41.5416 5.28968   2 
  -1   2   9 44.3075 6.50122   1 
  -1   2   9 42.7685 7.34036   1 
  -1   2   9 37.0905 6.37266   2 
   0   2   9 32.1096 6.56516   2 
   0   2   9 54.1742 7.36919   1 
   0   2   9 38.2180 7.31181   1 
   0   2   9 32.1406 5.54860   2 
   1   2   9 78.8197 9.98360   1 
   1   2   9 35.7683 6.99905   2 
   1   2   9 39.8866 6.08775   2 
   1   2   9 35.3480 9.02803   1 
   7  -3  -9 26.8414 9.00685   2 
   7  -3  -9 36.1676 15.6296   2 
  -7   3   9 33.1528 8.47301   2 
  -7   3   9 24.6060 7.66517   1 
  -7   3   9 18.0517 6.73244   2 
   6  -3  -9 16.1460 12.3162   2 
   6  -3  -9 25.0595 7.02016   2 
  -6   3   9 11.9462 6.16657   2 
  -6   3   9 6.31660 6.32526   1 
  -6   3   9 13.4811 6.78877   2 
   5  -3  -9 74.2827 8.42731   2 
  -5   3   9 60.2943 7.69979   2 
  -5   3   9 69.9355 10.0840   1 
   4  -3  -9 3.23955 10.5717   2 
   4  -3  -9 10.2896 4.63175   2 
  -4   3   9 10.8087 6.08513   1 
  -4   3   9 11.3503 5.49018   2 
  -4   3   9 17.9756 7.31121   1 
  -4   3   9 14.5095 5.51630   2 
   3  -3  -9 35.8568 5.15021   2 
   3  -3  -9 17.3401 11.5909   2 
  -3   3   9 41.1791 7.29553   1 
  -3   3   9 36.8287 7.20866   2 
  -3   3   9 29.4260 5.42845   2 
  -3   3   9 30.7179 6.42682   1 
   2  -3  -9 9.53242 9.46347   2 
   2  -3  -9 0.97627 4.18049   2 
  -2   3   9 7.06943 6.88494   2 
  -2   3   9 -5.2149 4.95426   2 
  -2   3   9 -3.1911 5.84028   1 
  -2   3   9 10.1805 6.68791   1 
  -1   3   9 81.1256 11.0817   1 
  -1   3   9 55.1108 8.23437   1 
  -1   3   9 47.8918 7.05141   2 
  -1   3   9 53.5755 8.42128   2 
   6  -4  -9 94.7774 11.9316   2 
   6  -4  -9 89.0034 17.3796   2 
  -6   4   9 98.2253 12.5048   2 
  -6   4   9 122.394 14.9250   1 
  -6   4   9 75.1816 10.7484   2 
  -6   4   9 75.8833 9.66114   1 
   5  -4  -9 16.9900 14.1133   2 
   5  -4  -9 6.88550 6.36990   2 
  -5   4   9 -7.0836 7.06604   1 
  -5   4   9 -2.0777 7.32288   2 
  -5   4   9 10.7193 8.07382   1 
  -5   4   9 0.80077 7.22130   2 
   4  -4  -9 39.1966 14.9255   2 
   4  -4  -9 41.4554 5.93825   2 
  -4   4   9 52.6603 8.14233   2 
  -4   4   9 28.2973 8.52781   2 
  -4   4   9 49.5477 9.28155   1 
  -4   4   9 51.4984 8.21287   1 
   3  -4  -9 4.22251 13.2365   2 
   3  -4  -9 -6.2900 4.66900   2 
  -3   4   9 -17.218 7.74619   1 
  -3   4   9 1.07371 6.54625   2 
  -3   4   9 -0.6154 6.93086   1 
  -3   4   9 -0.0548 8.32546   2 
   2  -4  -9 10.8161 4.94180   2 
   2  -4  -9 26.2500 12.1782   2 
  -2   4   9 8.37936 7.46828   2 
  -2   4   9 23.0786 8.07238   1 
  -2   4   9 2.48969 8.69626   2 
  -2   4   9 8.04877 8.21359   1 
   3   7 -10 34.6227 9.44902   2 
  -3  -7  10 48.3744 10.4528   2 
  -3  -7  10 48.5026 8.75537   2 
   2   7 -10 7.68073 9.08036   1 
   2   7 -10 5.56317 6.35675   2 
   2   7 -10 12.1113 11.3928   2 
  -2  -7  10 -5.5381 6.09211   2 
  -2  -7  10 4.97168 6.57388   1 
  -2  -7  10 1.23395 8.46284   2 
   1   7 -10 0.52193 9.46442   2 
   1   7 -10 4.34476 5.92283   2 
   1   7 -10 -10.002 7.66327   1 
  -1  -7  10 -1.4590 5.86109   1 
  -1  -7  10 21.6238 9.24548   2 
  -1  -7  10 7.15542 6.51473   2 
   0   7 -10 64.4203 8.60496   2 
   0   7 -10 61.4436 11.0681   2 
   0   7 -10 70.6275 9.78127   1 
   0  -7  10 67.4356 9.78110   2 
   0  -7  10 62.4961 7.75275   1 
   0  -7  10 75.3699 8.82487   2 
  -1   7 -10 8.23189 7.91335   1 
  -1   7 -10 20.4101 8.23979   2 
  -1   7 -10 12.3635 4.79142   2 
   1  -7  10 22.1797 6.11882   1 
   1  -7  10 14.0992 7.42878   2 
   1  -7  10 4.16025 8.30159   2 
   4   6 -10 55.7561 9.98337   1 
   4   6 -10 48.4369 9.92581   2 
   4   6 -10 30.6251 13.5842   2 
  -4  -6  10 37.3678 7.98790   2 
  -4  -6  10 51.9461 6.76559   1 
  -4  -6  10 65.7150 9.57160   2 
   3   6 -10 75.4121 9.56079   1 
   3   6 -10 83.6249 13.0012   2 
  -3  -6  10 97.6568 9.49702   1 
  -3  -6  10 67.5144 8.63646   2 
  -3  -6  10 78.1358 9.88531   2 
   2   6 -10 45.8310 9.87602   2 
   2   6 -10 36.7141 6.41412   2 
   2   6 -10 38.9659 7.42070   1 
  -2  -6  10 38.1252 6.12189   1 
  -2  -6  10 44.4337 6.34816   2 
  -2  -6  10 23.9511 7.47053   2 
   1   6 -10 35.6346 5.59048   2 
   1   6 -10 30.3534 7.37451   1 
   1   6 -10 25.6440 8.85602   2 
  -1  -6  10 43.1437 7.34660   2 
  -1  -6  10 36.3239 6.28772   1 
   0   6 -10 21.9349 7.63909   2 
   0   6 -10 26.2843 7.62741   1 
   0   6 -10 23.3277 4.63623   2 
   0  -6  10 15.4749 5.02290   1 
   0  -6  10 23.4617 6.48579   2 
   0  -6  10 21.3076 6.31054   2 
  -1   6 -10 107.505 12.6031   1 
  -1   6 -10 104.328 10.4610   2 
   1  -6  10 104.971 10.4290   2 
   1  -6  10 97.0990 10.5924   1 
   1  -6  10 87.3133 11.1724   2 
   2  -6  10 -5.7480 5.73651   2 
   2  -6  10 3.79868 6.47531   1 
   2  -6  10 -9.2031 6.32874   2 
   5   5 -10 -21.689 12.7923   2 
   5   5 -10 15.6360 8.17385   1 
   5   5 -10 14.4272 9.03712   2 
  -5  -5  10 8.68517 7.49899   2 
  -5  -5  10 15.1341 7.34455   2 
  -5  -5  10 8.37104 6.01160   1 
   4   5 -10 2.00694 6.63723   1 
   4   5 -10 8.58484 11.3817   2 
   4   5 -10 0.99943 6.41402   2 
  -4  -5  10 -0.1809 6.15679   2 
  -4  -5  10 7.35677 5.39343   1 
  -4  -5  10 -1.5089 6.37557   2 
   3   5 -10 25.6277 6.29101   2 
   3   5 -10 45.3777 10.2674   2 
   3   5 -10 56.7810 7.16217   1 
  -3  -5  10 59.8286 8.05974   2 
  -3  -5  10 81.0047 9.35697   2 
  -3  -5  10 62.8119 7.80413   1 
   2   5 -10 11.0959 7.80910   2 
   2   5 -10 5.83438 4.81980   2 
   2   5 -10 9.91635 6.12686   1 
  -2  -5  10 -2.3920 4.62966   2 
  -2  -5  10 6.37751 5.82190   2 
  -2  -5  10 3.71205 4.51225   1 
   1   5 -10 40.3773 7.67815   2 
   1   5 -10 46.5432 7.17348   1 
   1   5 -10 51.1982 6.62806   2 
  -1  -5  10 50.0717 6.32408   1 
  -1  -5  10 54.9791 6.76077   2 
  -1  -5  10 53.5730 6.86105   2 
   0   5 -10 253.433 17.5404   2 
   0   5 -10 235.859 15.6714   2 
   0   5 -10 253.368 18.2607   1 
   0  -5  10 234.134 17.2622   1 
   0  -5  10 272.756 17.1995   2 
   0  -5  10 282.292 17.2257   2 
   1  -5  10 9.68283 5.37935   1 
   1  -5  10 1.15253 4.84516   2 
   1  -5  10 4.65778 4.99490   2 
   2  -5  10 45.4297 7.53288   1 
   2  -5  10 52.6252 6.68575   2 
   2  -5  10 47.2337 6.03444   2 
   3  -5  10 19.0804 7.08377   1 
   3  -5  10 24.3345 6.28084   2 
   6   4 -10 11.2091 13.3744   2 
   6   4 -10 15.4876 8.66636   1 
   6   4 -10 6.71823 9.82506   2 
  -6  -4  10 11.7824 7.39931   2 
  -6  -4  10 26.4104 6.55818   1 
  -6  -4  10 9.08265 7.56079   2 
   5   4 -10 12.0636 7.03005   1 
   5   4 -10 -1.5182 7.45226   2 
   5   4 -10 13.6530 11.2803   2 
  -5  -4  10 6.35279 6.13022   2 
  -5  -4  10 13.9749 5.64020   1 
  -5  -4  10 17.6771 6.50039   2 
   4   4 -10 7.22470 7.36307   2 
   4   4 -10 7.39406 6.38393   1 
   4   4 -10 9.23755 9.83437   2 
  -4  -4  10 15.5944 5.68817   2 
  -4  -4  10 18.6658 5.86796   2 
  -4  -4  10 10.3616 4.79671   1 
   3   4 -10 -2.8653 4.51083   2 
   3   4 -10 5.08983 7.96607   2 
   3   4 -10 4.76112 5.53732   1 
  -3  -4  10 0.97461 4.29204   2 
  -3  -4  10 -2.6329 4.97910   2 
  -3  -4  10 1.73069 4.10018   1 
   2   4 -10 19.2521 5.47509   1 
   2   4 -10 -12.414 6.16633   2 
   2   4 -10 7.40406 4.43706   2 
  -2  -4  10 13.9857 4.29540   2 
  -2  -4  10 10.8914 4.68991   1 
  -2  -4  10 3.93155 4.27158   2 
   1   4 -10 9.66666 5.95631   2 
   1   4 -10 3.02167 3.58988   2 
   1   4 -10 8.61919 5.34145   1 
  -1  -4  10 11.5932 4.90805   1 
  -1  -4  10 16.4214 3.87808   2 
  -1  -4  10 11.7486 4.38096   2 
   0  -4  10 107.083 8.50714   2 
   0  -4  10 94.1560 9.82441   1 
   0  -4  10 96.6191 8.78294   2 
   1  -4  10 72.1474 7.35571   2 
   1  -4  10 70.2068 10.0122   1 
   1  -4  10 70.5654 7.01755   2 
   2  -4  10 8.38834 6.33038   1 
   2  -4  10 -0.2300 3.90175   2 
   2  -4  10 -6.2206 3.85067   2 
   3  -4  10 -15.825 7.60187   1 
   6   3 -10 125.020 14.0991   2 
   6   3 -10 129.534 14.3019   1 
   6   3 -10 144.387 17.6407   2 
  -6  -3  10 132.922 12.2195   2 
  -6  -3  10 135.451 11.9781   2 
  -6  -3  10 134.994 12.3293   1 
   5   3 -10 6.97403 9.50799   2 
   5   3 -10 -0.4549 7.04001   2 
   5   3 -10 7.99852 6.81748   1 
  -5  -3  10 -1.1177 4.97486   1 
  -5  -3  10 10.1585 4.86338   2 
  -5  -3  10 8.99943 5.14183   2 
   4   3 -10 0.31972 5.39572   1 
   4   3 -10 -14.081 7.35123   2 
   4   3 -10 9.99425 7.56533   2 
  -4  -3  10 -3.8119 4.19229   1 
  -4  -3  10 -4.2567 3.87946   2 
  -4  -3  10 7.02043 4.74546   2 
   3   3 -10 76.0018 8.11315   2 
   3   3 -10 85.6205 10.4340   2 
   3   3 -10 105.995 10.0105   1 
  -3  -3  10 78.6986 7.76796   1 
  -3  -3  10 97.0152 8.12577   2 
  -3  -3  10 82.8282 7.73218   2 
   2   3 -10 -4.7364 4.20105   2 
   2   3 -10 4.19947 5.65534   2 
  -2  -3  10 1.50814 3.91338   2 
  -2  -3  10 -5.5863 3.68821   1 
  -2  -3  10 -0.9903 3.44244   2 
   1   3 -10 -2.2951 3.81753   2 
   1   3 -10 -1.2107 4.81422   2 
  -1  -3  10 1.28726 3.78359   2 
  -1  -3  10 12.6669 4.99330   1 
  -1  -3  10 5.05879 3.24789   2 
   0  -3  10 117.075 11.1202   1 
   0  -3  10 126.165 9.16393   2 
   0  -3  10 116.612 8.42047   2 
   1  -3  10 135.426 9.71665   2 
   1  -3  10 134.843 12.3780   1 
   1  -3  10 135.213 8.96244   2 
   2  -3  10 76.0689 8.78958   1 
   3  -3  10 12.6405 9.91802   1 
   7   2 -10 63.9836 9.78644   1 
   7   2 -10 50.9869 14.6781   2 
   7   2 -10 53.8828 11.3595   2 
  -7  -2  10 46.8893 8.14370   2 
  -7  -2  10 76.7623 8.98037   1 
  -7  -2  10 69.6205 7.77809   2 
   6   2 -10 38.2054 8.62852   1 
   6   2 -10 41.9323 11.1011   2 
   6   2 -10 42.1236 8.80392   2 
  -6  -2  10 34.9057 6.58883   1 
  -6  -2  10 40.1981 5.78020   2 
  -6  -2  10 42.1005 6.83241   2 
   5   2 -10 107.806 13.5003   2 
   5   2 -10 90.7789 11.5478   2 
   5   2 -10 118.060 11.2903   1 
  -5  -2  10 98.4639 10.6139   1 
  -5  -2  10 114.872 9.81024   2 
  -5  -2  10 117.357 9.16175   2 
   4   2 -10 10.3003 5.58532   2 
   4   2 -10 7.08934 5.46642   1 
   4   2 -10 19.4806 6.56190   2 
  -4  -2  10 4.67828 4.07011   1 
  -4  -2  10 11.3597 4.04700   2 
  -4  -2  10 13.2068 4.34861   2 
   3   2 -10 35.7713 6.17718   1 
   3   2 -10 25.2380 5.60324   2 
   3   2 -10 19.0672 6.45345   2 
  -3  -2  10 40.3299 5.03875   2 
  -3  -2  10 34.1036 4.91898   2 
  -3  -2  10 24.5734 5.04546   1 
   2   2 -10 30.0324 5.79923   2 
   2   2 -10 11.5275 4.81080   2 
  -2  -2  10 18.9235 4.47951   1 
  -2  -2  10 17.8093 4.06824   2 
  -2  -2  10 17.5677 2.94778   2 
  -1  -2  10 8.51913 4.53200   1 
  -1  -2  10 6.55749 2.34085   2 
  -1  -2  10 0.37178 3.65090   2 
   0  -2  10 29.7156 3.83757   2 
   0  -2  10 20.3702 5.84770   1 
   0  -2  10 29.0294 4.17158   2 
   1  -2  10 -0.2227 2.83246   2 
   1  -2  10 -2.8778 5.97765   1 
   1  -2  10 -0.4044 2.23122   2 
   2  -2  10 0.75243 6.43322   1 
   2  -2  10 15.5145 8.77041   1 
   7   1 -10 33.5816 9.47834   1 
   7   1 -10 16.1181 11.4118   2 
   7   1 -10 27.4980 11.2848   2 
  -7  -1  10 21.3112 6.75974   1 
  -7  -1  10 21.7118 6.02996   2 
  -7  -1  10 24.9883 7.02352   2 
   6   1 -10 66.6666 8.65178   1 
   6   1 -10 74.7329 10.7877   2 
   6   1 -10 74.0441 11.3406   2 
  -6  -1  10 68.3951 8.03601   2 
  -6  -1  10 85.9151 9.30696   2 
  -6  -1  10 78.8825 10.3879   1 
   5   1 -10 28.2781 6.54196   1 
   5   1 -10 6.69143 7.66140   2 
  -5  -1  10 24.5074 4.35050   2 
  -5  -1  10 22.9444 4.63708   2 
  -5  -1  10 6.60367 5.02064   1 
   4   1 -10 10.6559 6.01631   2 
   4   1 -10 4.92171 5.57841   2 
  -4  -1  10 -3.4202 3.96391   2 
  -4  -1  10 3.34872 4.66283   1 
  -4  -1  10 1.27585 3.19109   2 
   3   1 -10 282.635 20.5170   2 
   3   1 -10 309.146 20.4056   2 
  -3  -1  10 313.916 20.2510   1 
  -3  -1  10 347.150 19.3280   2 
  -3  -1  10 338.186 19.8444   2 
   2   1 -10 97.8442 9.31162   2 
   2   1 -10 90.3271 9.17982   2 
  -2  -1  10 85.4426 8.84606   1 
  -2  -1  10 92.8255 7.77176   2 
  -2  -1  10 98.7714 6.76384   2 
  -1  -1  10 144.983 8.99852   2 
  -1  -1  10 117.952 11.3745   1 
  -1  -1  10 146.506 9.72895   2 
   0  -1  10 3.92722 3.26022   2 
   0  -1  10 -12.483 5.18352   1 
   0  -1  10 2.70941 2.63712   2 
   1  -1  10 19.9278 7.28111   1 
   2  -1  10 -8.7254 8.53883   1 
   2  -1  10 22.3777 9.83764   1 
   7   0 -10 -4.5863 9.91875   2 
   7   0 -10 9.43489 10.8760   2 
  -7   0  10 1.54820 6.23792   2 
  -7   0  10 7.06041 5.18792   2 
  -7   0  10 -5.2463 6.19799   1 
   6   0 -10 31.0252 9.37320   2 
   6   0 -10 34.9694 9.47330   2 
  -6   0  10 41.2870 6.51359   1 
  -6   0  10 40.6488 5.52140   2 
  -6   0  10 45.5802 6.43952   2 
   5   0 -10 24.7889 6.97724   2 
   5   0 -10 -1.2084 10.6659   2 
  -5   0  10 11.7274 5.56246   1 
  -5   0  10 18.2318 4.68845   2 
  -5   0  10 20.3340 4.18557   2 
   4   0 -10 36.9587 7.56971   2 
   4   0 -10 36.8874 6.33999   2 
  -4   0  10 38.9295 5.83282   1 
  -4   0  10 37.0526 5.39226   2 
  -4   0  10 53.0708 5.49590   2 
   3   0 -10 39.9033 7.65726   2 
   3   0 -10 45.1783 6.15620   2 
  -3   0  10 40.3698 5.21246   2 
  -3   0  10 43.1125 5.76878   1 
  -3   0  10 51.5666 5.05090   2 
   2   0 -10 12.3637 6.74284   2 
   2   0 -10 23.5569 4.97396   2 
  -2   0  10 7.22620 3.26479   2 
  -2   0  10 17.8842 4.84134   1 
  -2   0  10 18.9934 4.31371   2 
  -1   0  10 -3.4351 3.95250   2 
  -1   0  10 3.36644 2.88192   2 
  -1   0  10 2.87149 5.05553   1 
   0   0  10 38.4490 4.45856   2 
   0   0  10 33.9216 4.39745   2 
   0   0  10 40.0647 7.84614   1 
   0   0  10 29.8030 6.89157   1 
   1   0  10 1.96520 7.35632   1 
   1   0  10 11.3208 8.75057   1 
   7  -1 -10 31.0167 12.8864   2 
   7  -1 -10 8.41204 9.70778   2 
  -7   1  10 26.6308 7.74419   1 
  -7   1  10 19.9018 6.06444   2 
  -7   1  10 22.7577 7.60350   2 
   6  -1 -10 14.0472 8.46484   2 
   6  -1 -10 22.8155 11.1965   2 
  -6   1  10 21.5606 5.93202   2 
  -6   1  10 25.0752 5.24811   2 
  -6   1  10 19.6815 6.63633   1 
   5  -1 -10 11.3308 6.48355   2 
   5  -1 -10 23.6512 9.45226   2 
  -5   1  10 15.4709 5.33456   2 
  -5   1  10 4.20024 5.35619   1 
  -5   1  10 8.04625 4.64008   2 
   4  -1 -10 -9.2806 8.57167   2 
   4  -1 -10 3.61240 5.37134   2 
  -4   1  10 -1.7329 3.69748   2 
  -4   1  10 9.14913 4.88652   2 
  -4   1  10 -8.3550 5.17511   1 
   3  -1 -10 57.5313 9.45866   2 
   3  -1 -10 45.9678 6.21015   2 
  -3   1  10 53.0307 6.62294   2 
  -3   1  10 54.3833 6.59606   1 
  -3   1  10 55.4572 6.00704   2 
   2  -1 -10 3.34811 7.13740   2 
   2  -1 -10 6.15805 5.17279   2 
  -2   1  10 10.6442 3.62616   2 
  -2   1  10 -1.2024 4.72510   2 
  -2   1  10 -6.5830 5.23362   1 
  -1   1  10 12.0076 4.85833   2 
  -1   1  10 19.4262 6.27820   1 
  -1   1  10 15.0080 4.30552   2 
  -1   1  10 14.0147 7.23371   1 
   0   1  10 32.3394 5.09453   2 
   0   1  10 18.4896 5.23812   2 
   0   1  10 19.8446 7.58886   1 
   0   1  10 31.0341 8.58837   1 
   6  -2 -10 7.79170 12.5146   2 
   6  -2 -10 14.0319 8.29418   2 
  -6   2  10 21.7928 6.05265   2 
  -6   2  10 21.4959 7.26086   1 
  -6   2  10 20.1218 6.49594   2 
   5  -2 -10 -2.1391 6.74520   2 
   5  -2 -10 18.2023 10.6202   2 
  -5   2  10 17.3851 5.10394   2 
  -5   2  10 6.59384 6.19795   2 
  -5   2  10 3.93563 6.13796   1 
   4  -2 -10 4.37576 11.0097   2 
   4  -2 -10 5.26573 5.34953   2 
  -4   2  10 6.79714 4.79171   2 
  -4   2  10 16.8817 6.30997   2 
  -4   2  10 1.23198 5.75837   1 
   3  -2 -10 23.1623 5.52883   2 
   3  -2 -10 24.2907 10.8791   2 
  -3   2  10 16.6716 6.34875   1 
  -3   2  10 24.8090 5.89820   2 
   2  -2 -10 9.96232 10.3675   2 
   2  -2 -10 10.3707 5.43981   2 
  -2   2  10 12.0363 6.08299   1 
  -2   2  10 13.7880 4.86271   2 
  -2   2  10 8.48272 6.71843   2 
  -2   2  10 9.63044 7.59162   1 
  -1   2  10 11.7569 8.57298   1 
  -1   2  10 9.06188 6.13900   2 
  -1   2  10 10.9057 5.42004   2 
  -1   2  10 14.4624 7.15152   1 
   5  -3 -10 -9.0366 7.14840   2 
   5  -3 -10 -3.8410 14.4504   2 
  -5   3  10 0.56518 7.43438   2 
  -5   3  10 -14.851 7.28965   1 
   4  -3 -10 66.5529 14.7461   2 
   4  -3 -10 45.7783 6.61435   2 
  -4   3  10 44.9487 7.28735   2 
  -4   3  10 63.1409 10.0364   1 
  -4   3  10 60.9230 8.25793   1 
  -4   3  10 39.3091 8.69241   2 
   3  -3 -10 -5.0063 5.49658   2 
   3  -3 -10 -18.996 12.1440   2 
  -3   3  10 8.31216 8.43165   1 
  -3   3  10 -3.8279 6.97415   1 
  -3   3  10 -5.7640 7.06788   2 
  -3   3  10 3.09792 6.36011   2 
   3   6 -11 5.72701 7.31082   2 
   3   6 -11 7.01889 12.5051   2 
   3   6 -11 -5.3556 8.72059   1 
  -3  -6  11 1.38798 8.61613   2 
  -3  -6  11 -7.6729 6.95823   2 
  -3  -6  11 3.87581 6.37954   1 
   2   6 -11 59.7846 9.64245   1 
   2   6 -11 69.0079 10.9951   2 
   2   6 -11 56.2656 8.01195   2 
  -2  -6  11 59.2827 7.54237   1 
  -2  -6  11 85.5818 10.4874   2 
  -2  -6  11 55.4687 9.41469   2 
   1   6 -11 8.26881 6.09527   2 
   1   6 -11 -7.0287 8.89824   2 
   1   6 -11 3.30780 7.93198   1 
  -1  -6  11 3.19951 6.91540   2 
  -1  -6  11 -3.8053 6.16229   1 
  -1  -6  11 1.15739 6.73598   2 
   0   6 -11 60.9623 9.12106   1 
   0   6 -11 68.1767 9.66663   2 
   0   6 -11 60.4779 7.82989   2 
   0  -6  11 79.8998 10.1926   2 
   0  -6  11 62.1223 8.42413   2 
   0  -6  11 88.0585 11.3943   1 
   4   5 -11 -0.6105 7.98793   1 
   4   5 -11 -7.3914 12.2795   2 
  -4  -5  11 0.46964 6.82436   2 
  -4  -5  11 6.72225 7.44402   2 
  -4  -5  11 6.31486 5.80250   1 
   3   5 -11 7.56178 7.30453   1 
   3   5 -11 9.89934 10.4789   2 
   3   5 -11 9.84593 6.73549   2 
  -3  -5  11 15.8660 6.72974   2 
  -3  -5  11 8.80704 6.96352   2 
  -3  -5  11 8.09284 5.58695   1 
   2   5 -11 31.6454 9.63959   2 
   2   5 -11 32.5520 6.36969   2 
   2   5 -11 24.1115 7.84125   1 
  -2  -5  11 30.1572 7.07283   2 
  -2  -5  11 41.8966 6.88669   2 
  -2  -5  11 43.3333 6.29546   1 
   1   5 -11 1.33312 7.78983   2 
   1   5 -11 9.78819 4.94055   2 
   1   5 -11 3.03045 6.97843   1 
  -1  -5  11 5.38513 5.58083   2 
  -1  -5  11 3.37839 5.76212   1 
  -1  -5  11 12.2015 5.35679   2 
   0  -5  11 114.337 10.3976   2 
   0  -5  11 95.7987 11.6819   1 
   0  -5  11 126.275 11.2596   2 
   1  -5  11 53.8850 6.47604   2 
   1  -5  11 42.7173 7.81055   1 
   1  -5  11 41.5241 6.53571   2 
   5   4 -11 61.7037 9.45163   1 
   5   4 -11 33.5003 13.0178   2 
   5   4 -11 49.3107 10.2687   2 
  -5  -4  11 74.2370 9.83939   1 
  -5  -4  11 65.6047 8.00040   2 
  -5  -4  11 52.7028 8.42058   2 
   4   4 -11 0.49154 6.95599   1 
   4   4 -11 0.48059 6.62462   2 
   4   4 -11 22.6135 10.2390   2 
  -4  -4  11 2.43425 5.45878   2 
  -4  -4  11 -6.9160 5.20372   1 
  -4  -4  11 0.27291 5.90950   2 
   3   4 -11 39.8642 9.30687   2 
   3   4 -11 47.4520 6.74424   2 
   3   4 -11 44.1882 7.31413   1 
  -3  -4  11 31.7939 6.01308   2 
  -3  -4  11 37.3403 6.01308   2 
  -3  -4  11 40.6315 5.96314   1 
   2   4 -11 25.4459 7.59603   2 
   2   4 -11 -1.3041 6.10195   1 
   2   4 -11 0.97389 5.07055   2 
  -2  -4  11 3.93107 4.51501   2 
  -2  -4  11 4.53799 5.31763   2 
  -2  -4  11 3.50837 5.24311   1 
   1   4 -11 35.1327 7.07584   2 
   1   4 -11 31.0577 5.25651   2 
  -1  -4  11 54.9554 6.45054   2 
  -1  -4  11 41.9227 6.12820   1 
  -1  -4  11 45.5709 6.40070   2 
   0  -4  11 4.35769 4.24452   2 
   0  -4  11 5.62408 5.10515   2 
   0  -4  11 19.6083 6.19726   1 
   1  -4  11 21.7314 4.30729   2 
   1  -4  11 13.8738 7.57386   1 
   1  -4  11 16.8966 5.00658   2 
   6   3 -11 15.0071 10.7382   2 
   6   3 -11 5.47401 12.5373   2 
   6   3 -11 6.98647 9.01287   1 
  -6  -3  11 8.25883 7.18892   1 
  -6  -3  11 10.5864 7.13613   2 
  -6  -3  11 22.3108 6.82125   2 
   5   3 -11 222.278 17.8312   1 
   5   3 -11 199.042 20.1222   2 
  -5  -3  11 219.147 15.9560   2 
  -5  -3  11 237.368 15.6970   2 
  -5  -3  11 198.964 15.9525   1 
   4   3 -11 29.0998 7.42351   2 
   4   3 -11 41.9196 9.52224   2 
   4   3 -11 36.1291 7.47805   1 
  -4  -3  11 48.8902 5.64413   2 
  -4  -3  11 29.8927 5.87276   1 
  -4  -3  11 27.4813 6.07616   2 
   3   3 -11 166.389 13.5747   2 
   3   3 -11 182.485 14.6639   1 
   3   3 -11 186.288 16.1096   2 
  -3  -3  11 158.755 12.6645   1 
  -3  -3  11 196.040 13.8205   2 
  -3  -3  11 194.065 12.6197   2 
   2   3 -11 9.26180 7.09381   2 
   2   3 -11 15.2414 5.42245   2 
  -2  -3  11 11.9500 5.13483   1 
  -2  -3  11 25.7647 5.40195   2 
  -2  -3  11 20.2524 3.78269   2 
  -1  -3  11 13.6245 5.98917   1 
  -1  -3  11 12.5578 5.15689   2 
  -1  -3  11 8.72853 3.60571   2 
   0  -3  11 23.9944 3.75938   2 
   0  -3  11 22.8370 6.73062   1 
   0  -3  11 17.8647 4.80077   2 
   1  -3  11 15.1885 7.35715   1 
   1  -3  11 9.95663 4.42937   2 
   1  -3  11 24.5252 3.36365   2 
   6   2 -11 70.7886 10.4988   1 
   6   2 -11 54.6911 12.5116   2 
   6   2 -11 67.9271 12.0922   2 
  -6  -2  11 56.8789 8.62520   2 
  -6  -2  11 78.6334 8.86677   2 
  -6  -2  11 84.5547 11.7385   1 
   5   2 -11 -6.6540 7.01006   1 
   5   2 -11 3.13145 8.51331   2 
   5   2 -11 13.0644 10.4024   2 
  -5  -2  11 4.37010 5.19052   2 
  -5  -2  11 14.3278 5.45086   2 
  -5  -2  11 -5.1262 6.42961   1 
   4   2 -11 14.9278 6.16195   1 
   4   2 -11 13.9208 6.49995   2 
   4   2 -11 20.5469 7.52948   2 
  -4  -2  11 13.6257 4.66718   2 
  -4  -2  11 0.58338 5.16265   1 
  -4  -2  11 11.5793 4.69046   2 
   3   2 -11 -0.8414 5.99743   2 
   3   2 -11 -4.1043 6.96117   2 
  -3  -2  11 -1.5107 5.03414   2 
  -3  -2  11 3.90166 3.81328   2 
  -3  -2  11 0.39471 4.49684   1 
   2   2 -11 44.4871 6.50624   2 
   2   2 -11 49.1552 7.22326   2 
  -2  -2  11 25.8435 5.86334   1 
  -2  -2  11 49.1247 4.93121   2 
  -2  -2  11 37.6002 6.12293   2 
  -1  -2  11 6.53426 5.39746   1 
  -1  -2  11 11.6279 3.06422   2 
  -1  -2  11 4.23155 4.34461   2 
   0  -2  11 2.64818 2.79848   2 
   0  -2  11 8.85466 6.82244   1 
   0  -2  11 11.7803 4.52445   2 
   1  -2  11 -8.2047 7.32808   1 
   6   1 -11 10.0149 10.5345   2 
   6   1 -11 22.7133 8.80418   1 
   6   1 -11 8.85320 9.91358   2 
  -6  -1  11 17.6053 6.59887   2 
  -6  -1  11 8.55769 6.93585   1 
  -6  -1  11 7.76391 5.52387   2 
   5   1 -11 -1.9621 8.49912   2 
   5   1 -11 8.36315 7.87619   2 
  -5  -1  11 -12.111 5.67723   1 
  -5  -1  11 10.5049 6.18244   2 
  -5  -1  11 7.68706 4.69315   2 
   4   1 -11 7.70949 7.50185   2 
   4   1 -11 -6.7831 7.39670   2 
  -4  -1  11 5.84432 4.98316   2 
  -4  -1  11 -6.2071 5.71026   1 
  -4  -1  11 3.20772 3.90594   2 
   3   1 -11 93.4306 10.5826   2 
   3   1 -11 66.2305 9.27289   2 
  -3  -1  11 74.5442 6.67029   2 
  -3  -1  11 75.2350 8.52782   2 
  -3  -1  11 66.9205 9.15883   1 
   2   1 -11 18.0323 6.20043   2 
   2   1 -11 14.8416 6.96175   2 
  -2  -1  11 0.08195 5.25212   1 
  -2  -1  11 12.6001 3.30667   2 
  -2  -1  11 10.1497 4.71232   2 
  -1  -1  11 -2.1232 6.06005   1 
  -1  -1  11 15.3459 3.38979   2 
  -1  -1  11 7.88474 4.43199   2 
   0  -1  11 5.64931 6.99229   1 
   0  -1  11 -3.5600 4.03266   2 
   0  -1  11 -0.0129 3.45975   2 
   6   0 -11 26.1639 10.2043   2 
  -6   0  11 6.19732 5.25358   2 
  -6   0  11 24.9941 6.51829   2 
  -6   0  11 19.6662 7.14608   1 
   5   0 -11 12.3452 9.30977   2 
   5   0 -11 1.99502 7.82821   2 
  -5   0  11 2.40532 5.19495   2 
  -5   0  11 -6.6761 6.69149   1 
  -5   0  11 3.10022 4.43977   2 
   4   0 -11 3.67190 6.64078   2 
   4   0 -11 0.25437 9.21593   2 
  -4   0  11 4.31385 4.35417   2 
  -4   0  11 13.0438 5.73217   1 
  -4   0  11 4.59716 6.68348   2 
   3   0 -11 29.1513 8.62559   2 
   3   0 -11 22.9482 6.66405   2 
  -3   0  11 5.29807 5.49551   2 
  -3   0  11 4.96935 3.92410   2 
  -3   0  11 9.92847 5.10420   1 
  -2   0  11 -2.5512 5.96811   1 
  -2   0  11 -0.8153 5.03781   2 
  -2   0  11 4.04230 3.83675   2 
  -1   0  11 32.9030 7.51425   1 
  -1   0  11 35.6710 5.40024   2 
   5  -1 -11 7.49925 7.96528   2 
   5  -1 -11 -10.640 10.4630   2 
  -5   1  11 2.20293 6.39496   2 
  -5   1  11 3.95787 5.33950   2 
  -5   1  11 1.39463 6.61683   1 
   4  -1 -11 147.405 13.8065   2 
   4  -1 -11 161.812 18.4725   2 
  -4   1  11 143.866 14.0644   1 
  -4   1  11 173.124 13.5956   2 
  -4   1  11 168.826 12.0100   2 
   3  -1 -11 18.0860 7.62251   2 
   3  -1 -11 -2.1606 10.4875   2 
  -3   1  11 10.9883 6.16359   1 
  -3   1  11 11.9967 4.65758   2 
  -3   1  11 8.57770 6.25402   2 
  -2   1  11 81.1205 10.6111   2 
  -2   1  11 110.118 12.4238   1 
   3   4 -12 -18.639 10.2097   2 
   3   4 -12 -9.8118 7.70120   1 
   3   4 -12 0.20590 7.50978   2 
  -3  -4  12 -11.149 5.42019   2 
  -3  -4  12 9.74340 6.18598   1 
  -3  -4  12 0.02689 6.91208   2 
   2   4 -12 26.0681 9.89823   2 
   2   4 -12 11.7809 6.39906   2 
  -2  -4  12 25.4415 6.63930   1 
  -2  -4  12 14.3372 6.85643   2 
  -2  -4  12 11.2839 5.18424   2 
  -1  -4  12 0.03869 4.88678   2 
  -1  -4  12 6.29826 6.88195   1 
  -1  -4  12 11.0514 6.94125   2 
   4   3 -12 37.6822 8.85904   1 
   4   3 -12 37.9509 10.6930   2 
   4   3 -12 27.6370 9.11764   2 
  -4  -3  12 22.5246 6.79276   1 
  -4  -3  12 36.4078 7.09921   2 
  -4  -3  12 26.6691 5.91334   2 
   3   3 -12 -3.4128 7.43038   2 
   3   3 -12 14.1334 9.00667   2 
  -3  -3  12 -2.4164 5.01851   2 
  -3  -3  12 1.95601 6.31121   2 
  -3  -3  12 0.91678 5.82886   1 
   2   3 -12 14.7817 8.78398   2 
  -2  -3  12 -9.7844 6.88649   1 
  -2  -3  12 4.60175 6.73129   2 
  -2  -3  12 -0.3404 4.11647   2 
  -1  -3  12 4.52905 4.08362   2 
  -1  -3  12 0.81247 5.86703   2 
  -1  -3  12 0.69277 7.44019   1 
   4   2 -12 -5.4643 8.07061   2 
   4   2 -12 18.0626 9.19537   2 
  -4  -2  12 10.5828 5.02597   2 
  -4  -2  12 5.20512 6.20707   1 
   3   2 -12 -14.761 8.95065   2 
   3   2 -12 3.27443 7.77402   2 
  -3  -2  12 -4.7473 4.57847   2 
  -3  -2  12 1.68620 6.38953   1 
  -3  -2  12 -8.9285 6.58796   2 
  -2  -2  12 2.81795 5.60967   2 
  -2  -2  12 -1.5833 3.88122   2 
  -2  -2  12 11.9502 6.80645   1 
  -1  -2  12 7.28664 5.91851   2 
  -1  -2  12 1.61200 3.83555   2 
  -1  -2  12 4.12885 7.16011   1 
   4   1 -12 19.1921 8.84968   2 
   4   1 -12 17.2261 10.8177   2 
  -4  -1  12 2.25756 6.86853   1 
  -4  -1  12 5.16278 4.83743   2 
  -4  -1  12 2.07293 6.52749   2 
   3   1 -12 22.0000 9.62858   2 
   3   1 -12 18.7473 8.72743   2 
  -3  -1  12 23.4964 6.73305   1 
  -3  -1  12 20.6537 4.61918   2 
  -3  -1  12 12.0114 6.52794   2 
  -2  -1  12 1.87407 5.96481   2 
  -2  -1  12 3.91962 4.37185   2 
  -2  -1  12 -9.1018 6.38025   1 
   0   0   0    0.00    0.00   0 
  
 _exptl_absorpt_process_details 'SADABS 2014/4' 
 _exptl_absorpt_correction_type   multiscan 
 _exptl_absorpt_correction_T_max  0.7452 
 _exptl_absorpt_correction_T_min  0.5910 
 _exptl_special_details 
) 
 The following wavelength and cell were deduced by SADABS from the 
 direction cosines etc. They are given here for emergency use only: 
 CELL 0.71088    7.890    8.153   10.283  106.143  106.624  104.510 
) 
  
;
_shelx_hkl_checksum              77509
loop_
_space_group_symop_operation_xyz
'x, y, z'
'-x, -y, -z'
loop_
_atom_site_label
_atom_site_type_symbol
_atom_site_fract_x
_atom_site_fract_y
_atom_site_fract_z
_atom_site_U_iso_or_equiv
_atom_site_adp_type
_atom_site_occupancy
_atom_site_site_symmetry_order
_atom_site_calc_flag
_atom_site_refinement_flags_posn
_atom_site_refinement_flags_adp
O1 O 0.33056(19) 0.66977(17) 0.44485(14) 0.0230(3) Uani 1 1 d . .
H1 H 0.397(3) 0.612(3) 0.482(3) 0.038(7) Uiso 1 1 d . .
N1 N 0.4464(2) 0.8613(2) 0.26925(18) 0.0227(4) Uani 1 1 d . .
C1 C -0.0425(3) 0.1210(3) 0.1690(2) 0.0306(5) Uani 1 1 d . .
H1A H -0.0970 0.0991 0.0677 0.037 Uiso 1 1 calc R U
H1B H -0.0427 0.0212 0.1996 0.037 Uiso 1 1 calc R U
O2 O 0.46612(18) 0.42631(17) 0.32769(14) 0.0241(3) Uani 1 1 d . .
C2 C 0.0334(3) 0.2899(3) 0.2672(2) 0.0252(5) Uani 1 1 d . .
H2 H 0.0864 0.3061 0.3673 0.030 Uiso 1 1 calc R U
O3 O 0.13067(18) 0.75847(17) 0.15147(14) 0.0254(4) Uani 1 1 d . .
C3 C 0.0427(3) 0.4592(2) 0.2331(2) 0.0208(4) Uani 1 1 d . .
H3 H -0.0147 0.4221 0.1243 0.025 Uiso 1 1 calc R U
O4 O 0.59665(17) 0.80006(17) 0.31105(15) 0.0242(3) Uani 1 1 d . .
C4 C 0.2538(2) 0.5863(2) 0.29010(19) 0.0186(4) Uani 1 1 d . .
C5 C 0.3632(2) 0.4666(2) 0.2393(2) 0.0194(4) Uani 1 1 d . .
C6 C 0.3288(3) 0.3972(3) 0.0800(2) 0.0236(4) Uani 1 1 d . .
H6A H 0.1931 0.3280 0.0226 0.035 Uiso 1 1 calc R U
H6B H 0.4007 0.3172 0.0613 0.035 Uiso 1 1 calc R U
H6C H 0.3700 0.5009 0.0514 0.035 Uiso 1 1 calc R U
C7 C -0.0718(3) 0.5566(3) 0.3019(2) 0.0282(5) Uani 1 1 d . .
H7A H -0.0718 0.6625 0.2745 0.042 Uiso 1 1 calc R U
H7B H -0.0142 0.5977 0.4089 0.042 Uiso 1 1 calc R U
H7C H -0.2026 0.4716 0.2662 0.042 Uiso 1 1 calc R U
C8 C 0.2691(3) 0.7402(2) 0.22863(19) 0.0187(4) Uani 1 1 d . .
C9 C 0.4820(3) 0.9983(3) 0.2051(2) 0.0296(5) Uani 1 1 d . .
H9A H 0.3808 1.0490 0.1942 0.044 Uiso 1 1 calc R U
H9B H 0.4851 0.9414 0.1087 0.044 Uiso 1 1 calc R U
H9C H 0.6043 1.0967 0.2693 0.044 Uiso 1 1 calc R U
C10 C 0.7252(3) 0.9147(3) 0.4602(2) 0.0303(5) Uani 1 1 d . .
H10A H 0.8330 0.8745 0.4865 0.045 Uiso 1 1 calc R U
H10B H 0.6585 0.9051 0.5266 0.045 Uiso 1 1 calc R U
H10C H 0.7711 1.0422 0.4687 0.045 Uiso 1 1 calc R U
loop_
_atom_site_aniso_label
_atom_site_aniso_U_11
_atom_site_aniso_U_22
_atom_site_aniso_U_33
_atom_site_aniso_U_23
_atom_site_aniso_U_13
_atom_site_aniso_U_12
O1 0.0301(7) 0.0189(7) 0.0137(7) 0.0027(5) 0.0004(6) 0.0114(6)
N1 0.0214(8) 0.0158(8) 0.0266(9) 0.0081(7) 0.0034(7) 0.0065(6)
C1 0.0317(11) 0.0187(10) 0.0359(12) 0.0091(9) 0.0088(10) 0.0064(8)
O2 0.0277(7) 0.0190(7) 0.0223(7) 0.0072(6) 0.0025(6) 0.0118(6)
C2 0.0287(10) 0.0222(10) 0.0256(10) 0.0104(8) 0.0106(9) 0.0086(8)
O3 0.0261(7) 0.0194(7) 0.0232(7) 0.0076(6) -0.0005(6) 0.0079(6)
C3 0.0228(9) 0.0146(9) 0.0191(10) 0.0037(7) 0.0041(8) 0.0046(7)
O4 0.0206(7) 0.0150(7) 0.0275(8) 0.0021(6) 0.0015(6) 0.0068(5)
C4 0.0217(9) 0.0152(9) 0.0127(9) 0.0030(7) 0.0008(8) 0.0061(7)
C5 0.0194(9) 0.0109(8) 0.0210(10) 0.0039(7) 0.0032(8) 0.0022(7)
C6 0.0252(10) 0.0200(10) 0.0201(10) 0.0034(8) 0.0054(8) 0.0078(8)
C7 0.0279(10) 0.0247(10) 0.0294(11) 0.0074(9) 0.0103(9) 0.0092(8)
C8 0.0230(9) 0.0118(9) 0.0159(9) 0.0013(7) 0.0030(8) 0.0071(7)
C9 0.0341(11) 0.0182(10) 0.0335(12) 0.0125(9) 0.0088(10) 0.0062(9)
C10 0.0224(10) 0.0213(10) 0.0306(12) 0.0016(9) -0.0030(9) 0.0054(8)
loop_
_atom_type_symbol
_atom_type_description
_atom_type_scat_dispersion_real
_atom_type_scat_dispersion_imag
_atom_type_scat_source
C C 0.0033 0.0016 'International Tables Vol C Tables 4.2.6.8 and 6.1.1.4'
H H 0.0000 0.0000 'International Tables Vol C Tables 4.2.6.8 and 6.1.1.4'
O O 0.0106 0.0060 'International Tables Vol C Tables 4.2.6.8 and 6.1.1.4'
N N 0.0061 0.0033 'International Tables Vol C Tables 4.2.6.8 and 6.1.1.4'
loop_
_geom_angle_atom_site_label_1
_geom_angle_atom_site_label_2
_geom_angle_atom_site_label_3
_geom_angle
C4 O1 H1 109.8(16)
C8 N1 O4 116.52(14)
C8 N1 C9 121.71(16)
O4 N1 C9 114.40(15)
C2 C1 H1A 120.0
C2 C1 H1B 120.0
H1A C1 H1B 120.0
C1 C2 C3 125.18(19)
C1 C2 H2 117.4
C3 C2 H2 117.4
C2 C3 C7 109.74(16)
C2 C3 C4 109.44(16)
C7 C3 C4 111.65(15)
C2 C3 H3 108.7
C7 C3 H3 108.7
C4 C3 H3 108.7
N1 O4 C10 110.23(13)
O1 C4 C5 109.95(14)
O1 C4 C8 107.86(13)
C5 C4 C8 110.83(14)
O1 C4 C3 110.61(14)
C5 C4 C3 107.42(14)
C8 C4 C3 110.19(15)
O2 C5 C6 123.01(16)
O2 C5 C4 119.26(16)
C6 C5 C4 117.65(15)
C5 C6 H6A 109.5
C5 C6 H6B 109.5
H6A C6 H6B 109.5
C5 C6 H6C 109.5
H6A C6 H6C 109.5
H6B C6 H6C 109.5
C3 C7 H7A 109.5
C3 C7 H7B 109.5
H7A C7 H7B 109.5
C3 C7 H7C 109.5
H7A C7 H7C 109.5
H7B C7 H7C 109.5
O3 C8 N1 120.49(16)
O3 C8 C4 122.94(16)
N1 C8 C4 116.52(16)
N1 C9 H9A 109.5
N1 C9 H9B 109.5
H9A C9 H9B 109.5
N1 C9 H9C 109.5
H9A C9 H9C 109.5
H9B C9 H9C 109.5
O4 C10 H10A 109.5
O4 C10 H10B 109.5
H10A C10 H10B 109.5
O4 C10 H10C 109.5
H10A C10 H10C 109.5
H10B C10 H10C 109.5
loop_
_geom_bond_atom_site_label_1
_geom_bond_atom_site_label_2
_geom_bond_distance
O1 C4 1.414(2)
O1 H1 0.86(3)
N1 C8 1.359(2)
N1 O4 1.400(2)
N1 C9 1.454(2)
C1 C2 1.318(3)
C1 H1A 0.9500
C1 H1B 0.9500
O2 C5 1.213(2)
C2 C3 1.504(3)
C2 H2 0.9500
O3 C8 1.222(2)
C3 C7 1.533(3)
C3 C4 1.556(2)
C3 H3 1.0000
O4 C10 1.445(2)
C4 C5 1.537(3)
C4 C8 1.548(2)
C5 C6 1.492(3)
C6 H6A 0.9800
C6 H6B 0.9800
C6 H6C 0.9800
C7 H7A 0.9800
C7 H7B 0.9800
C7 H7C 0.9800
C9 H9A 0.9800
C9 H9B 0.9800
C9 H9C 0.9800
C10 H10A 0.9800
C10 H10B 0.9800
C10 H10C 0.9800
loop_
_geom_hbond_atom_site_label_D
_geom_hbond_atom_site_label_H
_geom_hbond_atom_site_label_A
_geom_hbond_distance_DH
_geom_hbond_distance_HA
_geom_hbond_distance_DA
_geom_hbond_angle_DHA
_geom_hbond_site_symmetry_A
O1 H1 O2 0.86(3) 2.16(2) 2.6440(19) 115(2) .
O1 H1 O2 0.86(3) 2.10(3) 2.8555(19) 146(2) 2_666
loop_
_geom_torsion_atom_site_label_1
_geom_torsion_atom_site_label_2
_geom_torsion_atom_site_label_3
_geom_torsion_atom_site_label_4
_geom_torsion
C1 C2 C3 C7 117.1(2)
C1 C2 C3 C4 -120.0(2)
C8 N1 O4 C10 -120.34(17)
C9 N1 O4 C10 89.04(19)
C2 C3 C4 O1 -72.56(18)
C7 C3 C4 O1 49.1(2)
C2 C3 C4 C5 47.44(19)
C7 C3 C4 C5 169.14(16)
C2 C3 C4 C8 168.27(14)
C7 C3 C4 C8 -70.03(19)
O1 C4 C5 O2 15.1(2)
C8 C4 C5 O2 134.21(17)
C3 C4 C5 O2 -105.37(18)
O1 C4 C5 C6 -168.08(15)
C8 C4 C5 C6 -48.9(2)
C3 C4 C5 C6 71.49(19)
O4 N1 C8 O3 -158.24(16)
C9 N1 C8 O3 -9.9(3)
O4 N1 C8 C4 24.1(2)
C9 N1 C8 C4 172.45(16)
O1 C4 C8 O3 -118.15(18)
C5 C4 C8 O3 121.44(18)
C3 C4 C8 O3 2.7(2)
O1 C4 C8 N1 59.41(19)
C5 C4 C8 N1 -61.0(2)
C3 C4 C8 N1 -179.75(15)
