#------------------------------------------------------------------------------
#$Date: 2015-09-06 04:02:55 +0300 (Sun, 06 Sep 2015) $
#$Revision: 154764 $
#$URL: svn://www.crystallography.net/cod/cif/1/52/06/1520656.cif $
#------------------------------------------------------------------------------
#
# This file is available in the Crystallography Open Database (COD),
# http://www.crystallography.net/
#
# All data on this site have been placed in the public domain by the
# contributors.
#
data_1520656
loop_
_publ_author_name
'Zimmerman, Jake R.'
'Johntony, Olivia'
'Steigerwald, Daniel'
'Criss, Cody'
'Myers, Brian J.'
'Kinder, David H.'
_publ_section_title
;
 The Synthesis of a New Class of Highly Fluorescent Chromones via an
 Inverse-Demand Hetero-Diels-Alder Reaction.
;
_journal_issue                   13
_journal_name_full               'Organic letters'
_journal_page_first              3256
_journal_page_last               3259
_journal_paper_doi               10.1021/acs.orglett.5b01417
_journal_volume                  17
_journal_year                    2015
_chemical_formula_moiety         'C16 H17 Cl O5'
_chemical_formula_sum            'C16 H17 Cl O5'
_chemical_formula_weight         324.74
_chemical_name_systematic
;
 ?
;
_space_group_crystal_system      triclinic
_space_group_IT_number           2
_space_group_name_Hall           '-P 1'
_space_group_name_H-M_alt        'P -1'
_symmetry_space_group_name_Hall  '-P 1'
_symmetry_space_group_name_H-M   'P -1'
_atom_sites_solution_hydrogens   geom
_atom_sites_solution_primary     direct
_audit_creation_date             2014-05-02
_audit_creation_method
;
Olex2 1.2-alpha
(compiled 2014.03.20 svn.r2914 for OlexSys, GUI svn.r4816)
;
_cell_angle_alpha                76.228(2)
_cell_angle_beta                 76.658(2)
_cell_angle_gamma                84.002(2)
_cell_formula_units_Z            2
_cell_length_a                   6.9648(10)
_cell_length_b                   7.7685(11)
_cell_length_c                   14.728(2)
_cell_measurement_reflns_used    3121
_cell_measurement_temperature    173(2)
_cell_measurement_theta_max      25.301
_cell_measurement_theta_min      2.773
_cell_volume                     752.04(18)
_computing_cell_refinement       'APEX2 v2012.10-0 (BRUKER, 2012)'
_computing_data_collection       'COSMO v1.61 (BRUKER, 2009)'
_computing_data_reduction        'SAINT v8.27A (Bruker, 2012)'
_computing_molecular_graphics    'Olex2 (Dolomanov et al., 2009)'
_computing_publication_material  'Olex2 (Dolomanov et al., 2009)'
_computing_structure_refinement  'XL (Sheldrick, 2008)'
_computing_structure_solution    'ShelXS (Sheldrick, 2008)'
_diffrn_ambient_temperature      173.15
_diffrn_detector                 'Bruker APEX-II CCD area detector'
_diffrn_detector_area_resol_mean 8
_diffrn_detector_type            'Bruker APEX-II CCD area detector'
_diffrn_measured_fraction_theta_full 0.997
_diffrn_measured_fraction_theta_max 0.997
_diffrn_measurement_device       'three-circle diffractometer'
_diffrn_measurement_device_type  'Bruker APEX-II CCD'
_diffrn_measurement_method       '\f and \w scans'
_diffrn_radiation_collimation    Monocap
_diffrn_radiation_monochromator  graphite
_diffrn_radiation_probe          x-ray
_diffrn_radiation_type           MoK\a
_diffrn_radiation_wavelength     0.71073
_diffrn_reflns_av_R_equivalents  0.0346
_diffrn_reflns_av_unetI/netI     0.0423
_diffrn_reflns_laue_measured_fraction_full 0.997
_diffrn_reflns_laue_measured_fraction_max 0.997
_diffrn_reflns_limit_h_max       8
_diffrn_reflns_limit_h_min       -8
_diffrn_reflns_limit_k_max       9
_diffrn_reflns_limit_k_min       -9
_diffrn_reflns_limit_l_max       14
_diffrn_reflns_limit_l_min       -17
_diffrn_reflns_number            7294
_diffrn_reflns_point_group_measured_fraction_full 0.997
_diffrn_reflns_point_group_measured_fraction_max 0.997
_diffrn_reflns_theta_full        25.242
_diffrn_reflns_theta_max         25.313
_diffrn_reflns_theta_min         2.703
_diffrn_source                   'sealed X-ray tube'
_diffrn_standards_number         0
_exptl_absorpt_coefficient_mu    0.275
_exptl_absorpt_correction_T_max  0.7452
_exptl_absorpt_correction_T_min  0.6625
_exptl_absorpt_correction_type   multi-scan
_exptl_absorpt_process_details
;
SADABS-2012/1 (Bruker,2012) was used for absorption correction.
wR2(int) was 0.0597 before and 0.0424 after correction.
The Ratio of minimum to maximum transmission is 0.8890.
The \l/2 correction factor is 0.0015.
;
_exptl_crystal_colour            yellow
_exptl_crystal_colour_primary    yellow
_exptl_crystal_density_diffrn    1.434
_exptl_crystal_description       chunk
_exptl_crystal_F_000             340
_exptl_crystal_size_max          0.409
_exptl_crystal_size_mid          0.243
_exptl_crystal_size_min          0.114
_refine_diff_density_max         0.247
_refine_diff_density_min         -0.254
_refine_diff_density_rms         0.055
_refine_ls_extinction_method     none
_refine_ls_goodness_of_fit_ref   1.096
_refine_ls_hydrogen_treatment    constr
_refine_ls_matrix_type           full
_refine_ls_number_parameters     204
_refine_ls_number_reflns         2742
_refine_ls_number_restraints     0
_refine_ls_restrained_S_all      1.096
_refine_ls_R_factor_all          0.0551
_refine_ls_R_factor_gt           0.0399
_refine_ls_shift/su_max          0.000
_refine_ls_shift/su_mean         0.000
_refine_ls_structure_factor_coef Fsqd
_refine_ls_weighting_details
'w=1/[\s^2^(Fo^2^)+(0.0469P)^2^+0.0842P] where P=(Fo^2^+2Fc^2^)/3'
_refine_ls_weighting_scheme      calc
_refine_ls_wR_factor_gt          0.0950
_refine_ls_wR_factor_ref         0.1039
_reflns_Friedel_coverage         0.000
_reflns_number_gt                2096
_reflns_number_total             2742
_reflns_threshold_expression     'I > 2\s(I)'
_cod_data_source_file            ol5b01417_si_002.cif
_cod_data_source_block           jz414b
_cod_depositor_comments
'Adding full bibliography for 1520655--1520656.cif.'
_cod_original_cell_volume        752.02(19)
_cod_database_code               1520656
_shelxl_version_number           2013-4
_shelx_space_group_comment
;
The symmetry employed for this shelxl refinement is uniquely defined
by the following loop, which should always be used as a source of
symmetry information in preference to the above space-group names.
They are only intended as comments.
;
_shelx_estimated_absorpt_t_max   0.969
_shelx_estimated_absorpt_t_min   0.896
_olex2_refinement_description
;
1. Fixed Uiso
 At 1.2 times of:
  All C(H) groups
 At 1.5 times of:
  All C(H,H,H) groups, All O(H) groups
2.a Ternary CH refined with riding coordinates:
 C1(H1)
2.b Aromatic/amide H refined with riding coordinates:
 C5(H5), C8(H8), C10(H10)
2.c Idealised Me refined as rotating group:
 C11(H11A,H11B,H11C), C14(H14A,H14B,H14C), C15(H15A,H15B,H15C), C16(H16A,H16B,
 H16C)
2.d Idealised tetrahedral OH refined as rotating group:
 O3(H3)
;
_shelx_res_file
;
TITL JZ414b in P-1
CELL 0.71073 6.9648 7.7685 14.7277 76.228 76.658 84.002
ZERR 2 0.001 0.0011 0.0023 0.002 0.002 0.002
LATT 1

SFAC C H Cl O
UNIT 32 34 2 10

L.S. 4
PLAN  -4 0 0
SIZE 0.114 0.243 0.409
TEMP -100
HTAB
BOND $H
CONF
MORE -1
fmap 2
acta
REM <HKL>E:/JZ414b/work/JZ414b.hkl</HKL>

WGHT    0.046900    0.084200
FVAR       0.22299
CL1   3    0.879892    0.656772    0.631950    11.00000    0.04220    0.03804 =
         0.02363   -0.00371   -0.00555   -0.00096
O1    4    1.015912    0.883049    0.214816    11.00000    0.02216    0.03038 =
         0.02217   -0.00231   -0.00319   -0.00570
O2    4    0.537721    0.585847    0.353774    11.00000    0.02860    0.02964 =
         0.03180   -0.00059   -0.00255   -0.01172
O3    4    0.462357    0.596946    0.191960    11.00000    0.03929    0.03766 =
         0.03792   -0.00794   -0.00976   -0.01643
AFIX 147
H3    2    0.450424    0.564772    0.251539    11.00000   -1.50000
AFIX   0
O4    4    0.948538    1.345173    0.160067    11.00000    0.03314    0.02791 =
         0.04186   -0.01372   -0.00521   -0.00855
O5    4    1.075125    1.194397    0.047167    11.00000    0.04665    0.04702 =
         0.02746   -0.01118    0.00697   -0.02278
C1    1    0.852856    0.907926    0.166095    11.00000    0.02500    0.02870 =
         0.01960   -0.00665   -0.00466   -0.00548
AFIX  13
H1    2    0.909539    0.891113    0.099735    11.00000   -1.20000
AFIX   0
C2    1    0.702974    0.770167    0.211683    11.00000    0.02467    0.02148 =
         0.02727   -0.00505   -0.00520   -0.00274
C3    1    0.671627    0.694867    0.311639    11.00000    0.02330    0.01858 =
         0.03188   -0.00553   -0.00324   -0.00184
C4    1    0.807378    0.738363    0.363752    11.00000    0.02332    0.01897 =
         0.02495   -0.00451   -0.00315    0.00066
C5    1    0.781440    0.683663    0.463068    11.00000    0.02319    0.01992 =
         0.02562   -0.00088   -0.00032    0.00050
AFIX  43
H5    2    0.667211    0.623359    0.499638    11.00000   -1.20000
AFIX   0
C6    1    0.921576    0.717372    0.507585    11.00000    0.02963    0.02245 =
         0.02146   -0.00556   -0.00359    0.00434
C7    1    1.096253    0.799447    0.456555    11.00000    0.02459    0.02080 =
         0.02978   -0.00689   -0.00650    0.00417
C8    1    1.119772    0.853238    0.358134    11.00000    0.01860    0.02415 =
         0.03052   -0.00542   -0.00220   -0.00108
AFIX  43
H8    2    1.236423    0.909663    0.321545    11.00000   -1.20000
AFIX   0
C9    1    0.976873    0.826562    0.311840    11.00000    0.02254    0.01970 =
         0.02398   -0.00563   -0.00226    0.00092
C10   1    0.601150    0.708527    0.157079    11.00000    0.03408    0.02811 =
         0.03302   -0.00739   -0.00373   -0.00799
AFIX  43
H10   2    0.634642    0.750341    0.089609    11.00000   -1.20000
AFIX   0
C11   1    1.251073    0.830722    0.505477    11.00000    0.02888    0.03349 =
         0.03246   -0.01053   -0.00976    0.00285
AFIX 137
H11A  2    1.193714    0.905309    0.551123    11.00000   -1.50000
H11B  2    1.360256    0.890590    0.457735    11.00000   -1.50000
H11C  2    1.300680    0.716756    0.539625    11.00000   -1.50000
AFIX   0
C12   1    0.769694    1.102356    0.156482    11.00000    0.02696    0.02122 =
         0.02383   -0.00249   -0.00576   -0.00473
C13   1    0.948948    1.216217    0.114941    11.00000    0.03265    0.02425 =
         0.02189    0.00071   -0.00984   -0.00565
C14   1    0.650317    1.142054    0.250580    11.00000    0.03511    0.02108 =
         0.03798   -0.00464    0.00218   -0.00388
AFIX 137
H14A  2    0.541895    1.061390    0.276384    11.00000   -1.50000
H14B  2    0.596111    1.265003    0.239353    11.00000   -1.50000
H14C  2    0.736223    1.125283    0.296481    11.00000   -1.50000
AFIX   0
C15   1    0.640442    1.143318    0.081354    11.00000    0.03611    0.03255 =
         0.04518    0.00051   -0.01741   -0.00583
AFIX 137
H15A  2    0.715261    1.110795    0.022273    11.00000   -1.50000
H15B  2    0.602135    1.270346    0.068086    11.00000   -1.50000
H15C  2    0.521618    1.074900    0.105860    11.00000   -1.50000
AFIX   0
C16   1    1.115198    1.456899    0.124784    11.00000    0.03781    0.03381 =
         0.05235   -0.01000   -0.00937   -0.01505
AFIX 137
H16A  2    1.122845    1.511425    0.056897    11.00000   -1.50000
H16B  2    1.237076    1.385012    0.132467    11.00000   -1.50000
H16C  2    1.098699    1.550030    0.161060    11.00000   -1.50000
AFIX   0
HKLF 4

REM  JZ414b in P-1
REM R1 =  0.0399 for    2096 Fo > 4sig(Fo)  and  0.0551 for all    2742 data
REM    204 parameters refined using      0 restraints

END

WGHT      0.0469      0.0842

REM Instructions for potential hydrogen bonds
EQIV $1 -x+1, -y+1, -z+1
HTAB O3 Cl1_$1
HTAB O3 O2
EQIV $2 -x+2, -y+2, -z
HTAB C1 O5_$2
HTAB C5 O2_$1
HTAB C10 O5_$2

REM Highest difference peak  0.247,  deepest hole -0.254,  1-sigma level  0.055
Q1    1   0.4965  0.5678  0.8548  11.00000  0.05    0.25
Q2    1   0.8343  0.8567  0.3428  11.00000  0.05    0.24
Q3    1   0.9571  1.2043  0.0462  11.00000  0.05    0.22
Q4    1   0.8694  1.1350  0.1436  11.00000  0.05    0.21
;
_shelx_res_checksum              76915
_shelx_hkl_file
;
  -1   0  -1   45.22    0.87
  -1   0  -1   43.86    0.91
  -1   0  -1   42.24    0.93
  -2   0  -2    3.06    0.21
  -2   0  -2    3.19    0.23
  -2   0  -2    3.45    0.26
  -3   0  -3   36.13    1.09
  -3   0  -3   36.83    0.99
  -3   0  -3   37.09    1.17
  -4   0  -4   28.79    1.12
  -4   0  -4   27.86    0.93
  -4   0  -4   26.48    1.01
   5   0   5   26.16    1.18
  -5   0  -5   22.66    1.04
  -5   0  -5   22.41    1.12
  -5   0  -5   24.21    0.94
   6   0   6    3.81    0.50
  -6   0  -6    3.27    0.44
  -6   0  -6    3.52    0.49
  -6   0  -6    2.47    0.36
   7   0   7    1.78    0.44
  -7   0  -7    2.40    0.54
  -7   0  -7    2.66    0.45
  -7   0  -7    1.58    0.44
   8   0   8    2.78    0.63
  -8   0  -8    3.31    0.70
  -8   0  -8    3.01    0.51
  -8   0  -8    2.66    0.55
  -8  -1  -8    0.56    0.33
  -8  -1  -8    0.94    0.37
  -8  -1  -8    0.39    0.27
   8   1   8    0.52    0.33
  -7  -1  -7    1.75    0.45
  -7  -1  -7    1.64    0.41
  -7  -1  -7    1.71    0.40
   7   1   7    1.50    0.42
  -6  -1  -6    0.52    0.21
  -6  -1  -6    0.42    0.22
  -6  -1  -6    0.34    0.22
   6   1   6    0.36    0.23
  -5  -1  -5    1.82    0.37
  -5  -1  -5    1.63    0.31
  -5  -1  -5    1.47    0.31
   5   1   5    1.67    0.36
  -4  -1  -4    0.03    0.08
  -4  -1  -4    0.06    0.10
  -4  -1  -4   -0.08    0.07
   4   1   4   -0.06    0.08
  -3  -1  -3   24.66    0.89
  -3  -1  -3   23.43    0.78
  -3  -1  -3   23.62    0.83
   3   1   3   24.44    0.89
  -2  -1  -2   27.40    0.82
  -2  -1  -2   28.57    0.78
  -2  -1  -2   26.83    0.75
  -2  -1  -2   28.08    0.70
   2   1   2   27.25    0.82
  -1  -1  -1   13.12    0.39
  -1  -1  -1   13.39    0.39
  -1  -1  -1   13.12    0.39
   1   1   1   13.14    0.42
   0  -1   0   -0.23    0.03
   0  -1   0   -0.23    0.05
   0   1   0   -0.28    0.05
   0   1   0   -0.19    0.05
   1  -1   1   38.38    0.76
  -1   1  -1   38.53    0.72
  -1   1  -1   38.93    0.92
  -1   1  -1   38.50    0.89
   2  -1   2   15.24    0.37
  -2   1  -2   16.26    0.59
  -2   1  -2   15.76    0.63
  -2   1  -2   15.69    0.46
   3  -1   3   69.14    1.29
  -3   1  -3   67.03    1.78
  -3   1  -3   69.49    1.50
  -3   1  -3   67.61    1.71
  -4   1  -4   12.19    0.73
  -4   1  -4   11.96    0.55
  -4   1  -4   12.13    0.67
  -5   1  -5    1.91    0.28
  -5   1  -5    2.07    0.39
  -5   1  -5    2.00    0.41
  -6   1  -6    2.94    0.54
  -6   1  -6    2.88    0.36
  -6   1  -6    3.65    0.47
   7  -1   7   -0.07    0.22
  -7   1  -7    0.08    0.26
  -7   1  -7    0.15    0.21
  -8  -2  -8    1.05    0.34
  -8  -2  -8    0.53    0.31
   8   2   8    1.24    0.43
  -7  -2  -7   -0.04    0.19
  -7  -2  -7    0.28    0.23
   7   2   7    0.35    0.24
  -6  -2  -6    0.14    0.15
  -6  -2  -6    0.06    0.13
   6   2   6    0.11    0.14
  -5  -2  -5   10.27    0.67
  -5  -2  -5    9.58    0.62
   5   2   5   10.24    0.71
  -4  -2  -4    4.84    0.41
  -4  -2  -4    5.20    0.41
   4   2   4    5.49    0.47
  -3  -2  -3   38.39    1.11
  -3  -2  -3   39.93    1.06
  -3  -2  -3   37.16    1.13
   3   2   3   40.65    1.23
  -2  -2  -2    1.97    0.19
  -2  -2  -2    2.19    0.20
  -2  -2  -2    1.79    0.18
   2   2   2    1.68    0.20
  -1  -2  -1  101.05    2.09
  -1  -2  -1  104.49    2.01
  -1  -2  -1  106.52    1.97
   1   2   1  104.57    2.15
   1   2   1  107.44    2.06
   0  -2   0  288.01    5.01
   0  -2   0  283.88    4.69
   0   2   0  279.74    5.10
   0   2   0  284.47    4.97
   1  -2   1  104.40    1.98
  -1   2  -1  100.91    2.16
  -1   2  -1  104.15    2.09
   2  -2   2   18.21    0.50
  -2   2  -2   18.96    0.75
  -2   2  -2   18.57    0.47
  -2   2  -2   17.16    0.66
   3  -2   3    2.25    0.14
  -3   2  -3    2.06    0.26
  -3   2  -3    2.41    0.19
  -3   2  -3    2.12    0.29
  -4   2  -4   21.67    0.96
  -4   2  -4   21.58    1.02
  -4   2  -4   20.94    0.72
  -5   2  -5   -0.12    0.10
  -5   2  -5    0.11    0.11
  -5   2  -5   -0.12    0.09
  -6   2  -6    3.82    0.55
  -6   2  -6    3.30    0.48
  -7   2  -7    0.24    0.24
  -7   2  -7    0.65    0.34
   8   3   8    1.25    0.43
  -7  -3  -7    0.89    0.31
  -7  -3  -7    1.29    0.39
   7   3   7    0.52    0.28
  -6  -3  -6   14.59    0.86
  -6  -3  -6   14.34    0.89
   6   3   6   14.25    0.94
  -5  -3  -5   17.69    0.88
  -5  -3  -5   16.17    0.87
   5   3   5   17.43    0.96
  -4  -3  -4    5.30    0.43
  -4  -3  -4    4.78    0.38
  -4  -3  -4    4.64    0.41
   4   3   4    4.78    0.45
  -3  -3  -3    2.11    0.25
  -3  -3  -3    1.81    0.24
  -3  -3  -3    2.09    0.24
   3   3   3    1.83    0.26
  -2  -3  -2   88.58    1.90
  -2  -3  -2   88.10    1.92
   2   3   2   88.12    2.09
   2   3   2   88.10    1.98
  -1  -3  -1   18.14    0.68
  -1  -3  -1   17.67    0.55
   1   3   1   17.00    0.69
   1   3   1   18.28    0.65
   0  -3   0    5.72    0.22
   0  -3   0    6.22    0.35
   0   3   0    5.82    0.35
   1  -3   1   15.92    0.57
  -1   3  -1   16.85    0.64
  -1   3  -1   15.99    0.70
   2  -3   2    2.12    0.19
  -2   3  -2    2.84    0.29
  -2   3  -2    2.35    0.11
  -2   3  -2    2.00    0.27
  -3   3  -3    5.72    0.45
  -3   3  -3    5.64    0.26
  -3   3  -3    5.66    0.49
  -4   3  -4    0.95    0.26
  -4   3  -4    0.94    0.29
  -5   3  -5    8.72    0.69
  -5   3  -5    7.48    0.68
  -6   3  -6    1.92    0.48
  -6   3  -6    1.95    0.44
  -7   3  -7    0.36    0.31
  -7   3  -7    0.47    0.37
  -7  -4  -7    0.04    0.18
  -7  -4  -7    0.00    0.18
   7   4   7    0.05    0.22
  -6  -4  -6   -0.07    0.12
  -6  -4  -6    0.09    0.17
   6   4   6    0.17    0.20
  -5  -4  -5   12.67    0.77
  -5  -4  -5   13.60    0.79
   5   4   5   12.36    0.83
  -4  -4  -4    3.19    0.35
  -4  -4  -4    3.56    0.37
  -4  -4  -4    3.63    0.36
   4   4   4    2.62    0.37
   4   4   4    2.85    0.36
  -3  -4  -3    8.08    0.49
  -3  -4  -3    7.89    0.52
  -3  -4  -3    8.83    0.51
   3   4   3    8.67    0.60
   3   4   3    9.06    0.56
  -2  -4  -2    0.13    0.10
  -2  -4  -2    0.22    0.11
   2   4   2    0.19    0.13
   2   4   2    0.29    0.13
  -1  -4  -1   36.65    1.16
  -1  -4  -1   37.20    0.94
   1   4   1   36.92    1.10
   1   4   1   35.96    1.19
   0  -4   0   68.38    1.32
   0  -4   0   67.37    1.71
   0   4   0   66.98    1.68
   0   4   0   68.12    1.82
   1  -4   1    6.56    0.41
  -1   4  -1    5.22    0.45
  -1   4  -1    6.73    0.44
   2  -4   2    7.76    0.43
  -2   4  -2    8.45    0.59
  -2   4  -2    8.71    0.54
  -3   4  -3    0.11    0.14
  -3   4  -3    0.28    0.19
  -4   4  -4    3.75    0.46
  -4   4  -4    3.28    0.46
  -5   4  -5    3.66    0.54
  -5   4  -5    3.55    0.48
  -6   4  -6    1.29    0.42
  -6   4  -6    2.70    0.57
  -7  -5  -7    1.23    0.38
  -7  -5  -7    1.27    0.39
   7   5   7    1.41    0.45
   7   5   7    1.42    0.44
  -6  -5  -6   -0.04    0.16
  -6  -5  -6   -0.04    0.17
   6   5   6    0.05    0.19
   6   5   6    0.02    0.17
  -5  -5  -5   23.44    1.09
  -5  -5  -5   21.93    1.07
  -5  -5  -5   23.56    1.09
   5   5   5   23.18    1.16
   5   5   5   23.41    1.21
  -4  -5  -4   55.77    1.68
  -4  -5  -4   54.53    1.73
  -4  -5  -4   53.53    1.66
   4   5   4   52.37    1.86
   4   5   4   55.28    1.79
  -3  -5  -3    4.40    0.39
  -3  -5  -3    4.83    0.46
   3   5   3    3.75    0.41
   3   5   3    5.23    0.50
  -2  -5  -2    0.05    0.09
  -2  -5  -2   -0.02    0.08
   2   5   2    0.02    0.10
   2   5   2    0.02    0.11
  -1  -5  -1    7.59    0.53
  -1  -5  -1    8.34    0.39
   1   5   1    7.51    0.57
   1   5   1    7.65    0.50
   0  -5   0    3.03    0.33
   0   5   0    2.17    0.33
   0   5   0    3.06    0.32
   1  -5   1    1.84    0.25
  -1   5  -1    1.68    0.34
  -1   5  -1    1.58    0.29
   2  -5   2    0.09    0.10
  -2   5  -2    0.10    0.13
  -2   5  -2   -0.07    0.12
  -3   5  -3    1.18    0.34
  -3   5  -3    0.99    0.27
  -4   5  -4    0.65    0.26
  -4   5  -4    0.38    0.24
  -5   5  -5    0.42    0.27
  -5   5  -5    0.43    0.31
  -6   5  -6   -0.01    0.22
  -6   5  -6    0.09    0.25
  -6  -6  -6    2.94    0.52
  -6  -6  -6    1.34    0.36
   6   6   6    2.72    0.58
   6   6   6    1.69    0.44
  -5  -6  -5    9.81    0.75
  -5  -6  -5   11.07    0.76
  -5  -6  -5   12.49    0.80
   5   6   5   10.48    0.81
   5   6   5    9.95    0.86
  -4  -6  -4    9.41    0.71
  -4  -6  -4    9.03    0.64
   4   6   4   10.23    0.80
   4   6   4    9.73    0.71
  -3  -6  -3   44.00    1.60
  -3  -6  -3   43.18    1.38
   3   6   3   44.79    1.57
   3   6   3   44.69    1.70
  -2  -6  -2    0.30    0.18
  -2  -6  -2    0.44    0.15
   2   6   2    0.64    0.23
   2   6   2    0.56    0.22
  -1  -6  -1   49.64    1.64
   1   6   1   48.09    1.55
   1   6   1   45.76    1.67
   0  -6   0    3.60    0.40
   0   6   0    3.08    0.37
   0   6   0    4.19    0.47
   1  -6   1   -0.06    0.10
  -1   6  -1    0.10    0.15
  -1   6  -1    0.04    0.12
  -2   6  -2    2.74    0.38
  -2   6  -2    2.91    0.45
  -3   6  -3    0.36    0.24
  -3   6  -3    0.76    0.26
  -4   6  -4    6.96    0.67
  -4   6  -4    7.33    0.76
  -5   6  -5    0.18    0.33
  -5   6  -5    0.31    0.26
  -6  -7  -6    1.69    0.42
   6   7   6    1.03    0.40
   6   7   6    0.74    0.36
  -5  -7  -5    0.33    0.21
  -5  -7  -5    0.00    0.16
   5   7   5    0.13    0.23
   5   7   5    0.05    0.20
  -4  -7  -4    4.44    0.53
  -4  -7  -4    5.30    0.52
   4   7   4    4.51    0.63
   4   7   4    4.73    0.56
  -3  -7  -3    0.09    0.14
   3   7   3    0.38    0.21
   3   7   3    0.50    0.26
  -2  -7  -2   28.45    1.31
   2   7   2   30.70    1.27
   2   7   2   29.07    1.40
  -1  -7  -1    0.53    0.24
   1   7   1    0.49    0.26
   1   7   1    1.15    0.32
   0  -7   0    0.13    0.14
   0   7   0    0.16    0.19
   0   7   0    0.22    0.20
   1  -7   1    0.94    0.26
  -1   7  -1    0.82    0.31
  -1   7  -1    1.43    0.34
  -2   7  -2    2.55    0.54
  -2   7  -2    2.46    0.46
  -3   7  -3    1.73    0.49
  -3   7  -3    1.40    0.38
  -4   7  -4    1.16    0.41
  -4   7  -4    0.79    0.39
  -5  -8  -5    0.57    0.33
   5   8   5    0.59    0.38
  -4  -8  -4    3.65    0.63
   4   8   4    2.83    0.60
  -3  -8  -3    0.93    0.32
   3   8   3    0.81    0.32
  -2  -8  -2    0.17    0.21
   2   8   2    0.20    0.23
  -1  -8  -1    0.30    0.22
   1   8   1    0.95    0.37
   0  -8   0    0.41    0.27
   0   8   0    0.23    0.26
   1  -8   1   -0.15    0.17
  -1   8  -1    0.03    0.22
  -2   8  -2    0.06    0.21
  -2  -9  -2    4.31    0.59
   2   9   2    4.74    0.67
  -1  -9  -1    3.78    0.55
   1   9   1    3.02    0.61
   0  -9   0    1.27    0.38
   0   9   0    1.52    0.48
   0   9   1    1.02    0.42
   0  -9  -1    1.09    0.40
   1   9   2    0.73    0.37
  -1  -9  -2    0.06    0.23
   2   9   3    0.61    0.39
  -2  -9  -3    1.74    0.46
   3   9   4    0.46    0.34
  -3   8  -2    0.30    0.29
  -2   8  -1    0.20    0.25
  -1   8   0    2.12    0.52
   1  -8   0    1.30    0.35
   0   8   1   14.92    1.07
   0  -8  -1   15.36    0.97
   1   8   2    0.81    0.35
  -1  -8  -2    0.64    0.25
   2   8   3    5.24    0.64
  -2  -8  -3    3.00    0.53
   3   8   4    0.21    0.26
  -3  -8  -4    0.26    0.23
   4   8   5   13.01    1.04
  -4  -8  -5   14.42    1.01
   5   8   6    2.68    0.62
  -5  -8  -6    3.18    0.58
  -4   7  -3    0.79    0.39
  -3   7  -2    0.19    0.22
  -2   7  -1    0.11    0.20
  -1   7   0    6.24    0.65
   1  -7   0    5.15    0.52
   0   7   1    9.52    0.77
   0   7   1    9.94    0.70
   0  -7  -1    9.61    0.72
   1   7   2    4.54    0.48
   1   7   2    4.31    0.54
  -1  -7  -2    4.19    0.49
   2   7   3    0.49    0.24
   2   7   3    1.01    0.28
  -2  -7  -3    0.75    0.26
   3   7   4    7.20    0.70
   3   7   4    8.54    0.66
  -3  -7  -4    8.45    0.71
   4   7   5    6.98    0.67
   4   7   5    6.96    0.73
  -4  -7  -5    9.57    0.76
  -4  -7  -5    6.73    0.59
   5   7   6   -0.08    0.22
   5   7   6   -0.08    0.17
  -5  -7  -6   -0.23    0.16
  -5  -7  -6   -0.02    0.19
   6   7   7   -0.19    0.23
   6   7   7    0.03    0.28
  -6  -7  -7    0.06    0.20
  -6  -7  -7   -0.01    0.22
  -5   6  -4    0.30    0.26
  -5   6  -4    0.93    0.38
  -4   6  -3    1.64    0.39
  -4   6  -3    2.56    0.56
  -3   6  -2    7.05    0.68
  -3   6  -2    5.01    0.51
  -2   6  -1    0.04    0.14
  -2   6  -1    0.00    0.15
   2  -6   1    0.03    0.12
  -1   6   0   13.31    0.86
  -1   6   0   13.11    0.72
   1  -6   0   14.04    0.77
   0   6   1   17.41    0.82
   0   6   1   14.96    0.91
   0  -6  -1   16.58    0.86
   1   6   2    0.07    0.15
   1   6   2   -0.06    0.11
  -1  -6  -2   -0.07    0.09
   2   6   3   16.07    0.92
   2   6   3   15.24    0.77
  -2  -6  -3   14.31    0.84
  -2  -6  -3   13.88    0.65
   3   6   4    4.61    0.46
   3   6   4    4.11    0.50
  -3  -6  -4    3.48    0.38
  -3  -6  -4    4.41    0.47
   4   6   5   86.55    2.48
   4   6   5   94.61    2.78
  -4  -6  -5   91.63    2.57
  -4  -6  -5   89.04    2.40
   5   6   6    0.55    0.30
   5   6   6    0.33    0.22
  -5  -6  -6    0.68    0.27
  -5  -6  -6    0.25    0.19
  -5  -6  -6    0.42    0.24
   6   6   7    0.20    0.25
   6   6   7    0.14    0.19
  -6  -6  -7   -0.06    0.19
  -6  -6  -7    0.12    0.21
  -6  -6  -7   -0.29    0.12
  -6   5  -5    0.81    0.35
  -6   5  -5    0.08    0.24
  -5   5  -4   -0.19    0.19
  -5   5  -4    0.08    0.20
  -4   5  -3    0.64    0.30
  -4   5  -3    1.15    0.29
  -3   5  -2   10.61    0.77
  -3   5  -2   10.70    0.68
  -2   5  -1    9.81    0.60
  -2   5  -1    8.35    0.65
   2  -5   1    9.48    0.55
  -1   5   0    0.66    0.23
  -1   5   0    0.71    0.20
   1  -5   0    0.52    0.16
   0   5   1   19.31    0.78
   0   5   1   18.23    0.90
   0  -5  -1   18.31    0.83
   1   5   2    0.46    0.19
   1   5   2    0.87    0.20
  -1  -5  -2    0.84    0.22
  -1  -5  -2    0.47    0.13
   2   5   3   18.77    0.93
   2   5   3   17.49    0.79
  -2  -5  -3   18.16    0.86
  -2  -5  -3   17.19    0.70
   3   5   4    1.32    0.34
   3   5   4    1.22    0.27
  -3  -5  -4    0.91    0.24
  -3  -5  -4    1.17    0.25
   4   5   5    7.82    0.66
   4   5   5    7.29    0.57
  -4  -5  -5    7.38    0.56
  -4  -5  -5    6.71    0.53
  -4  -5  -5    5.77    0.51
   5   5   6   23.46    1.24
   5   5   6   23.23    1.15
  -5  -5  -6   22.46    1.07
  -5  -5  -6   22.65    1.05
  -5  -5  -6   23.51    1.10
   6   5   7    0.80    0.32
   6   5   7    0.51    0.27
  -6  -5  -7    0.95    0.30
  -6  -5  -7    1.04    0.32
   7   5   8    0.40    0.31
  -7  -5  -8    0.63    0.29
  -7  -5  -8    0.37    0.26
  -6   4  -5    0.12    0.24
  -6   4  -5    0.20    0.23
  -5   4  -4    0.64    0.31
  -5   4  -4    0.55    0.23
  -4   4  -3    5.04    0.55
  -4   4  -3    4.62    0.47
  -3   4  -2   -0.03    0.09
  -3   4  -2    0.03    0.13
  -2   4  -1    0.72    0.19
  -2   4  -1    0.93    0.25
   2  -4   1    0.83    0.18
  -1   4   0   13.31    0.59
  -1   4   0   14.29    0.72
   1  -4   0   12.41    0.58
   0   4   1    4.64    0.39
   0   4   1    5.46    0.36
   0  -4  -1    4.96    0.22
   0  -4  -1    4.21    0.34
   1   4   2    2.44    0.24
   1   4   2    2.24    0.28
  -1  -4  -2    1.91    0.24
  -1  -4  -2    2.21    0.20
   2   4   3   -0.01    0.08
   2   4   3    0.04    0.07
  -2  -4  -3   -0.04    0.07
  -2  -4  -3    0.02    0.09
   3   4   4   -0.01    0.09
   3   4   4    0.25    0.14
  -3  -4  -4    0.08    0.09
  -3  -4  -4    0.10    0.10
  -3  -4  -4    0.03    0.08
   4   4   5   15.63    0.88
  -4  -4  -5   15.78    0.79
  -4  -4  -5   15.99    0.78
  -4  -4  -5   16.24    0.78
   5   4   6   11.69    0.81
  -5  -4  -6   11.41    0.67
  -5  -4  -6   11.62    0.73
  -5  -4  -6   11.13    0.73
   6   4   7    0.24    0.19
  -6  -4  -7    0.17    0.18
  -6  -4  -7   -0.07    0.15
   7   4   8    0.19    0.23
  -7  -4  -8    0.50    0.26
  -7  -4  -8    0.19    0.25
  -7   3  -6    0.25    0.23
  -7   3  -6    0.83    0.40
  -6   3  -5    1.83    0.42
  -6   3  -5    1.16    0.37
  -5   3  -4    0.03    0.16
  -5   3  -4    0.05    0.13
  -4   3  -3    7.41    0.62
  -4   3  -3    7.01    0.53
  -3   3  -2   22.55    0.90
  -3   3  -2   23.99    0.59
  -3   3  -2   24.14    1.03
   3  -3   2   23.82    0.72
  -2   3  -1   10.96    0.53
  -2   3  -1   11.00    0.62
   2  -3   1   11.93    0.47
  -1   3   0   59.58    1.54
  -1   3   0   56.76    1.36
   1  -3   0   57.28    1.37
   0   3   1   32.42    1.01
   0   3   1   34.80    0.89
   0  -3  -1   32.54    0.94
   0  -3  -1   32.56    0.71
   1   3   2   19.17    0.63
   1   3   2   19.56    0.74
  -1  -3  -2   19.84    0.70
  -1  -3  -2   18.88    0.58
   2   3   3    0.00    0.06
   2   3   3    0.01    0.07
  -2  -3  -3   -0.01    0.06
  -2  -3  -3   -0.02    0.05
  -2  -3  -3    0.00    0.05
   3   3   4    0.73    0.20
  -3  -3  -4    1.24    0.22
  -3  -3  -4    1.50    0.22
  -3  -3  -4    1.34    0.20
   4   3   5    2.50    0.33
  -4  -3  -5    1.76    0.23
  -4  -3  -5    1.73    0.26
  -4  -3  -5    1.91    0.32
   5   3   6   12.21    0.81
  -5  -3  -6   11.83    0.72
  -5  -3  -6   12.61    0.76
   6   3   7    2.72    0.50
  -6  -3  -7    3.06    0.43
  -6  -3  -7    2.45    0.43
   7   3   8    0.00    0.19
  -7  -3  -8    0.02    0.16
  -7  -3  -8    0.07    0.18
  -7   2  -6    0.14    0.25
  -7   2  -6    0.41    0.28
  -6   2  -5    1.67    0.42
  -6   2  -5    2.79    0.42
  -5   2  -4    0.26    0.12
  -5   2  -4    0.24    0.18
  -5   2  -4    0.46    0.20
  -4   2  -3   60.97    1.85
  -4   2  -3   61.02    1.42
  -4   2  -3   58.98    1.73
  -3   2  -2   19.40    0.78
  -3   2  -2   18.24    0.84
  -3   2  -2   18.95    0.56
   3  -2   2   19.10    0.55
  -2   2  -1   14.68    0.64
  -2   2  -1   15.51    0.59
  -2   2  -1   15.77    0.40
   2  -2   1   15.51    0.49
  -1   2   0  449.43    7.56
  -1   2   0  431.57    7.78
   1  -2   0  445.12    7.60
   0   2   1   67.42    1.33
   0  -2  -1   66.45    1.42
   0  -2  -1   67.52    1.22
   1   2   2   39.79    1.03
   1   2   2   40.73    0.93
  -1  -2  -2   40.81    0.99
  -1  -2  -2   39.46    0.89
  -1  -2  -2   40.08    0.93
   2   2   3    3.23    0.27
  -2  -2  -3    3.09    0.23
  -2  -2  -3    2.80    0.23
  -2  -2  -3    2.34    0.20
   3   2   4   62.89    1.71
  -3  -2  -4   64.49    1.60
  -3  -2  -4   64.39    1.50
  -3  -2  -4   64.75    1.60
   4   2   5   79.26    2.19
  -4  -2  -5   84.49    2.06
  -4  -2  -5   80.74    2.07
  -4  -2  -5   84.86    1.87
   5   2   6    1.93    0.39
  -5  -2  -6    2.02    0.35
  -5  -2  -6    1.71    0.34
   6   2   7    3.50    0.50
  -6  -2  -7    4.00    0.48
  -6  -2  -7    2.82    0.42
   7   2   8    0.35    0.24
  -7  -2  -8    0.09    0.21
  -7  -2  -8    0.39    0.24
  -7   1  -6   -0.03    0.22
  -7   1  -6    0.26    0.26
   7  -1   6    0.25    0.24
  -6   1  -5    2.68    0.50
  -6   1  -5    1.37    0.35
  -6   1  -5    1.65    0.32
  -5   1  -4   -0.01    0.13
  -5   1  -4    0.20    0.14
  -5   1  -4   -0.02    0.09
  -4   1  -3    7.62    0.42
  -4   1  -3    8.18    0.58
  -4   1  -3    8.82    0.56
  -3   1  -2    7.55    0.48
  -3   1  -2    8.23    0.37
  -3   1  -2    8.47    0.46
  -2   1  -1    0.00    0.07
  -2   1  -1   -0.02    0.05
  -2   1  -1   -0.04    0.04
   2  -1   1   -0.02    0.03
  -1   1   0  109.28    2.13
  -1   1   0  111.57    2.03
  -1   1   0  111.06    1.89
   1  -1   0  112.73    2.02
   0   1   1   83.84    1.58
   0  -1  -1   85.11    1.57
   0  -1  -1   82.86    1.46
   1   1   2    2.74    0.18
  -1  -1  -2    2.64    0.16
  -1  -1  -2    2.59    0.15
  -1  -1  -2    2.63    0.17
   2   1   3    8.26    0.42
  -2  -1  -3    8.63    0.38
  -2  -1  -3    8.44    0.41
  -2  -1  -3    8.59    0.39
  -2  -1  -3    8.51    0.32
   3   1   4    5.53    0.41
  -3  -1  -4    5.44    0.38
  -3  -1  -4    6.00    0.28
  -3  -1  -4    6.03    0.38
  -3  -1  -4    5.90    0.42
   4   1   5    1.46    0.30
  -4  -1  -5    1.11    0.22
  -4  -1  -5    1.53    0.31
  -4  -1  -5    1.57    0.29
   5   1   6   10.74    0.75
  -5  -1  -6   10.87    0.76
  -5  -1  -6   11.25    0.65
  -5  -1  -6   11.41    0.71
   6   1   7    0.76    0.30
  -6  -1  -7    0.50    0.26
  -6  -1  -7    0.23    0.16
  -6  -1  -7    0.50    0.25
   7   1   8    0.86    0.34
  -7  -1  -8    1.36    0.38
  -7  -1  -8    0.97    0.33
  -7  -1  -8    1.37    0.42
  -8   0  -7   -0.01    0.17
  -8   0  -7   -0.04    0.22
  -8   0  -7   -0.11    0.22
   8   0   7    0.13    0.24
  -7   0  -6    0.58    0.25
  -7   0  -6    0.44    0.25
  -7   0  -6    0.61    0.36
   7   0   6    1.29    0.42
  -6   0  -5    2.97    0.45
  -6   0  -5    3.88    0.50
  -6   0  -5    3.42    0.39
   6   0   5    3.60    0.49
  -5   0  -4    2.95    0.41
  -5   0  -4    3.41    0.34
  -5   0  -4    3.36    0.39
   5   0   4    3.14    0.41
  -4   0  -3   61.20    1.70
  -4   0  -3   63.85    1.80
  -4   0  -3   60.70    1.55
  -3   0  -2    5.31    0.38
  -3   0  -2    6.31    0.39
  -3   0  -2    5.50    0.33
  -2   0  -1   26.70    0.68
  -2   0  -1   24.88    0.76
  -2   0  -1   25.56    0.73
  -1   0   0  222.27    3.76
  -1   0   0  226.49    3.84
  -1   0   0  222.54    3.90
  -1   0  -2  157.18    2.81
  -1   0  -2  154.81    2.72
  -1   0  -2  155.55    2.84
  -2   0  -3   30.97    0.87
  -2   0  -3   29.26    0.88
  -3   0  -4  118.64    2.58
  -3   0  -4  119.36    2.43
  -3   0  -4  119.75    2.67
  -4   0  -5   -0.10    0.08
  -4   0  -5    0.01    0.07
  -4   0  -5   -0.01    0.07
   5   0   6    3.29    0.44
  -5   0  -6    3.14    0.34
  -5   0  -6    3.50    0.40
  -5   0  -6    3.04    0.43
   6   0   7    0.58    0.27
  -6   0  -7    0.89    0.27
  -6   0  -7    0.57    0.25
  -6   0  -7    0.58    0.26
   7   0   8    1.05    0.37
  -7   0  -8    1.78    0.48
  -7   0  -8    1.38    0.41
  -7   0  -8    0.84    0.26
  -8  -1  -7   -0.03    0.21
  -8  -1  -7    0.13    0.24
  -8  -1  -7   -0.19    0.20
   8   1   7   -0.20    0.21
  -7  -1  -6    0.17    0.21
  -7  -1  -6   -0.04    0.13
  -7  -1  -6    0.14    0.17
   7   1   6    0.15    0.20
  -6  -1  -5    0.88    0.33
  -6  -1  -5    0.49    0.22
  -6  -1  -5    0.54    0.23
   6   1   5    0.63    0.24
  -5  -1  -4   12.82    0.68
  -5  -1  -4   12.42    0.73
  -5  -1  -4   13.01    0.80
   5   1   4   13.79    0.81
  -4  -1  -3    1.08    0.22
  -4  -1  -3    1.11    0.25
  -4  -1  -3    1.27    0.26
   4   1   3    1.60    0.31
  -3  -1  -2   60.24    1.43
  -3  -1  -2   58.25    1.48
  -3  -1  -2   59.41    1.55
   3   1   2   59.07    1.56
  -2  -1  -1   16.68    0.55
  -2  -1  -1   16.34    0.56
   2   1   1   15.92    0.58
  -1  -1   0    1.22    0.11
  -1  -1   0    1.37    0.11
  -1  -1   0    1.13    0.11
   1   1   0    1.23    0.12
   1   1   0    1.42    0.13
   0  -1   1    0.44    0.05
   0  -1   1    0.43    0.06
   0   1  -1    0.49    0.06
   0   1  -1    0.49    0.08
   0   1  -1    0.69    0.09
   1  -1   2    9.78    0.25
  -1   1  -2    9.71    0.40
  -1   1  -2   10.04    0.40
  -1   1  -2    9.41    0.29
  -2   1  -3  191.24    3.30
  -2   1  -3  183.09    3.62
  -2   1  -3  179.82    3.55
  -3   1  -4    0.98    0.22
  -3   1  -4    1.02    0.22
  -3   1  -4    0.95    0.17
  -4   1  -5    2.48    0.35
  -4   1  -5    2.33    0.32
  -4   1  -5    2.43    0.26
  -5   1  -6   18.32    1.02
  -5   1  -6   16.14    0.74
  -5   1  -6   16.94    0.92
  -6   1  -7   -0.17    0.15
  -6   1  -7    0.13    0.19
  -6   1  -7   -0.16    0.13
   7  -1   8    1.75    0.48
  -7   1  -8    2.83    0.61
  -7   1  -8    3.62    0.63
  -8  -2  -7    0.11    0.21
  -8  -2  -7    0.26    0.24
   8   2   7    0.20    0.25
  -7  -2  -6    1.06    0.34
  -7  -2  -6    1.41    0.34
   7   2   6    1.83    0.47
  -6  -2  -5    2.76    0.41
  -6  -2  -5    2.96    0.40
   6   2   5    3.29    0.46
  -5  -2  -4   36.64    1.34
  -5  -2  -4   34.71    1.26
   5   2   4   37.40    1.41
  -4  -2  -3    3.14    0.33
  -4  -2  -3    3.82    0.34
   4   2   3    3.48    0.37
  -3  -2  -2    6.00    0.38
  -3  -2  -2    5.84    0.38
   3   2   2    5.11    0.39
  -2  -2  -1   24.36    0.75
  -2  -2  -1   23.57    0.75
  -2  -2  -1   24.13    0.73
   2   2   1   24.38    0.79
   2   2   1   25.24    0.80
  -1  -2   0   38.94    0.99
  -1  -2   0   40.49    0.90
   1   2   0   39.70    1.00
   1   2   0   39.25    1.01
   0  -2   1   11.04    0.41
   0  -2   1   11.16    0.31
   0   2  -1   10.98    0.45
   0   2  -1   10.28    0.44
   1  -2   2   21.95    0.59
  -1   2  -2   22.66    0.50
  -1   2  -2   20.60    0.71
  -1   2  -2   23.25    0.76
   2  -2   3    0.02    0.04
  -2   2  -3    0.12    0.09
  -2   2  -3    0.11    0.05
  -2   2  -3   -0.04    0.07
  -3   2  -4   51.63    1.20
  -3   2  -4   51.46    1.52
  -3   2  -4   52.49    1.60
  -4   2  -5    3.31    0.41
  -4   2  -5    3.64    0.41
  -4   2  -5    3.37    0.28
  -5   2  -6    0.56    0.24
  -5   2  -6    0.86    0.21
  -5   2  -6    0.80    0.28
  -6   2  -7    4.08    0.54
  -6   2  -7    6.46    0.71
  -7   2  -8    6.36    0.77
  -7   2  -8    6.15    0.73
  -8  -3  -7    2.56    0.57
  -8  -3  -7    1.29    0.38
   8   3   7    1.56    0.47
  -7  -3  -6   -0.05    0.14
  -7  -3  -6    0.12    0.21
   7   3   6    0.09    0.21
  -6  -3  -5   12.43    0.79
  -6  -3  -5   10.85    0.76
   6   3   5    9.89    0.78
  -5  -3  -4    0.42    0.18
  -5  -3  -4    0.08    0.14
   5   3   4    0.29    0.18
  -4  -3  -3    0.01    0.10
  -4  -3  -3    0.11    0.11
   4   3   3   -0.05    0.11
  -3  -3  -2   37.17    1.14
  -3  -3  -2   38.32    1.17
  -3  -3  -2   37.42    1.13
   3   3   2   36.75    1.22
   3   3   2   37.17    1.20
  -2  -3  -1   29.25    0.94
  -2  -3  -1   27.70    0.89
  -2  -3  -1   29.23    0.85
   2   3   1   28.29    0.94
   2   3   1   28.62    0.98
  -1  -3   0   10.08    0.39
  -1  -3   0    9.60    0.48
   1   3   0    9.60    0.48
   1   3   0   11.70    0.54
   0  -3   1   31.13    0.93
   0  -3   1   32.54    0.72
   0   3  -1   32.59    0.99
   0   3  -1   31.78    1.01
   1  -3   2    2.36    0.21
  -1   3  -2    2.25    0.12
  -1   3  -2    1.94    0.26
  -1   3  -2    1.93    0.24
   2  -3   3   37.77    0.93
  -2   3  -3   36.47    0.77
  -2   3  -3   35.27    1.21
  -2   3  -3   33.83    1.16
  -3   3  -4   18.66    0.57
  -3   3  -4   19.21    0.93
  -3   3  -4   19.80    0.90
  -4   3  -5    2.34    0.45
  -4   3  -5    1.92    0.37
  -5   3  -6    0.01    0.18
  -5   3  -6    0.03    0.15
  -6   3  -7    0.13    0.23
  -6   3  -7    0.05    0.22
  -7   3  -8    0.73    0.38
  -7  -4  -6    0.82    0.30
  -7  -4  -6    0.74    0.29
   7   4   6    1.10    0.37
  -6  -4  -5    3.39    0.44
  -6  -4  -5    2.54    0.47
   6   4   5    3.41    0.49
  -5  -4  -4   75.71    2.12
  -5  -4  -4   73.48    2.16
   5   4   4   79.34    2.32
   5   4   4   74.71    2.29
  -4  -4  -3    7.59    0.52
  -4  -4  -3    8.01    0.55
  -4  -4  -3    6.43    0.51
   4   4   3    6.97    0.56
   4   4   3    7.77    0.60
  -3  -4  -2    2.00    0.25
  -3  -4  -2    1.74    0.25
  -3  -4  -2    2.17    0.27
   3   4   2    2.90    0.35
   3   4   2    1.03    0.24
  -2  -4  -1   17.80    0.78
  -2  -4  -1   17.82    0.66
   2   4   1   17.53    0.81
   2   4   1   17.41    0.78
  -1  -4   0   41.93    1.04
  -1  -4   0   42.67    1.28
   1   4   0   42.15    1.26
   1   4   0   42.32    1.31
   0  -4   1    9.03    0.50
   0  -4   1    9.64    0.34
   0   4  -1    9.25    0.57
   0   4  -1    9.60    0.55
   1  -4   2   12.61    0.58
  -1   4  -2   13.07    0.71
  -1   4  -2   12.38    0.65
  -1   4  -2   12.21    0.31
   2  -4   3    2.18    0.24
  -2   4  -3    2.06    0.30
  -2   4  -3    2.43    0.33
  -3   4  -4   25.38    1.18
  -3   4  -4   27.60    1.14
  -4   4  -5    3.67    0.48
  -5   4  -6    2.67    0.51
  -5   4  -6    2.20    0.51
  -6   4  -7    0.16    0.25
  -6   4  -7   -0.01    0.26
  -7  -5  -6   -0.26    0.13
  -7  -5  -6   -0.03    0.19
   7   5   6   -0.05    0.20
   7   5   6   -0.14    0.23
  -6  -5  -5    0.18    0.19
  -6  -5  -5    0.12    0.18
   6   5   5    0.06    0.18
   6   5   5   -0.19    0.14
  -5  -5  -4    4.02    0.47
  -5  -5  -4    4.41    0.47
   5   5   4    3.11    0.46
   5   5   4    3.28    0.49
  -4  -5  -3    3.62    0.39
  -4  -5  -3    4.36    0.45
  -4  -5  -3    3.82    0.41
   4   5   3    4.41    0.48
   4   5   3    4.06    0.49
  -3  -5  -2    9.39    0.56
  -3  -5  -2   10.48    0.66
   3   5   2   10.57    0.71
   3   5   2   10.18    0.66
  -2  -5  -1    0.74    0.18
  -2  -5  -1    0.64    0.20
   2   5   1    0.84    0.23
   2   5   1    0.31    0.16
  -1  -5   0   17.29    0.82
  -1  -5   0   17.04    0.62
   1   5   0   16.30    0.84
   1   5   0   17.88    0.82
   0  -5   1   10.65    0.61
   0   5  -1   10.15    0.66
   0   5  -1   10.31    0.63
   1  -5   2    2.35    0.28
  -1   5  -2    2.46    0.36
  -1   5  -2    2.07    0.37
   2  -5   3    6.18    0.45
  -2   5  -3    6.50    0.55
  -2   5  -3    7.18    0.61
  -3   5  -4    1.62    0.37
  -3   5  -4    1.49    0.37
  -4   5  -5    0.84    0.30
  -4   5  -5    1.39    0.41
  -5   5  -6    4.91    0.61
  -5   5  -6    5.33    0.68
  -6  -6  -5    2.54    0.49
   6   6   5    2.34    0.51
   6   6   5    3.66    0.56
  -5  -6  -4    5.58    0.55
   5   6   4    5.24    0.59
   5   6   4    4.73    0.63
  -4  -6  -3    5.52    0.56
  -4  -6  -3    6.70    0.54
   4   6   3    6.48    0.64
   4   6   3    6.69    0.63
  -3  -6  -2    0.19    0.16
  -3  -6  -2    0.28    0.16
   3   6   2    0.13    0.16
   3   6   2    0.30    0.19
  -2  -6  -1    7.44    0.60
   2   6   1    7.27    0.62
   2   6   1    7.64    0.59
  -1  -6   0   18.53    0.93
   1   6   0   18.24    0.98
   1   6   0   18.28    0.92
   0  -6   1    0.45    0.19
   0   6  -1    0.23    0.17
   0   6  -1    0.42    0.21
   1  -6   2    0.02    0.11
  -1   6  -2    0.01    0.14
  -1   6  -2    0.19    0.20
  -2   6  -3    0.74    0.27
  -2   6  -3    1.26    0.34
  -3   6  -4    2.76    0.55
  -3   6  -4    0.90    0.30
  -4   6  -5    0.08    0.28
  -4   6  -5    0.14    0.22
  -5   6  -6   -0.13    0.23
  -5   6  -6   -0.13    0.23
  -6  -7  -5    2.04    0.46
   6   7   5    2.40    0.56
   6   7   5    1.93    0.50
  -5  -7  -4   -0.02    0.17
  -5  -7  -4    0.86    0.32
   5   7   4    0.28    0.26
   5   7   4    0.59    0.31
  -4  -7  -3    0.47    0.26
  -4  -7  -3    0.34    0.21
   4   7   3    0.61    0.30
   4   7   3    0.58    0.28
  -3  -7  -2    8.00    0.69
   3   7   2    8.38    0.71
   3   7   2    7.50    0.71
  -2  -7  -1    9.32    0.73
   2   7   1   10.22    0.81
   2   7   1    9.08    0.71
  -1  -7   0   22.43    1.12
   1   7   0   20.96    1.08
   1   7   0   21.45    1.18
   0  -7   1    1.30    0.32
   0   7  -1    1.59    0.37
   0   7  -1    2.24    0.47
   1  -7   2    0.28    0.19
  -1   7  -2    0.43    0.23
  -1   7  -2    0.32    0.26
  -2   7  -3    1.68    0.41
  -2   7  -3    1.15    0.34
  -3   7  -4    0.42    0.30
  -3   7  -4    1.17    0.37
  -4  -8  -3    0.46    0.28
   4   8   3    0.65    0.34
   4   8   3    0.10    0.24
  -3  -8  -2    0.55    0.29
   3   8   2    1.08    0.36
   3   8   2    0.65    0.35
  -2  -8  -1    0.63    0.29
   2   8   1    0.43    0.24
   2   8   1    0.58    0.32
  -1  -8   0    0.97    0.33
   1   8   0    0.60    0.29
   1   8   0    0.75    0.31
   0  -8   1    2.24    0.45
   0   8  -1    2.96    0.59
  -1   8  -2    0.12    0.24
  -2   8  -3    4.94    0.67
  -2  -9  -1   -0.02    0.21
   2   9   1   -0.01    0.23
  -1  -9   0    5.46    0.65
   1   9   0    4.82    0.70
  -1   9   1    0.75    0.40
   1  -9  -1    0.48    0.28
   0   9   2    0.01    0.22
   0  -9  -2    0.17    0.23
   1   9   3    4.47    0.66
  -1  -9  -3    4.50    0.59
   2   9   4    0.67    0.36
  -2  -9  -4    0.52    0.30
   3   9   5    2.05    0.56
  -3  -9  -5    1.31    0.45
  -3   8  -1    0.27    0.26
  -2   8   0    0.62    0.32
  -1   8   1    1.32    0.43
   1  -8  -1    1.03    0.32
   0   8   2    8.67    0.81
   0  -8  -2    8.36    0.73
   1   8   3    4.75    0.62
  -1  -8  -3    4.32    0.55
   2   8   4    3.43    0.63
  -2  -8  -4    2.31    0.48
   3   8   5   16.91    1.16
  -3  -8  -5   19.19    1.16
   4   8   6    4.58    0.68
  -4  -8  -6    3.78    0.55
  -4   7  -2    0.07    0.24
  -3   7  -1    0.61    0.28
  -2   7   0    0.01    0.15
   2  -7   0   -0.12    0.13
  -1   7   1    4.99    0.58
   1  -7  -1    5.78    0.55
   0   7   2    2.30    0.47
   0  -7  -2    2.11    0.41
   1   7   3    0.02    0.14
  -1  -7  -3    0.36    0.18
   2   7   4    5.80    0.61
  -2  -7  -4    5.93    0.59
   3   7   5    8.17    0.76
  -3  -7  -5    9.80    0.75
   4   7   6    0.16    0.20
  -4  -7  -6    0.22    0.19
  -4  -7  -6    0.00    0.15
   5   7   7    0.10    0.24
  -5  -7  -7   -0.26    0.19
  -5  -7  -7    0.10    0.20
   6   7   8    0.62    0.39
  -6  -7  -8    1.38    0.41
  -6  -7  -8    0.17    0.23
  -5   6  -3    1.17    0.47
  -5   6  -3    0.55    0.28
  -4   6  -2   -0.02    0.16
  -4   6  -2    0.23    0.27
  -3   6  -1    0.19    0.17
  -3   6  -1    0.10    0.16
  -2   6   0    0.89    0.23
  -2   6   0    1.02    0.32
   2  -6   0    1.04    0.25
  -1   6   1    0.22    0.15
  -1   6   1    0.34    0.19
   1  -6  -1    0.82    0.23
   0   6   2    6.69    0.47
   0   6   2    6.66    0.60
   0  -6  -2    6.84    0.55
   1   6   3    0.71    0.23
   1   6   3    1.26    0.26
  -1  -6  -3    0.76    0.24
   2   6   4    0.42    0.22
   2   6   4    0.28    0.16
  -2  -6  -4    0.17    0.15
  -2  -6  -4    0.59    0.18
   3   6   5    0.74    0.24
   3   6   5    0.75    0.26
  -3  -6  -5    1.06    0.25
  -3  -6  -5    0.78    0.28
   4   6   6    3.52    0.51
   4   6   6    3.47    0.44
  -4  -6  -6    3.66    0.42
  -4  -6  -6    5.18    0.48
  -4  -6  -6    3.75    0.46
   5   6   7    1.01    0.37
   5   6   7    0.70    0.29
  -5  -6  -7    1.84    0.37
  -5  -6  -7    1.56    0.36
  -5  -6  -7    0.98    0.29
   6   6   8   -0.11    0.23
   6   6   8    0.36    0.28
  -6  -6  -8    0.22    0.22
  -6  -6  -8    0.55    0.28
  -6  -6  -8    0.33    0.20
  -6   5  -4    2.01    0.52
  -6   5  -4    1.55    0.42
  -5   5  -3    0.44    0.24
  -5   5  -3    0.27    0.25
  -4   5  -2    0.19    0.19
  -4   5  -2    0.74    0.26
  -3   5  -1    5.03    0.53
  -3   5  -1    5.95    0.48
  -2   5   0    1.60    0.28
  -2   5   0    1.93    0.38
   2  -5   0    1.44    0.26
  -1   5   1   17.84    0.73
  -1   5   1   16.20    0.88
   1  -5  -1   17.97    0.80
   0   5   2    0.03    0.08
   0   5   2    0.34    0.17
   0  -5  -2    0.09    0.09
   1   5   3   22.75    1.00
   1   5   3   22.20    0.81
  -1  -5  -3   22.35    0.72
  -1  -5  -3   20.58    0.91
   2   5   4    8.56    0.52
   2   5   4    8.75    0.63
  -2  -5  -4    9.03    0.50
  -2  -5  -4    8.93    0.59
   3   5   5    0.04    0.13
   3   5   5   -0.04    0.10
  -3  -5  -5    0.03    0.09
  -3  -5  -5    0.05    0.11
  -3  -5  -5   -0.08    0.06
   4   5   6    0.08    0.16
   4   5   6    0.08    0.13
  -4  -5  -6   -0.07    0.11
  -4  -5  -6   -0.08    0.10
  -4  -5  -6    0.06    0.13
   5   5   7    0.06    0.17
   5   5   7    0.15    0.21
  -5  -5  -7    0.34    0.18
  -5  -5  -7    0.27    0.17
  -5  -5  -7   -0.10    0.15
   6   5   8   -0.05    0.19
  -6  -5  -8    0.23    0.22
  -6  -5  -8    0.07    0.15
  -6  -5  -8    0.40    0.21
   7   5   9    3.97    0.71
  -7  -5  -9    3.31    0.58
  -7  -5  -9    4.20    0.56
  -6   4  -4   -0.08    0.19
  -6   4  -4    0.08    0.21
  -5   4  -3    6.00    0.64
  -5   4  -3    5.66    0.56
  -4   4  -2   15.53    0.83
  -4   4  -2   17.15    1.00
  -3   4  -1    8.12    0.62
  -3   4  -1    6.93    0.49
   3  -4   1    7.61    0.44
  -2   4   0    0.15    0.10
  -2   4   0    0.23    0.15
   2  -4   0    0.23    0.12
  -1   4   1   46.35    1.45
  -1   4   1   45.91    1.19
   1  -4  -1   45.23    1.29
   0   4   2  120.82    2.46
   0   4   2  127.65    2.80
   0  -4  -2  121.06    2.25
   0  -4  -2  123.52    2.68
   1   4   3    0.42    0.11
   1   4   3    0.29    0.14
  -1  -4  -3    0.51    0.13
  -1  -4  -3    0.28    0.11
   2   4   4   48.55    1.51
   2   4   4   47.44    1.31
  -2  -4  -4   47.58    1.24
  -2  -4  -4   48.93    1.31
  -2  -4  -4   50.83    1.45
   3   4   5   10.26    0.66
   3   4   5   10.23    0.58
  -3  -4  -5   10.30    0.57
  -3  -4  -5   10.07    0.59
  -3  -4  -5    9.75    0.53
   4   4   6    0.46    0.20
  -4  -4  -6    0.40    0.16
  -4  -4  -6    0.54    0.19
  -4  -4  -6    0.21    0.14
   5   4   7    4.12    0.51
  -5  -4  -7    3.80    0.44
  -5  -4  -7    3.80    0.44
  -5  -4  -7    3.41    0.38
   6   4   8    0.70    0.29
  -6  -4  -8    0.69    0.27
  -6  -4  -8    0.49    0.23
   7   4   9    3.63    0.68
  -7  -4  -9    3.74    0.53
  -7  -4  -9    3.81    0.54
  -7   3  -5    1.27    0.45
  -7   3  -5    0.36    0.29
  -6   3  -4    1.46    0.40
  -6   3  -4    2.05    0.44
  -5   3  -3    6.54    0.56
  -5   3  -3    8.17    0.71
  -4   3  -2   11.31    0.67
  -4   3  -2   11.06    0.76
  -3   3  -1    4.00    0.34
  -3   3  -1    3.96    0.21
  -3   3  -1    2.70    0.34
   3  -3   1    3.80    0.28
  -2   3   0    5.22    0.41
  -2   3   0    4.94    0.32
   2  -3   0    4.60    0.16
   2  -3   0    4.52    0.30
  -1   3   1    2.73    0.28
  -1   3   1    3.28    0.23
   1  -3  -1    2.93    0.11
   1  -3  -1    2.82    0.25
   0   3   2    0.04    0.08
   0   3   2   -0.01    0.04
   0  -3  -2   -0.01    0.05
   0  -3  -2    0.04    0.04
   1   3   3    0.28    0.12
   1   3   3    0.10    0.07
  -1  -3  -3    0.04    0.06
  -1  -3  -3    0.07    0.08
   2   3   4    3.19    0.31
  -2  -3  -4    3.02    0.27
  -2  -3  -4    2.87    0.24
  -2  -3  -4    3.00    0.26
   3   3   5    1.41    0.27
  -3  -3  -5    1.66    0.22
  -3  -3  -5    2.27    0.27
  -3  -3  -5    1.38    0.20
   4   3   6    0.22    0.16
  -4  -3  -6    0.01    0.08
  -4  -3  -6   -0.03    0.08
  -4  -3  -6    0.11    0.12
   5   3   7    0.26    0.18
  -5  -3  -7    0.68    0.19
  -5  -3  -7    0.17    0.14
  -5  -3  -7    0.46    0.21
   6   3   8    4.65    0.56
  -6  -3  -8    2.71    0.41
  -6  -3  -8    2.43    0.44
   7   3   9    0.21    0.25
  -7  -3  -9    0.26    0.27
  -7  -3  -9    0.84    0.34
  -7   2  -5    0.16    0.23
  -7   2  -5   -0.04    0.16
  -6   2  -4    1.80    0.39
  -6   2  -4    0.80    0.31
  -5   2  -3   25.93    1.13
  -5   2  -3   26.47    0.90
  -5   2  -3   28.90    1.27
  -4   2  -2   20.24    0.86
  -4   2  -2   18.77    0.92
  -4   2  -2   19.92    0.67
  -3   2  -1    0.00    0.08
  -3   2  -1    0.09    0.06
  -3   2  -1    0.19    0.11
   3  -2   1    0.12    0.06
  -2   2   0   -0.02    0.06
  -2   2   0    0.04    0.07
  -2   2   0    0.02    0.04
   2  -2   0    0.09    0.06
  -1   2   1 1000.00   15.42
  -1   2   1  906.29   15.82
   1  -2  -1  818.51   15.14
   1  -2  -1  997.96   15.70
   0   2   2  104.77    2.12
   0  -2  -2  105.29    1.91
   0  -2  -2  106.78    2.12
   1   2   3    0.62    0.14
  -1  -2  -3    0.56    0.12
  -1  -2  -3    0.46    0.11
  -1  -2  -3    0.71    0.09
   2   2   4   36.99    1.10
  -2  -2  -4   37.56    1.02
  -2  -2  -4   38.41    0.99
  -2  -2  -4   37.99    0.99
   3   2   5   46.00    1.40
  -3  -2  -5   47.11    1.31
  -3  -2  -5   46.12    1.18
  -3  -2  -5   46.32    1.28
   4   2   6    1.71    0.35
  -4  -2  -6    2.51    0.31
  -4  -2  -6    1.81    0.27
  -4  -2  -6    2.36    0.23
   5   2   7    0.10    0.14
  -5  -2  -7    0.22    0.16
  -5  -2  -7    0.26    0.16
   6   2   8    0.44    0.24
  -6  -2  -8    0.70    0.27
  -6  -2  -8    0.19    0.18
   7   2   9    3.72    0.58
  -7  -2  -9    4.52    0.57
  -7  -2  -9    4.07    0.57
  -8   1  -6    1.37    0.49
  -8   1  -6    2.03    0.51
   8  -1   6    1.12    0.40
  -7   1  -5   -0.16    0.16
  -7   1  -5   -0.13    0.17
  -7   1  -5    0.03    0.22
   7  -1   5   -0.04    0.19
  -6   1  -4    7.82    0.54
  -6   1  -4    7.13    0.68
  -6   1  -4    8.67    0.68
  -5   1  -3   -0.03    0.13
  -5   1  -3    0.21    0.15
  -5   1  -3    0.05    0.10
  -4   1  -2    0.11    0.10
  -4   1  -2    0.04    0.07
  -4   1  -2    0.12    0.13
  -3   1  -1    3.22    0.23
  -3   1  -1    3.60    0.29
  -3   1  -1    3.16    0.31
  -2   1   0    0.13    0.08
  -2   1   0    0.25    0.11
  -2   1   0    0.14    0.06
  -1   1   1  189.45    3.45
  -1   1   1  193.31    3.25
  -1   1   1  190.18    3.30
   1  -1  -1  193.07    3.42
   0   1   2   63.09    1.22
   0  -1  -2   62.60    1.20
   0  -1  -2   62.80    1.27
   1   1   3   92.46    1.82
  -1  -1  -3   91.29    1.77
  -1  -1  -3   91.92    1.75
  -1  -1  -3   90.97    1.73
   2   1   4    4.51    0.31
  -2  -1  -4    4.18    0.28
  -2  -1  -4    4.23    0.29
  -2  -1  -4    4.00    0.21
  -2  -1  -4    4.13    0.28
   3   1   5    7.27    0.48
  -3  -1  -5    8.12    0.44
  -3  -1  -5    8.32    0.51
  -3  -1  -5    7.97    0.33
   4   1   6   24.04    1.04
  -4  -1  -6   23.68    0.96
  -4  -1  -6   25.54    0.94
  -4  -1  -6   24.05    1.05
   5   1   7    0.01    0.12
  -5  -1  -7   -0.01    0.11
  -5  -1  -7    0.02    0.11
  -5  -1  -7   -0.04    0.12
   6   1   8    2.47    0.50
  -6  -1  -8    2.61    0.48
  -6  -1  -8    2.60    0.43
  -6  -1  -8    3.35    0.58
   7   1   9    7.76    0.80
  -7  -1  -9    6.85    0.74
  -7  -1  -9    5.84    0.67
  -7  -1  -9    6.39    0.62
  -8   0  -6    0.09    0.25
  -8   0  -6   -0.06    0.18
  -8   0  -6    0.27    0.21
   8   0   6   -0.09    0.24
  -7   0  -5   -0.06    0.16
  -7   0  -5   -0.09    0.22
  -7   0  -5   -0.07    0.18
   7   0   5   -0.03    0.18
  -6   0  -4   -0.06    0.14
  -6   0  -4    0.05    0.13
  -6   0  -4    0.03    0.13
   6   0   4    0.05    0.13
  -5   0  -3    1.41    0.27
  -5   0  -3    1.14    0.29
  -5   0  -3    0.73    0.23
   5   0   3    0.65    0.24
  -4   0  -2    2.69    0.32
  -4   0  -2    2.23    0.24
  -4   0  -2    2.06    0.27
  -3   0  -1    2.87    0.28
  -3   0  -1    2.85    0.24
  -3   0  -1    2.86    0.26
  -2   0   0   37.80    0.89
  -2   0   0   38.20    0.95
  -2   0   0   37.30    0.97
  -1   0   1  113.91    2.07
  -1   0   1  115.85    2.07
  -1   0   1  113.53    2.05
   0   0  -2   39.11    0.81
   0   0  -2   38.46    0.82
  -1   0  -3   28.70    0.58
  -1   0  -3   27.88    0.73
  -1   0  -3   28.32    0.70
  -1   0  -3   28.21    0.72
  -2   0  -4   94.43    2.05
  -2   0  -4   97.84    1.69
  -2   0  -4   97.77    2.10
  -2   0  -4   97.50    1.97
  -3   0  -5   46.09    1.37
  -3   0  -5   45.62    1.33
  -3   0  -5   46.08    1.21
  -4   0  -6    0.27    0.16
  -4   0  -6    0.05    0.10
  -4   0  -6    0.09    0.10
   5   0   7    2.29    0.44
  -5   0  -7    1.45    0.35
  -5   0  -7    2.27    0.41
  -5   0  -7    2.30    0.32
   6   0   8    3.27    0.48
  -6   0  -8    4.16    0.55
  -6   0  -8    2.99    0.41
  -6   0  -8    2.79    0.42
   7   0   9    6.80    0.79
  -7   0  -9    6.66    0.71
  -7   0  -9    5.36    0.69
  -7   0  -9    7.07    0.63
  -8  -1  -6    0.86    0.35
  -8  -1  -6    0.53    0.30
  -8  -1  -6    0.12    0.25
   8   1   6    0.48    0.31
  -7  -1  -5   11.02    0.84
  -7  -1  -5   10.91    0.76
  -7  -1  -5   11.11    0.89
   7   1   5   12.60    0.95
  -6  -1  -4    1.26    0.32
  -6  -1  -4    1.04    0.27
  -6  -1  -4    0.78    0.30
   6   1   4    1.09    0.33
  -5  -1  -3    5.06    0.49
  -5  -1  -3    5.90    0.45
  -5  -1  -3    6.37    0.52
   5   1   3    4.99    0.49
  -4  -1  -2   43.28    1.33
  -4  -1  -2   40.64    1.33
  -4  -1  -2   40.45    1.21
   4   1   2   38.35    1.31
  -3  -1  -1    2.71    0.26
  -3  -1  -1    2.72    0.24
  -3  -1  -1    2.34    0.25
   3   1   1    2.73    0.27
  -2  -1   0   91.83    1.90
  -2  -1   0   91.67    1.85
   2   1   0   91.16    1.91
  -1  -1   1    3.30    0.19
   1   1  -1    3.13    0.18
   1   1  -1    2.67    0.20
   0  -1   2   61.51    1.20
   0   1  -2   61.12    1.23
   0   1  -2   62.33    1.21
   0   1  -2   62.18    1.33
  -1   1  -3  133.55    2.57
  -1   1  -3  130.29    2.60
  -1   1  -3  134.03    2.40
  -2   1  -4   17.83    0.69
  -2   1  -4   18.37    0.58
  -2   1  -4   19.16    0.72
  -3   1  -5    0.66    0.15
  -3   1  -5    0.91    0.22
  -3   1  -5    0.56    0.18
  -4   1  -6   15.00    0.83
  -4   1  -6   14.95    0.65
  -4   1  -6   14.24    0.78
  -5   1  -7    0.00    0.13
  -5   1  -7    0.40    0.16
  -5   1  -7    0.20    0.19
  -6   1  -8    3.46    0.60
  -6   1  -8    3.01    0.54
  -6   1  -8    3.96    0.43
   7  -1   9    0.31    0.30
  -7   1  -9    0.15    0.22
  -7   1  -9    0.03    0.26
  -8  -2  -6    0.28    0.25
  -8  -2  -6    0.56    0.28
   8   2   6   -0.15    0.20
  -7  -2  -5    2.35    0.46
  -7  -2  -5    2.40    0.48
   7   2   5    3.38    0.60
  -6  -2  -4    6.26    0.57
  -6  -2  -4    5.39    0.51
   6   2   4    6.20    0.60
  -5  -2  -3   22.02    1.01
  -5  -2  -3   23.84    0.98
   5   2   3   23.98    1.09
  -4  -2  -2    1.77    0.24
  -4  -2  -2    1.38    0.26
   4   2   2    1.05    0.25
  -3  -2  -1   53.38    1.37
   3   2   1   51.67    1.44
  -2  -2   0    4.73    0.30
   2   2   0    5.21    0.33
   2   2   0    5.45    0.36
  -1  -2   1  213.10    4.00
  -1  -2   1  219.17    3.85
   1   2  -1  220.05    4.06
   1   2  -1  218.12    4.01
   0  -2   2    2.43    0.19
   0  -2   2    2.48    0.16
   0   2  -2    2.57    0.24
   0   2  -2    2.75    0.17
   0   2  -2    2.69    0.22
   1  -2   3    6.92    0.29
  -1   2  -3    6.98    0.28
  -1   2  -3    6.36    0.38
  -2   2  -4   29.82    0.75
  -2   2  -4   28.80    1.01
  -2   2  -4   28.33    1.00
  -3   2  -5    4.11    0.29
  -3   2  -5    3.89    0.40
  -3   2  -5    4.29    0.40
  -4   2  -6   15.43    0.64
  -4   2  -6   16.25    0.90
  -4   2  -6   17.54    0.90
  -5   2  -7    6.31    0.61
  -5   2  -7    6.76    0.64
  -6   2  -8    7.76    0.79
  -6   2  -8    6.22    0.66
  -7   2  -9    3.50    0.67
  -7   2  -9    2.83    0.65
  -8  -3  -6    0.65    0.36
  -8  -3  -6    0.75    0.32
   8   3   6    0.87    0.41
  -7  -3  -5   -0.11    0.17
  -7  -3  -5    0.32    0.22
   7   3   5    0.30    0.24
  -6  -3  -4   36.61    1.42
  -6  -3  -4   37.86    1.50
   6   3   4   37.06    1.56
  -5  -3  -3   33.21    1.25
  -5  -3  -3   37.02    1.35
   5   3   3   33.72    1.36
  -4  -3  -2    5.70    0.44
  -4  -3  -2    5.47    0.45
   4   3   2    4.43    0.43
   4   3   2    5.32    0.47
  -3  -3  -1    0.59    0.17
  -3  -3  -1    0.47    0.16
   3   3   1    0.43    0.16
   3   3   1    0.85    0.22
  -2  -3   0   14.73    0.58
  -2  -3   0   16.05    0.67
   2   3   0   14.18    0.65
   2   3   0   14.93    0.67
  -1  -3   1    3.11    0.22
  -1  -3   1    3.02    0.27
   1   3  -1    3.31    0.29
   1   3  -1    3.07    0.28
   0  -3   2    3.14    0.20
   0  -3   2    3.33    0.26
   0   3  -2    3.50    0.30
   0   3  -2    3.01    0.29
   0   3  -2    3.21    0.20
   1  -3   3    2.99    0.23
  -1   3  -3    3.16    0.19
  -1   3  -3    2.74    0.28
  -1   3  -3    3.40    0.33
   2  -3   4    1.47    0.16
  -2   3  -4    1.84    0.32
  -2   3  -4    1.39    0.28
  -2   3  -4    1.15    0.13
  -3   3  -5    2.04    0.19
  -3   3  -5    2.20    0.33
  -3   3  -5    2.11    0.37
  -4   3  -6    9.47    0.70
  -4   3  -6    8.86    0.70
  -5   3  -7    1.07    0.35
  -5   3  -7    0.57    0.28
  -6   3  -8    2.01    0.52
  -6   3  -8    1.17    0.40
  -7  -4  -5    0.23    0.21
  -7  -4  -5    0.15    0.19
   7   4   5    0.04    0.19
   7   4   5    0.26    0.22
  -6  -4  -4    3.80    0.46
  -6  -4  -4    3.52    0.47
   6   4   4    2.92    0.52
   6   4   4    3.58    0.51
  -5  -4  -3   30.05    1.22
  -5  -4  -3   31.07    1.28
   5   4   3   31.39    1.34
   5   4   3   32.42    1.37
  -4  -4  -2   19.41    0.90
  -4  -4  -2   20.12    0.88
   4   4   2   18.74    0.95
   4   4   2   20.48    0.99
  -3  -4  -1   10.54    0.57
  -3  -4  -1   10.64    0.62
   3   4   1   10.17    0.64
   3   4   1   10.28    0.64
  -2  -4   0   15.13    0.72
  -2  -4   0   16.52    0.65
   2   4   0   15.37    0.75
   2   4   0   15.49    0.75
  -1  -4   1   19.98    0.65
  -1  -4   1   18.35    0.78
   1   4  -1   18.57    0.82
   1   4  -1   18.36    0.80
   0  -4   2    2.80    0.20
   0  -4   2    2.72    0.28
   0   4  -2    2.54    0.31
   0   4  -2    2.62    0.19
   0   4  -2    2.54    0.32
   1  -4   3    0.06    0.09
  -1   4  -3    0.21    0.13
  -1   4  -3   -0.03    0.09
  -1   4  -3    0.14    0.06
   2  -4   4    4.25    0.31
  -2   4  -4    3.83    0.41
  -2   4  -4    4.84    0.47
  -3   4  -5    3.15    0.42
  -3   4  -5    2.72    0.39
  -4   4  -6    5.12    0.55
  -4   4  -6    5.51    0.61
  -5   4  -7    1.61    0.41
  -5   4  -7    1.09    0.36
  -6   4  -8    0.60    0.36
  -6   4  -8    0.16    0.26
  -7  -5  -5    7.10    0.73
  -7  -5  -5    7.83    0.74
   7   5   5    9.06    0.85
   7   5   5    7.78    0.82
  -6  -5  -4    0.09    0.19
  -6  -5  -4    0.14    0.18
   6   5   4   -0.12    0.15
   6   5   4    0.04    0.23
  -5  -5  -3    7.40    0.62
  -5  -5  -3    6.56    0.57
   5   5   3    6.89    0.65
   5   5   3    6.79    0.65
  -4  -5  -2    9.85    0.68
  -4  -5  -2    8.52    0.59
   4   5   2   10.76    0.76
   4   5   2    9.34    0.70
  -3  -5  -1    2.83    0.35
  -3  -5  -1    2.67    0.31
   3   5   1    2.64    0.38
   3   5   1    2.53    0.37
  -2  -5   0   32.13    1.21
  -2  -5   0   33.42    1.04
   2   5   0   32.76    1.21
   2   5   0   31.97    1.25
  -1  -5   1    8.80    0.44
  -1  -5   1    8.92    0.58
   1   5  -1    9.48    0.61
   1   5  -1    9.67    0.64
   0  -5   2    6.55    0.48
   0   5  -2    6.55    0.54
   0   5  -2    7.48    0.57
   1  -5   3    6.67    0.47
  -1   5  -3    7.49    0.60
  -1   5  -3    5.76    0.52
  -2   5  -4    0.25    0.17
  -2   5  -4   -0.04    0.13
  -3   5  -5   20.25    1.12
  -3   5  -5   21.74    1.13
  -4   5  -6    3.59    0.64
  -4   5  -6    3.36    0.57
  -5   5  -7    0.51    0.33
  -5   5  -7    0.50    0.30
  -6  -6  -4   -0.10    0.20
  -6  -6  -4    0.01    0.19
   6   6   4    0.02    0.21
   6   6   4    0.20    0.24
  -5  -6  -3    4.03    0.47
   5   6   3    4.25    0.57
   5   6   3    2.58    0.51
  -4  -6  -2   -0.08    0.15
  -4  -6  -2    0.02    0.12
   4   6   2   -0.09    0.16
   4   6   2    0.06    0.17
  -3  -6  -1    0.76    0.22
  -3  -6  -1    1.06    0.30
   3   6   1    1.05    0.32
   3   6   1    1.29    0.33
  -2  -6   0    0.22    0.16
   2   6   0   -0.10    0.11
   2   6   0    0.21    0.17
  -1  -6   1    3.64    0.41
   1   6  -1    3.30    0.43
   1   6  -1    3.74    0.45
   0  -6   2    0.52    0.20
   0   6  -2    0.54    0.24
   0   6  -2    0.68    0.23
   1  -6   3    3.87    0.40
  -1   6  -3    4.19    0.50
  -1   6  -3    3.42    0.46
  -2   6  -4   15.95    0.95
  -2   6  -4   13.75    0.94
  -3   6  -5    0.05    0.18
  -3   6  -5    0.11    0.18
  -4   6  -6    0.83    0.35
  -4   6  -6    1.83    0.50
  -6  -7  -4    0.23    0.23
   6   7   4    0.37    0.33
   6   7   4    0.19    0.26
  -5  -7  -3    1.93    0.41
   5   7   3    2.42    0.55
   5   7   3    2.74    0.58
  -4  -7  -2   -0.15    0.15
  -4  -7  -2   -0.16    0.14
   4   7   2   -0.21    0.18
   4   7   2    0.23    0.20
  -3  -7  -1    2.30    0.44
   3   7   1    1.92    0.45
   3   7   1    2.01    0.44
  -2  -7   0    0.50    0.24
   2   7   0    1.20    0.35
   2   7   0    0.76    0.29
  -1  -7   1    1.70    0.37
   1   7  -1    2.35    0.48
   1   7  -1    2.22    0.45
   0  -7   2   -0.02    0.14
   0   7  -2    0.06    0.21
   0   7  -2    0.02    0.18
  -1   7  -3    3.04    0.46
  -1   7  -3    3.07    0.48
  -2   7  -4    3.41    0.52
  -2   7  -4    3.08    0.61
  -3   7  -5    2.96    0.60
  -3   7  -5    3.45    0.63
  -4  -8  -2    1.83    0.45
   4   8   2    3.28    0.62
   4   8   2    1.11    0.44
  -3  -8  -1    0.96    0.33
   3   8   1    1.62    0.46
   3   8   1    1.68    0.46
  -2  -8   0    0.02    0.17
   2   8   0    0.02    0.20
   2   8   0   -0.20    0.18
  -1  -8   1    3.49    0.49
   1   8  -1    3.98    0.59
   1   8  -1    3.12    0.56
   0  -8   2   -0.03    0.19
   0   8  -2    0.28    0.25
   0   8  -2    0.07    0.22
  -1   8  -3    2.03    0.49
  -1   8  -3    1.03    0.41
  -2   8  -4   10.40    0.95
  -2   8  -4    7.87    0.80
  -1   9   2    1.94    0.55
   1  -9  -2    3.04    0.59
   0   9   3    1.55    0.48
   0  -9  -3    0.88    0.37
   1   9   4    0.51    0.33
  -1  -9  -4    1.05    0.38
   2   9   5    6.31    0.76
  -2  -9  -5    5.18    0.65
   3   9   6    0.47    0.32
  -3   8   0   -0.04    0.27
  -2   8   1    1.44    0.44
  -1   8   2    3.38    0.64
   1  -8  -2    2.34    0.45
   0   8   3    3.39    0.61
   0  -8  -3    3.76    0.50
   1   8   4    0.91    0.33
  -1  -8  -4    0.51    0.24
   2   8   5    0.16    0.22
  -2  -8  -5   -0.04    0.19
   3   8   6   31.70    1.59
  -3  -8  -6   27.53    1.43
   4   8   7    0.29    0.30
  -4  -8  -7    0.69    0.33
  -4   7  -1    4.35    0.65
  -3   7   0    1.48    0.44
  -2   7   1    0.02    0.19
   2  -7  -1    0.22    0.19
  -1   7   2    2.20    0.47
   1  -7  -2    2.00    0.39
   0   7   3    0.17    0.19
   0  -7  -3    0.10    0.16
   1   7   4   24.92    1.26
  -1  -7  -4   21.81    1.14
   2   7   5    4.45    0.56
  -2  -7  -5    5.05    0.54
   3   7   6    1.32    0.39
  -3  -7  -6    1.53    0.38
  -3  -7  -6    1.42    0.34
   4   7   7    0.14    0.23
  -4  -7  -7    0.45    0.22
  -4  -7  -7    0.12    0.19
   5   7   8    4.69    0.71
  -5  -7  -8    4.41    0.54
  -5  -7  -8    4.35    0.58
  -5   6  -2    0.27    0.26
  -4   6  -1    1.99    0.47
  -3   6   0    0.04    0.20
  -2   6   1    5.41    0.57
   2  -6  -1    5.53    0.48
  -1   6   2   16.59    0.98
   1  -6  -2   17.88    0.89
   0   6   3    2.46    0.37
   0  -6  -3    2.06    0.31
   1   6   4    7.08    0.62
  -1  -6  -4    7.68    0.58
   2   6   5    0.11    0.13
   2   6   5    0.07    0.15
  -2  -6  -5    0.17    0.17
  -2  -6  -5    0.07    0.11
   3   6   6    9.58    0.77
   3   6   6    8.82    0.59
  -3  -6  -6    9.91    0.62
  -3  -6  -6   10.55    0.73
   4   6   7   32.14    1.30
   4   6   7   31.53    1.50
  -4  -6  -7   32.23    1.36
  -4  -6  -7   33.40    1.30
   5   6   8    1.22    0.40
   5   6   8    0.96    0.32
  -5  -6  -8    0.22    0.24
  -5  -6  -8    0.83    0.28
   6   6   9    5.15    0.64
   6   6   9    4.68    0.78
  -6  -6  -9    4.80    0.58
  -6  -6  -9    5.23    0.56
  -6   5  -3    0.09    0.24
  -6   5  -3   -0.03    0.21
  -5   5  -2    0.78    0.29
  -5   5  -2    1.36    0.42
  -4   5  -1   10.10    0.81
  -4   5  -1   10.62    0.67
  -3   5   0    0.75    0.27
  -3   5   0    0.75    0.21
   3  -5   0    1.20    0.25
  -2   5   1    2.64    0.28
  -2   5   1    2.33    0.36
   2  -5  -1    2.76    0.32
  -1   5   2    1.14    0.28
  -1   5   2    1.83    0.21
   1  -5  -2    1.39    0.27
   0   5   3   14.58    0.58
   0  -5  -3   13.15    0.70
   1   5   4    0.30    0.16
   1   5   4    0.19    0.10
  -1  -5  -4    0.56    0.19
  -1  -5  -4    0.32    0.12
   2   5   5    6.36    0.42
   2   5   5    6.09    0.53
  -2  -5  -5    6.24    0.44
  -2  -5  -5    6.71    0.52
   3   5   6   13.93    0.86
   3   5   6   15.24    0.73
  -3  -5  -6   14.81    0.80
  -3  -5  -6   16.01    0.77
  -3  -5  -6   13.47    0.65
   4   5   7    0.34    0.22
   4   5   7   -0.01    0.12
  -4  -5  -7    0.11    0.14
  -4  -5  -7    0.20    0.15
  -4  -5  -7    0.06    0.12
   5   5   8    0.00    0.18
  -5  -5  -8    0.06    0.15
  -5  -5  -8    0.01    0.12
  -5  -5  -8    0.03    0.17
   6   5   9    0.05    0.20
  -6  -5  -9    0.03    0.18
  -6  -5  -9    0.11    0.18
   7   5  10    4.53    0.67
  -7  -5 -10    3.93    0.58
  -7  -5 -10    5.19    0.62
  -7   4  -4    0.13    0.26
  -7   4  -4    0.31    0.29
  -6   4  -3    0.12    0.22
  -6   4  -3    0.09    0.22
  -5   4  -2   32.72    1.33
  -5   4  -2   34.83    1.57
  -4   4  -1    2.94    0.42
  -4   4  -1    2.82    0.34
  -3   4   0    3.95    0.35
  -3   4   0    3.98    0.43
   3  -4   0    3.74    0.33
  -2   4   1   82.14    2.20
  -2   4   1   83.47    1.88
   2  -4  -1   85.09    2.02
  -1   4   2  152.37    2.94
  -1   4   2  154.06    3.39
   1  -4  -2  155.74    2.66
   1  -4  -2  155.66    3.25
   0   4   3    0.43    0.16
   0   4   3    0.70    0.13
   0  -4  -3    0.62    0.12
   0  -4  -3    0.40    0.14
   1   4   4   11.13    0.61
   1   4   4   10.42    0.44
  -1  -4  -4   10.52    0.46
  -1  -4  -4    9.38    0.54
   2   4   5   32.46    0.97
  -2  -4  -5   31.85    1.02
  -2  -4  -5   32.95    0.93
  -2  -4  -5   32.54    1.11
   3   4   6   40.66    1.42
  -3  -4  -6   40.22    1.30
  -3  -4  -6   38.60    1.27
  -3  -4  -6   40.65    1.19
   4   4   7    9.21    0.69
  -4  -4  -7   11.33    0.65
  -4  -4  -7   10.09    0.60
  -4  -4  -7   11.07    0.68
   5   4   8    3.72    0.48
  -5  -4  -8    4.17    0.44
  -5  -4  -8    4.16    0.46
  -5  -4  -8    3.97    0.40
   6   4   9    4.90    0.60
  -6  -4  -9    5.78    0.58
  -6  -4  -9    5.62    0.58
   7   4  10    0.11    0.26
  -7  -4 -10    0.19    0.27
  -7  -4 -10   -0.01    0.22
  -7   3  -4    0.83    0.37
  -7   3  -4    0.25    0.24
  -6   3  -3   -0.13    0.15
  -6   3  -3    0.30    0.23
  -5   3  -2    3.26    0.41
  -5   3  -2    3.28    0.46
  -4   3  -1    0.62    0.19
  -4   3  -1    0.61    0.23
  -3   3   0    3.41    0.37
  -3   3   0    4.09    0.22
  -3   3   0    3.84    0.32
   3  -3   0    3.51    0.29
  -2   3   1  107.37    2.16
  -2   3   1  106.11    2.45
   2  -3  -1  104.71    1.91
   2  -3  -1  104.51    2.28
  -1   3   2   48.91    1.36
  -1   3   2   48.72    1.07
   1  -3  -2   49.77    1.30
   1  -3  -2   49.94    0.99
   0   3   3    0.50    0.14
   0   3   3    0.95    0.10
   0  -3  -3    0.52    0.14
   0  -3  -3    0.85    0.12
   1   3   4    0.13    0.09
   1   3   4    0.28    0.08
  -1  -3  -4    0.19    0.07
  -1  -3  -4    0.17    0.08
  -1  -3  -4    0.16    0.09
   2   3   5   35.55    1.14
  -2  -3  -5   33.99    0.94
  -2  -3  -5   35.12    1.05
  -2  -3  -5   34.08    1.03
   3   3   6    0.11    0.10
  -3  -3  -6    0.23    0.11
  -3  -3  -6    0.18    0.10
  -3  -3  -6    0.26    0.12
   4   3   7    3.09    0.39
  -4  -3  -7    2.14    0.30
  -4  -3  -7    3.32    0.35
  -4  -3  -7    3.23    0.31
   5   3   8   12.89    0.85
  -5  -3  -8   11.69    0.75
  -5  -3  -8   11.52    0.73
   6   3   9    0.34    0.26
  -6  -3  -9    0.55    0.23
  -6  -3  -9    0.34    0.24
   7   3  10    3.06    0.60
  -7  -3 -10    2.31    0.51
  -7  -3 -10    2.79    0.52
  -7   2  -4    1.40    0.43
  -7   2  -4    2.66    0.51
  -6   2  -3    0.23    0.22
  -6   2  -3    0.67    0.27
  -5   2  -2    8.05    0.65
  -5   2  -2    8.81    0.61
  -5   2  -2    8.07    0.48
  -4   2  -1    0.03    0.11
  -4   2  -1    0.08    0.10
  -4   2  -1   -0.07    0.06
   4  -2   1    0.04    0.07
  -3   2   0   21.56    0.63
  -3   2   0   21.03    0.88
  -3   2   0   20.52    0.76
   3  -2   0   22.15    0.72
  -2   2   1    9.64    0.49
  -2   2   1   11.18    0.43
  -2   2   1   10.81    0.36
   2  -2  -1   10.78    0.46
  -1   2   2   32.97    0.92
  -1   2   2   33.52    0.71
   1  -2  -2   32.28    0.90
   1  -2  -2   34.48    0.77
   0   2   3    0.08    0.07
   0  -2  -3    0.25    0.08
   0  -2  -3    0.16    0.08
   1   2   4   21.32    0.68
  -1  -2  -4   20.78    0.67
  -1  -2  -4   20.46    0.64
  -1  -2  -4   21.15    0.54
   2   2   5  100.13    2.21
  -2  -2  -5  101.32    2.14
  -2  -2  -5   97.34    2.05
  -2  -2  -5   96.70    2.03
   3   2   6    0.00    0.08
  -3  -2  -6   -0.03    0.07
  -3  -2  -6    0.01    0.07
  -3  -2  -6    0.04    0.06
   4   2   7    3.65    0.41
  -4  -2  -7    5.00    0.32
  -4  -2  -7    4.87    0.42
  -4  -2  -7    4.44    0.41
   5   2   8    0.47    0.22
  -5  -2  -8    1.17    0.30
  -5  -2  -8    0.90    0.24
   6   2   9    5.90    0.65
  -6  -2  -9    6.90    0.64
  -6  -2  -9    6.26    0.58
   7   2  10    0.41    0.31
  -7  -2 -10   -0.01    0.20
  -7  -2 -10   -0.14    0.17
  -8   1  -5   -0.20    0.26
  -8   1  -5    0.11    0.24
   8  -1   5   -0.02    0.21
  -7   1  -4    2.18    0.45
  -7   1  -4    3.08    0.41
  -7   1  -4    2.68    0.56
   7  -1   4    2.40    0.52
  -6   1  -3   -0.01    0.15
  -6   1  -3    0.10    0.16
  -6   1  -3    0.07    0.13
  -5   1  -2    2.14    0.33
  -5   1  -2    2.18    0.27
  -5   1  -2    1.73    0.37
  -4   1  -1   15.52    0.62
  -4   1  -1   14.18    0.68
  -4   1  -1   13.96    0.74
  -3   1   0   45.48    1.21
  -3   1   0   44.39    1.29
  -3   1   0   44.80    1.10
  -2   1   1    7.89    0.36
  -2   1   1    8.24    0.41
  -2   1   1    8.49    0.34
  -1   1   2  217.81    3.75
  -1   1   2  211.19    3.85
  -1   1   2  220.08    3.71
   1  -1  -2  220.27    3.77
   0   1   3  115.26    2.10
   0  -1  -3  117.26    2.16
   0  -1  -3  115.76    2.22
   0  -1  -3  115.59    2.00
   1   1   4   26.32    0.72
  -1  -1  -4   26.90    0.68
  -1  -1  -4   27.08    0.74
  -1  -1  -4   26.50    0.68
   2   1   5   87.06    1.96
  -2  -1  -5   88.48    1.72
  -2  -1  -5   86.56    1.93
  -2  -1  -5   87.32    1.89
  -2  -1  -5   86.63    1.89
   3   1   6   23.96    0.93
  -3  -1  -6   22.70    0.83
  -3  -1  -6   23.39    0.64
  -3  -1  -6   23.63    0.87
  -3  -1  -6   24.20    0.93
   4   1   7    9.04    0.63
  -4  -1  -7    7.80    0.36
  -4  -1  -7    9.01    0.54
  -4  -1  -7    9.11    0.59
  -4  -1  -7    7.78    0.58
   5   1   8    6.30    0.60
  -5  -1  -8    6.52    0.52
  -5  -1  -8    5.46    0.57
  -5  -1  -8    6.71    0.56
   6   1   9    0.08    0.20
  -6  -1  -9    0.03    0.16
  -6  -1  -9    0.10    0.16
  -6  -1  -9    0.34    0.22
   7   1  10    0.89    0.38
  -7  -1 -10    1.25    0.34
  -7  -1 -10    1.77    0.48
  -7  -1 -10    0.76    0.34
  -8   0  -5    0.03    0.22
  -8   0  -5    0.17    0.20
  -8   0  -5    0.11    0.25
   8   0   5    0.07    0.23
  -7   0  -4    2.85    0.57
  -7   0  -4    1.20    0.31
  -7   0  -4    1.05    0.34
   7   0   4    1.79    0.46
  -6   0  -3   29.72    1.38
  -6   0  -3   34.16    1.36
  -6   0  -3   31.15    1.19
   6   0   3   33.09    1.43
  -5   0  -2   16.86    0.90
  -5   0  -2   16.81    0.75
  -5   0  -2   15.82    0.82
   5   0   2   14.24    0.84
  -4   0  -1    1.26    0.25
  -4   0  -1    1.64    0.30
  -4   0  -1    1.62    0.22
  -3   0   0    0.38    0.12
  -3   0   0    0.19    0.10
  -3   0   0    0.35    0.12
  -2   0   1  222.17    4.04
  -2   0   1  221.61    4.02
  -1   0   2    3.30    0.15
  -1   0   2    3.22    0.18
  -1   0   2    3.47    0.20
   1   0  -2    3.28    0.15
   1   0  -2    3.40    0.20
   0   0  -3   71.33    1.45
   0   0  -3   71.54    1.43
   0   0  -3   70.71    1.26
  -1   0  -4   71.02    1.55
  -1   0  -4   71.72    1.51
  -1   0  -4   72.55    1.39
  -1   0  -4   73.60    1.50
  -2   0  -5    1.91    0.22
  -2   0  -5    2.28    0.21
  -2   0  -5    2.09    0.12
  -2   0  -5    1.58    0.20
  -3   0  -6   78.83    2.01
  -3   0  -6   79.10    1.99
  -3   0  -6   79.41    1.85
  -4   0  -7    0.04    0.10
  -4   0  -7    0.06    0.11
  -4   0  -7   -0.06    0.08
   5   0   8    5.63    0.57
  -5   0  -8    5.87    0.49
  -5   0  -8    5.06    0.55
  -5   0  -8    6.33    0.57
   6   0   9   15.07    1.03
  -6   0  -9   17.38    0.90
  -6   0  -9   16.98    1.09
  -6   0  -9   17.36    1.05
   7   0  10    0.03    0.22
  -7   0 -10    0.05    0.20
  -7   0 -10   -0.04    0.22
  -7   0 -10   -0.06    0.21
  -8  -1  -5    0.08    0.22
  -8  -1  -5   -0.04    0.20
  -8  -1  -5   -0.15    0.20
   8   1   5    0.01    0.23
  -7  -1  -4    0.63    0.28
  -7  -1  -4    0.52    0.28
  -7  -1  -4    0.43    0.25
   7   1   4    0.54    0.27
  -6  -1  -3    0.76    0.28
  -6  -1  -3    1.05    0.32
  -6  -1  -3    0.77    0.25
   6   1   3    1.22    0.33
  -5  -1  -2   16.98    0.90
  -5  -1  -2   19.19    0.84
  -5  -1  -2   18.44    0.90
   5   1   2   18.76    0.94
  -4  -1  -1    1.09    0.23
  -4  -1  -1    0.79    0.20
  -4  -1  -1    0.75    0.19
   4   1   1    0.72    0.20
  -3  -1   0   17.47    0.66
  -3  -1   0   18.80    0.71
  -3  -1   0   17.46    0.68
   3   1   0   17.86    0.70
  -2  -1   1    2.17    0.20
  -2  -1   1    1.74    0.18
   2   1  -1    1.74    0.20
   2   1  -1    1.77    0.17
  -1  -1   2   12.53    0.44
   1   1  -2   13.04    0.50
   1   1  -2   12.91    0.40
   0   1  -3   34.89    0.85
   0   1  -3   35.14    0.80
   0   1  -3   35.40    0.94
  -1   1  -4   11.57    0.46
  -1   1  -4   12.24    0.44
  -1   1  -4   11.39    0.52
  -2   1  -5   38.34    1.18
  -2   1  -5   39.76    1.15
  -2   1  -5   38.25    1.01
  -3   1  -6    0.41    0.15
  -3   1  -6    0.77    0.18
  -3   1  -6    0.62    0.20
  -4   1  -7    2.74    0.38
  -4   1  -7    2.58    0.37
  -4   1  -7    3.32    0.32
  -5   1  -8   -0.05    0.18
  -5   1  -8    0.01    0.13
  -5   1  -8   -0.07    0.14
  -6   1  -9    0.28    0.18
  -6   1  -9    0.22    0.26
  -6   1  -9    0.11    0.18
   7  -1  10   -0.21    0.22
  -7   1 -10    0.24    0.23
  -7   1 -10    0.05    0.23
  -8  -2  -5    0.09    0.20
  -8  -2  -5    0.17    0.21
   8   2   5    0.17    0.25
  -7  -2  -4    2.97    0.50
  -7  -2  -4    2.86    0.52
   7   2   4    2.80    0.54
  -6  -2  -3   75.40    2.15
  -6  -2  -3   75.18    2.26
   6   2   3   77.29    2.37
  -5  -2  -2    8.83    0.58
  -5  -2  -2   10.09    0.66
   5   2   2    9.81    0.67
  -4  -2  -1   24.86    0.94
  -4  -2  -1   25.16    0.98
   4   2   1   25.31    1.00
  -3  -2   0   17.22    0.72
  -3  -2   0   15.84    0.66
   3   2   0   17.30    0.71
   3   2   0   17.77    0.77
  -2  -2   1  259.75    4.74
  -2  -2   1  265.99    4.85
   2   2  -1  257.12    4.84
   2   2  -1  268.05    4.95
  -1  -2   2    7.22    0.33
   1   2  -2    5.85    0.37
   1   2  -2    6.70    0.34
   0  -2   3    0.18    0.08
   0   2  -3    0.17    0.10
   0   2  -3    0.20    0.08
   0   2  -3    0.13    0.08
  -1   2  -4   44.38    1.21
  -1   2  -4   44.93    1.04
  -1   2  -4   43.95    1.27
  -2   2  -5    0.69    0.19
  -2   2  -5    0.31    0.10
  -2   2  -5    0.83    0.22
  -3   2  -6   11.06    0.68
  -3   2  -6   13.06    0.55
  -3   2  -6   12.42    0.72
  -4   2  -7    0.57    0.22
  -4   2  -7    0.89    0.19
  -4   2  -7    1.06    0.31
  -5   2  -8    0.55    0.26
  -5   2  -8    0.99    0.33
  -6   2  -9    6.55    0.73
  -6   2  -9    4.16    0.60
  -8  -3  -5    0.30    0.26
  -8  -3  -5    0.61    0.32
   8   3   5    0.70    0.34
  -7  -3  -4    0.23    0.19
  -7  -3  -4    0.23    0.22
   7   3   4    0.19    0.22
  -6  -3  -3    1.46    0.36
  -6  -3  -3    1.20    0.33
   6   3   3    0.95    0.31
  -5  -3  -2    3.65    0.42
  -5  -3  -2    3.55    0.40
   5   3   2    3.06    0.42
   5   3   2    3.65    0.43
  -4  -3  -1   23.77    0.99
  -4  -3  -1   26.24    0.99
   4   3   1   23.50    1.05
   4   3   1   25.50    1.03
  -3  -3   0   27.44    0.95
  -3  -3   0   27.82    1.00
   3   3   0   28.49    1.07
   3   3   0   27.03    1.00
  -2  -3   1   98.84    2.12
   2   3  -1   97.99    2.33
   2   3  -1   97.05    2.23
  -1  -3   2   44.16    1.09
   1   3  -2   45.15    1.32
   1   3  -2   45.01    1.24
   0  -3   3    5.03    0.28
   0  -3   3    4.84    0.33
   0   3  -3    4.66    0.35
   0   3  -3    4.93    0.28
   0   3  -3    4.20    0.37
  -1   3  -4   16.73    0.74
  -1   3  -4   18.31    0.57
  -1   3  -4   17.56    0.80
  -2   3  -5   44.81    1.44
  -2   3  -5   46.36    1.08
  -2   3  -5   43.72    1.47
  -3   3  -6    1.94    0.38
  -3   3  -6    2.48    0.37
  -4   3  -7   28.41    1.31
  -4   3  -7   31.08    1.36
  -5   3  -8    0.83    0.31
  -5   3  -8    0.96    0.33
  -6   3  -9    3.98    0.61
  -6   3  -9    3.60    0.65
  -7  -4  -4    4.90    0.60
  -7  -4  -4    4.40    0.54
   7   4   4    6.49    0.72
   7   4   4    5.86    0.65
  -6  -4  -3    1.33    0.33
  -6  -4  -3    0.83    0.29
   6   4   3    0.58    0.27
   6   4   3    1.10    0.34
  -5  -4  -2    0.60    0.24
  -5  -4  -2    0.67    0.24
   5   4   2    0.42    0.22
   5   4   2    0.59    0.24
  -4  -4  -1    1.33    0.28
  -4  -4  -1    1.90    0.35
   4   4   1    1.68    0.35
   4   4   1    0.99    0.27
  -3  -4   0    0.09    0.08
   3   4   0    0.21    0.13
   3   4   0    0.04    0.12
  -2  -4   1   62.72    1.76
  -2  -4   1   63.42    1.59
   2   4  -1   66.32    1.82
   2   4  -1   64.93    1.78
  -1  -4   2    5.20    0.40
  -1  -4   2    4.53    0.31
   1   4  -2    5.03    0.41
   1   4  -2    3.51    0.36
   0  -4   3    0.55    0.13
   0  -4   3    0.60    0.16
   0   4  -3    0.65    0.14
   0   4  -3    0.54    0.19
   0   4  -3    0.68    0.19
   1  -4   4    2.47    0.25
  -1   4  -4    2.11    0.19
  -1   4  -4    1.97    0.36
  -1   4  -4    2.44    0.32
  -2   4  -5   14.07    0.80
  -2   4  -5   14.98    0.84
  -3   4  -6    2.26    0.42
  -3   4  -6    1.62    0.38
  -4   4  -7    1.49    0.41
  -4   4  -7    2.27    0.48
  -5   4  -8   10.62    0.88
  -5   4  -8   12.73    0.96
  -6   4  -9    0.47    0.32
  -6   4  -9    0.23    0.33
  -7  -5  -4   -0.04    0.20
  -7  -5  -4    0.13    0.18
   7   5   4   -0.10    0.19
   7   5   4   -0.04    0.22
  -6  -5  -3    3.40    0.48
  -6  -5  -3    3.32    0.46
   6   5   3    2.95    0.58
   6   5   3    3.43    0.61
  -5  -5  -2    0.04    0.15
  -5  -5  -2   -0.06    0.13
   5   5   2    0.17    0.18
   5   5   2   -0.14    0.15
  -4  -5  -1    1.53    0.31
   4   5   1    1.88    0.39
   4   5   1    1.30    0.33
  -3  -5   0    0.35    0.17
   3   5   0    0.51    0.20
   3   5   0    0.59    0.23
  -2  -5   1    0.41    0.18
  -2  -5   1    0.27    0.13
   2   5  -1    0.29    0.16
   2   5  -1    0.21    0.17
  -1  -5   2   29.79    0.91
  -1  -5   2   29.11    1.12
   1   5  -2   28.72    1.17
   1   5  -2   30.91    1.21
   0  -5   3    0.27    0.14
   0   5  -3    0.31    0.19
   0   5  -3    0.79    0.24
   1  -5   4    7.84    0.50
  -1   5  -4    8.33    0.62
  -1   5  -4    6.37    0.57
  -2   5  -5    4.02    0.49
  -2   5  -5    4.88    0.53
  -3   5  -6    1.35    0.35
  -3   5  -6    0.48    0.24
  -4   5  -7    2.66    0.53
  -4   5  -7    1.86    0.47
  -5   5  -8   -0.06    0.21
  -5   5  -8   -0.18    0.19
  -6  -6  -3    6.97    0.69
   6   6   3    5.89    0.69
   6   6   3    6.78    0.78
  -5  -6  -2    0.91    0.27
   5   6   2    1.38    0.38
   5   6   2    1.19    0.36
  -4  -6  -1    0.93    0.28
   4   6   1    1.41    0.38
   4   6   1    0.83    0.32
  -3  -6   0    8.63    0.68
  -3  -6   0    9.64    0.62
   3   6   0    8.52    0.68
   3   6   0    9.19    0.71
  -2  -6   1   26.31    1.18
   2   6  -1   25.58    1.20
   2   6  -1   28.44    1.23
  -1  -6   2    0.27    0.17
   1   6  -2    0.15    0.17
   1   6  -2    0.13    0.18
   0  -6   3    9.63    0.66
   0   6  -3   11.65    0.80
   0   6  -3   11.22    0.79
   1  -6   4    3.26    0.37
  -1   6  -4    3.98    0.49
  -1   6  -4    3.06    0.45
  -2   6  -5   13.70    0.93
  -2   6  -5   12.08    0.91
  -3   6  -6    2.73    0.56
  -3   6  -6    2.54    0.52
  -4   6  -7   -0.05    0.21
  -4   6  -7    0.38    0.30
  -6  -7  -3    0.41    0.27
   6   7   3    0.71    0.37
   6   7   3    0.60    0.36
  -5  -7  -2   -0.01    0.19
   5   7   2   -0.08    0.21
   5   7   2    0.02    0.18
  -4  -7  -1    2.31    0.49
   4   7   1    1.60    0.41
   4   7   1    2.66    0.52
  -3  -7   0   -0.15    0.14
   3   7   0    0.13    0.19
   3   7   0    0.31    0.26
  -2  -7   1    4.64    0.53
   2   7  -1    4.48    0.56
   2   7  -1    3.78    0.52
  -1  -7   2    9.50    0.72
   1   7  -2    9.96    0.80
   1   7  -2    9.76    0.79
   0  -7   3    0.23    0.18
   0   7  -3    0.95    0.35
   0   7  -3    0.10    0.23
  -1   7  -4    3.91    0.56
  -1   7  -4    4.58    0.60
  -2   7  -5    0.91    0.36
  -2   7  -5    1.12    0.40
  -3   7  -6    0.20    0.26
  -3   7  -6    0.37    0.30
   4   8   1    0.08    0.20
   4   8   1    0.41    0.24
   3   8   0    0.15    0.27
   3   8   0    0.00    0.25
  -2  -8   1    8.67    0.78
   2   8  -1    9.09    0.84
   2   8  -1    9.19    0.83
  -1  -8   2    2.81    0.51
   1   8  -2    1.80    0.48
   1   8  -2    1.85    0.47
   0  -8   3    4.06    0.54
   0   8  -3    4.02    0.58
   0   8  -3    3.64    0.66
  -1   8  -4    2.24    0.53
  -1   8  -4    2.40    0.56
  -1   9   3    0.42    0.33
   1  -9  -3    0.40    0.26
   0   9   4    1.41    0.47
   0  -9  -4    0.71    0.29
   1   9   5    1.37    0.48
  -1  -9  -5    0.90    0.38
   2   9   6    3.36    0.66
  -2  -9  -6    2.44    0.54
  -3   8   1    0.33    0.28
  -2   8   2    2.09    0.53
   2  -8  -2    1.94    0.43
  -1   8   3    0.24    0.24
   1  -8  -3    0.16    0.21
   0   8   4    0.39    0.25
   0  -8  -4    0.14    0.21
   1   8   5    0.32    0.26
  -1  -8  -5    0.52    0.26
   2   8   6    1.27    0.37
  -2  -8  -6    1.51    0.39
   3   8   7    0.25    0.26
  -3  -8  -7   -0.08    0.19
   4   8   8    0.84    0.40
  -4  -8  -8    0.84    0.35
  -4   7   0    0.40    0.32
  -3   7   1    0.08    0.20
  -2   7   2    0.73    0.31
   2  -7  -2    0.38    0.20
  -1   7   3    0.69    0.28
   1  -7  -3    1.06    0.28
   0   7   4    5.64    0.62
   0  -7  -4    7.42    0.63
   1   7   5    0.25    0.23
  -1  -7  -5    0.43    0.23
   2   7   6   10.31    0.82
  -2  -7  -6    9.12    0.74
   3   7   7    7.29    0.72
  -3  -7  -7    6.10    0.52
  -3  -7  -7    5.51    0.60
   4   7   8    2.01    0.53
  -4  -7  -8    1.90    0.42
  -4  -7  -8    1.97    0.42
   5   7   9    0.42    0.31
  -5  -7  -9    0.99    0.35
  -5  -7  -9    0.26    0.25
  -5   6  -1    7.02    0.78
  -4   6   0    3.54    0.55
  -3   6   1    0.08    0.19
   3  -6  -1    0.06    0.13
  -2   6   2   43.64    1.69
   2  -6  -2   42.90    1.48
  -1   6   3   21.72    1.12
   1  -6  -3   22.15    1.02
   0   6   4    1.88    0.38
   0  -6  -4    2.10    0.37
   1   6   5    9.28    0.70
  -1  -6  -5    7.91    0.61
   2   6   6   27.20    1.25
  -2  -6  -6   28.18    1.21
  -2  -6  -6   25.19    0.98
   3   6   7   11.63    0.84
  -3  -6  -7   11.08    0.77
  -3  -6  -7   12.08    0.71
   4   6   8    3.44    0.53
  -4  -6  -8    3.61    0.48
  -4  -6  -8    4.34    0.48
   5   6   9    0.57    0.31
  -5  -6  -9    0.13    0.19
  -5  -6  -9    0.28    0.21
   6   6  10    1.61    0.50
  -6  -6 -10    2.03    0.46
  -6   5  -2    0.73    0.36
  -6   5  -2   -0.06    0.21
  -5   5  -1    0.02    0.21
  -5   5  -1    0.09    0.17
  -4   5   0    3.29    0.40
  -4   5   0    4.10    0.52
  -3   5   1    0.07    0.11
  -3   5   1    0.44    0.21
   3  -5  -1    0.00    0.11
  -2   5   2    0.06    0.16
  -2   5   2    0.08    0.09
   2  -5  -2    0.12    0.12
  -1   5   3    3.15    0.25
  -1   5   3    4.06    0.43
   1  -5  -3    2.52    0.31
   0   5   4    0.04    0.07
   0   5   4    0.11    0.12
   0  -5  -4    0.07    0.10
   0  -5  -4    0.08    0.06
   1   5   5   25.81    0.80
   1   5   5   27.13    1.11
  -1  -5  -5   25.61    0.85
  -1  -5  -5   27.87    1.09
   2   5   6    2.94    0.37
   2   5   6    2.09    0.25
  -2  -5  -6    2.29    0.31
  -2  -5  -6    2.09    0.28
   3   5   7    7.39    0.63
   3   5   7    9.25    0.55
  -3  -5  -7    8.28    0.58
  -3  -5  -7    7.81    0.58
  -3  -5  -7    9.34    0.52
   4   5   8    1.53    0.37
  -4  -5  -8    0.94    0.28
  -4  -5  -8    1.41    0.28
  -4  -5  -8    1.41    0.31
   5   5   9    0.49    0.28
  -5  -5  -9    0.98    0.29
  -5  -5  -9    1.25    0.34
  -5  -5  -9    1.27    0.31
   6   5  10    1.52    0.45
  -6  -5 -10    2.26    0.49
  -6  -5 -10    1.35    0.36
  -7   4  -3    0.21    0.31
  -7   4  -3    0.78    0.33
  -6   4  -2    4.38    0.61
  -6   4  -2    4.17    0.52
  -5   4  -1    6.14    0.55
  -5   4  -1    7.96    0.73
  -4   4   0    0.00    0.15
  -4   4   0   -0.01    0.11
  -3   4   1    0.45    0.21
  -3   4   1    0.35    0.13
   3  -4  -1    0.32    0.14
  -2   4   2  185.99    3.47
  -2   4   2  181.79    3.95
   2  -4  -2  183.16    3.78
  -1   4   3    1.01    0.13
  -1   4   3    1.11    0.25
   1  -4  -3    0.35    0.14
   1  -4  -3    1.39    0.14
   0   4   4   25.40    0.64
   0   4   4   26.01    0.97
   0  -4  -4   23.84    0.93
   0  -4  -4   26.47    0.74
   1   4   5    5.48    0.29
   1   4   5    5.10    0.42
  -1  -4  -5    5.38    0.35
  -1  -4  -5    4.65    0.39
   2   4   6   14.16    0.58
   2   4   6   15.03    0.77
  -2  -4  -6   15.41    0.57
  -2  -4  -6   14.62    0.71
  -2  -4  -6   15.30    0.68
   3   4   7    3.37    0.39
  -3  -4  -7    3.30    0.35
  -3  -4  -7    3.06    0.33
  -3  -4  -7    3.66    0.32
   4   4   8   14.95    0.89
  -4  -4  -8   15.09    0.75
  -4  -4  -8   14.29    0.74
  -4  -4  -8   15.48    0.83
   5   4   9    9.12    0.75
  -5  -4  -9    9.48    0.61
  -5  -4  -9    9.78    0.68
  -5  -4  -9   10.30    0.74
   6   4  10    0.15    0.18
  -6  -4 -10    0.02    0.17
  -6  -4 -10    0.03    0.17
   7   4  11    1.33    0.46
  -7  -4 -11    0.65    0.31
  -7  -4 -11    0.58    0.32
  -7   3  -3    0.58    0.31
  -7   3  -3    0.72    0.35
  -6   3  -2    0.72    0.31
  -6   3  -2    0.67    0.25
  -5   3  -1    1.29    0.34
  -5   3  -1    1.08    0.26
  -4   3   0    6.36    0.56
  -4   3   0    6.40    0.47
  -4   3   0    6.19    0.35
   4  -3   0    6.25    0.42
  -3   3   1    3.28    0.29
  -3   3   1    3.38    0.22
  -3   3   1    3.67    0.38
   3  -3  -1    3.86    0.32
   3  -3  -1    3.78    0.24
  -2   3   2   43.30    1.30
  -2   3   2   44.38    1.05
   2  -3  -2   44.62    0.98
   2  -3  -2   39.37    1.19
  -1   3   3    4.16    0.19
  -1   3   3    3.74    0.32
   1  -3  -3    3.89    0.31
   1  -3  -3    5.40    0.26
   0   3   4   38.27    0.73
   0  -3  -4   37.53    1.13
   0  -3  -4   39.33    0.96
   1   3   5   62.01    1.57
  -1  -3  -5   61.17    1.46
  -1  -3  -5   63.29    1.58
  -1  -3  -5   61.11    1.25
   2   3   6   47.90    1.41
  -2  -3  -6   48.05    1.18
  -2  -3  -6   49.57    1.33
  -2  -3  -6   46.53    1.32
   3   3   7   18.09    0.84
  -3  -3  -7   17.14    0.71
  -3  -3  -7   15.73    0.75
  -3  -3  -7   16.54    0.70
   4   3   8    7.94    0.61
  -4  -3  -8    7.02    0.46
  -4  -3  -8    6.42    0.49
  -4  -3  -8    8.07    0.57
   5   3   9    1.12    0.34
  -5  -3  -9    0.53    0.23
  -5  -3  -9    0.76    0.26
   6   3  10   21.33    1.23
  -6  -3 -10   20.48    1.09
  -6  -3 -10   19.16    1.07
   7   3  11    0.26    0.28
  -7  -3 -11    0.06    0.23
  -7  -3 -11   -0.06    0.20
  -7   2  -3    4.54    0.55
  -7   2  -3    4.31    0.64
  -6   2  -2    5.29    0.59
  -6   2  -2    5.23    0.54
  -5   2  -1   -0.04    0.10
  -5   2  -1    0.05    0.10
  -5   2  -1    0.11    0.13
  -4   2   0    2.43    0.28
  -4   2   0    2.77    0.25
  -4   2   0    3.47    0.38
   4  -2   0    2.40    0.26
  -3   2   1    0.39    0.15
  -3   2   1    0.60    0.12
  -3   2   1    0.81    0.17
   3  -2  -1    0.97    0.18
  -2   2   2    3.10    0.28
  -2   2   2    4.24    0.24
  -2   2   2    4.02    0.23
   2  -2  -2    3.38    0.22
   2  -2  -2    4.11    0.30
  -1   2   3   38.34    0.76
  -1   2   3   38.49    1.00
   1  -2  -3   39.05    0.94
   1  -2  -3   38.27    1.05
   0   2   4   30.81    0.82
   0  -2  -4   30.71    0.82
   0  -2  -4   30.16    0.90
   1   2   5  118.31    2.40
  -1  -2  -5  116.54    2.39
  -1  -2  -5  119.38    2.44
  -1  -2  -5  120.72    2.20
   2   2   6    0.01    0.06
  -2  -2  -6    0.15    0.10
  -2  -2  -6   -0.01    0.05
  -2  -2  -6    0.04    0.05
   3   2   7    0.06    0.10
  -3  -2  -7    0.25    0.12
  -3  -2  -7    0.06    0.08
  -3  -2  -7    0.05    0.06
   4   2   8    2.09    0.32
  -4  -2  -8    1.64    0.20
  -4  -2  -8    1.64    0.31
  -4  -2  -8    2.28    0.31
   5   2   9    6.42    0.60
  -5  -2  -9    6.66    0.55
  -5  -2  -9    5.90    0.53
   6   2  10   11.23    0.87
  -6  -2 -10   10.98    0.83
  -6  -2 -10   10.75    0.78
   7   2  11    3.94    0.61
  -7  -2 -11    4.45    0.55
  -7  -2 -11    4.56    0.61
  -8   1  -4    3.09    0.66
  -8   1  -4    3.12    0.59
   8  -1   4    3.65    0.70
  -7   1  -3    0.67    0.25
  -7   1  -3    0.30    0.20
  -7   1  -3    0.54    0.31
   7  -1   3    0.20    0.23
  -6   1  -2    0.04    0.18
  -6   1  -2    0.16    0.15
  -6   1  -2    0.12    0.17
  -5   1  -1   11.62    0.75
  -5   1  -1   11.18    0.67
  -5   1  -1   11.54    0.61
  -4   1   0    0.09    0.07
  -4   1   0    0.13    0.10
  -4   1   0    0.07    0.11
  -3   1   1    2.56    0.22
  -3   1   1    3.09    0.27
  -3   1   1    2.63    0.27
  -2   1   2   26.73    0.72
  -2   1   2   25.68    0.72
  -2   1   2   25.87    0.78
  -1   1   3    1.87    0.17
  -1   1   3    2.11    0.15
  -1   1   3    1.94    0.13
   1  -1  -3    2.33    0.18
   1  -1  -3    1.85    0.13
   0   1   4    2.33    0.14
   0  -1  -4    2.42    0.20
   0  -1  -4    2.42    0.15
   1   1   5   25.58    0.72
  -1  -1  -5   24.67    0.77
  -1  -1  -5   25.96    0.72
  -1  -1  -5   26.31    0.71
   2   1   6    8.12    0.44
  -2  -1  -6    7.73    0.43
  -2  -1  -6    8.27    0.35
  -2  -1  -6    8.07    0.44
  -2  -1  -6    8.81    0.45
   3   1   7   24.03    0.95
  -3  -1  -7   24.23    0.95
  -3  -1  -7   24.41    0.93
  -3  -1  -7   23.87    0.90
  -3  -1  -7   24.18    0.66
   4   1   8    0.26    0.18
  -4  -1  -8    0.27    0.15
  -4  -1  -8    0.30    0.19
  -4  -1  -8    0.20    0.15
   5   1   9    0.00    0.15
  -5  -1  -9   -0.10    0.12
  -5  -1  -9    0.00    0.15
  -5  -1  -9   -0.06    0.14
   6   1  10    0.69    0.29
  -6  -1 -10    0.34    0.26
  -6  -1 -10    0.59    0.27
  -6  -1 -10    0.61    0.25
   7   1  11   -0.07    0.23
  -7  -1 -11    0.39    0.29
  -7  -1 -11    0.24    0.20
  -7  -1 -11    0.35    0.26
  -8   0  -4    2.81    0.49
  -8   0  -4    2.92    0.58
  -8   0  -4    3.52    0.68
   8   0   4    4.38    0.65
  -7   0  -3   10.11    0.85
  -7   0  -3   10.04    0.80
  -7   0  -3    9.89    0.71
   7   0   3    8.47    0.78
  -6   0  -2   18.90    0.99
  -6   0  -2   17.07    1.01
  -6   0  -2   19.52    0.91
   6   0   2   19.72    1.07
  -5   0  -1    7.19    0.57
  -5   0  -1    6.63    0.52
  -5   0  -1    6.79    0.48
   5   0   1    7.64    0.59
  -4   0   0    5.73    0.39
  -4   0   0    5.51    0.42
  -4   0   0    5.62    0.44
   4   0   0    5.34    0.43
  -3   0   1   69.48    1.62
  -3   0   1   69.77    1.67
  -3   0   1   70.75    1.68
  -2   0   2  103.78    2.10
  -2   0   2  106.95    2.13
  -2   0   2  107.51    2.09
   2   0  -2  104.93    2.17
  -1   0   3    4.78    0.16
  -1   0   3    5.01    0.27
   1   0  -3    4.92    0.27
   1   0  -3    4.78    0.27
   1   0  -3    4.46    0.16
   0   0  -4   89.24    1.80
   0   0  -4   91.00    1.85
   0   0  -4   86.16    1.56
  -1   0  -5    0.17    0.08
  -1   0  -5    0.22    0.09
  -1   0  -5    0.49    0.11
  -2   0  -6   21.31    0.82
  -2   0  -6   25.57    0.60
  -2   0  -6   23.94    0.80
  -2   0  -6   25.42    0.84
  -3   0  -7    0.11    0.11
  -3   0  -7    0.18    0.11
  -3   0  -7    0.14    0.12
  -3   0  -7    0.13    0.04
   4   0   8    5.40    0.51
  -4   0  -8    6.10    0.46
  -4   0  -8    5.94    0.53
  -4   0  -8    5.90    0.51
   5   0   9   15.14    0.94
  -5   0  -9   15.04    0.91
  -5   0  -9   15.21    0.81
  -5   0  -9   17.73    1.01
   6   0  10    1.89    0.46
  -6   0 -10    2.62    0.40
  -6   0 -10    3.05    0.58
  -6   0 -10    2.15    0.48
   7   0  11    0.02    0.24
  -7   0 -11    0.23    0.22
  -7   0 -11    0.44    0.34
  -7   0 -11    0.56    0.32
  -8  -1  -4    0.32    0.30
  -8  -1  -4    0.65    0.30
  -8  -1  -4    0.65    0.32
   8   1   4    0.39    0.32
  -7  -1  -3   12.53    0.83
  -7  -1  -3   15.56    1.01
  -7  -1  -3   14.64    0.96
   7   1   3   14.82    1.01
  -6  -1  -2   17.20    0.98
  -6  -1  -2   16.57    0.88
  -6  -1  -2   16.91    0.94
   6   1   2   15.72    0.95
  -5  -1  -1   -0.09    0.08
  -5  -1  -1    0.06    0.14
  -5  -1  -1    0.08    0.11
   5   1   1   -0.02    0.10
  -4  -1   0    5.83    0.42
  -4  -1   0    6.40    0.45
  -4  -1   0    5.49    0.42
   4   1   0    6.04    0.45
  -3  -1   1    0.17    0.10
  -3  -1   1    0.27    0.11
   3   1  -1    0.08    0.08
   3   1  -1    0.11    0.09
  -2  -1   2    0.42    0.11
  -2  -1   2    0.64    0.14
   2   1  -2    0.76    0.16
   2   1  -2    0.85    0.12
  -1  -1   3    0.00    0.05
   1   1  -3    0.17    0.08
   1   1  -3    0.03    0.04
   1   1  -3    0.15    0.08
   0   1  -4  164.59    2.97
   0   1  -4  166.68    3.22
   0   1  -4  162.03    3.07
  -1   1  -5    8.12    0.40
  -1   1  -5    8.71    0.41
  -1   1  -5    9.17    0.48
  -2   1  -6   44.84    1.17
  -2   1  -6   43.70    1.34
  -2   1  -6   45.87    1.28
  -3   1  -7   57.81    1.70
  -3   1  -7   59.16    1.51
  -3   1  -7   59.06    1.74
  -4   1  -8    1.81    0.36
  -4   1  -8    1.88    0.31
  -4   1  -8    2.15    0.40
  -5   1  -9    8.55    0.71
  -5   1  -9    7.15    0.56
  -5   1  -9    9.35    0.75
   6  -1  10   -0.07    0.17
  -6   1 -10   -0.13    0.16
  -6   1 -10    0.09    0.19
  -6   1 -10   -0.07    0.22
   7  -1  11    0.44    0.30
  -7   1 -11   -0.01    0.25
  -7   1 -11    0.35    0.35
  -8  -2  -4    3.05    0.57
  -8  -2  -4    1.77    0.46
   8   2   4    1.26    0.42
  -7  -2  -3    0.78    0.28
  -7  -2  -3    0.35    0.24
   7   2   3    1.61    0.42
  -6  -2  -2   23.93    1.15
  -6  -2  -2   24.67    1.11
   6   2   2   24.89    1.21
  -5  -2  -1   10.03    0.67
  -5  -2  -1   10.16    0.64
   5   2   1    9.89    0.67
  -4  -2   0    2.97    0.31
  -4  -2   0    2.82    0.33
   4   2   0    3.23    0.38
   4   2   0    3.42    0.35
  -3  -2   1   66.01    1.66
  -3  -2   1   67.11    1.70
   3   2  -1   64.15    1.76
   3   2  -1   66.75    1.66
  -2  -2   2    0.22    0.11
   2   2  -2    0.41    0.12
   2   2  -2    0.17    0.11
  -1  -2   3    1.86    0.19
   1   2  -3    2.55    0.27
   1   2  -3    1.94    0.19
   0   2  -4    4.13    0.35
   0   2  -4    4.56    0.29
   0   2  -4    5.14    0.30
  -1   2  -5  104.46    2.23
  -1   2  -5   97.37    2.08
  -1   2  -5  104.62    2.39
  -2   2  -6   15.83    0.73
  -2   2  -6   13.46    0.73
  -2   2  -6   14.73    0.58
  -3   2  -7    1.07    0.26
  -3   2  -7    1.31    0.28
  -3   2  -7    1.29    0.23
  -4   2  -8    0.41    0.17
  -4   2  -8    0.22    0.19
  -4   2  -8    0.23    0.17
  -5   2  -9    8.32    0.73
  -5   2  -9    5.89    0.64
  -6   2 -10    0.64    0.34
  -6   2 -10    0.82    0.38
  -8  -3  -4    3.16    0.58
  -8  -3  -4    2.56    0.55
   8   3   4    3.45    0.67
  -7  -3  -3    0.14    0.19
  -7  -3  -3    0.07    0.20
   7   3   3    0.09    0.21
   7   3   3    0.15    0.21
  -6  -3  -2    5.68    0.55
  -6  -3  -2    5.10    0.54
   6   3   2    5.35    0.57
   6   3   2    4.82    0.57
  -5  -3  -1   14.47    0.82
  -5  -3  -1   13.32    0.76
   5   3   1   12.15    0.81
   5   3   1   13.83    0.81
  -4  -3   0    0.25    0.15
  -4  -3   0    0.69    0.20
   4   3   0    0.27    0.14
   4   3   0    0.23    0.16
  -3  -3   1   12.50    0.62
   3   3  -1   12.13    0.63
   3   3  -1   12.64    0.71
  -2  -3   2   11.82    0.55
   2   3  -2   13.19    0.60
   2   3  -2   11.67    0.64
  -1  -3   3    0.05    0.07
   1   3  -3    0.10    0.08
   1   3  -3    0.04    0.10
   0   3  -4   22.28    0.93
   0   3  -4   21.90    0.83
   0   3  -4   23.26    0.73
  -1   3  -5    0.33    0.11
  -1   3  -5    0.00    0.08
  -1   3  -5    0.01    0.10
  -2   3  -6   12.79    0.53
  -2   3  -6   13.51    0.77
  -2   3  -6   13.20    0.72
  -3   3  -7   55.20    1.85
  -3   3  -7   55.57    1.82
  -4   3  -8    2.47    0.48
  -4   3  -8    1.17    0.33
  -5   3  -9   16.76    1.07
  -5   3  -9   19.62    1.17
  -6   3 -10   -0.05    0.23
  -6   3 -10   -0.01    0.28
  -7  -4  -3    1.15    0.36
  -7  -4  -3    3.02    0.54
   7   4   3    1.98    0.50
   7   4   3    2.01    0.46
  -6  -4  -2    0.52    0.25
  -6  -4  -2    0.80    0.28
   6   4   2    0.66    0.29
   6   4   2    0.42    0.23
  -5  -4  -1   -0.03    0.12
  -5  -4  -1    0.14    0.14
   5   4   1   -0.06    0.11
   5   4   1    0.14    0.21
  -4  -4   0    0.30    0.16
   4   4   0    0.19    0.17
   4   4   0    0.28    0.16
  -3  -4   1    8.23    0.53
   3   4  -1    9.35    0.60
   3   4  -1    9.08    0.65
  -2  -4   2   16.09    0.68
   2   4  -2   15.74    0.80
   2   4  -2   15.36    0.74
  -1  -4   3    0.44    0.14
   1   4  -3    0.36    0.16
   1   4  -3    0.46    0.19
   0   4  -4    0.53    0.19
   0   4  -4    0.77    0.17
   0   4  -4    0.47    0.19
  -1   4  -5   52.62    1.61
  -1   4  -5   51.00    1.24
  -1   4  -5   49.05    1.66
  -2   4  -6    5.92    0.54
  -2   4  -6    6.45    0.57
  -3   4  -7    0.38    0.22
  -3   4  -7    0.13    0.19
  -4   4  -8   16.11    1.05
  -4   4  -8   16.93    1.06
  -5   4  -9   15.73    1.12
  -5   4  -9   16.36    1.13
  -7  -5  -3    0.16    0.21
  -7  -5  -3    0.14    0.22
   7   5   3    0.02    0.21
   7   5   3    0.16    0.30
  -6  -5  -2    1.46    0.37
  -6  -5  -2    1.41    0.38
   6   5   2    1.90    0.44
   6   5   2    2.60    0.55
  -5  -5  -1    0.16    0.17
   5   5   1   -0.11    0.16
   5   5   1    0.19    0.19
  -4  -5   0    0.57    0.21
   4   5   0    0.99    0.32
   4   5   0    0.84    0.27
  -3  -5   1    0.52    0.19
   3   5  -1    0.65    0.24
   3   5  -1    0.80    0.27
  -2  -5   2    0.32    0.14
   2   5  -2    0.44    0.20
   2   5  -2    0.28    0.15
  -1  -5   3   10.07    0.52
   1   5  -3   10.38    0.72
   1   5  -3   10.51    0.67
   1   5  -3   10.92    0.53
   0   5  -4    0.80    0.26
   0   5  -4    0.81    0.25
  -1   5  -5    2.87    0.41
  -1   5  -5    2.52    0.38
  -2   5  -6    8.96    0.70
  -2   5  -6   10.02    0.77
  -3   5  -7    2.21    0.50
  -3   5  -7    1.92    0.44
  -4   5  -8    0.40    0.30
  -4   5  -8    0.25    0.28
  -5   5  -9    2.92    0.62
  -5   5  -9    4.26    0.66
  -6  -6  -2    1.99    0.45
   6   6   2    0.64    0.34
   6   6   2    1.54    0.43
  -5  -6  -1    0.06    0.15
   5   6   1   -0.09    0.16
   5   6   1    0.03    0.24
  -4  -6   0    9.27    0.67
   4   6   0    9.90    0.78
   4   6   0   10.99    0.84
  -3  -6   1    5.87    0.49
   3   6  -1    4.81    0.54
   3   6  -1    5.02    0.56
   2   6  -2    0.82    0.28
   2   6  -2    0.62    0.26
   1   6  -3    4.36    0.52
   1   6  -3    3.85    0.47
   0   6  -4    0.31    0.20
   0   6  -4    0.37    0.24
  -1   6  -5   26.91    1.29
  -1   6  -5   28.17    1.34
  -2   6  -6    0.09    0.18
  -2   6  -6    0.15    0.16
  -3   6  -7    0.66    0.30
  -3   6  -7    0.22    0.24
  -4   6  -8    3.53    0.65
  -4   6  -8    4.31    0.64
  -5  -7  -1    1.38    0.37
   5   7   1    1.73    0.49
   5   7   1    1.68    0.48
   4   7   0    0.03    0.19
   4   7   0    0.00    0.20
   3   7  -1    6.60    0.70
   3   7  -1    6.34    0.66
   2   7  -2    4.46    0.55
   2   7  -2    3.83    0.53
   1   7  -3    0.41    0.28
   1   7  -3    0.32    0.22
   0   7  -4    0.38    0.25
   0   7  -4    0.26    0.24
  -1   7  -5    0.95    0.33
  -1   7  -5    1.36    0.41
  -2   7  -6    3.89    0.66
  -2   7  -6    1.58    0.44
   4   8   0   -0.13    0.24
   4   8   0    0.23    0.22
   3   8  -1    6.52    0.72
   3   8  -1    6.24    0.72
   2   8  -2   -0.05    0.26
   2   8  -2   -0.17    0.19
   1   8  -3    0.26    0.28
   1   8  -3    0.60    0.33
   0   8  -4    1.63    0.49
   0   8  -4    1.33    0.43
  -1   8  -5    0.91    0.40
  -1   8  -5    0.30    0.32
  -1   9   4   -0.17    0.23
   1  -9  -4    0.21    0.27
   0   9   5    5.28    0.71
   0  -9  -5    3.79    0.58
   1   9   6    1.09    0.42
  -1  -9  -6    0.18    0.22
   2   9   7    0.17    0.30
  -2  -9  -7   -0.15    0.19
  -3   8   2    4.81    0.68
  -2   8   3   11.72    0.99
   2  -8  -3   10.68    0.83
  -1   8   4    1.60    0.45
   1  -8  -4    1.31    0.38
   0   8   5    6.78    0.72
   0  -8  -5    7.66    0.70
   1   8   6    0.94    0.37
  -1  -8  -6    0.90    0.33
   2   8   7    0.12    0.24
  -2  -8  -7    0.56    0.27
   3   8   8    7.00    0.77
  -3  -8  -8    8.05    0.80
   4   8   9   -0.28    0.19
  -4  -8  -9    0.01    0.24
  -4   7   1   -0.04    0.26
  -3   7   2    0.83    0.37
  -2   7   3    0.02    0.16
   2  -7  -3    0.08    0.17
  -1   7   4    0.05    0.19
   1  -7  -4    0.05    0.14
   0   7   5   -0.12    0.17
   0  -7  -5    0.01    0.12
   1   7   6    1.85    0.44
  -1  -7  -6    1.59    0.37
   2   7   7    1.03    0.33
  -2  -7  -7    1.69    0.40
   3   7   8    0.13    0.23
  -3  -7  -8    0.44    0.23
  -3  -7  -8    1.07    0.28
   4   7   9    0.16    0.23
  -4  -7  -9   -0.12    0.16
  -4  -7  -9   -0.08    0.14
   5   7  10    0.16    0.29
  -5  -7 -10    0.69    0.30
  -5  -7 -10    0.10    0.23
  -5   6   0    2.51    0.55
  -4   6   1   -0.01    0.18
  -3   6   2   28.80    1.41
   3  -6  -2   29.84    1.21
  -2   6   3   29.45    1.34
   2  -6  -3   30.69    1.23
  -1   6   4    6.37    0.61
   1  -6  -4    6.66    0.57
   0   6   5    0.16    0.16
   0  -6  -5    0.07    0.12
   1   6   6   11.75    0.79
  -1  -6  -6   10.82    0.73
   2   6   7   17.44    1.00
  -2  -6  -7   19.11    0.85
  -2  -6  -7   19.58    1.00
   3   6   8    0.14    0.18
  -3  -6  -8    0.19    0.18
  -3  -6  -8   -0.07    0.13
   4   6   9    2.28    0.48
  -4  -6  -9    1.07    0.30
  -4  -6  -9    1.03    0.32
   5   6  10    0.35    0.29
  -5  -6 -10    0.07    0.17
  -5  -6 -10   -0.07    0.15
   6   6  11    1.48    0.46
  -6  -6 -11    1.24    0.38
  -6   5  -1    0.11    0.25
  -5   5   0    1.70    0.45
  -4   5   1    4.40    0.53
  -3   5   2   30.74    1.33
   3  -5  -2   30.96    1.18
  -2   5   3    2.59    0.44
   2  -5  -3    2.36    0.33
  -1   5   4    0.39    0.18
   1  -5  -4    0.79    0.22
   0   5   5    7.11    0.54
   0  -5  -5    8.30    0.42
   0  -5  -5    9.06    0.61
  -1  -5  -6    1.75    0.22
  -1  -5  -6    1.52    0.30
   2   5   7    2.38    0.41
  -2  -5  -7    2.43    0.30
  -2  -5  -7    2.78    0.36
   3   5   8    1.92    0.41
   3   5   8    1.72    0.27
  -3  -5  -8    2.41    0.33
  -3  -5  -8    1.47    0.31
   4   5   9    2.98    0.45
  -4  -5  -9    2.71    0.39
  -4  -5  -9    2.67    0.37
   5   5  10   10.37    0.85
  -5  -5 -10    9.57    0.68
  -5  -5 -10    9.37    0.75
   6   5  11    0.16    0.24
  -6  -5 -11    0.10    0.22
  -7   4  -2   -0.44    0.22
  -7   4  -2    0.07    0.28
  -6   4  -1    3.36    0.47
  -6   4  -1    2.77    0.55
  -5   4   0    3.39    0.49
  -5   4   0    3.12    0.40
  -4   4   1   12.13    0.65
  -4   4   1   13.49    0.85
   4  -4  -1   11.21    0.62
  -3   4   2    2.35    0.34
  -3   4   2    2.69    0.26
   3  -4  -2    2.90    0.32
  -2   4   3    1.83    0.33
  -2   4   3    1.40    0.17
   2  -4  -3    1.55    0.28
  -1   4   4    2.85    0.16
  -1   4   4    3.03    0.33
   1  -4  -4    3.06    0.22
   1  -4  -4    2.77    0.31
   0   4   5    0.75    0.20
   0   4   5    0.89    0.07
   0  -4  -5    0.86    0.21
   0  -4  -5    1.00    0.18
   1   4   6    8.42    0.34
   1   4   6    7.50    0.51
  -1  -4  -6    7.32    0.50
  -1  -4  -6    8.69    0.47
   2   4   7    0.00    0.10
  -2  -4  -7    0.22    0.09
  -2  -4  -7    0.13    0.10
  -2  -4  -7    0.03    0.09
   3   4   8    8.44    0.61
  -3  -4  -8    7.54    0.52
  -3  -4  -8    7.59    0.55
  -3  -4  -8    7.93    0.47
   4   4   9   -0.01    0.14
  -4  -4  -9    0.06    0.08
  -4  -4  -9    0.03    0.12
  -4  -4  -9    0.07    0.13
   5   4  10   30.69    1.41
  -5  -4 -10   29.94    1.24
  -5  -4 -10   27.09    1.26
   6   4  11    0.26    0.24
  -6  -4 -11    0.58    0.30
  -6  -4 -11    0.31    0.23
  -7   3  -2    0.08    0.20
  -7   3  -2    0.23    0.24
  -6   3  -1    0.25    0.20
  -6   3  -1    0.59    0.29
  -5   3   0    2.63    0.35
  -5   3   0    2.31    0.44
  -4   3   1   12.35    0.64
  -4   3   1   12.30    0.77
  -4   3   1   13.17    0.54
   4  -3  -1   11.85    0.61
  -3   3   2   17.76    0.59
  -3   3   2   17.57    0.66
  -3   3   2   18.69    0.85
   3  -3  -2   17.12    0.74
   3  -3  -2   17.54    0.60
  -2   3   3   51.49    1.44
  -2   3   3   50.21    1.14
   2  -3  -3   51.60    1.42
   2  -3  -3   52.01    1.20
  -1   3   4    3.26    0.30
  -1   3   4    3.33    0.12
   1  -3  -4    4.13    0.26
   1  -3  -4    3.89    0.33
   0   3   5   20.35    0.74
   0  -3  -5   20.85    0.69
   0  -3  -5   19.62    0.79
   1   3   6    9.95    0.52
  -1  -3  -6   10.66    0.51
  -1  -3  -6   10.04    0.34
  -1  -3  -6    9.62    0.52
   2   3   7   -0.04    0.09
  -2  -3  -7    0.06    0.08
  -2  -3  -7    0.04    0.07
  -2  -3  -7    0.24    0.09
   3   3   8    0.86    0.23
  -3  -3  -8    0.42    0.17
  -3  -3  -8    0.84    0.20
  -3  -3  -8    0.83    0.18
   4   3   9    0.10    0.15
  -4  -3  -9   -0.01    0.07
  -4  -3  -9   -0.01    0.11
  -4  -3  -9    0.12    0.11
   5   3  10    2.31    0.45
  -5  -3 -10    2.24    0.42
  -5  -3 -10    1.41    0.33
   6   3  11    0.00    0.16
  -6  -3 -11    0.15    0.16
  -6  -3 -11    0.24    0.23
   7   3  12    2.40    0.56
  -7  -3 -12    3.27    0.56
  -7  -3 -12    2.63    0.55
  -7   2  -2    8.66    0.81
  -7   2  -2    5.72    0.62
  -6   2  -1   19.02    1.10
  -6   2  -1   17.17    0.93
  -5   2   0    6.75    0.58
  -5   2   0    5.63    0.41
  -5   2   0    6.00    0.49
  -4   2   1    0.79    0.20
  -4   2   1    0.57    0.15
  -4   2   1    0.43    0.17
   4  -2  -1    1.05    0.22
  -3   2   2  102.42    2.16
  -3   2   2  100.27    2.37
  -3   2   2  101.50    2.09
   3  -2  -2  101.60    2.29
  -2   2   3    6.83    0.31
  -2   2   3    6.79    0.39
  -2   2   3    6.77    0.34
   2  -2  -3    6.42    0.41
   2  -2  -3    6.26    0.34
  -1   2   4    0.42    0.12
   1  -2  -4    0.34    0.07
   1  -2  -4    1.07    0.16
   1  -2  -4    0.38    0.14
   0   2   5   18.92    0.59
   0  -2  -5   18.91    0.65
   0  -2  -5   19.13    0.69
   0  -2  -5   17.68    0.40
   1   2   6   36.40    0.98
  -1  -2  -6   37.51    1.06
  -1  -2  -6   33.72    1.00
  -1  -2  -6   34.88    0.86
   2   2   7   11.46    0.57
  -2  -2  -7   11.67    0.51
  -2  -2  -7   11.50    0.58
  -2  -2  -7   11.41    0.52
   3   2   8    7.19    0.52
  -3  -2  -8    8.17    0.54
  -3  -2  -8    8.00    0.50
  -3  -2  -8    8.67    0.43
   4   2   9    7.61    0.60
  -4  -2  -9    8.13    0.57
  -4  -2  -9    8.31    0.58
   5   2  10   15.47    0.95
  -5  -2 -10   15.54    0.88
  -5  -2 -10   16.54    0.93
   6   2  11    0.23    0.25
  -6  -2 -11   -0.14    0.15
  -6  -2 -11    0.00    0.20
   7   2  12    0.07    0.30
  -7  -2 -12    0.04    0.21
  -7  -2 -12    0.06    0.24
  -8   1  -3    0.36    0.32
  -8   1  -3   -0.17    0.27
   8  -1   3    0.40    0.35
  -7   1  -2    5.24    0.53
  -7   1  -2    5.63    0.60
  -7   1  -2    5.42    0.66
   7  -1   2    3.77    0.57
  -6   1  -1   13.52    0.83
  -6   1  -1   12.56    0.87
  -6   1  -1   15.07    0.78
  -5   1   0    0.09    0.12
  -5   1   0    0.23    0.15
  -5   1   0    0.28    0.18
  -4   1   1   13.22    0.65
  -4   1   1   13.82    0.62
  -4   1   1   13.80    0.71
  -3   1   2    0.60    0.15
  -3   1   2    0.59    0.14
  -3   1   2    0.69    0.17
  -2   1   3    0.23    0.09
  -2   1   3    0.16    0.08
  -2   1   3    0.31    0.10
   2  -1  -3    0.17    0.09
  -1   1   4    0.53    0.08
   1  -1  -4    0.46    0.12
   1  -1  -4    0.43    0.09
   0   1   5   13.95    0.39
   0  -1  -5   14.04    0.45
   0  -1  -5   14.00    0.56
   0  -1  -5   14.33    0.55
   1   1   6    8.43    0.37
  -1  -1  -6    9.28    0.41
  -1  -1  -6    8.17    0.39
  -1  -1  -6    8.50    0.45
   2   1   7   31.93    0.99
  -2  -1  -7   31.79    0.99
  -2  -1  -7   31.97    1.03
  -2  -1  -7   31.82    0.87
  -2  -1  -7   30.95    0.97
   3   1   8    9.26    0.57
  -3  -1  -8    9.04    0.55
  -3  -1  -8    8.98    0.56
  -3  -1  -8    8.46    0.53
  -3  -1  -8    9.55    0.39
   4   1   9    6.33    0.55
  -4  -1  -9    6.14    0.50
  -4  -1  -9    7.54    0.57
  -4  -1  -9    7.29    0.57
   5   1  10    0.92    0.29
  -5  -1 -10    0.82    0.25
  -5  -1 -10    0.93    0.30
  -5  -1 -10    1.19    0.33
   6   1  11    0.42    0.29
  -6  -1 -11    0.16    0.19
  -6  -1 -11    0.64    0.29
  -6  -1 -11    0.13    0.17
   7   1  12    0.70    0.36
  -7  -1 -12    0.96    0.38
  -7  -1 -12    0.72    0.37
  -7  -1 -12    1.48    0.38
  -8   0  -3    0.66    0.33
  -8   0  -3    0.23    0.23
  -8   0  -3    0.22    0.27
   8   0   3    0.29    0.29
  -7   0  -2   29.51    1.38
  -7   0  -2   31.07    1.50
  -7   0  -2   31.97    1.31
   7   0   2   29.28    1.47
  -6   0  -1   16.58    0.97
  -6   0  -1   18.71    0.97
  -6   0  -1   16.64    0.85
   6   0   1   17.01    0.98
  -5   0   0   10.09    0.64
  -5   0   0    8.83    0.56
  -5   0   0    9.99    0.66
   5   0   0   10.24    0.67
  -4   0   1    0.16    0.12
  -4   0   1    0.09    0.09
  -4   0   1    0.05    0.10
   4   0  -1    0.02    0.08
  -3   0   2   52.75    1.35
  -3   0   2   53.49    1.37
  -3   0   2   52.27    1.35
   3   0  -2   53.42    1.37
  -2   0   3   32.66    0.80
  -2   0   3   31.91    0.91
  -2   0   3   31.24    0.87
   2   0  -3   30.49    0.91
   2   0  -3   31.23    0.80
  -1   0   4    2.00    0.20
   1   0  -4    1.74    0.19
   1   0  -4    2.18    0.19
   1   0  -4    1.71    0.08
   0   0   5    0.02    0.03
   0   0  -5    0.06    0.08
   0   0  -5    0.01    0.06
   0   0  -5    0.00    0.03
  -1   0  -6    2.01    0.22
  -1   0  -6    2.46    0.20
  -1   0  -6    1.62    0.20
  -2   0  -7    0.10    0.09
  -2   0  -7    0.08    0.08
  -2   0  -7    0.02    0.04
  -2   0  -7    0.05    0.09
  -3   0  -8    0.12    0.12
  -3   0  -8    0.17    0.12
  -3   0  -8    0.24    0.13
   4   0   9    6.19    0.55
  -4   0  -9    5.68    0.52
  -4   0  -9    5.97    0.54
  -4   0  -9    6.16    0.49
   5   0  10    0.10    0.15
  -5   0 -10    0.10    0.16
  -5   0 -10   -0.11    0.16
  -5   0 -10    0.12    0.18
   6   0  11    0.10    0.20
  -6   0 -11   -0.15    0.18
  -6   0 -11   -0.01    0.17
  -6   0 -11    0.03    0.20
   7   0  12   -0.09    0.25
  -7   0 -12    0.04    0.27
  -7   0 -12    0.07    0.21
  -7   0 -12   -0.07    0.17
  -8  -1  -3   -0.13    0.19
  -8  -1  -3    0.13    0.23
   8   1   3    0.10    0.28
  -7  -1  -2    7.12    0.68
  -7  -1  -2    5.19    0.55
  -7  -1  -2    5.05    0.58
   7   1   2    5.02    0.60
  -6  -1  -1    5.70    0.52
  -6  -1  -1    5.07    0.52
  -6  -1  -1    5.25    0.52
   6   1   1    5.77    0.57
  -5  -1   0   21.83    0.99
  -5  -1   0   23.28    0.97
  -5  -1   0   23.29    1.00
   5   1   0   23.23    1.03
  -4  -1   1    8.26    0.53
  -4  -1   1    7.35    0.49
  -4  -1   1    8.28    0.51
   4   1  -1    8.30    0.51
  -3  -1   2    5.51    0.38
  -3  -1   2    5.74    0.39
   3   1  -2    6.31    0.45
   3   1  -2    6.21    0.37
  -2  -1   3    2.18    0.22
   2   1  -3    2.87    0.28
   2   1  -3    2.50    0.19
  -1  -1   4   42.20    1.10
   1   1  -4   42.85    1.17
   1   1  -4   39.96    1.08
   1   1  -4   41.35    0.89
   0   1  -5    1.34    0.19
   0   1  -5    0.80    0.16
   0   1  -5    1.08    0.11
  -1   1  -6   78.69    1.78
  -1   1  -6   77.48    1.92
  -1   1  -6   78.79    1.73
  -2   1  -7   37.47    1.27
  -2   1  -7   39.11    1.17
  -2   1  -7   39.46    1.14
  -3   1  -8    6.56    0.51
  -3   1  -8    7.69    0.48
  -3   1  -8    7.59    0.57
  -4   1  -9    0.04    0.11
  -4   1  -9    0.04    0.13
  -4   1  -9    0.09    0.16
  -5   1 -10    5.03    0.47
  -5   1 -10    3.68    0.51
  -5   1 -10    4.37    0.54
  -6   1 -11    4.57    0.61
  -6   1 -11    4.09    0.69
  -8  -2  -3    1.36    0.39
  -8  -2  -3    0.36    0.27
   8   2   3    0.57    0.33
  -7  -2  -2    3.59    0.50
  -7  -2  -2    3.63    0.48
   7   2   2    4.04    0.54
  -6  -2  -1    0.54    0.23
  -6  -2  -1    1.02    0.29
   6   2   1    1.06    0.30
  -5  -2   0    1.99    0.34
  -5  -2   0    2.17    0.39
   5   2   0    2.31    0.33
   5   2   0    2.03    0.40
  -4  -2   1    4.37    0.40
  -4  -2   1    4.62    0.41
   4   2  -1    4.42    0.39
   4   2  -1    3.41    0.40
  -3  -2   2   36.05    1.17
  -3  -2   2   35.44    1.12
   3   2  -2   36.16    1.08
   3   2  -2   36.57    1.24
  -2  -2   3   10.97    0.52
   2   2  -3   11.55    0.49
   2   2  -3    9.89    0.57
  -1  -2   4    0.63    0.14
   1   2  -4    0.62    0.14
   1   2  -4    0.54    0.17
   1   2  -4    0.90    0.15
   0   2  -5   65.05    1.55
   0   2  -5   66.39    1.75
   0   2  -5   64.93    1.50
  -1   2  -6   38.56    1.13
  -1   2  -6   38.74    1.29
  -1   2  -6   40.70    1.12
  -2   2  -7    4.30    0.40
  -2   2  -7    4.78    0.46
  -2   2  -7    4.54    0.34
  -3   2  -8   10.47    0.71
  -3   2  -8   11.48    0.69
  -3   2  -8   11.67    0.58
  -4   2  -9   18.85    0.83
  -4   2  -9   17.84    1.04
  -4   2  -9   19.89    1.05
  -5   2 -10    3.23    0.50
  -5   2 -10    4.59    0.59
  -6   2 -11    1.62    0.45
  -6   2 -11    0.89    0.35
  -8  -3  -3    0.28    0.25
  -8  -3  -3    0.05    0.23
   8   3   3    0.11    0.27
   8   3   3   -0.01    0.21
  -7  -3  -2    1.17    0.35
  -7  -3  -2    0.60    0.27
   7   3   2    1.54    0.42
   7   3   2    0.86    0.33
  -6  -3  -1    0.60    0.25
  -6  -3  -1    0.64    0.28
   6   3   1    0.33    0.22
   6   3   1    0.09    0.17
  -5  -3   0    0.90    0.27
  -5  -3   0    1.30    0.31
   5   3   0    0.92    0.29
   5   3   0    0.79    0.25
  -4  -3   1    0.05    0.12
  -4  -3   1   -0.02    0.09
   4   3  -1   -0.09    0.11
   4   3  -1   -0.01    0.07
  -3  -3   2    6.58    0.45
   3   3  -2    6.70    0.46
   3   3  -2    6.27    0.51
  -2  -3   3    0.01    0.07
   2   3  -3    0.05    0.09
   2   3  -3    0.12    0.11
  -1  -3   4    0.28    0.12
   1   3  -4    0.23    0.11
   1   3  -4    0.22    0.13
   1   3  -4    0.36    0.14
   0   3  -5    6.53    0.51
   0   3  -5    8.12    0.48
   0   3  -5    8.12    0.44
  -1   3  -6   10.21    0.50
  -1   3  -6   10.35    0.58
  -1   3  -6    8.86    0.62
  -2   3  -7    4.69    0.35
  -2   3  -7    4.44    0.48
  -2   3  -7    4.48    0.44
  -3   3  -8    4.29    0.52
  -3   3  -8    4.99    0.51
  -4   3  -9    0.47    0.24
  -4   3  -9    1.60    0.42
  -5   3 -10   21.46    1.26
  -5   3 -10   21.17    1.27
  -6   3 -11    0.20    0.26
  -6   3 -11    0.08    0.26
  -7  -4  -2    8.08    0.77
  -7  -4  -2   10.53    0.86
   7   4   2   11.52    0.89
   7   4   2    9.84    0.90
  -6  -4  -1    3.05    0.45
  -6  -4  -1    3.13    0.46
   6   4   1    3.20    0.59
   6   4   1    3.07    0.47
  -5  -4   0    8.65    0.65
  -5  -4   0    8.47    0.68
   5   4   0    9.46    0.76
   5   4   0    8.02    0.66
  -4  -4   1    7.02    0.54
   4   4  -1    8.61    0.62
   4   4  -1    6.90    0.61
  -3  -4   2   15.25    0.74
   3   4  -2   15.24    0.77
   3   4  -2   15.11    0.87
  -2  -4   3   12.71    0.62
   2   4  -3   11.80    0.64
   2   4  -3   10.88    0.71
  -1  -4   4    0.90    0.20
   1   4  -4    0.86    0.19
   1   4  -4    0.37    0.20
   1   4  -4    0.95    0.24
   0   4  -5   41.86    1.18
   0   4  -5   40.45    1.34
   0   4  -5   42.30    1.51
  -1   4  -6    6.92    0.53
  -1   4  -6    5.41    0.54
  -1   4  -6    6.75    0.40
  -2   4  -7    3.28    0.44
  -2   4  -7    2.97    0.39
  -3   4  -8    6.17    0.60
  -3   4  -8    7.42    0.69
  -4   4  -9    3.75    0.54
  -4   4  -9    4.35    0.60
  -5   4 -10    6.70    0.77
  -5   4 -10    7.61    0.81
  -7  -5  -2    0.27    0.25
  -7  -5  -2   -0.03    0.19
   7   5   2    0.03    0.18
   7   5   2   -0.12    0.20
  -6  -5  -1   -0.03    0.15
   6   5   1    0.07    0.21
   6   5   1   -0.07    0.23
  -5  -5   0    5.62    0.55
   5   5   0    4.88    0.58
   5   5   0    5.24    0.60
  -4  -5   1    0.07    0.13
   4   5  -1   -0.02    0.15
   4   5  -1    0.84    0.28
  -3  -5   2    0.03    0.11
   3   5  -2    0.00    0.12
   3   5  -2    0.19    0.17
  -2  -5   3   12.69    0.66
   2   5  -3   13.26    0.77
   2   5  -3   13.36    0.83
   1   5  -4    0.92    0.21
   1   5  -4    0.51    0.22
   1   5  -4    0.27    0.19
   0   5  -5    4.24    0.50
   0   5  -5    4.02    0.44
  -1   5  -6    1.28    0.34
  -1   5  -6    1.68    0.36
  -2   5  -7    1.26    0.35
  -2   5  -7    1.22    0.34
  -3   5  -8    2.82    0.57
  -3   5  -8    1.53    0.39
  -4   5  -9    0.09    0.23
  -4   5  -9    0.50    0.31
  -6  -6  -1    1.98    0.44
   6   6   1    1.16    0.40
   6   6   1    1.65    0.44
  -5  -6   0   -0.10    0.18
   5   6   0   -0.14    0.15
   5   6   0    0.06    0.17
  -4  -6   1    3.42    0.44
   4   6  -1    3.45    0.48
   4   6  -1    3.05    0.54
  -3  -6   2    9.18    0.62
   3   6  -2    7.99    0.67
   3   6  -2    8.82    0.74
   2   6  -3    0.70    0.28
   2   6  -3    0.35    0.20
   1   6  -4    4.02    0.51
   1   6  -4    5.21    0.54
   0   6  -5   12.22    0.91
   0   6  -5   13.66    0.89
  -1   6  -6    0.29    0.24
  -1   6  -6    0.17    0.21
  -2   6  -7    0.91    0.34
  -2   6  -7    0.49    0.27
  -3   6  -8   -0.20    0.19
  -3   6  -8    0.03    0.20
  -5  -7   0    1.25    0.36
   5   7   0    0.35    0.32
   5   7   0    0.35    0.28
   4   7  -1    1.78    0.45
   4   7  -1    1.23    0.42
   3   7  -2    5.51    0.65
   3   7  -2    6.35    0.65
   2   7  -3    2.25    0.47
   2   7  -3    2.49    0.50
   1   7  -4    2.55    0.52
   1   7  -4    2.29    0.47
   0   7  -5    8.98    0.83
   0   7  -5    9.31    0.80
  -1   7  -6    1.76    0.46
  -1   7  -6    1.44    0.42
  -2   7  -7    0.12    0.25
  -2   7  -7    0.60    0.36
   3   8  -2    3.94    0.69
   3   8  -2    4.13    0.61
   2   8  -3    0.15    0.21
   2   8  -3    0.36    0.32
   1   8  -4    3.15    0.62
   1   8  -4    3.41    0.63
   0   8  -5   31.55    1.61
   0   8  -5   32.44    1.66
  -1   9   5    1.85    0.53
   1  -9  -5    2.95    0.58
   0   9   6    0.51    0.34
   0  -9  -6    0.40    0.31
   1   9   7    2.62    0.61
  -1  -9  -7    1.60    0.46
   2   9   8    1.94    0.51
  -2  -9  -8    0.99    0.38
  -3   8   3   18.38    1.27
  -2   8   4    9.63    0.88
   2  -8  -4    9.95    0.81
  -1   8   5    1.70    0.48
   1  -8  -5    0.87    0.31
   0   8   6   -0.10    0.19
   0  -8  -6    0.18    0.18
   1   8   7   26.07    1.42
  -1  -8  -7   28.05    1.40
   2   8   8    2.02    0.49
  -2  -8  -8    1.59    0.42
   3   8   9    0.13    0.23
  -3  -8  -9    0.13    0.21
   4   8  10    2.10    0.58
  -4  -8 -10    2.62    0.55
  -4   7   2    0.05    0.22
  -3   7   3    1.86    0.45
   3  -7  -3    2.32    0.44
  -2   7   4    1.09    0.34
   2  -7  -4    1.24    0.33
  -1   7   5    0.19    0.22
   1  -7  -5    0.28    0.18
   0   7   6   17.02    1.05
   0  -7  -6   17.13    1.00
   1   7   7    0.63    0.27
  -1  -7  -7    0.93    0.29
   2   7   8    7.61    0.70
  -2  -7  -8    8.07    0.70
   3   7   9    0.06    0.21
  -3  -7  -9    0.39    0.23
  -3  -7  -9   -0.01    0.17
   4   7  10    0.42    0.28
  -4  -7 -10    0.39    0.24
  -4  -7 -10    0.06    0.20
   5   7  11    0.20    0.26
  -5  -7 -11    0.10    0.21
  -5  -7 -11    0.11    0.21
  -5   6   1   -0.22    0.18
  -4   6   2    0.00    0.20
  -3   6   3   29.18    1.40
   3  -6  -3   29.18    1.25
  -2   6   4    1.88    0.40
   2  -6  -4    1.49    0.35
  -1   6   5   -0.04    0.14
   1  -6  -5    0.00    0.12
   0   6   6    3.28    0.43
   0  -6  -6    3.00    0.40
   1   6   7    3.00    0.41
  -1  -6  -7    2.27    0.40
  -1  -6  -7    2.69    0.31
   2   6   8   -0.10    0.13
  -2  -6  -8    0.15    0.14
  -2  -6  -8    0.12    0.13
   3   6   9    5.05    0.56
  -3  -6  -9    5.25    0.53
  -3  -6  -9    5.44    0.51
   4   6  10    0.26    0.26
  -4  -6 -10    0.02    0.15
  -4  -6 -10    0.08    0.18
   5   6  11    0.34    0.29
  -5  -6 -11   -0.05    0.17
  -5  -6 -11    0.22    0.19
  -6   5   0    0.03    0.24
  -5   5   1   11.52    0.94
  -4   5   2    2.37    0.47
   4  -5  -2    2.15    0.38
  -3   5   3   11.89    0.79
   3  -5  -3   10.88    0.69
  -2   5   4    9.85    0.67
   2  -5  -4    9.69    0.64
  -1   5   5   34.07    1.29
   1  -5  -5   33.47    1.27
   0   5   6   10.12    0.65
   0  -5  -6    9.08    0.63
   0  -5  -6   10.03    0.50
   1   5   7    3.16    0.38
  -1  -5  -7    3.22    0.37
  -1  -5  -7    3.19    0.33
   2   5   8    0.44    0.20
  -2  -5  -8    0.25    0.14
  -2  -5  -8    0.13    0.14
   3   5   9    0.34    0.19
  -3  -5  -9    0.55    0.22
  -3  -5  -9    0.21    0.16
   4   5  10    3.98    0.52
  -4  -5 -10    3.56    0.44
  -4  -5 -10    4.09    0.50
   5   5  11    1.65    0.45
  -5  -5 -11    1.57    0.39
   6   5  12    1.89    0.51
  -6  -5 -12    1.74    0.42
  -7   4  -1   10.07    0.95
  -6   4   0    2.58    0.46
  -6   4   0    2.43    0.52
  -5   4   1    0.21    0.22
  -5   4   1   -0.08    0.14
  -4   4   2    6.19    0.44
  -4   4   2    5.72    0.57
   4  -4  -2    6.24    0.49
  -3   4   3    0.16    0.09
  -3   4   3   -0.07    0.09
   3  -4  -3    0.06    0.10
  -2   4   4   18.85    0.56
  -2   4   4   19.99    0.89
   2  -4  -4   18.32    0.63
   2  -4  -4   17.54    0.82
  -1   4   5    0.12    0.10
   1  -4  -5   -0.09    0.06
   1  -4  -5    0.05    0.07
   0   4   6   40.29    1.28
   0  -4  -6   40.76    1.36
   0  -4  -6   43.53    1.17
   1   4   7   -0.02    0.05
   1   4   7   -0.05    0.07
  -1  -4  -7    0.12    0.12
  -1  -4  -7   -0.03    0.07
   2   4   8   13.21    0.73
  -2  -4  -8   11.16    0.65
  -2  -4  -8   11.77    0.66
   3   4   9    0.23    0.16
  -3  -4  -9    0.14    0.12
  -3  -4  -9    0.05    0.10
  -3  -4  -9    0.19    0.12
   4   4  10    5.92    0.58
  -4  -4 -10    5.14    0.46
  -4  -4 -10    5.73    0.53
  -4  -4 -10    4.98    0.45
   5   4  11   15.89    1.02
  -5  -4 -11   16.25    0.91
  -5  -4 -11   16.41    0.98
   6   4  12    0.20    0.23
  -6  -4 -12    0.10    0.21
  -6  -4 -12    0.56    0.26
  -7   3  -1    0.22    0.26
  -7   3  -1    0.03    0.21
  -6   3   0    5.06    0.59
  -6   3   0    5.14    0.51
  -5   3   1    0.66    0.26
  -5   3   1    0.53    0.20
  -4   3   2    0.06    0.09
  -4   3   2    0.02    0.09
  -4   3   2    0.04    0.14
   4  -3  -2    0.14    0.11
  -3   3   3    1.13    0.24
  -3   3   3    0.89    0.17
  -3   3   3    1.11    0.17
   3  -3  -3    1.28    0.21
   3  -3  -3    0.72    0.20
  -2   3   4    3.67    0.22
  -2   3   4    3.58    0.33
   2  -3  -4    4.38    0.31
   2  -3  -4    4.33    0.37
  -1   3   5    6.98    0.42
   1  -3  -5    5.76    0.36
   1  -3  -5    7.76    0.48
   0   3   6   90.89    2.01
   0  -3  -6   86.45    2.11
   0  -3  -6   89.09    1.98
   1   3   7    0.07    0.10
  -1  -3  -7    0.20    0.11
  -1  -3  -7   -0.04    0.06
  -1  -3  -7    0.02    0.04
   2   3   8   -0.04    0.07
  -2  -3  -8   -0.03    0.08
  -2  -3  -8    0.02    0.07
  -2  -3  -8    0.00    0.08
   3   3   9    2.06    0.31
  -3  -3  -9    1.67    0.24
  -3  -3  -9    1.34    0.28
  -3  -3  -9    1.40    0.21
   4   3  10    0.87    0.28
  -4  -3 -10    0.67    0.19
  -4  -3 -10    0.64    0.23
  -4  -3 -10    0.96    0.27
   5   3  11    0.17    0.20
  -5  -3 -11    0.00    0.16
  -5  -3 -11    0.44    0.24
   6   3  12   -0.06    0.22
  -6  -3 -12    0.01    0.18
  -6  -3 -12   -0.02    0.19
  -7   2  -1   21.99    1.17
  -7   2  -1   23.10    1.31
  -6   2   0    5.19    0.58
  -6   2   0    4.48    0.49
  -6   2   0    5.15    0.46
  -5   2   1    0.38    0.15
  -5   2   1    0.08    0.11
  -5   2   1    0.31    0.19
   5  -2  -1    0.11    0.14
  -4   2   2   28.70    1.00
  -4   2   2   29.48    0.95
  -4   2   2   29.81    1.12
  -3   2   3   50.88    1.44
  -3   2   3   49.36    1.26
  -3   2   3   51.86    1.29
   3  -2  -3   46.92    1.28
   3  -2  -3   50.71    1.46
  -2   2   4    7.62    0.41
  -2   2   4    7.90    0.33
  -2   2   4    8.29    0.41
   2  -2  -4    8.68    0.50
   2  -2  -4    8.63    0.43
  -1   2   5   16.94    0.57
   1  -2  -5   16.55    0.70
   1  -2  -5   16.26    0.43
   1  -2  -5   16.43    0.65
   0   2   6    0.35    0.10
   0  -2  -6    0.33    0.12
   0  -2  -6    0.37    0.12
   0  -2  -6    0.58    0.08
   1   2   7    2.76    0.24
  -1  -2  -7    2.49    0.20
  -1  -2  -7    2.15    0.25
  -1  -2  -7    3.18    0.28
   2   2   8   28.27    0.98
  -2  -2  -8   29.72    0.93
  -2  -2  -8   28.36    1.03
  -2  -2  -8   30.02    0.95
   3   2   9    4.52    0.41
  -3  -2  -9    3.63    0.38
  -3  -2  -9    4.53    0.33
  -3  -2  -9    4.77    0.40
   4   2  10    9.29    0.68
  -4  -2 -10    9.88    0.65
  -4  -2 -10    8.66    0.64
   5   2  11    3.06    0.45
  -5  -2 -11    3.66    0.45
  -5  -2 -11    2.85    0.40
   6   2  12   -0.09    0.21
  -6  -2 -12   -0.12    0.15
  -6  -2 -12    0.11    0.21
  -8   1  -2   12.98    0.97
  -8   1  -2   13.21    1.07
   8  -1   2   16.19    1.17
  -7   1  -1   15.45    0.89
  -7   1  -1   18.27    1.15
  -7   1  -1   16.49    1.01
   7  -1   1   15.14    1.05
  -6   1   0    0.23    0.20
  -6   1   0    0.81    0.27
  -6   1   0    1.01    0.27
  -5   1   1    6.43    0.46
  -5   1   1    6.66    0.51
  -5   1   1    5.44    0.50
  -4   1   2    0.75    0.19
  -4   1   2    0.78    0.21
  -4   1   2    0.50    0.15
  -3   1   3    2.66    0.25
  -3   1   3    3.54    0.29
  -3   1   3    2.55    0.25
  -2   1   4    3.13    0.26
  -2   1   4    2.54    0.20
  -2   1   4    2.65    0.21
   2  -1  -4    2.89    0.26
   2  -1  -4    2.68    0.23
  -1   1   5  196.22    3.35
   1  -1  -5  188.01    3.48
   1  -1  -5  190.26    3.66
   0   1   6   24.39    0.58
   0  -1  -6   25.73    0.71
   0  -1  -6   23.16    0.81
   1   1   7    7.06    0.34
  -1  -1  -7    7.11    0.44
  -1  -1  -7    6.47    0.38
  -1  -1  -7    6.71    0.38
   2   1   8   17.22    0.69
  -2  -1  -8   15.82    0.59
  -2  -1  -8   17.31    0.72
  -2  -1  -8   15.73    0.72
   3   1   9   16.53    0.79
  -3  -1  -9   16.51    0.58
  -3  -1  -9   16.51    0.80
  -3  -1  -9   18.27    0.81
  -3  -1  -9   16.51    0.79
   4   1  10    4.32    0.46
  -4  -1 -10    4.67    0.48
  -4  -1 -10    3.96    0.46
  -4  -1 -10    4.30    0.44
   5   1  11    4.35    0.51
  -5  -1 -11    5.31    0.57
  -5  -1 -11    4.76    0.54
  -5  -1 -11    5.09    0.54
   6   1  12    1.65    0.44
  -6  -1 -12    1.29    0.39
  -6  -1 -12    0.89    0.31
  -6  -1 -12    1.42    0.40
  -8   0  -2    0.56    0.31
  -8   0  -2    0.87    0.34
  -8   0  -2   -0.19    0.19
   8   0   2    0.07    0.25
  -7   0  -1    4.42    0.50
  -7   0  -1    7.33    0.72
  -7   0  -1    6.14    0.65
   7   0   1    4.57    0.61
  -6   0   0    0.47    0.22
  -6   0   0    1.00    0.30
  -6   0   0    0.76    0.25
   6   0   0    0.56    0.23
  -5   0   1    0.41    0.18
  -5   0   1    0.37    0.17
  -5   0   1    0.18    0.13
   5   0  -1    0.24    0.17
  -4   0   2   23.31    0.91
  -4   0   2   24.26    0.91
  -4   0   2   25.12    0.93
   4   0  -2   24.51    0.93
  -3   0   3    0.56    0.15
  -3   0   3    0.36    0.13
  -3   0   3    0.84    0.17
   3   0  -3    0.33    0.12
   3   0  -3    0.40    0.12
  -2   0   4    9.81    0.49
  -2   0   4   10.62    0.37
   2   0  -4    9.91    0.50
   2   0  -4   10.72    0.38
   2   0  -4   10.25    0.49
  -1   0   5    0.49    0.13
   1   0  -5    0.33    0.11
   1   0  -5    0.49    0.14
   0   0   6  138.07    2.38
   0   0  -6  139.12    2.82
   0   0  -6  135.51    2.76
   0   0  -6  132.61    2.37
   1   0   7    2.77    0.22
  -1   0  -7    2.41    0.20
  -1   0  -7    1.57    0.22
  -1   0  -7    2.42    0.26
   2   0   8    6.51    0.42
  -2   0  -8    7.41    0.35
  -2   0  -8    6.31    0.42
  -2   0  -8    6.19    0.44
  -2   0  -8    6.44    0.46
   3   0   9    1.80    0.32
  -3   0  -9    1.80    0.28
  -3   0  -9    1.82    0.35
  -3   0  -9    1.69    0.31
   4   0  10   32.11    1.28
  -4   0 -10   29.29    1.18
  -4   0 -10   32.32    1.30
  -4   0 -10   31.07    1.32
   5   0  11    0.48    0.26
  -5   0 -11    1.08    0.34
  -5   0 -11    1.02    0.32
  -5   0 -11    0.05    0.17
   6   0  12    0.69    0.31
  -6   0 -12    0.53    0.28
  -6   0 -12    1.11    0.31
  -6   0 -12    0.40    0.31
  -8  -1  -2    0.38    0.26
  -8  -1  -2    0.37    0.29
   8   1   2   -0.09    0.23
  -7  -1  -1    2.87    0.50
  -7  -1  -1    3.30    0.48
  -7  -1  -1    4.03    0.53
   7   1   1    3.48    0.51
  -6  -1   0    6.31    0.59
  -6  -1   0    7.83    0.63
  -6  -1   0    7.17    0.59
   6   1   0    7.57    0.65
  -5  -1   1    0.35    0.18
  -5  -1   1    0.10    0.13
  -5  -1   1    0.00    0.09
   5   1  -1   -0.06    0.11
   5   1  -1   -0.09    0.10
  -4  -1   2   22.60    0.91
  -4  -1   2   23.52    0.94
   4   1  -2   23.04    0.88
   4   1  -2   22.22    0.98
  -3  -1   3    0.29    0.13
  -3  -1   3    0.64    0.17
   3   1  -3    0.78    0.22
   3   1  -3    0.46    0.13
  -2  -1   4    9.59    0.50
   2   1  -4   10.12    0.39
   2   1  -4   10.08    0.55
  -1  -1   5   11.70    0.54
   1   1  -5   12.97    0.60
   1   1  -5   12.41    0.57
   1   1  -5   12.52    0.37
   0   1  -6    7.09    0.43
   0   1  -6    7.22    0.30
   0   1  -6    6.75    0.44
  -1   1  -7   39.63    1.06
  -1   1  -7   38.96    1.26
  -1   1  -7   41.05    1.18
  -2   1  -8   12.02    0.69
  -2   1  -8   11.96    0.60
  -2   1  -8   11.70    0.60
  -3   1  -9    2.26    0.40
  -3   1  -9    1.59    0.29
  -3   1  -9    1.76    0.33
  -4   1 -10   21.11    1.07
  -4   1 -10   23.80    1.16
  -4   1 -10   21.66    0.97
  -5   1 -11   -0.13    0.14
  -5   1 -11   -0.06    0.16
  -5   1 -11   -0.22    0.13
   6  -1  12    0.44    0.29
  -6   1 -12    0.57    0.31
  -6   1 -12    0.78    0.35
  -8  -2  -2    4.97    0.65
  -8  -2  -2    3.72    0.56
   8   2   2    2.69    0.62
   8   2   2    4.83    0.67
  -7  -2  -1    3.46    0.50
  -7  -2  -1    2.44    0.47
   7   2   1    3.01    0.58
   7   2   1    3.63    0.52
  -6  -2   0    0.10    0.17
  -6  -2   0    0.10    0.14
   6   2   0    0.19    0.22
   6   2   0    0.11    0.18
  -5  -2   1    0.39    0.18
  -5  -2   1    0.10    0.14
   5   2  -1    0.12    0.14
   5   2  -1    0.19    0.18
  -4  -2   2   13.22    0.71
  -4  -2   2   15.68    0.78
   4   2  -2   14.03    0.81
   4   2  -2   13.79    0.69
  -3  -2   3   55.27    1.51
   3   2  -3   56.31    1.66
   3   2  -3   52.94    1.41
  -2  -2   4    0.05    0.09
   2   2  -4    0.02    0.07
   2   2  -4    0.02    0.05
  -1  -2   5   19.00    0.73
   1   2  -5   20.67    0.85
   1   2  -5   20.31    0.64
   1   2  -5   19.69    0.75
   0   2  -6   23.08    0.83
   0   2  -6   23.63    0.74
   0   2  -6   22.26    0.93
  -1   2  -7   19.60    0.90
  -1   2  -7   17.90    0.72
  -1   2  -7   19.09    0.75
  -2   2  -8   12.44    0.67
  -2   2  -8   13.90    0.81
  -2   2  -8   13.36    0.64
  -3   2  -9    1.64    0.37
  -3   2  -9    1.67    0.32
  -3   2  -9    2.19    0.29
  -4   2 -10   71.78    2.23
  -4   2 -10   70.31    2.32
  -4   2 -10   71.53    1.96
  -5   2 -11    0.10    0.18
  -5   2 -11   -0.06    0.19
  -6   2 -12    0.75    0.34
  -6   2 -12    0.18    0.26
  -8  -3  -2    0.29    0.26
  -8  -3  -2    0.57    0.30
   8   3   2    0.06    0.26
   8   3   2    0.19    0.24
  -7  -3  -1    3.30    0.50
  -7  -3  -1    4.06    0.54
   7   3   1    3.42    0.52
   7   3   1    3.74    0.67
  -6  -3   0    3.37    0.45
  -6  -3   0    3.18    0.45
   6   3   0    3.61    0.51
   6   3   0    3.22    0.44
  -5  -3   1    1.04    0.30
  -5  -3   1    1.18    0.32
   5   3  -1    1.19    0.29
   5   3  -1    0.93    0.31
  -4  -3   2   -0.02    0.10
   4   3  -2   -0.07    0.09
   4   3  -2    0.13    0.14
  -3  -3   3   15.60    0.73
   3   3  -3   15.25    0.71
   3   3  -3   13.82    0.81
  -2  -3   4    6.67    0.45
   2   3  -4    6.59    0.52
   2   3  -4    6.48    0.42
  -1  -3   5    1.89    0.23
   1   3  -5    1.99    0.29
   1   3  -5    1.90    0.23
   1   3  -5    1.96    0.24
   0   3  -6    0.41    0.15
   0   3  -6    0.27    0.13
   0   3  -6    0.36    0.17
  -1   3  -7   14.73    0.70
  -1   3  -7   13.10    0.80
  -1   3  -7   15.06    0.66
  -2   3  -8    8.39    0.50
  -2   3  -8    8.61    0.59
  -2   3  -8    9.15    0.69
  -3   3  -9    0.22    0.20
  -3   3  -9    0.57    0.25
  -4   3 -10    3.41    0.48
  -4   3 -10    2.87    0.54
  -5   3 -11    2.58    0.57
  -5   3 -11    2.11    0.50
  -7  -4  -1    1.61    0.42
  -7  -4  -1    2.65    0.51
   7   4   1    1.93    0.46
   7   4   1    1.82    0.51
  -6  -4   0    0.02    0.17
  -6  -4   0    0.09    0.19
   6   4   0   -0.08    0.17
   6   4   0   -0.02    0.19
  -5  -4   1    3.60    0.45
   5   4  -1    4.09    0.48
   5   4  -1    3.55    0.51
  -4  -4   2   16.49    0.85
   4   4  -2   17.96    1.02
   4   4  -2   15.79    0.86
  -3  -4   3    0.27    0.15
   3   4  -3    0.31    0.17
   3   4  -3    0.67    0.24
  -2  -4   4    0.50    0.17
   2   4  -4    1.32    0.32
   2   4  -4    1.74    0.31
  -1  -4   5    1.11    0.22
   1   4  -5    0.95    0.28
   1   4  -5    1.19    0.25
   1   4  -5    1.44    0.26
   0   4  -6    1.81    0.37
   0   4  -6    2.41    0.32
   0   4  -6    2.40    0.28
  -1   4  -7    1.54    0.39
  -1   4  -7    2.81    0.37
  -2   4  -8    0.14    0.15
  -2   4  -8    0.28    0.19
  -3   4  -9    0.52    0.28
  -3   4  -9    0.52    0.25
  -4   4 -10    2.75    0.57
  -4   4 -10    2.83    0.53
  -5   4 -11    1.23    0.42
  -5   4 -11    1.80    0.54
  -7  -5  -1    0.51    0.29
   7   5   1    0.30    0.30
   7   5   1    0.44    0.28
  -6  -5   0    2.90    0.54
   6   5   0    2.30    0.48
   6   5   0    2.41    0.55
  -5  -5   1    0.34    0.22
   5   5  -1    0.85    0.32
   5   5  -1    0.92    0.31
  -4  -5   2   11.32    0.73
   4   5  -2   11.99    0.80
   4   5  -2   12.31    0.88
  -3  -5   3    3.23    0.39
   3   5  -3    3.80    0.49
   3   5  -3    4.05    0.44
  -2  -5   4    7.66    0.52
   2   5  -4    7.46    0.58
   2   5  -4    6.83    0.62
   1   5  -5    0.50    0.20
   1   5  -5    0.28    0.15
   1   5  -5    0.15    0.19
   0   5  -6   28.95    1.36
   0   5  -6   27.44    1.19
  -1   5  -7    0.05    0.15
  -1   5  -7   -0.11    0.17
  -2   5  -8    9.69    0.75
  -2   5  -8    8.67    0.79
  -3   5  -9    1.11    0.35
  -3   5  -9    1.43    0.44
  -4   5 -10    0.11    0.26
  -4   5 -10    0.19    0.30
  -6  -6   0    0.19    0.24
   6   6   0    0.49    0.35
   6   6   0    0.51    0.29
  -5  -6   1    0.07    0.17
   5   6  -1    0.03    0.24
   5   6  -1    0.06    0.22
  -4  -6   2   10.45    0.73
   4   6  -2   11.90    0.85
   4   6  -2   10.69    0.86
  -3  -6   3    3.61    0.43
   3   6  -3    1.85    0.44
   3   6  -3    3.82    0.47
   2   6  -4    0.09    0.22
   2   6  -4    0.02    0.16
   1   6  -5    7.22    0.71
   1   6  -5    7.81    0.65
   0   6  -6    1.17    0.33
   0   6  -6    1.81    0.46
  -1   6  -7    8.70    0.75
  -1   6  -7   10.11    0.85
  -2   6  -8    0.10    0.20
  -2   6  -8    0.55    0.31
  -3   6  -9    8.89    0.83
  -3   6  -9   10.28    0.96
  -5  -7   1    0.48    0.27
   5   7  -1    0.16    0.24
   5   7  -1    0.70    0.35
   4   7  -2    0.95    0.38
   4   7  -2    0.30    0.27
   3   7  -3    3.16    0.60
   3   7  -3    1.40    0.38
   2   7  -4   -0.10    0.16
   2   7  -4   -0.23    0.19
   1   7  -5    0.34    0.27
   1   7  -5    0.19    0.26
   0   7  -6   17.00    1.07
   0   7  -6   15.11    1.09
  -1   7  -7    0.53    0.28
  -1   7  -7    0.47    0.31
   2   8  -4    2.62    0.59
   2   8  -4    1.85    0.46
   0   9   7    0.04    0.22
   0  -9  -7   -0.06    0.18
   1   9   8   -0.14    0.25
  -1  -9  -8    0.12    0.23
  -3   8   4    6.13    0.75
   3  -8  -4    7.23    0.71
  -2   8   5    1.12    0.38
   2  -8  -5    0.65    0.29
  -1   8   6    0.00    0.20
   1  -8  -6    0.21    0.22
   0   8   7    1.52    0.43
   0  -8  -7    1.99    0.44
   1   8   8    3.19    0.59
  -1  -8  -8    2.82    0.53
   2   8   9   -0.19    0.20
  -2  -8  -9   -0.03    0.16
   3   8  10    0.18    0.26
  -3  -8 -10   -0.07    0.19
  -4   7   3   13.59    1.05
  -3   7   4    2.14    0.51
   3  -7  -4    2.18    0.42
  -2   7   5    0.45    0.26
   2  -7  -5    0.32    0.22
  -1   7   6    3.23    0.50
   1  -7  -6    3.19    0.45
   0   7   7   -0.09    0.17
   0  -7  -7   -0.11    0.11
   1   7   8    0.58    0.27
  -1  -7  -8    0.42    0.22
   2   7   9    0.13    0.18
  -2  -7  -9    0.05    0.17
   3   7  10    7.30    0.74
  -3  -7 -10    7.15    0.62
  -3  -7 -10    6.20    0.65
   4   7  11    1.48    0.47
  -4  -7 -11    1.27    0.37
  -4  -7 -11    2.27    0.51
  -5   6   2    0.54    0.34
  -4   6   3    1.62    0.43
  -3   6   4    2.51    0.51
   3  -6  -4    2.15    0.41
  -2   6   5    0.37    0.21
   2  -6  -5    0.45    0.20
  -1   6   6    0.44    0.22
   1  -6  -6    0.28    0.17
   0   6   7    1.02    0.30
   0  -6  -7    0.40    0.20
   1   6   8    0.03    0.16
  -1  -6  -8    0.05    0.12
  -1  -6  -8    0.47    0.19
   2   6   9    1.91    0.40
  -2  -6  -9    1.57    0.35
  -2  -6  -9    1.95    0.36
   3   6  10   -0.02    0.17
  -3  -6 -10    0.06    0.13
  -3  -6 -10    0.06    0.15
   4   6  11   28.23    1.45
  -4  -6 -11   28.36    1.33
  -4  -6 -11   28.12    1.31
   5   6  12    2.47    0.58
  -5  -6 -12    3.42    0.49
  -6   5   1    0.22    0.25
  -5   5   2    3.21    0.58
  -4   5   3    2.84    0.42
   4  -5  -3    2.38    0.36
  -3   5   4    4.78    0.51
   3  -5  -4    3.94    0.44
  -2   5   5    1.11    0.28
   2  -5  -5    0.47    0.19
  -1   5   6    2.88    0.36
   1  -5  -6    2.74    0.36
   0   5   7    7.33    0.56
   0  -5  -7    7.55    0.59
   0  -5  -7    8.64    0.49
   1   5   8    1.29    0.28
  -1  -5  -8    1.96    0.32
  -1  -5  -8    2.42    0.35
   2   5   9   -0.03    0.12
  -2  -5  -9    0.16    0.14
  -2  -5  -9    0.29    0.15
   3   5  10    1.43    0.37
  -3  -5 -10    1.16    0.29
  -3  -5 -10    1.19    0.31
   4   5  11    3.36    0.51
  -4  -5 -11    3.00    0.42
  -4  -5 -11    3.52    0.43
   5   5  12    0.93    0.33
  -5  -5 -12    1.13    0.36
   6   5  13    0.17    0.26
  -6  -5 -13    0.14    0.23
  -7   4   0    5.10    0.74
  -6   4   1    3.43    0.61
  -5   4   2    2.10    0.45
  -4   4   3   33.62    1.38
   4  -4  -3   32.35    1.24
  -3   4   4    5.68    0.49
   3  -4  -4    4.85    0.46
  -2   4   5    0.39    0.17
   2  -4  -5    0.30    0.12
   2  -4  -5    0.44    0.19
  -1   4   6    2.45    0.30
   1  -4  -6    2.57    0.32
   1  -4  -6    2.32    0.25
   0   4   7    5.35    0.42
   0  -4  -7    5.61    0.47
   0  -4  -7    4.66    0.37
   1   4   8   22.93    0.94
  -1  -4  -8   24.15    0.94
  -1  -4  -8   26.23    1.05
   2   4   9    0.00    0.10
  -2  -4  -9   -0.09    0.08
  -2  -4  -9   -0.02    0.12
   3   4  10    5.76    0.53
  -3  -4 -10    5.12    0.45
  -3  -4 -10    5.67    0.52
   4   4  11   24.38    1.18
  -4  -4 -11   21.98    0.97
  -4  -4 -11   22.31    1.11
   5   4  12    2.92    0.52
  -5  -4 -12    3.16    0.46
   6   4  13    1.81    0.47
  -6  -4 -13    2.35    0.51
  -7   3   0   -0.09    0.23
  -7   3   0    0.28    0.27
  -6   3   1    0.02    0.22
  -6   3   1   -0.04    0.14
  -5   3   2    4.63    0.51
  -5   3   2    3.78    0.41
   5  -3  -2    4.15    0.43
  -4   3   3    5.33    0.51
  -4   3   3    5.85    0.40
  -4   3   3    6.49    0.44
   4  -3  -3    6.44    0.50
   4  -3  -3    5.80    0.41
  -3   3   4    3.11    0.28
  -3   3   4    3.28    0.26
  -3   3   4    2.51    0.31
   3  -3  -4    2.78    0.33
   3  -3  -4    2.68    0.27
  -2   3   5   22.45    0.58
  -2   3   5   23.05    0.85
   2  -3  -5   22.06    0.66
   2  -3  -5   21.24    0.91
   2  -3  -5   21.37    0.79
  -1   3   6    2.95    0.28
   1  -3  -6    2.77    0.26
   1  -3  -6    2.73    0.30
   0   3   7    4.69    0.33
   0  -3  -7    4.12    0.37
   0  -3  -7    5.01    0.37
   1   3   8   25.35    0.90
  -1  -3  -8   26.62    1.00
  -1  -3  -8   26.73    0.98
  -1  -3  -8   26.44    0.69
   2   3   9   21.49    0.88
  -2  -3  -9   22.21    0.75
  -2  -3  -9   21.09    0.92
  -2  -3  -9   22.10    0.89
   3   3  10   11.46    0.70
  -3  -3 -10   11.54    0.71
  -3  -3 -10   11.99    0.63
  -3  -3 -10   11.65    0.62
   4   3  11    0.49    0.24
  -4  -3 -11    0.21    0.18
  -4  -3 -11    0.72    0.25
   5   3  12   -0.14    0.16
  -5  -3 -12    0.03    0.19
  -5  -3 -12    0.12    0.18
   6   3  13    0.86    0.35
  -6  -3 -13    0.27    0.25
  -6  -3 -13    1.16    0.40
  -7   2   0   12.56    0.96
  -7   2   0   12.82    0.89
  -6   2   1    0.69    0.28
  -6   2   1    0.78    0.24
  -6   2   1    1.12    0.31
  -5   2   2    1.43    0.27
  -5   2   2    1.07    0.25
  -5   2   2    1.43    0.32
  -4   2   3   11.84    0.66
  -4   2   3   11.38    0.58
  -4   2   3   10.35    0.55
  -3   2   4    0.38    0.13
  -3   2   4    0.57    0.15
  -3   2   4    0.35    0.15
   3  -2  -4    0.24    0.13
  -2   2   5    4.51    0.30
  -2   2   5    4.29    0.24
   2  -2  -5    4.44    0.38
   2  -2  -5    4.17    0.26
   2  -2  -5    4.75    0.36
  -1   2   6    1.53    0.17
   1  -2  -6    1.33    0.13
   1  -2  -6    1.19    0.22
   1  -2  -6    1.39    0.25
   0   2   7    5.47    0.29
   0  -2  -7    6.20    0.41
   0  -2  -7    5.80    0.27
   0  -2  -7    4.62    0.37
   1   2   8    3.77    0.28
  -1  -2  -8    4.02    0.34
  -1  -2  -8    4.39    0.29
  -1  -2  -8    4.75    0.38
   2   2   9   17.22    0.73
  -2  -2  -9   18.37    0.72
  -2  -2  -9   16.67    0.81
  -2  -2  -9   17.73    0.73
   3   2  10    5.33    0.45
  -3  -2 -10    4.99    0.46
  -3  -2 -10    4.67    0.42
  -3  -2 -10    5.24    0.37
   4   2  11    1.04    0.29
  -4  -2 -11    1.92    0.37
  -4  -2 -11    0.95    0.29
   5   2  12    1.81    0.42
  -5  -2 -12    2.00    0.42
  -5  -2 -12    1.22    0.34
   6   2  13   -0.07    0.18
  -6  -2 -13   -0.23    0.20
  -6  -2 -13   -0.16    0.17
  -8   1  -1    0.85    0.40
  -8   1  -1    0.85    0.35
   8  -1   1    0.28    0.32
  -7   1   0   -0.20    0.19
  -7   1   0    0.08    0.18
  -7   1   0   -0.10    0.16
   7  -1   0    0.02    0.19
  -6   1   1    4.68    0.54
  -6   1   1    4.43    0.50
  -6   1   1    4.60    0.46
  -5   1   2    2.29    0.37
  -5   1   2    2.17    0.38
  -5   1   2    1.97    0.28
  -4   1   3    0.27    0.13
  -4   1   3    0.23    0.12
  -4   1   3    0.32    0.15
  -3   1   4    0.02    0.06
  -3   1   4    0.11    0.10
  -3   1   4    0.08    0.08
   3  -1  -4    0.13    0.09
   3  -1  -4    0.09    0.09
  -2   1   5   18.15    0.72
  -2   1   5   19.67    0.58
   2  -1  -5   19.73    0.68
   2  -1  -5   19.86    0.76
  -1   1   6    2.48    0.13
   1  -1  -6    2.32    0.21
   1  -1  -6    2.43    0.26
   0   1   7   65.77    1.29
   0  -1  -7   67.93    1.71
   0  -1  -7   67.36    1.52
   1   1   8   39.75    1.01
  -1  -1  -8   41.26    1.15
  -1  -1  -8   39.57    1.14
  -1  -1  -8   38.85    1.23
   2   1   9   45.37    1.28
  -2  -1  -9   43.47    1.39
  -2  -1  -9   46.50    1.37
  -2  -1  -9   46.51    1.23
   3   1  10    7.70    0.54
  -3  -1 -10    8.40    0.57
  -3  -1 -10    7.71    0.56
  -3  -1 -10    6.96    0.51
   4   1  11   10.64    0.73
  -4  -1 -11   10.84    0.73
  -4  -1 -11   11.73    0.76
  -4  -1 -11   11.24    0.72
   5   1  12    3.58    0.49
  -5  -1 -12    4.13    0.50
  -5  -1 -12    2.47    0.48
  -5  -1 -12    3.06    0.44
   6   1  13    0.56    0.32
  -6  -1 -13    1.03    0.35
  -6  -1 -13    1.05    0.42
  -6  -1 -13    0.60    0.32
  -8   0  -1    0.05    0.25
  -8   0  -1    0.50    0.28
  -8   0  -1    0.25    0.25
   8   0   1   -0.18    0.18
  -7   0   0    0.31    0.23
  -7   0   0    0.53    0.28
  -7   0   0    0.39    0.25
   7   0   0    0.10    0.21
  -6   0   1    6.68    0.59
  -6   0   1    8.17    0.61
  -6   0   1    8.58    0.67
   6   0  -1    7.91    0.65
  -5   0   2    1.77    0.34
  -5   0   2    1.80    0.34
  -5   0   2    1.40    0.30
   5   0  -2    2.14    0.32
  -4   0   3    0.09    0.10
  -4   0   3    0.19    0.13
  -4   0   3    0.12    0.12
   4   0  -3    0.19    0.11
   4   0  -3    0.03    0.10
  -3   0   4   21.69    0.80
  -3   0   4   21.50    0.71
  -3   0   4   21.58    0.83
   3   0  -4   22.55    0.73
   3   0  -4   21.53    0.86
  -2   0   5    7.67    0.46
   2   0  -5    9.99    0.53
   2   0  -5    8.37    0.31
   2   0  -5    9.47    0.50
   1   0  -6   56.18    1.42
   1   0  -6   56.16    1.49
   0   0   7  101.03    1.79
   0   0  -7   98.98    2.25
   0   0  -7   99.96    2.30
   1   0   8   17.09    0.58
  -1   0  -8   17.50    0.75
  -1   0  -8   16.96    0.58
  -1   0  -8   17.05    0.74
   2   0   9   11.34    0.57
  -2   0  -9   11.52    0.57
  -2   0  -9   11.42    0.66
  -2   0  -9   11.21    0.63
  -2   0  -9   12.15    0.50
   3   0  10   36.93    1.28
  -3   0 -10   38.70    1.41
  -3   0 -10   38.93    1.33
  -3   0 -10   36.72    1.29
   4   0  11    4.63    0.48
  -4   0 -11    4.42    0.49
  -4   0 -11    4.84    0.52
  -4   0 -11    3.90    0.46
   5   0  12    7.94    0.70
  -5   0 -12    8.15    0.67
  -5   0 -12    9.64    0.78
  -5   0 -12    9.42    0.79
   6   0  13   -0.13    0.22
  -6   0 -13   -0.01    0.25
  -6   0 -13    0.26    0.26
  -6   0 -13    0.27    0.23
  -8  -1  -1    2.07    0.49
  -8  -1  -1    1.38    0.40
   8   1   1    3.15    0.59
  -7  -1   0   -0.04    0.19
  -7  -1   0   -0.06    0.17
   7   1   0   -0.01    0.17
  -6  -1   1    0.58    0.23
  -6  -1   1    0.58    0.25
   6   1  -1    0.51    0.25
   6   1  -1    0.55    0.27
  -5  -1   2    5.77    0.51
  -5  -1   2    4.53    0.46
   5   1  -2    6.81    0.59
   5   1  -2    5.74    0.48
  -4  -1   3    5.54    0.44
  -4  -1   3    5.30    0.44
   4   1  -3    5.68    0.42
   4   1  -3    5.68    0.50
  -3  -1   4    0.14    0.11
   3   1  -4    0.16    0.10
   3   1  -4    0.01    0.09
  -2  -1   5   14.12    0.65
   2   1  -5   12.79    0.63
   2   1  -5   13.94    0.46
   2   1  -5   13.78    0.66
  -1  -1   6    4.32    0.35
   1   1  -6    4.18    0.19
   1   1  -6    4.62    0.37
   1   1  -6    3.94    0.34
   0   1  -7   23.50    0.64
   0   1  -7   23.71    0.93
   0   1  -7   24.28    0.92
  -1   1  -8    0.56    0.14
  -1   1  -8    0.36    0.16
  -1   1  -8    0.64    0.18
  -2   1  -9    7.74    0.49
  -2   1  -9    7.95    0.53
  -2   1  -9    8.05    0.59
  -3   1 -10    4.76    0.46
  -3   1 -10    5.18    0.46
  -3   1 -10    4.50    0.48
  -4   1 -11   30.70    1.33
  -4   1 -11   33.01    1.25
  -4   1 -11   32.17    1.44
   5  -1  12   -0.04    0.21
  -5   1 -12   -0.02    0.18
  -5   1 -12    0.04    0.20
  -5   1 -12   -0.09    0.22
   6  -1  13    0.94    0.37
  -6   1 -13    2.29    0.54
  -6   1 -13    1.15    0.42
  -8  -2  -1    6.58    0.72
  -8  -2  -1    6.32    0.72
   8   2   1    6.49    0.73
   8   2   1    7.18    0.80
  -7  -2   0    0.99    0.36
  -7  -2   0    1.51    0.41
   7   2   0    2.03    0.44
   7   2   0    1.52    0.46
  -6  -2   1   10.90    0.76
  -6  -2   1   11.36    0.79
   6   2  -1    9.78    0.81
   6   2  -1   10.17    0.73
  -5  -2   2    0.13    0.16
  -5  -2   2    0.46    0.21
   5   2  -2    0.54    0.21
   5   2  -2    0.43    0.22
  -4  -2   3    6.65    0.52
  -4  -2   3    7.73    0.54
   4   2  -3    7.13    0.47
   4   2  -3    6.92    0.57
  -3  -2   4    0.72    0.20
   3   2  -4    1.27    0.22
   3   2  -4    0.69    0.22
  -2  -2   5    3.73    0.34
   2   2  -5    3.45    0.33
   2   2  -5    3.69    0.27
   2   2  -5    3.85    0.38
  -1  -2   6   30.25    1.02
   1   2  -6   30.41    1.13
   1   2  -6   31.06    0.84
   1   2  -6   30.41    1.04
   0   2  -7   22.40    0.98
   0   2  -7   22.43    0.89
   0   2  -7   23.64    0.75
  -1   2  -8    0.55    0.17
  -1   2  -8    0.22    0.15
  -1   2  -8    0.58    0.17
  -2   2  -9    0.00    0.12
  -2   2  -9    0.02    0.10
  -2   2  -9    0.01    0.11
  -3   2 -10   17.04    0.88
  -3   2 -10   17.16    1.00
  -3   2 -10   15.17    0.78
  -4   2 -11    1.29    0.36
  -4   2 -11    1.25    0.35
  -4   2 -11    0.68    0.24
  -5   2 -12    0.34    0.33
  -5   2 -12    0.45    0.27
  -7  -3   0    0.21    0.24
  -7  -3   0    0.47    0.27
   7   3   0    0.63    0.30
   7   3   0    0.15    0.25
  -6  -3   1    6.24    0.62
  -6  -3   1    6.42    0.61
   6   3  -1    5.61    0.56
   6   3  -1    6.98    0.72
  -5  -3   2    0.11    0.15
  -5  -3   2    0.16    0.16
   5   3  -2    0.35    0.19
   5   3  -2    0.11    0.17
  -4  -3   3    0.12    0.14
   4   3  -3    0.06    0.14
   4   3  -3    0.17    0.12
  -3  -3   4   11.23    0.65
   3   3  -4   13.26    0.79
   3   3  -4   13.30    0.65
  -2  -3   5    6.38    0.47
   2   3  -5    6.76    0.42
   2   3  -5    6.70    0.54
   2   3  -5    6.24    0.46
  -1  -3   6   16.62    0.74
   1   3  -6   18.88    0.71
   1   3  -6   16.04    0.87
   1   3  -6   15.48    0.73
   0   3  -7    0.69    0.22
   0   3  -7    1.33    0.31
   0   3  -7    1.07    0.22
  -1   3  -8   16.35    0.76
  -1   3  -8   15.43    0.73
  -1   3  -8   16.56    0.93
  -2   3  -9   10.09    0.59
  -2   3  -9   10.12    0.68
  -2   3  -9   10.47    0.77
  -3   3 -10    0.26    0.17
  -3   3 -10    0.48    0.24
  -4   3 -11   -0.03    0.18
  -4   3 -11    0.71    0.28
  -5   3 -12    0.06    0.23
  -5   3 -12    0.08    0.27
  -7  -4   0    0.30    0.24
  -7  -4   0    0.45    0.27
   7   4   0    0.64    0.32
   7   4   0    0.12    0.28
  -6  -4   1   -0.06    0.16
   6   4  -1   -0.03    0.18
   6   4  -1    0.17    0.20
  -5  -4   2    4.80    0.51
   5   4  -2    4.52    0.50
   5   4  -2    5.12    0.58
  -4  -4   3    0.01    0.13
   4   4  -3    0.08    0.13
   4   4  -3    0.12    0.19
  -3  -4   4    1.89    0.33
   3   4  -4    1.94    0.39
   3   4  -4    1.59    0.30
  -2  -4   5   18.21    0.83
   2   4  -5   19.41    0.84
   2   4  -5   19.53    0.86
   2   4  -5   17.23    0.95
  -1  -4   6   49.76    1.46
   1   4  -6   48.21    1.46
   1   4  -6   47.17    1.71
   1   4  -6   50.16    1.48
   0   4  -7    5.23    0.46
   0   4  -7    4.97    0.43
   0   4  -7    6.23    0.59
  -1   4  -8    0.13    0.14
  -1   4  -8    0.06    0.17
  -2   4  -9    1.12    0.32
  -2   4  -9    1.70    0.42
  -3   4 -10    0.62    0.27
  -3   4 -10    0.35    0.25
  -4   4 -11    1.52    0.45
  -4   4 -11    2.44    0.52
  -7  -5   0    0.27    0.25
   7   5   0    0.04    0.27
   7   5   0    0.45    0.34
  -6  -5   1    0.06    0.19
   6   5  -1   -0.07    0.21
   6   5  -1    0.07    0.21
  -5  -5   2   -0.09    0.16
   5   5  -2    0.03    0.16
   5   5  -2   -0.06    0.17
  -4  -5   3   13.96    0.82
   4   5  -3   14.10    0.86
   4   5  -3   13.82    0.97
  -3  -5   4    1.10    0.26
   3   5  -4    1.38    0.33
   3   5  -4    1.67    0.40
  -2  -5   5    3.31    0.39
   2   5  -5    3.26    0.46
   2   5  -5    3.31    0.38
   2   5  -5    4.08    0.44
   1   5  -6   21.33    0.90
   1   5  -6   19.22    1.10
   1   5  -6   19.03    0.95
   0   5  -7    0.09    0.15
   0   5  -7    0.04    0.21
  -1   5  -8   12.24    0.79
  -1   5  -8   12.06    0.91
  -2   5  -9    0.66    0.29
  -2   5  -9    0.72    0.31
  -3   5 -10    1.36    0.44
  -6  -6   1    5.10    0.62
   6   6  -1    4.62    0.63
   6   6  -1    4.04    0.74
  -5  -6   2    2.01    0.44
   5   6  -2    2.34    0.50
   5   6  -2    1.80    0.46
  -4  -6   3    6.24    0.59
   4   6  -3    5.26    0.59
   4   6  -3    5.86    0.69
  -3  -6   4   -0.06    0.16
   3   6  -4   -0.07    0.17
   3   6  -4    0.01    0.18
   2   6  -5    5.14    0.57
   2   6  -5    6.21    0.68
   1   6  -6   65.38    2.32
   0   6  -7   -0.07    0.19
  -1   6  -8   -0.04    0.19
  -2   6  -9    6.52    0.76
   4   7  -3    4.43    0.67
   3   7  -4    0.25    0.26
   2   7  -5   -0.29    0.21
   1   7  -6    0.12    0.24
   0   7  -7    3.12    0.61
  -1   7  -8    0.52    0.33
  -3   8   5    4.19    0.73
   3  -8  -5    2.57    0.51
  -2   8   6    0.51    0.31
   2  -8  -6    0.20    0.21
  -1   8   7    0.09    0.22
   1  -8  -7    0.26    0.24
   0   8   8    2.48    0.52
   0  -8  -8    2.38    0.49
   1   8   9    1.96    0.51
  -1  -8  -9    3.45    0.51
   2   8  10    0.31    0.28
  -2  -8 -10    0.25    0.24
   3   8  11    2.07    0.52
  -3  -8 -11    2.58    0.54
  -4   7   4    1.64    0.46
  -3   7   5    3.80    0.56
   3  -7  -5    5.28    0.60
  -2   7   6    6.65    0.66
   2  -7  -6    4.99    0.57
  -1   7   7    2.94    0.55
   1  -7  -7    2.71    0.48
   0   7   8    0.97    0.33
   0  -7  -8    0.57    0.26
   1   7   9    0.27    0.21
  -1  -7  -9    0.05    0.20
   2   7  10    0.30    0.25
  -2  -7 -10    0.24    0.19
   3   7  11    0.03    0.25
  -3  -7 -11   -0.03    0.17
  -3  -7 -11   -0.21    0.17
   4   7  12    2.33    0.56
  -4  -7 -12    2.46    0.49
  -4  -7 -12    2.66    0.56
  -5   6   3    1.16    0.40
  -4   6   4    4.34    0.60
   4  -6  -4    4.20    0.52
  -3   6   5    0.13    0.18
   3  -6  -5   -0.05    0.13
  -2   6   6    7.65    0.66
   2  -6  -6    7.03    0.62
  -1   6   7    8.61    0.70
   1  -6  -7    7.97    0.67
   0   6   8    0.09    0.17
   0  -6  -8    0.57    0.22
   1   6   9    4.87    0.52
  -1  -6  -9    5.62    0.55
  -1  -6  -9    5.71    0.49
   2   6  10    0.83    0.28
  -2  -6 -10    0.35    0.18
  -2  -6 -10    0.25    0.18
   3   6  11    5.17    0.61
  -3  -6 -11    4.63    0.52
  -3  -6 -11    5.44    0.56
   4   6  12    4.53    0.62
  -4  -6 -12    5.00    0.60
  -4  -6 -12    4.85    0.56
   5   6  13    0.39    0.29
  -5  -6 -13    0.00    0.19
  -6   5   2    0.38    0.34
  -5   5   3    2.84    0.55
  -4   5   4    2.64    0.48
   4  -5  -4    3.17    0.42
  -3   5   5    4.67    0.51
   3  -5  -5    5.73    0.52
  -2   5   6    8.59    0.63
   2  -5  -6    6.61    0.58
  -1   5   7   34.50    1.30
   1  -5  -7   35.04    1.39
   0   5   8    0.43    0.19
   0  -5  -8    0.74    0.25
   0  -5  -8    0.72    0.21
   1   5   9    1.85    0.34
  -1  -5  -9    1.70    0.32
  -1  -5  -9    1.25    0.30
   2   5  10    8.36    0.63
  -2  -5 -10    8.29    0.62
  -2  -5 -10    7.36    0.60
   3   5  11   -0.09    0.13
  -3  -5 -11    0.30    0.19
  -3  -5 -11   -0.11    0.14
   4   5  12    0.21    0.19
  -4  -5 -12    0.51    0.22
  -4  -5 -12    0.09    0.20
   5   5  13    1.61    0.43
  -5  -5 -13    0.64    0.30
  -7   4   1    2.99    0.62
  -6   4   2    0.05    0.22
  -5   4   3    5.42    0.59
   5  -4  -3    6.01    0.55
  -4   4   4    6.10    0.56
   4  -4  -4    7.00    0.57
  -3   4   5   10.18    0.65
   3  -4  -5    9.54    0.65
  -2   4   6    2.28    0.30
   2  -4  -6    2.40    0.33
   2  -4  -6    2.40    0.28
  -1   4   7    1.79    0.26
   1  -4  -7    1.75    0.25
   1  -4  -7    1.52    0.31
   0   4   8    2.53    0.30
   0  -4  -8    2.71    0.34
   0  -4  -8    2.42    0.29
   1   4   9    2.33    0.30
  -1  -4  -9    2.01    0.34
  -1  -4  -9    1.96    0.35
   2   4  10    0.11    0.12
  -2  -4 -10    0.32    0.18
  -2  -4 -10    0.19    0.14
   3   4  11    0.14    0.15
  -3  -4 -11   -0.04    0.14
  -3  -4 -11   -0.05    0.10
   4   4  12    0.23    0.19
  -4  -4 -12    0.21    0.20
   5   4  13    0.98    0.33
  -5  -4 -13    0.62    0.27
   6   4  14    0.07    0.26
  -6  -4 -14    0.64    0.31
  -7   3   1    1.50    0.47
  -6   3   2    6.12    0.57
  -6   3   2    5.21    0.61
  -5   3   3    1.51    0.29
  -5   3   3    1.47    0.36
   5  -3  -3    1.82    0.35
  -4   3   4   -0.02    0.08
  -4   3   4    0.01    0.12
  -4   3   4   -0.07    0.09
   4  -3  -4    0.09    0.13
   4  -3  -4    0.11    0.13
  -3   3   5    0.30    0.11
  -3   3   5    0.16    0.12
   3  -3  -5    0.22    0.15
   3  -3  -5    0.64    0.18
  -2   3   6   32.51    1.05
   2  -3  -6   30.07    1.19
   2  -3  -6   34.22    1.11
  -1   3   7   22.99    0.80
   1  -3  -7   22.16    0.86
   1  -3  -7   23.96    0.98
   0   3   8    0.34    0.13
   0  -3  -8    0.30    0.14
   0  -3  -8    0.35    0.15
   1   3   9   25.13    0.88
  -1  -3  -9   24.21    0.97
  -1  -3  -9   26.00    1.01
   2   3  10    0.56    0.18
  -2  -3 -10    0.65    0.21
  -2  -3 -10    0.32    0.15
   3   3  11   10.68    0.67
  -3  -3 -11   10.35    0.59
  -3  -3 -11   10.75    0.61
  -3  -3 -11   10.21    0.70
   4   3  12    5.94    0.56
  -4  -3 -12    5.13    0.50
  -4  -3 -12    4.44    0.51
   5   3  13    2.82    0.51
  -5  -3 -13    3.76    0.52
  -5  -3 -13    2.51    0.45
   6   3  14    4.40    0.62
  -6  -3 -14    4.55    0.64
  -6  -3 -14    4.86    0.63
  -7   2   1    4.87    0.62
  -7   2   1    6.72    0.66
  -6   2   2    1.89    0.40
  -6   2   2    2.49    0.34
  -6   2   2    2.40    0.47
  -5   2   3    0.06    0.14
  -5   2   3    0.14    0.14
  -5   2   3    0.22    0.16
  -4   2   4    0.64    0.19
  -4   2   4    0.44    0.16
  -4   2   4    0.46    0.18
   4  -2  -4    0.56    0.18
  -3   2   5    0.76    0.18
  -3   2   5    0.78    0.19
  -3   2   5    0.85    0.17
   3  -2  -5    0.55    0.16
   3  -2  -5    0.68    0.18
  -2   2   6   30.78    0.88
   2  -2  -6   30.84    1.15
   2  -2  -6   30.45    1.04
   2  -2  -6   29.65    0.85
  -1   2   7   58.37    1.28
   1  -2  -7   54.69    1.56
   1  -2  -7   58.86    1.26
   1  -2  -7   56.75    1.65
   0   2   8    6.02    0.30
   0  -2  -8    4.84    0.41
   0  -2  -8    5.62    0.43
   0  -2  -8    5.33    0.30
   1   2   9   10.23    0.48
  -1  -2  -9   10.96    0.59
  -1  -2  -9   10.96    0.50
  -1  -2  -9   10.44    0.61
   2   2  10    0.35    0.13
  -2  -2 -10    0.45    0.16
  -2  -2 -10    0.59    0.20
  -2  -2 -10    0.25    0.13
   3   2  11   47.62    1.55
  -3  -2 -11   51.87    1.43
  -3  -2 -11   50.99    1.57
  -3  -2 -11   51.32    1.67
   4   2  12    9.93    0.71
  -4  -2 -12   10.40    0.72
  -4  -2 -12    8.91    0.71
   5   2  13    0.04    0.19
  -5  -2 -13   -0.08    0.18
  -5  -2 -13    0.04    0.18
   6   2  14    7.38    0.76
  -6  -2 -14    5.89    0.68
  -6  -2 -14    6.86    0.70
  -8   1   0    0.54    0.33
  -8   1   0    0.30    0.26
   8  -1   0    1.04    0.39
  -7   1   1    0.07    0.21
  -7   1   1    0.69    0.28
  -7   1   1    0.39    0.23
   7  -1  -1    0.38    0.24
  -6   1   2    1.52    0.31
  -6   1   2    1.77    0.40
  -6   1   2    1.58    0.37
   6  -1  -2    1.44    0.38
  -5   1   3   19.70    0.90
  -5   1   3   20.51    0.95
  -5   1   3   19.86    0.90
  -4   1   4    2.11    0.28
  -4   1   4    2.38    0.29
  -4   1   4    2.30    0.28
   4  -1  -4    1.88    0.28
  -3   1   5    0.21    0.10
  -3   1   5    0.18    0.10
  -3   1   5    0.35    0.16
   3  -1  -5    0.32    0.14
   3  -1  -5    0.33    0.15
  -2   1   6   18.53    0.77
  -2   1   6   20.79    0.56
   2  -1  -6   18.11    0.78
   2  -1  -6   19.98    0.72
   1  -1  -7   20.88    0.72
   1  -1  -7   22.14    0.87
   0   1   8   56.34    1.11
   0  -1  -8   58.40    1.43
   0  -1  -8   54.11    1.56
   1   1   9   -0.01    0.07
  -1  -1  -9   -0.02    0.08
  -1  -1  -9    0.06    0.08
  -1  -1  -9    0.07    0.10
   2   1  10    4.50    0.36
  -2  -1 -10    3.86    0.38
  -2  -1 -10    4.00    0.33
  -2  -1 -10    3.35    0.38
   3   1  11   44.84    1.43
  -3  -1 -11   44.89    1.50
  -3  -1 -11   42.54    1.50
   4   1  12    0.23    0.20
  -4  -1 -12    0.02    0.15
  -4  -1 -12   -0.02    0.13
  -4  -1 -12   -0.04    0.15
   5   1  13    0.00    0.19
  -5  -1 -13    0.10    0.17
  -5  -1 -13    0.01    0.18
   6   1  14    0.64    0.32
  -6  -1 -14    0.76    0.36
  -6  -1 -14    0.69    0.32
  -8   0   0    1.24    0.40
  -8   0   0    1.72    0.43
  -8   0   0    1.35    0.42
   8   0   0    1.76    0.49
  -7   0   1    7.99    0.74
  -7   0   1    8.37    0.73
  -7   0   1    7.87    0.67
   7   0  -1    6.29    0.67
  -6   0   2    6.98    0.57
  -6   0   2    6.36    0.58
  -6   0   2    6.26    0.57
   6   0  -2    6.73    0.64
   6   0  -2    7.37    0.62
  -5   0   3   19.43    0.90
  -5   0   3   19.53    0.91
  -5   0   3   19.40    0.93
   5   0  -3   19.87    0.99
   5   0  -3   19.54    0.91
  -4   0   4   17.66    0.82
  -4   0   4   17.42    0.73
  -4   0   4   19.39    0.83
   4   0  -4   18.89    0.77
   4   0  -4   19.10    0.88
  -3   0   5    0.50    0.17
  -3   0   5    0.88    0.15
   3   0  -5    0.82    0.20
   3   0  -5    1.33    0.27
   3   0  -5    0.63    0.14
  -2   0   6   28.51    1.01
   2   0  -6   28.89    0.98
   2   0  -6   28.68    0.64
   2   0  -6   28.49    1.03
   1   0  -7   15.75    0.74
   1   0  -7   16.94    0.70
   0   0   8    7.98    0.23
   0   0  -8    8.18    0.53
   0   0  -8    7.11    0.47
   1   0   9    7.59    0.37
  -1   0  -9    7.73    0.38
  -1   0  -9    7.37    0.51
  -1   0  -9    7.56    0.51
   2   0  10    5.42    0.40
  -2   0 -10    5.67    0.36
  -2   0 -10    5.49    0.49
  -2   0 -10    5.62    0.47
  -2   0 -10    5.42    0.40
   3   0  11   76.92    2.06
  -3   0 -11   75.99    2.21
  -3   0 -11   74.84    2.05
  -3   0 -11   75.06    2.13
   4   0  12    0.11    0.16
  -4   0 -12    0.09    0.17
  -4   0 -12    0.00    0.13
  -4   0 -12   -0.08    0.18
   5   0  13    0.06    0.20
  -5   0 -13    0.14    0.21
  -5   0 -13   -0.12    0.18
  -5   0 -13   -0.09    0.20
   6   0  14    1.84    0.48
  -6   0 -14    2.45    0.56
  -6   0 -14    1.35    0.36
  -8  -1   0    1.02    0.36
  -8  -1   0    0.18    0.27
   8   1   0    0.47    0.32
   8   1   0    0.34    0.31
  -7  -1   1    0.11    0.22
  -7  -1   1    0.38    0.25
   7   1  -1    0.37    0.26
   7   1  -1    0.24    0.22
  -6  -1   2    1.71    0.38
  -6  -1   2    1.44    0.35
   6   1  -2    2.45    0.47
   6   1  -2    1.80    0.36
  -5  -1   3    6.42    0.53
  -5  -1   3    7.19    0.57
   5   1  -3    5.85    0.55
   5   1  -3    5.17    0.46
  -4  -1   4   49.16    1.52
  -4  -1   4   46.16    1.48
   4   1  -4   45.48    1.56
   4   1  -4   48.22    1.35
  -3  -1   5    6.98    0.49
   3   1  -5    7.07    0.37
   3   1  -5    6.35    0.50
  -2  -1   6    3.53    0.35
   2   1  -6    3.78    0.37
   2   1  -6    4.08    0.38
   1   1  -7    8.28    0.53
   1   1  -7    7.74    0.52
   0   1  -8    3.59    0.37
   0   1  -8    4.12    0.39
  -1   1  -9   25.13    1.04
  -1   1  -9   21.41    0.91
  -1   1  -9   21.78    0.77
  -2   1 -10    0.06    0.13
  -2   1 -10    0.13    0.14
  -2   1 -10    0.02    0.11
  -3   1 -11    1.24    0.29
  -3   1 -11    0.74    0.25
  -3   1 -11    1.44    0.31
  -4   1 -12    2.54    0.50
  -4   1 -12    2.14    0.40
  -4   1 -12    1.89    0.40
   5  -1  13    2.89    0.53
  -5   1 -13    2.92    0.51
  -5   1 -13    2.71    0.58
  -8  -2   0    0.78    0.37
  -8  -2   0    0.62    0.35
   8   2   0    1.03    0.38
   8   2   0    0.52    0.36
  -7  -2   1    0.57    0.27
  -7  -2   1    0.18    0.23
   7   2  -1    0.21    0.23
   7   2  -1    0.13    0.25
  -6  -2   2    2.21    0.41
  -6  -2   2    2.41    0.47
   6   2  -2    2.58    0.40
   6   2  -2    3.64    0.62
  -5  -2   3    0.54    0.23
  -5  -2   3    1.23    0.31
   5   2  -3    0.65    0.27
   5   2  -3    0.58    0.21
  -4  -2   4    0.14    0.13
   4   2  -4    0.04    0.12
   4   2  -4    0.06    0.09
  -3  -2   5    0.39    0.17
   3   2  -5    0.58    0.24
   3   2  -5    0.54    0.15
  -2  -2   6    1.44    0.28
   2   2  -6    1.46    0.31
   2   2  -6    1.47    0.29
   1   2  -7    1.12    0.27
   1   2  -7    1.06    0.24
   0   2  -8    0.20    0.12
   0   2  -8    0.13    0.13
  -1   2  -9    0.01    0.11
  -1   2  -9    0.07    0.10
  -2   2 -10    2.16    0.43
  -2   2 -10    2.05    0.35
  -3   2 -11    0.45    0.25
  -3   2 -11    0.30    0.18
  -4   2 -12    6.70    0.70
  -5   2 -13   -0.38    0.23
  -7  -3   1   -0.12    0.19
  -7  -3   1    0.79    0.33
   7   3  -1    0.50    0.27
   7   3  -1    0.48    0.29
  -6  -3   2    2.13    0.43
  -6  -3   2    1.56    0.37
   6   3  -2    1.42    0.34
   6   3  -2    1.68    0.44
  -5  -3   3   15.42    0.89
   5   3  -3   16.43    1.03
   5   3  -3   16.92    0.88
  -4  -3   4    6.20    0.53
   4   3  -4    7.18    0.59
   4   3  -4    6.60    0.62
  -3  -3   5    5.60    0.48
   3   3  -5    6.03    0.55
  -2  -3   6    0.03    0.11
   2   3  -6   -0.15    0.11
   2   3  -6    0.09    0.15
   1   3  -7   23.16    0.96
   1   3  -7   23.78    1.11
   0   3  -8   11.74    0.67
   0   3  -8   10.88    0.76
  -1   3  -9    2.09    0.34
  -1   3  -9    2.38    0.46
  -2   3 -10    1.70    0.33
  -2   3 -10    1.46    0.38
  -3   3 -11    6.82    0.71
  -4   3 -12    0.94    0.40
  -7  -4   1    0.00    0.19
   7   4  -1   -0.12    0.22
  -6  -4   2    0.07    0.22
   6   4  -2    0.32    0.27
  -5  -4   3   29.09    1.28
   5   4  -3   27.84    1.44
  -4  -4   4    0.33    0.18
   4   4  -4    0.11    0.19
  -3  -4   5    3.48    0.40
   3   4  -5    3.04    0.45
  -2  -4   6   25.69    1.06
   2   4  -6   25.60    1.22
   2   4  -6   24.81    1.04
   1   4  -7   10.58    0.65
   1   4  -7   10.56    0.78
   0   4  -8    4.35    0.54
   0   4  -8    4.74    0.45
  -1   4  -9    0.77    0.33
  -2   4 -10   13.19    0.96
  -3   4 -11    8.50    0.83
  -4   4 -12    0.95    0.36
  -6  -5   2    1.00    0.34
   6   5  -2    0.64    0.35
  -5  -5   3    2.43    0.47
   5   5  -3    2.06    0.50
  -4  -5   4    0.02    0.17
   4   5  -4    0.26    0.23
  -3  -5   5    0.09    0.15
   3   5  -5   -0.06    0.16
  -2  -5   6    0.69    0.25
   2   5  -6    0.60    0.30
   2   5  -6    0.27    0.18
   1   5  -7   27.28    1.12
   1   5  -7   28.30    1.40
   0   5  -8    0.43    0.29
  -1   5  -9    2.14    0.49
  -2   5 -10    0.03    0.22
  -3   5 -11    1.62    0.50
  -5  -6   3    4.77    0.58
   5   6  -3    5.64    0.73
  -4  -6   4    0.08    0.18
   4   6  -4    0.08    0.19
   3   6  -5    4.94    0.53
   3   6  -5    3.25    0.59
   2   6  -6    4.31    0.60
   1   6  -7    2.78    0.56
   0   6  -8    0.40    0.28
  -1   6  -9    4.01    0.70
  -2   6 -10    2.89    0.61
   4   7  -4    0.48    0.32
   3   7  -5    0.77    0.36
   2   7  -6    0.07    0.28
   1   7  -7    1.74    0.48
   0   7  -8    0.73    0.37
  -3   8   6    3.21    0.66
   3  -8  -6    2.12    0.50
  -2   8   7   -0.04    0.22
   2  -8  -7    0.04    0.19
  -1   8   8    0.39    0.26
   1  -8  -8    0.06    0.20
   0   8   9    4.61    0.61
   0  -8  -9    3.60    0.55
   1   8  10   -0.07    0.21
  -1  -8 -10    0.17    0.19
   2   8  11    1.07    0.41
  -2  -8 -11    1.51    0.43
   3   8  12    6.81    0.80
  -4   7   5    1.17    0.44
   4  -7  -5    3.31    0.51
  -3   7   6    3.47    0.61
   3  -7  -6    2.04    0.46
  -2   7   7    7.18    0.70
   2  -7  -7    5.47    0.63
  -1   7   8    0.68    0.30
   1  -7  -8    0.47    0.28
   0   7   9    0.33    0.27
   0  -7  -9    0.39    0.23
   1   7  10    3.00    0.46
  -1  -7 -10    3.11    0.55
   2   7  11    3.71    0.55
  -2  -7 -11    4.81    0.59
   3   7  12    6.69    0.73
  -3  -7 -12    8.11    0.69
  -3  -7 -12    8.33    0.78
   4   7  13    0.23    0.27
  -4  -7 -13    0.04    0.22
  -4  -7 -13    0.26    0.26
  -5   6   4   17.52    1.17
  -4   6   5    0.89    0.33
   4  -6  -5    0.29    0.20
  -3   6   6    2.60    0.51
   3  -6  -6    3.45    0.47
  -2   6   7    0.39    0.22
   2  -6  -7    1.50    0.36
  -1   6   8    0.92    0.31
   1  -6  -8    1.45    0.36
   0   6   9    4.58    0.50
   0  -6  -9    5.24    0.56
   1   6  10    0.16    0.20
  -1  -6 -10    0.54    0.24
  -1  -6 -10    0.98    0.27
   2   6  11   -0.05    0.17
  -2  -6 -11    0.05    0.19
  -2  -6 -11    0.11    0.14
   3   6  12    7.05    0.68
  -3  -6 -12    6.54    0.64
  -3  -6 -12    5.40    0.59
   4   6  13    0.20    0.22
  -4  -6 -13    0.75    0.29
  -4  -6 -13    0.26    0.20
  -6   5   3    0.49    0.33
  -5   5   4    1.16    0.41
  -4   5   5    0.13    0.21
   4  -5  -5   -0.01    0.17
  -3   5   6    0.71    0.25
   3  -5  -6    0.17    0.15
  -2   5   7   25.32    1.10
   2  -5  -7   26.37    1.19
  -1   5   8    7.53    0.58
   1  -5  -8    6.68    0.48
   1  -5  -8    8.10    0.65
   0   5   9   18.57    0.89
   0  -5  -9   18.85    0.85
   0  -5  -9   20.72    1.05
   1   5  10    9.36    0.63
  -1  -5 -10    9.29    0.70
  -1  -5 -10    8.64    0.61
   2   5  11    8.37    0.65
  -2  -5 -11    7.07    0.61
  -2  -5 -11    7.57    0.61
   3   5  12    4.27    0.51
  -3  -5 -12    5.72    0.60
  -3  -5 -12    4.90    0.51
   4   5  13    0.13    0.19
  -4  -5 -13    0.02    0.20
  -4  -5 -13    0.16    0.20
   5   5  14    4.01    0.59
  -5  -5 -14    4.09    0.57
  -6   4   3    0.19    0.23
  -5   4   4    3.19    0.46
   5  -4  -4    3.38    0.42
  -4   4   5    0.10    0.17
   4  -4  -5    0.12    0.14
  -3   4   6    6.62    0.53
   3  -4  -6    6.61    0.56
  -2   4   7    0.23    0.15
   2  -4  -7    0.14    0.13
   2  -4  -7    0.18    0.12
  -1   4   8   11.83    0.63
   1  -4  -8   11.08    0.62
   1  -4  -8   13.23    0.78
   0   4   9    0.23    0.13
   0  -4  -9    0.15    0.12
   0  -4  -9    0.20    0.15
   1   4  10    7.24    0.51
  -1  -4 -10    8.47    0.59
  -1  -4 -10    9.35    0.65
   2   4  11   22.21    0.99
  -2  -4 -11   23.98    1.07
  -2  -4 -11   23.29    1.07
   3   4  12    3.51    0.44
  -3  -4 -12    3.84    0.46
  -3  -4 -12    3.80    0.43
   4   4  13    3.29    0.49
  -4  -4 -13    2.36    0.47
   5   4  14    0.47    0.27
  -5  -4 -14    0.12    0.24
  -7   3   2    2.08    0.48
  -6   3   3    0.40    0.24
  -5   3   4    0.13    0.16
   5  -3  -4    0.16    0.17
  -4   3   5    0.06    0.13
  -4   3   5   -0.09    0.09
   4  -3  -5    0.08    0.12
   4  -3  -5    0.01    0.14
  -3   3   6    4.05    0.38
   3  -3  -6    4.28    0.40
   3  -3  -6    4.21    0.44
  -2   3   7    2.37    0.26
   2  -3  -7    2.70    0.32
   2  -3  -7    2.07    0.31
  -1   3   8   26.05    0.83
   1  -3  -8   24.68    0.97
   1  -3  -8   25.11    1.07
   0   3   9   21.51    0.75
   0  -3  -9   19.97    0.89
   0  -3  -9   22.98    0.98
   1   3  10    4.32    0.35
  -1  -3 -10    4.40    0.43
  -1  -3 -10    5.12    0.45
   2   3  11    0.59    0.19
  -2  -3 -11    0.24    0.15
  -2  -3 -11    0.41    0.21
   3   3  12    2.73    0.36
  -3  -3 -12    2.72    0.34
  -3  -3 -12    1.95    0.39
   4   3  13    3.45    0.45
  -4  -3 -13    2.62    0.49
   5   3  14   -0.05    0.17
  -5  -3 -14    0.01    0.22
  -7   2   2    0.08    0.19
  -7   2   2    0.18    0.25
  -6   2   3    8.23    0.63
  -6   2   3    9.10    0.74
  -6   2   3    8.40    0.64
  -5   2   4   -0.07    0.11
  -5   2   4    0.01    0.12
  -5   2   4    0.02    0.15
   5  -2  -4   -0.11    0.11
  -4   2   5   12.97    0.63
  -4   2   5   12.74    0.68
  -4   2   5   12.84    0.66
   4  -2  -5   13.13    0.70
   4  -2  -5   12.18    0.65
  -3   2   6    2.87    0.26
  -3   2   6    2.30    0.25
  -3   2   6    2.56    0.30
   3  -2  -6    2.34    0.29
   3  -2  -6    1.78    0.24
  -2   2   7   -0.02    0.05
   2  -2  -7    0.15    0.15
   2  -2  -7   -0.04    0.08
   2  -2  -7    0.06    0.07
  -1   2   8  100.40    1.99
   1  -2  -8  104.36    2.47
   1  -2  -8  102.47    2.08
   1  -2  -8  102.74    2.55
   0   2   9    9.00    0.38
   0  -2  -9    9.06    0.58
   0  -2  -9    9.37    0.59
   0  -2  -9    9.54    0.44
   1   2  10   24.32    0.79
  -1  -2 -10   23.52    0.95
  -1  -2 -10   24.91    0.85
  -1  -2 -10   24.66    1.03
   2   2  11   16.76    0.73
  -2  -2 -11   18.17    0.79
  -2  -2 -11   16.96    0.76
  -2  -2 -11   18.76    0.92
   3   2  12   14.35    0.77
  -3  -2 -12   13.89    0.85
  -3  -2 -12   13.62    0.76
   4   2  13    1.03    0.29
  -4  -2 -13    0.99    0.31
  -4  -2 -13    0.69    0.26
   5   2  14    1.01    0.32
  -5  -2 -14    0.73    0.33
  -5  -2 -14    0.71    0.32
  -7   1   2    3.57    0.54
  -7   1   2    3.32    0.53
  -7   1   2    4.50    0.53
   7  -1  -2    3.07    0.57
  -6   1   3   -0.07    0.15
  -6   1   3    0.44    0.22
  -6   1   3    0.09    0.18
   6  -1  -3    0.36    0.22
   6  -1  -3    0.53    0.23
  -5   1   4    2.28    0.38
  -5   1   4    2.86    0.37
  -5   1   4    2.82    0.37
   5  -1  -4    3.22    0.41
   5  -1  -4    2.28    0.39
  -4   1   5    0.03    0.12
  -4   1   5    0.03    0.10
  -4   1   5    0.29    0.13
   4  -1  -5   -0.04    0.11
   4  -1  -5   -0.01    0.11
  -3   1   6    5.86    0.44
  -3   1   6    5.01    0.32
   3  -1  -6    5.51    0.46
   3  -1  -6    5.61    0.41
  -2   1   7   13.98    0.41
   2  -1  -7   14.76    0.62
   2  -1  -7   12.50    0.69
   1  -1  -8   48.30    1.30
   1  -1  -8   48.12    1.50
   0  -1  -9   14.67    0.64
   0  -1  -9   14.02    0.73
   1   1  10    3.08    0.24
  -1  -1 -10    2.86    0.31
  -1  -1 -10    4.01    0.40
  -1  -1 -10    4.30    0.38
   2   1  11   11.39    0.58
  -2  -1 -11   11.27    0.71
  -2  -1 -11   11.38    0.66
  -2  -1 -11   11.21    0.58
   3   1  12   17.71    0.84
  -3  -1 -12   17.74    0.92
  -3  -1 -12   18.08    0.96
   4   1  13    1.34    0.32
  -4  -1 -13    1.54    0.36
  -4  -1 -13    1.00    0.31
   5   1  14    0.41    0.27
  -5  -1 -14    0.30    0.24
  -5  -1 -14    1.15    0.36
  -8   0   1    1.01    0.36
  -8   0   1    1.57    0.40
  -8   0   1    1.02    0.36
   8   0  -1    0.75    0.35
  -7   0   2    0.91    0.34
  -7   0   2    0.31    0.23
  -7   0   2    0.67    0.25
   7   0  -2    0.57    0.30
  -6   0   3    0.28    0.18
  -6   0   3    0.54    0.25
  -6   0   3    0.79    0.27
   6   0  -3    0.47    0.26
  -5   0   4    0.63    0.20
  -5   0   4    0.89    0.25
  -5   0   4    1.28    0.29
   5   0  -4    0.79    0.26
  -4   0   5   -0.02    0.09
  -4   0   5    0.16    0.12
  -4   0   5    0.16    0.10
   4   0  -5   -0.03    0.11
  -3   0   6    0.42    0.17
   3   0  -6    0.62    0.19
   3   0  -6    0.70    0.21
  -2   0   7   11.14    0.63
   2   0  -7   11.75    0.62
   2   0  -7   12.34    0.67
   1   0  -8    4.65    0.39
   1   0  -8    4.82    0.42
   0   0  -9    3.86    0.37
   0   0  -9    3.87    0.39
  -1   0 -10    2.57    0.32
  -1   0 -10    2.20    0.31
  -2   0 -11    0.43    0.19
  -2   0 -11    0.62    0.22
   3   0  12    1.19    0.31
  -3   0 -12    0.60    0.25
  -3   0 -12    1.12    0.29
  -4   0 -13    0.33    0.25
  -4   0 -13    0.37    0.22
  -5   0 -14   -0.13    0.18
  -5   0 -14   -0.03    0.20
   8   1  -1   -0.17    0.19
  -7  -1   2   11.68    0.84
  -7  -1   2   12.00    0.87
   7   1  -2   10.31    0.90
  -6  -1   3    0.02    0.16
  -6  -1   3    0.18    0.17
   6   1  -3    0.53    0.25
  -5  -1   4   13.93    0.81
  -5  -1   4   12.18    0.76
   5   1  -4   14.00    0.88
  -4  -1   5    0.03    0.16
   4   1  -5    0.28    0.18
  -3  -1   6   18.85    0.87
   3   1  -6   17.96    0.86
   3   1  -6   16.59    0.86
  -2  -1   7   24.36    0.98
   2   1  -7   23.55    0.99
   2   1  -7   22.36    0.96
   1   1  -8    4.54    0.43
   1   1  -8    4.75    0.43
   0   1  -9   20.57    0.96
   0   1  -9   21.41    0.95
  -1   1 -10    8.58    0.62
  -1   1 -10    8.68    0.60
  -2   1 -11    2.53    0.44
  -2   1 -11    2.09    0.38
  -3   1 -12    1.97    0.38
  -3   1 -12    2.57    0.46
  -4   1 -13    2.22    0.48
  -4   1 -13    2.18    0.42
  -5   1 -14    1.01    0.40
  -5   1 -14    0.88    0.33
  -7  -2   2    0.13    0.20
  -7  -2   2    0.39    0.25
   7   2  -2    0.20    0.26
  -6  -2   3   11.34    0.80
  -6  -2   3   10.62    0.80
   6   2  -3   12.34    0.93
  -5  -2   4    0.07    0.14
   5   2  -4   -0.12    0.13
  -4  -2   5   19.27    0.95
   4   2  -5   19.51    1.04
  -3  -2   6   22.62    0.99
   3   2  -6   21.90    1.05
   3   2  -6   22.45    1.00
  -2  -2   7   70.34    1.95
   2   2  -7   72.71    2.07
   2   2  -7   72.45    1.99
   1   2  -8   17.16    0.84
   1   2  -8   17.42    0.91
   0   2  -9    0.59    0.23
   0   2  -9    0.78    0.24
  -1   2 -10   10.75    0.67
  -1   2 -10   12.27    0.80
  -2   2 -11    3.68    0.49
  -2   2 -11    3.54    0.42
  -3   2 -12    5.41    0.63
  -3   2 -12    3.92    0.47
  -4   2 -13    0.71    0.35
  -5   2 -14    0.74    0.39
  -7  -3   2   -0.10    0.18
  -7  -3   2    0.29    0.29
   7   3  -2    0.38    0.31
  -6  -3   3    0.37    0.21
   6   3  -3    0.36    0.27
  -5  -3   4    8.18    0.66
   5   3  -4    5.34    0.62
  -4  -3   5    0.42    0.20
   4   3  -5    0.15    0.18
  -3  -3   6    5.39    0.49
   3   3  -6    6.27    0.59
   3   3  -6    6.80    0.56
  -2  -3   7   12.47    0.72
   2   3  -7   12.59    0.81
   2   3  -7   12.70    0.74
   1   3  -8    1.53    0.37
   1   3  -8    1.42    0.31
   0   3  -9    1.95    0.37
   0   3  -9    1.92    0.42
  -1   3 -10    0.39    0.18
  -1   3 -10    0.27    0.20
  -2   3 -11    1.99    0.44
  -2   3 -11    1.89    0.37
  -3   3 -12    0.03    0.22
  -4   3 -13    0.56    0.31
  -7  -4   2    5.55    0.67
   7   4  -2    4.72    0.70
  -6  -4   3    2.66    0.48
   6   4  -3    3.35    0.65
  -5  -4   4    3.18    0.46
   5   4  -4    3.08    0.60
  -4  -4   5    1.97    0.40
   4   4  -5    2.38    0.47
  -3  -4   6    1.47    0.32
   3   4  -6    1.64    0.34
   3   4  -6    2.26    0.46
  -2  -4   7   96.00    2.50
   2   4  -7   97.83    2.53
   2   4  -7   96.63    2.79
   1   4  -8    0.71    0.25
   1   4  -8    0.78    0.31
   0   4  -9    5.99    0.67
   0   4  -9    6.50    0.56
  -1   4 -10    1.48    0.40
  -2   4 -11    5.79    0.67
  -3   4 -12    1.12    0.41
  -6  -5   3    0.54    0.29
   6   5  -3    0.34    0.31
  -5  -5   4    1.00    0.34
   5   5  -4    1.16    0.38
  -4  -5   5    0.01    0.18
   4   5  -5   -0.22    0.21
  -3  -5   6    4.07    0.47
   3   5  -6    4.46    0.58
   3   5  -6    4.35    0.48
  -2  -5   7    0.26    0.20
   2   5  -7    0.12    0.18
   2   5  -7    0.13    0.22
   1   5  -8    2.05    0.49
   0   5  -9    0.26    0.25
  -1   5 -10    5.32    0.66
  -2   5 -11    1.15    0.41
  -5  -6   4    0.44    0.28
   5   6  -4    0.29    0.30
  -4  -6   5    0.62    0.29
   4   6  -5    0.00    0.25
   3   6  -6    4.39    0.61
   3   6  -6    4.86    0.56
   2   6  -7   -0.17    0.22
   1   6  -8    1.01    0.37
   0   6  -9   -0.07    0.22
  -1   6 -10   -0.05    0.24
   2   7  -7    0.58    0.36
  -2   8   8    1.85    0.49
   2  -8  -8    2.93    0.56
  -1   8   9    0.37    0.26
   1  -8  -9    0.83    0.35
   0   8  10    0.55    0.31
   0  -8 -10    0.39    0.29
   1   8  11    0.42    0.30
  -1  -8 -11    0.22    0.25
   2   8  12    0.29    0.27
  -2  -8 -12    0.46    0.29
  -4   7   6   -0.26    0.25
   4  -7  -6    0.28    0.23
  -3   7   7    1.26    0.40
   3  -7  -7    1.56    0.41
  -2   7   8    2.43    0.48
   2  -7  -8    2.55    0.50
  -1   7   9    1.32    0.38
   1  -7  -9    0.99    0.32
   0   7  10    3.31    0.49
   0  -7 -10    2.55    0.51
   1   7  11    3.33    0.51
  -1  -7 -11    2.25    0.49
   2   7  12    5.21    0.61
  -2  -7 -12    6.12    0.67
   3   7  13    3.62    0.55
  -3  -7 -13    2.68    0.52
  -3  -7 -13    3.01    0.56
  -5   6   5    0.18    0.27
  -4   6   6    0.97    0.36
   4  -6  -6    1.63    0.40
  -3   6   7    2.07    0.44
   3  -6  -7    2.60    0.50
  -2   6   8    6.38    0.61
   2  -6  -8    4.54    0.55
  -1   6   9   -0.02    0.16
   1  -6  -9    0.71    0.27
   0   6  10    0.67    0.27
   0  -6 -10    0.12    0.17
   1   6  11    1.78    0.37
  -1  -6 -11    2.17    0.40
  -1  -6 -11    2.16    0.46
   2   6  12   -0.22    0.16
  -2  -6 -12    0.05    0.19
  -2  -6 -12    0.36    0.22
   3   6  13    3.85    0.53
  -3  -6 -13    2.85    0.53
  -3  -6 -13    4.08    0.53
   4   6  14   -0.05    0.25
  -4  -6 -14    0.51    0.26
  -4  -6 -14    0.07    0.23
  -6   5   4    0.46    0.29
  -5   5   5   -0.03    0.25
   5  -5  -5   -0.06    0.18
  -4   5   6    0.05    0.18
   4  -5  -6   -0.07    0.12
  -3   5   7   12.78    0.79
   3  -5  -7   10.86    0.79
  -2   5   8    1.12    0.29
   2  -5  -8    1.22    0.31
  -1   5   9    3.62    0.42
   1  -5  -9    4.32    0.42
   1  -5  -9    3.96    0.47
   0   5  10   10.30    0.65
   0  -5 -10    8.72    0.70
   0  -5 -10   10.18    0.65
   1   5  11    0.18    0.16
  -1  -5 -11    0.22    0.16
  -1  -5 -11    0.09    0.13
   2   5  12    3.64    0.46
  -2  -5 -12    4.84    0.53
  -2  -5 -12    2.95    0.46
   3   5  13    2.29    0.45
  -3  -5 -13    1.85    0.43
  -3  -5 -13    1.30    0.33
   4   5  14    3.52    0.55
  -4  -5 -14    3.35    0.48
  -5  -5 -15    0.98    0.37
  -6   4   4    0.52    0.30
  -5   4   5    4.67    0.55
   5  -4  -5    5.25    0.56
  -4   4   6    0.20    0.17
   4  -4  -6    0.23    0.18
  -3   4   7    2.02    0.36
   3  -4  -7    1.56    0.35
  -2   4   8   61.82    1.70
   2  -4  -8   59.71    1.96
   2  -4  -8   63.01    1.76
  -1   4   9    2.92    0.32
   1  -4  -9    3.21    0.41
   1  -4  -9    2.94    0.35
   0   4  10   18.76    0.78
   0  -4 -10   18.86    0.90
   0  -4 -10   17.37    0.93
   1   4  11    0.35    0.16
  -1  -4 -11    0.13    0.15
  -1  -4 -11    0.14    0.15
   2   4  12   33.40    1.25
  -2  -4 -12   35.39    1.40
  -2  -4 -12   32.56    1.33
   3   4  13   16.93    0.94
  -3  -4 -13   16.95    1.00
  -3  -4 -13   16.74    0.90
  -4  -4 -14   -0.17    0.14
  -5  -4 -15    6.70    0.75
  -7   3   3    0.67    0.38
  -6   3   4    0.90    0.31
  -5   3   5    0.47    0.20
  -5   3   5    0.25    0.20
   5  -3  -5    0.48    0.23
  -4   3   6    3.66    0.40
   4  -3  -6    3.60    0.44
   4  -3  -6    4.73    0.46
  -3   3   7    0.13    0.12
   3  -3  -7    0.08    0.12
   3  -3  -7    0.09    0.15
  -2   3   8    1.38    0.21
   2  -3  -8    1.40    0.30
   2  -3  -8    0.69    0.22
   1  -3  -9    8.69    0.58
   1  -3  -9    7.08    0.58
   0  -3 -10    0.79    0.24
  -1  -3 -11    5.67    0.50
  -1  -3 -11    7.71    0.59
  -2  -3 -12   16.34    0.92
  -2  -3 -12   14.65    0.81
  -3  -3 -13    2.81    0.42
  -4  -3 -14    0.81    0.34
  -5  -3 -15    1.90    0.46
  -6   2   4    4.88    0.55
  -6   2   4    5.49    0.52
  -6   2   4    5.32    0.52
   6  -2  -4    5.36    0.52
  -5   2   5    4.35    0.45
  -5   2   5    3.56    0.43
  -5   2   5    2.16    0.33
   5  -2  -5    2.63    0.43
  -4   2   6    1.05    0.25
  -4   2   6    1.27    0.24
   4  -2  -6    0.88    0.24
   3  -2  -7    9.08    0.60
   2  -2  -8   12.22    0.71
   2  -2  -8   12.87    0.78
   1  -2  -9    1.79    0.34
   1  -2  -9    1.74    0.34
   0  -2 -10   -0.06    0.07
   0  -2 -10    0.03    0.11
  -1  -2 -11    0.24    0.17
  -1  -2 -11    0.22    0.11
  -2  -2 -12   89.73    2.48
  -2  -2 -12   87.74    2.23
  -2  -2 -12   93.11    2.29
  -3  -2 -13    4.29    0.46
  -3  -2 -13    3.58    0.47
  -4  -2 -14    0.63    0.31
  -4  -2 -14    0.18    0.20
  -5  -2 -15   -0.03    0.21
  -5  -2 -15   -0.09    0.21
  -7   1   3   -0.10    0.17
  -7   1   3    0.35    0.24
   7  -1  -3   -0.17    0.20
  -6   1   4    0.93    0.31
  -6   1   4    0.88    0.29
   6  -1  -4    0.39    0.23
  -5   1   5    4.44    0.47
  -5   1   5    4.45    0.44
   5  -1  -5    3.95    0.45
   5  -1  -5    4.12    0.45
  -4   1   6   19.53    0.83
  -4   1   6   19.59    0.92
   4  -1  -6   18.72    0.92
   4  -1  -6   18.44    0.88
  -3   1   7   10.70    0.64
   3  -1  -7   10.12    0.59
   3  -1  -7    9.65    0.65
   2  -1  -8    1.54    0.27
   2  -1  -8    1.22    0.28
   1  -1  -9    5.16    0.48
   1  -1  -9    5.12    0.38
   0  -1 -10    9.66    0.54
   0  -1 -10   11.24    0.68
   0  -1 -10    9.26    0.61
  -1  -1 -11    3.08    0.35
  -1  -1 -11    3.61    0.43
  -1  -1 -11    4.14    0.39
  -2  -1 -12    0.54    0.18
  -2  -1 -12    0.63    0.26
  -2  -1 -12    0.79    0.24
  -3  -1 -13    3.71    0.48
  -3  -1 -13    4.30    0.48
  -4  -1 -14    1.03    0.33
  -4  -1 -14    0.82    0.30
  -5  -1 -15    6.01    0.70
  -5  -1 -15    6.60    0.74
  -7   0   3    0.70    0.29
  -7   0   3    0.65    0.29
   7   0  -3    0.44    0.29
  -6   0   4   -0.03    0.18
  -6   0   4    0.18    0.20
   6   0  -4    0.34    0.22
  -5   0   5   12.38    0.77
  -5   0   5   13.08    0.77
   5   0  -5   11.87    0.80
  -4   0   6    5.55    0.50
   4   0  -6    6.05    0.52
   4   0  -6    5.75    0.52
  -3   0   7   13.33    0.73
   3   0  -7   12.35    0.69
   3   0  -7   11.67    0.71
   2   0  -8   20.12    0.93
   2   0  -8   18.11    0.82
   1   0  -9    0.35    0.17
   1   0  -9    0.35    0.16
   0   0 -10   12.16    0.74
   0   0 -10   13.35    0.71
  -1   0 -11    7.41    0.56
  -1   0 -11    7.14    0.56
  -2   0 -12    2.71    0.39
  -2   0 -12    2.82    0.40
  -3   0 -13   24.73    1.18
  -3   0 -13   22.13    1.15
  -4   0 -14    0.12    0.23
  -4   0 -14    0.47    0.26
  -5   0 -15    1.73    0.43
  -5   0 -15    1.23    0.40
  -7  -1   3    0.50    0.27
  -7  -1   3    0.10    0.20
   7   1  -3    0.02    0.22
  -6  -1   4   16.37    0.97
  -6  -1   4   17.55    0.99
   6   1  -4   15.07    1.01
  -5  -1   5    3.14    0.42
   5   1  -5    3.61    0.50
  -4  -1   6    7.38    0.58
   4   1  -6    7.60    0.60
   4   1  -6    6.05    0.58
  -3  -1   7   -0.09    0.11
   3   1  -7    0.07    0.13
   3   1  -7    0.06    0.11
  -2  -1   8   10.96    0.68
   2   1  -8   11.50    0.69
   2   1  -8   10.91    0.69
   1   1  -9   13.55    0.77
   1   1  -9   14.17    0.79
   0   1 -10    2.82    0.38
   0   1 -10    2.17    0.40
  -1   1 -11    0.50    0.23
  -1   1 -11    0.04    0.13
  -2   1 -12    5.67    0.58
  -2   1 -12    4.46    0.50
  -3   1 -13   -0.15    0.16
  -3   1 -13    0.13    0.16
  -4   1 -14    0.27    0.30
  -4   1 -14    0.61    0.29
  -7  -2   3    0.19    0.25
  -7  -2   3   -0.03    0.21
   7   2  -3    0.30    0.29
  -6  -2   4   19.79    1.10
   6   2  -4   21.89    1.26
  -5  -2   5    7.45    0.63
   5   2  -5    7.23    0.69
  -4  -2   6    0.31    0.18
   4   2  -6    0.27    0.18
   4   2  -6    0.20    0.18
  -3  -2   7   57.86    1.83
   3   2  -7   61.33    1.93
   3   2  -7   61.86    1.88
  -2  -2   8   13.45    0.77
   2   2  -8   12.54    0.75
   2   2  -8   12.15    0.77
   1   2  -9    3.35    0.44
   1   2  -9    3.53    0.41
   0   2 -10    2.20    0.42
   0   2 -10    1.75    0.34
  -1   2 -11   10.30    0.69
  -1   2 -11   11.49    0.81
  -2   2 -12   24.62    1.29
  -2   2 -12   27.15    1.19
  -3   2 -13    0.95    0.30
  -3   2 -13    0.49    0.28
  -4   2 -14    3.03    0.60
  -7  -3   3    0.96    0.36
   7   3  -3    0.75    0.41
  -6  -3   4    3.57    0.59
   6   3  -4    3.98    0.69
  -5  -3   5    0.00    0.14
   5   3  -5    0.38    0.26
  -4  -3   6    8.96    0.68
   4   3  -6    7.06    0.67
   4   3  -6    7.76    0.64
  -3  -3   7    3.74    0.46
   3   3  -7    3.17    0.45
   3   3  -7    1.91    0.41
  -2  -3   8   22.19    1.03
   2   3  -8   22.22    1.14
   2   3  -8   22.55    1.05
   1   3  -9    1.92    0.38
   1   3  -9    0.89    0.30
   0   3 -10    3.02    0.39
   0   3 -10    3.07    0.47
  -1   3 -11    5.86    0.54
  -1   3 -11    5.15    0.60
  -2   3 -12    1.97    0.49
  -3   3 -13    3.06    0.60
  -6  -4   4    0.30    0.23
   6   4  -4    0.58    0.33
  -5  -4   5    0.08    0.17
   5   4  -5    0.29    0.23
  -4  -4   6    3.65    0.48
   4   4  -6    3.20    0.44
   4   4  -6    2.67    0.53
  -3  -4   7    2.26    0.42
   3   4  -7    2.13    0.45
   3   4  -7    1.42    0.36
  -2  -4   8    0.22    0.19
   2   4  -8    0.77    0.26
   2   4  -8    0.57    0.29
   1   4  -9    0.65    0.29
   1   4  -9    0.52    0.24
   0   4 -10    0.18    0.17
   0   4 -10    0.30    0.26
  -1   4 -11    6.82    0.72
  -2   4 -12    1.46    0.45
  -3   4 -13    0.39    0.32
  -6  -5   4   -0.22    0.21
   6   5  -4    0.45    0.31
  -5  -5   5    1.47    0.43
   5   5  -5    1.09    0.40
  -4  -5   6    9.32    0.75
   4   5  -6    9.86    0.88
   4   5  -6    8.50    0.73
  -3  -5   7    0.09    0.21
   3   5  -7    0.20    0.25
   3   5  -7    0.46    0.27
  -2  -5   8    0.56    0.27
   2   5  -8    0.68    0.27
   2   5  -8    1.02    0.37
   1   5  -9    0.11    0.24
   0   5 -10   10.47    0.91
  -1   5 -11    0.03    0.24
  -2   5 -12   -0.08    0.22
  -4  -6   6    0.10    0.21
   4   6  -6   -0.12    0.22
   4   6  -6   -0.02    0.19
   3   6  -7    6.91    0.78
   2   6  -8    0.02    0.24
   1   6  -9    3.17    0.64
   0   6 -10    0.07    0.30
  -2   8   9   -0.08    0.26
   2  -8  -9    0.16    0.28
  -1   8  10    0.02    0.25
   1  -8 -10   -0.03    0.20
   0   8  11   -0.04    0.24
   0  -8 -11    0.11    0.22
   1   8  12   -0.31    0.23
  -1  -8 -12    0.18    0.23
  -4   7   7    1.46    0.45
   4  -7  -7    1.09    0.38
  -3   7   8    2.01    0.49
   3  -7  -8    1.19    0.39
  -2   7   9   -0.07    0.23
   2  -7  -9    0.16    0.19
  -1   7  10    6.73    0.66
   1  -7 -10    6.48    0.69
   0   7  11    1.97    0.41
   0  -7 -11    3.36    0.62
  -1  -7 -12    3.53    0.54
  -2  -7 -13    3.37    0.60
  -2  -7 -13    2.05    0.47
  -3  -7 -14    0.16    0.24
  -3  -7 -14   -0.19    0.23
   4  -6  -7    1.31    0.40
  -3   6   8    9.75    0.86
   3  -6  -8    7.12    0.72
   2  -6  -9    0.14    0.19
   1  -6 -10    7.27    0.70
   0  -6 -11    0.05    0.13
  -1  -6 -12   17.27    1.08
  -1  -6 -12   17.15    0.96
  -2  -6 -13   11.87    0.87
  -2  -6 -13   13.44    0.93
  -3  -6 -14    0.28    0.24
  -3  -6 -14   -0.04    0.19
  -4  -6 -15    1.46    0.46
   5  -5  -6    0.40    0.25
   4  -5  -7    0.29    0.21
   3  -5  -8    1.19    0.35
   2  -5  -9    3.26    0.45
   1  -5 -10   15.59    0.84
   1  -5 -10   18.37    1.03
   0  -5 -11    3.22    0.41
   0  -5 -11    2.49    0.46
  -1  -5 -12    1.56    0.38
  -1  -5 -12    0.95    0.30
  -2  -5 -13    4.25    0.53
  -2  -5 -13    3.46    0.47
  -3  -5 -14    0.29    0.19
  -3  -5 -14    0.20    0.26
  -4  -5 -15    0.17    0.26
   5  -4  -6    1.63    0.40
   4  -4  -7    4.73    0.54
   3  -4  -8    0.25    0.20
   3  -4  -8    0.34    0.18
   2  -4  -9   13.64    0.76
   2  -4  -9   14.40    0.90
   1  -4 -10    8.39    0.60
   1  -4 -10    8.62    0.69
   0  -4 -11    6.30    0.58
   0  -4 -11    5.61    0.53
  -1  -4 -12   17.69    0.95
  -1  -4 -12   16.87    0.96
  -2  -4 -13    7.78    0.65
  -2  -4 -13    7.72    0.67
  -3  -4 -14    0.16    0.19
  -3  -4 -14    0.04    0.17
  -4  -4 -15    0.21    0.26
   6  -3  -5    0.19    0.22
  -5   3   6    9.16    0.65
   5  -3  -6    9.23    0.77
   4  -3  -7    0.50    0.24
   4  -3  -7    0.35    0.21
   3  -3  -8    9.18    0.65
   3  -3  -8    7.83    0.67
   2  -3  -9    1.15    0.29
   2  -3  -9    1.63    0.36
   1  -3 -10    0.59    0.23
   1  -3 -10    0.65    0.23
   0  -3 -11   21.23    1.02
   0  -3 -11   21.69    1.04
  -1  -3 -12    2.90    0.40
  -1  -3 -12    2.58    0.39
  -2  -3 -13    6.63    0.61
  -2  -3 -13    5.79    0.53
  -3  -3 -14    1.85    0.41
  -4  -3 -15    1.20    0.36
  -5  -3 -16   -0.11    0.26
  -6   2   5    1.58    0.37
   6  -2  -5    2.01    0.41
  -5   2   6    1.53    0.32
   5  -2  -6    1.83    0.39
  -4   2   7    1.55    0.32
   4  -2  -7    1.65    0.34
   3  -2  -8    0.12    0.15
   2  -2  -9   -0.06    0.14
   2  -2  -9    0.00    0.12
   1  -2 -10    0.46    0.19
   1  -2 -10    0.57    0.21
   0  -2 -11    3.50    0.40
   0  -2 -11    2.51    0.37
  -1  -2 -12    7.25    0.60
  -1  -2 -12    8.94    0.61
  -2  -2 -13    1.23    0.33
  -2  -2 -13    1.14    0.27
  -3  -2 -14    0.68    0.27
  -4  -2 -15    0.01    0.21
  -5  -2 -16   -0.26    0.18
  -7   1   4    0.99    0.35
  -7   1   4    1.77    0.39
  -6   1   5    3.36    0.47
  -6   1   5    3.17    0.44
   6  -1  -5    3.98    0.51
   6  -1  -5    3.40    0.48
  -5   1   6    1.49    0.31
  -5   1   6    0.98    0.29
   5  -1  -6    1.39    0.33
   5  -1  -6    1.62    0.35
  -4   1   7    2.22    0.33
   4  -1  -7    1.70    0.36
   4  -1  -7    2.55    0.35
   3  -1  -8   13.09    0.78
   3  -1  -8   11.95    0.66
   2  -1  -9   14.58    0.82
   2  -1  -9   15.89    0.72
   1  -1 -10   10.33    0.58
   1  -1 -10    9.35    0.67
   0  -1 -11    2.91    0.33
   0  -1 -11    3.09    0.40
   0  -1 -11    2.99    0.37
  -1  -1 -12    3.34    0.38
  -1  -1 -12    3.62    0.38
  -1  -1 -12    3.62    0.43
  -2  -1 -13    0.92    0.30
  -2  -1 -13    0.62    0.24
  -3  -1 -14    0.09    0.19
  -3  -1 -14    0.21    0.21
  -4  -1 -15    1.25    0.37
  -4  -1 -15    0.80    0.33
  -5  -1 -16    0.30    0.30
  -5  -1 -16    0.31    0.27
  -7   0   4    7.43    0.69
  -7   0   4    5.87    0.65
   7   0  -4    9.36    0.84
  -6   0   5    9.10    0.70
  -6   0   5    9.41    0.74
   6   0  -5    8.63    0.77
  -5   0   6    0.01    0.16
   5   0  -6    0.06    0.15
   5   0  -6    0.01    0.18
  -4   0   7    3.63    0.44
   4   0  -7    3.03    0.43
   4   0  -7    3.13    0.43
  -3   0   8   30.03    1.21
   3   0  -8   30.72    1.26
   3   0  -8   28.27    1.12
   2   0  -9   24.17    1.09
   2   0  -9   22.20    0.96
   1   0 -10    2.17    0.30
   1   0 -10    2.06    0.41
   0   0 -11    6.18    0.55
   0   0 -11    5.66    0.50
  -1   0 -12   32.24    1.28
  -1   0 -12   33.77    1.23
  -1   0 -12   33.12    1.34
  -2   0 -13    3.56    0.47
  -2   0 -13    3.04    0.46
  -3   0 -14    0.37    0.24
  -3   0 -14    0.39    0.24
  -4   0 -15    0.25    0.25
  -4   0 -15    0.39    0.24
  -7  -1   4   -0.02    0.18
  -7  -1   4   -0.06    0.21
   7   1  -4    0.07    0.28
  -6  -1   5    3.26    0.54
   6   1  -5    3.69    0.55
  -5  -1   6    3.87    0.50
   5   1  -6    3.97    0.49
   5   1  -6    3.67    0.49
  -4  -1   7   12.58    0.80
   4   1  -7   14.29    0.85
   4   1  -7   12.36    0.82
  -3  -1   8    0.12    0.15
   3   1  -8    0.11    0.15
   3   1  -8   -0.10    0.14
   2   1  -9   20.52    0.99
   2   1  -9   20.55    1.02
   1   1 -10    0.35    0.20
   1   1 -10    0.45    0.21
   0   1 -11    8.91    0.68
   0   1 -11    9.25    0.69
  -1   1 -12    3.33    0.46
  -1   1 -12    3.17    0.41
  -2   1 -13    0.85    0.31
  -2   1 -13    0.93    0.29
  -3   1 -14    1.44    0.37
  -3   1 -14    2.15    0.42
  -4   1 -15    0.31    0.30
  -4   1 -15    0.09    0.25
  -7  -2   4    1.44    0.41
   7   2  -4    1.24    0.43
  -6  -2   5    1.55    0.39
   6   2  -5    1.42    0.44
  -5  -2   6    0.32    0.22
   5   2  -6    0.08    0.19
  -4  -2   7    4.91    0.53
   4   2  -7    6.33    0.59
   4   2  -7    6.25    0.61
  -3  -2   8   59.97    1.90
   3   2  -8   56.33    1.93
   3   2  -8   56.73    1.89
   2   2  -9    2.40    0.45
   2   2  -9    2.11    0.41
   1   2 -10    5.98    0.56
   1   2 -10    5.47    0.56
   0   2 -11    1.92    0.44
   0   2 -11    2.72    0.46
  -1   2 -12    3.48    0.43
  -1   2 -12    2.87    0.51
  -2   2 -13   -0.02    0.17
  -2   2 -13    0.07    0.20
  -3   2 -14    0.05    0.18
  -3   2 -14    0.01    0.19
  -4   2 -15    0.38    0.30
   7   3  -4    0.60    0.37
  -6  -3   5    0.92    0.35
   6   3  -5    0.18    0.27
  -5  -3   6    0.85    0.29
   5   3  -6    0.82    0.34
  -4  -3   7    0.16    0.21
   4   3  -7    0.09    0.16
   4   3  -7    0.21    0.20
  -3  -3   8   12.72    0.81
   3   3  -8   12.32    0.83
   3   3  -8   13.33    0.91
   2   3  -9    7.47    0.64
   2   3  -9    6.69    0.67
   1   3 -10   10.14    0.73
   1   3 -10   11.40    0.85
   0   3 -11    4.22    0.56
   0   3 -11    4.39    0.54
  -1   3 -12    2.11    0.50
  -1   3 -12    1.98    0.40
  -2   3 -13    6.30    0.73
  -3   3 -14    0.79    0.41
  -6  -4   5    1.71    0.45
   6   4  -5    2.67    0.61
  -5  -4   6    1.13    0.35
   5   4  -6    1.26    0.40
  -4  -4   7    0.04    0.21
   4   4  -7    0.24    0.18
   4   4  -7   -0.08    0.19
  -3  -4   8    0.11    0.17
   3   4  -8    0.04    0.18
   3   4  -8   -0.13    0.15
   2   4  -9   11.06    0.80
   2   4  -9   11.38    0.90
   1   4 -10    0.08    0.22
   1   4 -10    0.21    0.19
   0   4 -11    4.33    0.60
   0   4 -11    4.80    0.54
  -1   4 -12    0.31    0.26
  -2   4 -13    1.27    0.44
  -5  -5   6    0.12    0.24
   5   5  -6    0.23    0.23
   5   5  -6    0.02    0.28
  -4  -5   7    1.52    0.39
   4   5  -7    0.30    0.31
   4   5  -7    0.71    0.29
  -3  -5   8    3.70    0.53
   3   5  -8    4.12    0.53
   3   5  -8    4.01    0.69
   2   5  -9    0.08    0.23
   2   5  -9   -0.07    0.15
   1   5 -10    0.44    0.31
   0   5 -11    1.50    0.46
  -1   5 -12    2.04    0.54
   3   6  -8    1.79    0.54
   2   6  -9    1.85    0.51
   3  -7  -9    0.76    0.33
   2  -7 -10    1.17    0.39
   1  -7 -11    1.09    0.37
   0  -7 -12    0.14    0.25
  -1  -7 -13    1.12    0.37
  -2  -7 -14    0.01    0.22
  -2  -7 -14    0.31    0.25
   4  -6  -8    2.01    0.46
   3  -6  -9    3.75    0.54
   2  -6 -10   15.80    1.07
   1  -6 -11    1.45    0.39
   0  -6 -12    0.40    0.25
  -1  -6 -13   11.57    0.91
  -1  -6 -13   12.77    0.86
  -2  -6 -14    4.90    0.61
  -2  -6 -14    5.47    0.63
  -3  -6 -15    0.08    0.22
  -3  -6 -15    0.31    0.27
   5  -5  -7    0.16    0.24
   4  -5  -8    1.28    0.40
   3  -5  -9    2.70    0.52
   2  -5 -10    6.83    0.68
   1  -5 -11   17.45    1.06
   1  -5 -11   18.94    0.97
   0  -5 -12    0.29    0.20
   0  -5 -12    1.03    0.35
  -1  -5 -13    0.24    0.23
  -1  -5 -13    0.08    0.20
  -2  -5 -14    2.16    0.45
  -2  -5 -14    1.75    0.42
  -3  -5 -15    0.30    0.23
  -3  -5 -15    0.22    0.23
  -4  -5 -16    4.35    0.65
   6  -4  -6   -0.05    0.22
   5  -4  -7   -0.09    0.15
   4  -4  -8    2.62    0.50
   3  -4  -9    0.02    0.18
   3  -4  -9    0.32    0.21
   2  -4 -10    2.40    0.42
   2  -4 -10    1.85    0.39
   1  -4 -11    0.33    0.18
   1  -4 -11    0.24    0.18
   0  -4 -12    6.32    0.58
   0  -4 -12    7.43    0.66
  -1  -4 -13   41.02    1.60
  -1  -4 -13   42.06    1.63
  -2  -4 -14    4.75    0.53
  -2  -4 -14    5.32    0.60
  -3  -4 -15    0.03    0.19
  -4  -4 -16    0.03    0.21
   6  -3  -6    7.31    0.74
   5  -3  -7    1.48    0.42
   4  -3  -8   13.40    0.83
   4  -3  -8   14.95    0.98
   3  -3  -9    5.72    0.55
   3  -3  -9    6.59    0.64
   2  -3 -10    0.33    0.19
   2  -3 -10    0.04    0.17
   1  -3 -11   17.63    1.00
   1  -3 -11   17.05    0.92
   0  -3 -12    1.01    0.29
   0  -3 -12    1.02    0.28
  -1  -3 -13    6.14    0.59
  -1  -3 -13    6.48    0.59
  -2  -3 -14    0.01    0.15
  -2  -3 -14   -0.06    0.15
  -3  -3 -15    1.45    0.39
  -4  -3 -16    2.09    0.50
  -6   2   6    3.23    0.52
   6  -2  -6    3.40    0.51
  -5   2   7    1.20    0.33
   5  -2  -7    0.69    0.26
   4  -2  -8    0.47    0.23
   3  -2  -9   34.31    1.37
   2  -2 -10    4.36    0.50
   2  -2 -10    4.81    0.51
   1  -2 -11    4.90    0.53
   1  -2 -11    3.68    0.46
   0  -2 -12    4.79    0.50
   0  -2 -12    4.28    0.48
  -1  -2 -13    0.42    0.19
  -1  -2 -13    0.94    0.31
  -2  -2 -14   41.35    1.65
  -3  -2 -15    0.12    0.20
  -4  -2 -16    9.85    0.85
  -7   1   5    1.71    0.43
   7  -1  -5    2.46    0.48
  -6   1   6    1.75    0.37
  -6   1   6    2.62    0.47
   6  -1  -6    1.73    0.40
  -5   1   7    4.25    0.50
   5  -1  -7    3.80    0.49
  -4   1   8    1.17    0.31
   4  -1  -8    1.52    0.36
   3  -1  -9   13.14    0.82
   2  -1 -10    2.25    0.41
   1  -1 -11   -0.07    0.13
   0  -1 -12    2.26    0.42
   0  -1 -12    2.30    0.35
  -1  -1 -13    0.55    0.23
  -1  -1 -13    0.26    0.20
  -1  -1 -13   -0.05    0.12
  -2  -1 -14    0.22    0.19
  -2  -1 -14    0.05    0.16
  -3  -1 -15    3.10    0.46
  -3  -1 -15    3.05    0.54
  -4  -1 -16    0.19    0.23
  -7   0   5   11.61    0.87
  -7   0   5   13.42    0.94
   7   0  -5   14.92    1.07
  -6   0   6    0.28    0.23
   6   0  -6    0.38    0.24
   6   0  -6    0.10    0.20
  -5   0   7    6.19    0.61
   5   0  -7    8.11    0.70
   5   0  -7    7.81    0.67
  -4   0   8    9.92    0.72
   4   0  -8    9.76    0.74
   4   0  -8    8.95    0.67
   3   0  -9   22.73    1.12
   3   0  -9   24.25    1.07
   2   0 -10    1.00    0.28
   2   0 -10    1.11    0.28
   1   0 -11    1.34    0.34
   1   0 -11    0.80    0.24
   0   0 -12    8.53    0.64
   0   0 -12    8.33    0.66
  -1   0 -13   12.53    0.80
  -1   0 -13   12.65    0.75
  -1   0 -13   13.05    0.86
  -2   0 -14    1.36    0.35
  -2   0 -14    1.56    0.40
  -3   0 -15    1.97    0.46
  -3   0 -15    1.43    0.40
  -4   0 -16    0.17    0.22
  -4   0 -16    0.04    0.22
  -7  -1   5   -0.18    0.21
   7   1  -5    0.22    0.31
  -6  -1   6    0.77    0.31
   6   1  -6    0.98    0.34
   6   1  -6    0.61    0.28
  -5  -1   7    0.14    0.21
   5   1  -7    0.40    0.26
   5   1  -7    0.91    0.31
  -4  -1   8   43.04    1.62
   4   1  -8   43.49    1.64
   4   1  -8   41.91    1.63
  -3  -1   9   51.22    1.76
   3   1  -9   50.39    1.78
   3   1  -9   51.37    1.77
   2   1 -10    4.51    0.49
   2   1 -10    4.04    0.49
   1   1 -11    0.36    0.21
   1   1 -11    0.45    0.22
   0   1 -12    3.33    0.45
   0   1 -12    4.43    0.53
  -1   1 -13    1.77    0.42
  -1   1 -13    2.07    0.42
  -2   1 -14    0.48    0.27
  -2   1 -14    0.90    0.30
  -3   1 -15   11.51    0.91
  -3   1 -15   10.77    0.84
  -7  -2   5    1.42    0.43
   7   2  -5    2.22    0.57
  -6  -2   6    0.87    0.31
   6   2  -6    1.89    0.51
  -5  -2   7    3.09    0.47
   5   2  -7    2.98    0.57
   5   2  -7    1.78    0.42
  -4  -2   8   -0.11    0.15
   4   2  -8   -0.17    0.14
   4   2  -8   -0.07    0.14
  -3  -2   9    1.05    0.33
   3   2  -9    1.88    0.42
   3   2  -9    1.55    0.37
   2   2 -10    3.81    0.48
   2   2 -10    2.56    0.49
   1   2 -11    3.95    0.49
   1   2 -11    2.25    0.46
   0   2 -12    1.99    0.45
   0   2 -12    1.61    0.38
  -1   2 -13    2.08    0.41
  -1   2 -13    1.75    0.43
  -2   2 -14    1.35    0.36
  -2   2 -14    1.56    0.42
  -3   2 -15    0.10    0.21
  -3   2 -15    0.02    0.18
  -6  -3   6    0.10    0.19
   6   3  -6   -0.07    0.24
  -5  -3   7    7.24    0.70
   5   3  -7    8.15    0.74
   5   3  -7    5.95    0.70
  -4  -3   8    2.92    0.50
   4   3  -8    1.11    0.35
   4   3  -8    1.76    0.45
  -3  -3   9    7.60    0.69
   3   3  -9    7.91    0.73
   3   3  -9    7.24    0.69
   2   3 -10    2.68    0.52
   2   3 -10    3.01    0.45
   1   3 -11    2.41    0.50
   1   3 -11    2.26    0.46
   0   3 -12    4.05    0.56
   0   3 -12    3.58    0.49
  -1   3 -13    0.12    0.26
  -1   3 -13    0.04    0.17
  -2   3 -14    0.64    0.37
  -5  -4   7   -0.02    0.21
   5   4  -7    0.07    0.21
   5   4  -7   -0.09    0.20
  -4  -4   8    6.53    0.67
   4   4  -8    7.43    0.71
   4   4  -8    6.92    0.76
  -3  -4   9    2.82    0.52
   3   4  -9    2.74    0.55
   3   4  -9    2.86    0.53
   2   4 -10    0.10    0.24
   2   4 -10    0.06    0.20
   1   4 -11   15.69    1.10
   1   4 -11   14.62    0.95
   0   4 -12    1.82    0.50
  -1   4 -13    8.12    0.86
  -4  -5   8    0.74    0.31
   4   5  -8    0.65    0.33
   4   5  -8    0.40    0.30
  -3  -5   9    1.67    0.42
   3   5  -9    1.15    0.35
   3   5  -9    1.15    0.42
   2   5 -10    2.12    0.45
   2   5 -10    2.04    0.52
   1   5 -11    0.36    0.31
   0   5 -12    4.82    0.72
   2  -7 -11    2.72    0.59
   1  -7 -12    0.25    0.21
   0  -7 -13    1.65    0.49
  -1  -7 -14    3.94    0.72
   4  -6  -9    0.32    0.26
   3  -6 -10    6.86    0.74
   2  -6 -11   -0.10    0.16
   1  -6 -12    1.40    0.42
   0  -6 -13    7.47    0.68
   0  -6 -13    6.15    0.69
  -1  -6 -14    0.44    0.27
  -1  -6 -14    1.46    0.41
  -2  -6 -15   -0.12    0.19
  -2  -6 -15    0.05    0.21
   5  -5  -8    3.84    0.59
   4  -5  -9    2.23    0.49
   3  -5 -10    0.62    0.29
   2  -5 -11    5.23    0.62
   1  -5 -12    0.57    0.27
   1  -5 -12    1.02    0.30
   0  -5 -13   15.67    1.04
   0  -5 -13   16.75    0.98
  -1  -5 -14    7.34    0.72
  -1  -5 -14    7.13    0.68
  -2  -5 -15    0.32    0.23
  -2  -5 -15    0.32    0.25
  -3  -5 -16    2.71    0.56
   6  -4  -7    0.10    0.25
   5  -4  -8    0.39    0.28
   4  -4  -9    8.71    0.79
   3  -4 -10    0.05    0.19
   3  -4 -10   -0.05    0.20
   2  -4 -11    5.90    0.62
   2  -4 -11    4.88    0.54
   1  -4 -12   -0.02    0.15
   1  -4 -12    0.35    0.20
   0  -4 -13    0.25    0.21
   0  -4 -13    0.62    0.27
  -1  -4 -14   18.50    1.06
  -1  -4 -14   16.45    1.02
  -2  -4 -15    1.03    0.37
  -2  -4 -15    1.28    0.36
  -3  -4 -16    1.13    0.38
   6  -3  -7    0.29    0.27
   5  -3  -8    0.37    0.26
   4  -3  -9    3.37    0.46
   4  -3  -9    3.39    0.60
   3  -3 -10    4.21    0.52
   3  -3 -10    2.36    0.48
   2  -3 -11   11.85    0.86
   2  -3 -11   11.90    0.81
   1  -3 -12   -0.02    0.13
   1  -3 -12   -0.01    0.16
   0  -3 -13    5.47    0.56
   0  -3 -13    6.21    0.60
  -1  -3 -14    3.26    0.49
  -1  -3 -14    2.81    0.42
  -2  -3 -15   -0.04    0.18
  -2  -3 -15   -0.04    0.17
  -3  -3 -16    0.10    0.21
  -4  -3 -17    0.22    0.26
  -6   2   7    0.35    0.24
   6  -2  -7    0.37    0.25
  -5   2   8    0.16    0.20
   5  -2  -8    0.15    0.17
   4  -2  -9   40.62    1.60
   3  -2 -10    9.08    0.71
   2  -2 -11    1.54    0.37
   2  -2 -11    0.81    0.29
   1  -2 -12   10.65    0.76
   1  -2 -12    8.46    0.71
   0  -2 -13   15.04    0.92
   0  -2 -13   14.75    0.90
  -1  -2 -14   16.15    0.99
  -1  -2 -14   16.10    0.91
  -2  -2 -15    0.97    0.33
  -3  -2 -16    1.31    0.41
  -4  -2 -17    1.78    0.47
  -6   1   7    2.48    0.50
   6  -1  -7    2.93    0.53
  -5   1   8    0.04    0.16
   5  -1  -8    0.17    0.17
  -4   1   9    1.46    0.37
   4  -1  -9    0.58    0.25
   3  -1 -10    4.96    0.54
   2  -1 -11    0.15    0.19
   1  -1 -12   16.92    0.99
   0  -1 -13    0.73    0.27
   0  -1 -13    0.57    0.24
  -1  -1 -14    0.24    0.17
  -1  -1 -14    0.20    0.21
  -2  -1 -15    8.58    0.78
  -3  -1 -16    0.10    0.20
   7   0  -6    0.10    0.24
  -6   0   7   -0.09    0.19
   6   0  -7   -0.21    0.16
  -5   0   8    0.54    0.25
   5   0  -8    0.75    0.30
   5   0  -8    0.28    0.24
  -4   0   9   28.86    1.31
   4   0  -9   25.57    1.28
   4   0  -9   29.90    1.27
   3   0 -10    0.57    0.25
   3   0 -10    1.14    0.32
   2   0 -11   -0.17    0.12
   2   0 -11   -0.06    0.15
   1   0 -12    2.72    0.46
   1   0 -12    2.59    0.48
   0   0 -13    0.45    0.23
   0   0 -13    0.41    0.24
  -1   0 -14    2.41    0.47
  -1   0 -14    1.97    0.42
  -2   0 -15    0.26    0.23
  -2   0 -15    0.17    0.21
  -3   0 -16   -0.09    0.19
  -3   0 -16   -0.03    0.24
  -6  -1   7    3.05    0.56
   6   1  -7    3.03    0.56
   6   1  -7    2.85    0.62
  -5  -1   8    0.57    0.28
   5   1  -8    0.56    0.30
   5   1  -8    0.81    0.33
  -4  -1   9    0.54    0.27
   4   1  -9    0.21    0.22
   4   1  -9    0.57    0.29
   3   1 -10   -0.12    0.14
   3   1 -10    0.01    0.15
   2   1 -11    4.52    0.52
   2   1 -11    5.26    0.59
   1   1 -12    9.42    0.76
   1   1 -12    7.69    0.68
   0   1 -13    0.49    0.27
   0   1 -13    0.60    0.24
  -1   1 -14    1.38    0.37
  -1   1 -14    1.05    0.33
  -2   1 -15    3.95    0.56
  -2   1 -15    3.09    0.54
  -3   1 -16    2.89    0.54
  -3   1 -16    2.45    0.56
  -6  -2   7   -0.07    0.22
   6   2  -7    0.26    0.25
   6   2  -7    0.12    0.23
  -5  -2   8    0.34    0.25
   5   2  -8    0.53    0.29
   5   2  -8    0.23    0.24
  -4  -2   9    3.92    0.52
   4   2  -9    2.28    0.47
   4   2  -9    2.53    0.51
   3   2 -10    3.05    0.55
   3   2 -10    2.32    0.46
   2   2 -11   12.25    0.86
   2   2 -11   11.71    0.87
   1   2 -12    0.43    0.27
   1   2 -12    0.22    0.21
   0   2 -13    3.94    0.51
   0   2 -13    3.87    0.57
  -1   2 -14    8.21    0.78
  -1   2 -14    6.92    0.68
  -2   2 -15    0.25    0.29
  -2   2 -15    0.51    0.32
  -6  -3   7    0.64    0.35
   6   3  -7    0.57    0.30
   6   3  -7    0.94    0.39
  -5  -3   8    0.41    0.28
   5   3  -8    0.78    0.39
   5   3  -8    0.88    0.34
  -4  -3   9    1.28    0.38
   4   3  -9    0.40    0.29
   4   3  -9    0.94    0.34
   3   3 -10    0.62    0.30
   3   3 -10    0.63    0.31
   2   3 -11    0.05    0.18
   2   3 -11   -0.03    0.18
   1   3 -12    7.59    0.79
   1   3 -12    7.50    0.71
   0   3 -13    0.41    0.23
   0   3 -13    0.95    0.39
  -1   3 -14   -0.02    0.26
  -1   3 -14   -0.01    0.18
  -5  -4   8    7.55    0.77
   5   4  -8    7.30    0.83
   5   4  -8    7.61    0.78
  -4  -4   9    7.22    0.72
   4   4  -9    7.67    0.76
   4   4  -9    6.12    0.75
   3   4 -10    0.24    0.28
   3   4 -10    0.23    0.28
   2   4 -11    9.01    0.78
   2   4 -11    6.67    0.76
   1   4 -12    1.22    0.43
   1   4 -12    0.98    0.36
   0   4 -13    7.46    0.82
   1  -7 -13    1.71    0.46
   3  -6 -11   -0.26    0.20
   2  -6 -12    0.38    0.26
   1  -6 -13    0.65    0.32
   0  -6 -14    2.79    0.57
   0  -6 -14    2.90    0.53
  -1  -6 -15    1.52    0.43
  -1  -6 -15    1.29    0.38
   4  -5 -10    3.69    0.65
   3  -5 -11    2.31    0.52
   2  -5 -12    0.91    0.35
   1  -5 -13   -0.05    0.18
   1  -5 -13   -0.01    0.19
   0  -5 -14    1.81    0.44
   0  -5 -14    1.97    0.43
  -1  -5 -15    0.19    0.25
  -1  -5 -15    0.35    0.23
  -2  -5 -16    1.32    0.43
  -2  -5 -16    2.21    0.50
   5  -4  -9    6.68    0.74
   4  -4 -10    7.50    0.78
   3  -4 -11    5.86    0.68
   3  -4 -11    6.31    0.63
   2  -4 -12    3.72    0.48
   2  -4 -12    2.49    0.49
   1  -4 -13    0.94    0.35
   1  -4 -13    1.64    0.42
   0  -4 -14    6.38    0.65
   0  -4 -14    7.01    0.71
  -1  -4 -15    6.74    0.66
  -1  -4 -15    5.83    0.65
  -2  -4 -16    0.42    0.28
  -2  -4 -16    0.39    0.27
  -3  -4 -17    5.79    0.71
   6  -3  -8    0.40    0.31
   5  -3  -9    0.34    0.31
   5  -3  -9    0.10    0.24
   4  -3 -10    1.90    0.50
   4  -3 -10    2.12    0.46
   3  -3 -11    7.66    0.74
   3  -3 -11    7.18    0.70
   2  -3 -12    8.81    0.74
   2  -3 -12   10.57    0.84
   1  -3 -13    0.13    0.22
   1  -3 -13   -0.03    0.16
   0  -3 -14    2.34    0.46
   0  -3 -14    2.38    0.47
  -1  -3 -15    2.35    0.48
  -1  -3 -15    2.44    0.49
  -2  -3 -16    0.51    0.28
  -3  -3 -17    8.55    0.82
  -6   2   8    2.22    0.47
   6  -2  -8    2.94    0.56
   5  -2  -9    9.16    0.78
   4  -2 -10    3.30    0.56
   3  -2 -11    0.29    0.23
   3  -2 -11    0.27    0.21
   2  -2 -12    1.67    0.40
   2  -2 -12    2.13    0.45
   1  -2 -13    0.69    0.28
   1  -2 -13    1.48    0.37
   0  -2 -14    7.30    0.67
   0  -2 -14    7.59    0.69
  -1  -2 -15   -0.03    0.17
  -1  -2 -15    0.02    0.14
  -2  -2 -16    1.81    0.45
  -3  -2 -17   -0.03    0.29
  -6   1   8    0.33    0.25
   6  -1  -8    1.15    0.37
  -5   1   9   14.74    0.96
   5  -1  -9   13.87    0.96
   4  -1 -10    6.05    0.66
   3  -1 -11    0.01    0.18
   2  -1 -12    8.35    0.74
   1  -1 -13    1.27    0.36
   0  -1 -14    0.00    0.18
   0  -1 -14    0.00    0.16
  -1  -1 -15    3.97    0.55
  -2  -1 -16    6.93    0.72
  -3  -1 -17    8.37    0.82
  -6   0   8    0.77    0.35
   6   0  -8    0.32    0.30
  -5   0   9    3.68    0.55
   5   0  -9    3.81    0.55
   4   0 -10    0.84    0.31
   3   0 -11    3.54    0.53
   2   0 -12    0.33    0.26
   1   0 -13    4.71    0.58
   0   0 -14    3.00    0.53
  -1   0 -15    2.68    0.51
  -2   0 -16    0.72    0.31
  -6  -1   8    2.45    0.54
   6   1  -8    2.21    0.52
   6   1  -8    2.82    0.58
  -5  -1   9    0.57    0.28
   5   1  -9    0.36    0.28
   5   1  -9    0.16    0.21
  -4  -1  10    0.66    0.29
   4   1 -10    0.65    0.28
   4   1 -10    0.29    0.23
   3   1 -11    0.94    0.32
   3   1 -11    1.41    0.37
   2   1 -12    0.76    0.30
   2   1 -12    0.46    0.26
   1   1 -13    6.10    0.64
   1   1 -13    4.90    0.58
   0   1 -14    0.90    0.32
   0   1 -14    0.93    0.35
  -1   1 -15    0.39    0.27
  -1   1 -15    0.60    0.29
  -2   1 -16   -0.07    0.25
  -2   1 -16    0.05    0.23
   6   2  -8    4.41    0.64
   6   2  -8    5.00    0.70
  -5  -2   9    7.54    0.73
   5   2  -9    6.46    0.72
   5   2  -9    7.19    0.74
  -4  -2  10    1.12    0.37
   4   2 -10    0.77    0.34
   4   2 -10    0.44    0.26
   3   2 -11    4.03    0.58
   3   2 -11    3.61    0.54
   2   2 -12    1.97    0.44
   2   2 -12    0.97    0.36
   1   2 -13   11.16    0.91
   1   2 -13    9.87    0.83
   0   2 -14    4.57    0.64
   0   2 -14    4.42    0.57
  -1   2 -15    1.84    0.48
  -1   2 -15    1.39    0.38
  -5  -3   9    2.38    0.50
   5   3  -9    1.62    0.46
   5   3  -9    1.25    0.42
  -4  -3  10    3.82    0.56
   4   3 -10    3.48    0.62
   4   3 -10    2.68    0.57
   3   3 -11    3.11    0.57
   3   3 -11    3.09    0.62
   2   3 -12    2.69    0.52
   2   3 -12    2.05    0.51
   1   3 -13    0.03    0.20
   1   3 -13    0.19    0.27
   0   3 -14    5.16    0.61
   0   3 -14    3.37    0.65
   3   4 -11    0.20    0.31
   3   4 -11    0.29    0.26
   2   4 -12    0.94    0.36
   2   4 -12    0.86    0.39
   1   4 -13    0.15    0.26
   1   4 -13   -0.14    0.23
   2  -6 -13    0.91    0.37
   1  -6 -14    7.79    0.83
   0  -6 -15    0.92    0.34
   0  -6 -15    1.18    0.40
   4  -5 -11    2.84    0.63
   3  -5 -12    1.42    0.44
   2  -5 -13   -0.03    0.20
   1  -5 -14    2.48    0.56
   1  -5 -14    1.89    0.46
   0  -5 -15    3.56    0.61
   0  -5 -15    3.82    0.55
  -1  -5 -16   -0.09    0.22
  -1  -5 -16    0.02    0.22
   5  -4 -10    6.16    0.75
   4  -4 -11    7.72    0.83
   3  -4 -12    0.21    0.21
   3  -4 -12    0.31    0.27
   2  -4 -13    0.23    0.23
   2  -4 -13    0.76    0.35
   1  -4 -14   19.43    1.20
   1  -4 -14   19.54    1.14
   0  -4 -15    0.05    0.24
   0  -4 -15    0.20    0.24
  -1  -4 -16    0.81    0.33
  -1  -4 -16    0.16    0.23
  -2  -4 -17    0.38    0.30
   5  -3 -10    0.99    0.41
   5  -3 -10    0.91    0.33
   4  -3 -11    9.90    0.83
   4  -3 -11    8.50    0.85
   3  -3 -12    1.13    0.35
   3  -3 -12    1.09    0.36
   2  -3 -13    4.25    0.58
   2  -3 -13    4.37    0.55
   1  -3 -14    1.55    0.44
   1  -3 -14    0.41    0.25
   0  -3 -15    3.07    0.56
   0  -3 -15    3.30    0.48
  -1  -3 -16    0.15    0.24
  -1  -3 -16    0.01    0.19
  -2  -3 -17    5.05    0.67
   5  -2 -10    3.07    0.58
   4  -2 -11    0.11    0.22
   3  -2 -12    0.14    0.23
   3  -2 -12    0.14    0.23
   2  -2 -13    1.04    0.34
   2  -2 -13    1.56    0.42
   1  -2 -14    0.24    0.24
   1  -2 -14    0.53    0.28
   0  -2 -15    4.49    0.58
   0  -2 -15    5.04    0.60
  -1  -2 -16    1.66    0.40
  -1  -2 -16    2.10    0.49
  -2  -2 -17   -0.01    0.22
  -6   1   9   -0.36    0.23
   6  -1  -9    0.08    0.24
   5  -1 -10    3.27    0.61
   4  -1 -11    4.05    0.56
   3  -1 -12    8.46    0.77
   2  -1 -13    1.50    0.42
   1  -1 -14    0.12    0.20
   1  -1 -14    0.13    0.20
   0  -1 -15    0.84    0.34
   0  -1 -15    1.05    0.37
  -1  -1 -16   -0.02    0.21
  -2  -1 -17    1.13    0.37
   6   0  -9   -0.01    0.23
  -5   0  10    0.17    0.26
   5   0 -10    0.73    0.30
   4   0 -11   10.89    0.89
   3   0 -12    1.70    0.45
   2   0 -13   17.65    1.13
   1   0 -14    0.02    0.19
   0   0 -15   13.24    0.97
  -1   0 -16    2.34    0.51
  -2   0 -17    2.27    0.53
  -5  -1  10    1.87    0.49
   5   1 -10    1.82    0.47
   4   1 -11   -0.07    0.21
   4   1 -11    0.27    0.25
   3   1 -12    1.51    0.40
   3   1 -12    2.39    0.50
   2   1 -13    2.26    0.48
   2   1 -13    2.29    0.52
   1   1 -14    4.40    0.58
   1   1 -14    3.41    0.62
   0   1 -15    0.18    0.22
   0   1 -15    0.21    0.24
  -1   1 -16    7.32    0.75
  -1   1 -16    6.71    0.75
  -5  -2  10    2.32    0.52
   5   2 -10    3.43    0.62
   5   2 -10    1.92    0.50
   4   2 -11    1.29    0.43
   4   2 -11    1.91    0.50
   3   2 -12    3.90    0.67
   3   2 -12    2.61    0.54
   2   2 -13    0.52    0.31
   2   2 -13    0.56    0.33
   1   2 -14    0.61    0.34
   1   2 -14    0.37    0.31
   0   2 -15    1.13    0.41
   0   2 -15    0.66    0.33
   4   3 -11    0.53    0.35
   4   3 -11    0.85    0.37
   3   3 -12    8.59    0.90
   3   3 -12    9.88    0.88
   2   3 -13    0.84    0.34
   2   3 -13    1.20    0.44
   1   3 -14    5.48    0.73
   1   3 -14    5.73    0.74
   3  -5 -13    2.19    0.54
   2  -5 -14    1.30    0.42
   2  -5 -14    0.93    0.40
   1  -5 -15    0.19    0.30
   1  -5 -15   -0.04    0.25
   0  -5 -16    0.00    0.21
   0  -5 -16    0.06    0.21
   4  -4 -12    1.03    0.40
   3  -4 -13    0.01    0.22
   3  -4 -13   -0.05    0.21
   2  -4 -14    0.86    0.36
   2  -4 -14    1.06    0.41
   1  -4 -15    0.08    0.21
   1  -4 -15    0.29    0.24
   0  -4 -16    0.22    0.25
   0  -4 -16   -0.17    0.21
  -1  -4 -17    0.02    0.25
  -1  -4 -17   -0.07    0.20
   4  -3 -12    0.44    0.32
   4  -3 -12    0.06    0.25
   3  -3 -13    0.71    0.34
   3  -3 -13    0.58    0.36
   2  -3 -14    1.23    0.41
   2  -3 -14    1.93    0.47
   1  -3 -15    0.11    0.22
   1  -3 -15    0.01    0.17
   0  -3 -16    0.21    0.23
   0  -3 -16    0.35    0.30
  -1  -3 -17   17.23    1.18
  -1  -3 -17   19.26    1.17
   5  -2 -11    1.44    0.45
   4  -2 -12    5.35    0.67
   4  -2 -12    3.59    0.68
   3  -2 -13    2.22    0.51
   3  -2 -13    2.76    0.56
   2  -2 -14    0.03    0.20
   2  -2 -14    0.00    0.22
   1  -2 -15   10.47    0.87
   1  -2 -15   10.47    0.87
   0  -2 -16    3.38    0.60
   0  -2 -16    3.71    0.56
  -1  -2 -17    0.10    0.23
   5  -1 -11    0.49    0.30
   4  -1 -12    2.91    0.57
   3  -1 -13    5.83    0.70
   2  -1 -14    0.33    0.28
   1  -1 -15    0.52    0.29
   1  -1 -15    0.26    0.24
   0  -1 -16    0.32    0.26
   0  -1 -16    0.37    0.30
  -1  -1 -17    0.12    0.25
   5   0 -11    0.61    0.35
   4   0 -12    0.59    0.29
   3   0 -13    3.66    0.65
   2   0 -14    0.36    0.28
   1   0 -15   10.49    0.89
   0   0 -16    1.06    0.38
  -1   0 -17    0.78    0.36
   4   1 -12    2.40    0.54
   3   1 -13    1.74    0.44
   2   1 -14    5.09    0.69
   1   1 -15    1.18    0.42
   0   1 -16    8.75    0.85
   3   2 -13    0.54    0.33
   3   2 -13    1.79    0.48
   2   2 -14    0.22    0.27
   2   2 -14   -0.21    0.22
   1   2 -15    0.31    0.31
   1   2 -15    0.89    0.36
   2  -4 -15    0.37    0.27
   2  -4 -15    0.50    0.32
   1  -4 -16    3.82    0.69
   1  -4 -16    3.22    0.63
   3  -3 -14    0.11    0.25
   3  -3 -14    0.45    0.30
   2  -3 -15    0.11    0.25
   2  -3 -15    0.26    0.26
   1  -3 -16    0.03    0.21
   1  -3 -16   -0.15    0.20
   0  -3 -17    0.25    0.26
   0  -3 -17    0.39    0.31
   4  -2 -13    4.38    0.67
   4  -2 -13    4.64    0.67
   3  -2 -14    2.65    0.59
   3  -2 -14    4.27    0.62
   2  -2 -15    3.20    0.60
   2  -2 -15    3.17    0.62
   1  -2 -16    4.72    0.64
   1  -2 -16    4.12    0.71
   0  -2 -17    0.48    0.30
   0  -2 -17    0.47    0.35
   4  -1 -13    1.21    0.45
   3  -1 -14    7.11    0.79
   2  -1 -15    0.04    0.22
   2  -1 -15    0.14    0.25
   1  -1 -16    2.76    0.56
   1  -1 -16    2.23    0.55
   0  -1 -17    2.34    0.52
   3   0 -14    1.43    0.47
   2   0 -15   -0.11    0.28
   1   0 -16    0.21    0.27
   0   0   0    0.00    0.00
;
_shelx_hkl_checksum              97008
_contact_crystallographer_email  staples@chemistry.msu.com
_contact_crystallographer_name   'Richard Staples'
loop_
_space_group_symop_operation_xyz
'x, y, z'
'-x, -y, -z'
loop_
_atom_site_label
_atom_site_type_symbol
_atom_site_fract_x
_atom_site_fract_y
_atom_site_fract_z
_atom_site_U_iso_or_equiv
_atom_site_adp_type
_atom_site_occupancy
_atom_site_site_symmetry_order
_atom_site_calc_flag
_atom_site_refinement_flags_posn
Cl1 Cl 0.87989(8) 0.65677(7) 0.63195(4) 0.03549(19) Uani 1 1 d .
O1 O 1.01591(18) 0.88305(18) 0.21482(9) 0.0254(3) Uani 1 1 d .
O2 O 0.53772(19) 0.58585(18) 0.35377(10) 0.0310(4) Uani 1 1 d .
O3 O 0.4624(2) 0.5969(2) 0.19196(11) 0.0370(4) Uani 1 1 d .
H3 H 0.4504 0.5648 0.2515 0.056 Uiso 1 1 calc GR
O4 O 0.9485(2) 1.34517(18) 0.16007(11) 0.0332(4) Uani 1 1 d .
O5 O 1.0751(2) 1.1944(2) 0.04717(11) 0.0408(4) Uani 1 1 d .
C1 C 0.8529(3) 0.9079(3) 0.16609(14) 0.0239(5) Uani 1 1 d .
H1 H 0.9095 0.8911 0.0997 0.029 Uiso 1 1 calc R
C2 C 0.7030(3) 0.7702(3) 0.21168(15) 0.0245(5) Uani 1 1 d .
C3 C 0.6716(3) 0.6949(3) 0.31164(15) 0.0250(5) Uani 1 1 d .
C4 C 0.8074(3) 0.7384(2) 0.36375(14) 0.0229(5) Uani 1 1 d .
C5 C 0.7814(3) 0.6837(3) 0.46307(14) 0.0246(5) Uani 1 1 d .
H5 H 0.6672 0.6234 0.4996 0.029 Uiso 1 1 calc R
C6 C 0.9216(3) 0.7174(3) 0.50758(14) 0.0251(5) Uani 1 1 d .
C7 C 1.0963(3) 0.7994(3) 0.45656(15) 0.0251(5) Uani 1 1 d .
C8 C 1.1198(3) 0.8532(3) 0.35813(15) 0.0250(5) Uani 1 1 d .
H8 H 1.2364 0.9097 0.3215 0.030 Uiso 1 1 calc R
C9 C 0.9769(3) 0.8266(3) 0.31184(14) 0.0225(4) Uani 1 1 d .
C10 C 0.6011(3) 0.7085(3) 0.15708(16) 0.0317(5) Uani 1 1 d .
H10 H 0.6346 0.7503 0.0896 0.038 Uiso 1 1 calc R
C11 C 1.2511(3) 0.8307(3) 0.50548(15) 0.0308(5) Uani 1 1 d .
H11A H 1.1937 0.9053 0.5511 0.046 Uiso 1 1 calc GR
H11B H 1.3603 0.8906 0.4577 0.046 Uiso 1 1 calc GR
H11C H 1.3007 0.7168 0.5396 0.046 Uiso 1 1 calc GR
C12 C 0.7697(3) 1.1024(3) 0.15648(14) 0.0241(5) Uani 1 1 d .
C13 C 0.9489(3) 1.2162(3) 0.11494(15) 0.0263(5) Uani 1 1 d .
C14 C 0.6503(3) 1.1421(3) 0.25058(16) 0.0332(5) Uani 1 1 d .
H14A H 0.5419 1.0614 0.2764 0.050 Uiso 1 1 calc GR
H14B H 0.5961 1.2650 0.2394 0.050 Uiso 1 1 calc GR
H14C H 0.7362 1.1253 0.2965 0.050 Uiso 1 1 calc GR
C15 C 0.6404(3) 1.1433(3) 0.08135(17) 0.0378(6) Uani 1 1 d .
H15A H 0.7153 1.1108 0.0223 0.057 Uiso 1 1 calc GR
H15B H 0.6021 1.2703 0.0681 0.057 Uiso 1 1 calc GR
H15C H 0.5216 1.0749 0.1059 0.057 Uiso 1 1 calc GR
C16 C 1.1152(3) 1.4569(3) 0.12478(18) 0.0403(6) Uani 1 1 d .
H16A H 1.1228 1.5114 0.0569 0.060 Uiso 1 1 calc GR
H16B H 1.2371 1.3850 0.1325 0.060 Uiso 1 1 calc GR
H16C H 1.0987 1.5500 0.1611 0.060 Uiso 1 1 calc GR
loop_
_atom_site_aniso_label
_atom_site_aniso_U_11
_atom_site_aniso_U_22
_atom_site_aniso_U_33
_atom_site_aniso_U_23
_atom_site_aniso_U_13
_atom_site_aniso_U_12
Cl1 0.0422(3) 0.0380(3) 0.0236(3) -0.0037(2) -0.0056(2) -0.0010(3)
O1 0.0222(7) 0.0304(8) 0.0222(8) -0.0023(6) -0.0032(6) -0.0057(6)
O2 0.0286(8) 0.0296(8) 0.0318(9) -0.0006(7) -0.0025(6) -0.0117(7)
O3 0.0393(9) 0.0377(9) 0.0379(10) -0.0079(8) -0.0098(8) -0.0164(7)
O4 0.0331(8) 0.0279(8) 0.0419(10) -0.0137(7) -0.0052(7) -0.0086(7)
O5 0.0466(9) 0.0470(10) 0.0275(9) -0.0112(8) 0.0070(8) -0.0228(8)
C1 0.0250(10) 0.0287(11) 0.0196(11) -0.0066(9) -0.0047(8) -0.0055(9)
C2 0.0247(10) 0.0215(11) 0.0273(12) -0.0051(9) -0.0052(9) -0.0027(9)
C3 0.0233(10) 0.0186(10) 0.0319(13) -0.0055(9) -0.0032(9) -0.0018(9)
C4 0.0233(10) 0.0190(10) 0.0250(12) -0.0045(9) -0.0031(9) 0.0007(8)
C5 0.0232(10) 0.0199(11) 0.0256(12) -0.0009(9) -0.0003(9) 0.0005(9)
C6 0.0296(11) 0.0224(11) 0.0215(11) -0.0056(9) -0.0036(9) 0.0043(9)
C7 0.0246(10) 0.0208(11) 0.0298(12) -0.0069(9) -0.0065(9) 0.0042(8)
C8 0.0186(10) 0.0241(11) 0.0305(13) -0.0054(9) -0.0022(9) -0.0011(9)
C9 0.0225(10) 0.0197(10) 0.0240(11) -0.0056(9) -0.0023(9) 0.0009(8)
C10 0.0341(12) 0.0281(12) 0.0330(13) -0.0074(10) -0.0037(10) -0.0080(10)
C11 0.0289(11) 0.0335(12) 0.0325(13) -0.0105(10) -0.0098(10) 0.0029(10)
C12 0.0270(10) 0.0212(11) 0.0238(11) -0.0025(9) -0.0058(9) -0.0047(9)
C13 0.0327(11) 0.0243(11) 0.0219(12) 0.0007(9) -0.0098(10) -0.0057(9)
C14 0.0351(12) 0.0211(11) 0.0380(14) -0.0046(10) 0.0022(10) -0.0039(9)
C15 0.0361(12) 0.0325(13) 0.0452(15) 0.0005(11) -0.0174(11) -0.0058(10)
C16 0.0378(13) 0.0338(13) 0.0524(16) -0.0100(12) -0.0094(11) -0.0150(11)
loop_
_atom_type_symbol
_atom_type_description
_atom_type_scat_dispersion_real
_atom_type_scat_dispersion_imag
_atom_type_scat_source
C C 0.0033 0.0016 'International Tables Vol C Tables 4.2.6.8 and 6.1.1.4'
H H 0.0000 0.0000 'International Tables Vol C Tables 4.2.6.8 and 6.1.1.4'
Cl Cl 0.1484 0.1585 'International Tables Vol C Tables 4.2.6.8 and 6.1.1.4'
O O 0.0106 0.0060 'International Tables Vol C Tables 4.2.6.8 and 6.1.1.4'
loop_
_geom_angle_atom_site_label_1
_geom_angle_atom_site_label_2
_geom_angle_atom_site_label_3
_geom_angle
C9 O1 C1 118.51(14)
C10 O3 H3 109.5
C13 O4 C16 115.78(17)
O1 C1 H1 106.8
O1 C1 C2 111.92(16)
O1 C1 C12 108.96(15)
C2 C1 H1 106.8
C2 C1 C12 115.11(16)
C12 C1 H1 106.8
C3 C2 C1 120.17(17)
C10 C2 C1 120.73(19)
C10 C2 C3 119.02(18)
O2 C3 C2 121.92(18)
O2 C3 C4 120.57(19)
C2 C3 C4 117.41(17)
C5 C4 C3 122.29(18)
C9 C4 C3 118.67(18)
C9 C4 C5 118.87(18)
C4 C5 H5 120.1
C6 C5 C4 119.73(18)
C6 C5 H5 120.1
C5 C6 Cl1 118.71(16)
C5 C6 C7 122.31(19)
C7 C6 Cl1 118.98(16)
C6 C7 C11 121.95(19)
C8 C7 C6 117.26(18)
C8 C7 C11 120.79(18)
C7 C8 H8 119.3
C7 C8 C9 121.47(18)
C9 C8 H8 119.3
O1 C9 C4 123.05(17)
O1 C9 C8 116.61(17)
C8 C9 C4 120.27(19)
O3 C10 C2 124.1(2)
O3 C10 H10 117.9
C2 C10 H10 117.9
C7 C11 H11A 109.5
C7 C11 H11B 109.5
C7 C11 H11C 109.5
H11A C11 H11B 109.5
H11A C11 H11C 109.5
H11B C11 H11C 109.5
C13 C12 C1 105.57(16)
C13 C12 C15 106.76(16)
C14 C12 C1 113.27(16)
C14 C12 C13 112.35(16)
C14 C12 C15 109.81(18)
C15 C12 C1 108.78(16)
O4 C13 C12 113.00(18)
O5 C13 O4 123.23(19)
O5 C13 C12 123.76(19)
C12 C14 H14A 109.5
C12 C14 H14B 109.5
C12 C14 H14C 109.5
H14A C14 H14B 109.5
H14A C14 H14C 109.5
H14B C14 H14C 109.5
C12 C15 H15A 109.5
C12 C15 H15B 109.5
C12 C15 H15C 109.5
H15A C15 H15B 109.5
H15A C15 H15C 109.5
H15B C15 H15C 109.5
O4 C16 H16A 109.5
O4 C16 H16B 109.5
O4 C16 H16C 109.5
H16A C16 H16B 109.5
H16A C16 H16C 109.5
H16B C16 H16C 109.5
loop_
_geom_bond_atom_site_label_1
_geom_bond_atom_site_label_2
_geom_bond_distance
Cl1 C6 1.742(2)
O1 C1 1.451(2)
O1 C9 1.362(2)
O2 C3 1.273(2)
O3 H3 0.8400
O3 C10 1.298(2)
O4 C13 1.327(2)
O4 C16 1.445(2)
O5 C13 1.201(2)
C1 H1 1.0000
C1 C2 1.501(3)
C1 C12 1.546(3)
C2 C3 1.423(3)
C2 C10 1.377(3)
C3 C4 1.457(3)
C4 C5 1.397(3)
C4 C9 1.397(3)
C5 H5 0.9500
C5 C6 1.372(3)
C6 C7 1.401(3)
C7 C8 1.385(3)
C7 C11 1.496(3)
C8 H8 0.9500
C8 C9 1.386(3)
C10 H10 0.9500
C11 H11A 0.9800
C11 H11B 0.9800
C11 H11C 0.9800
C12 C13 1.528(3)
C12 C14 1.525(3)
C12 C15 1.539(3)
C14 H14A 0.9800
C14 H14B 0.9800
C14 H14C 0.9800
C15 H15A 0.9800
C15 H15B 0.9800
C15 H15C 0.9800
C16 H16A 0.9800
C16 H16B 0.9800
C16 H16C 0.9800
loop_
_geom_torsion_atom_site_label_1
_geom_torsion_atom_site_label_2
_geom_torsion_atom_site_label_3
_geom_torsion_atom_site_label_4
_geom_torsion
Cl1 C6 C7 C8 -177.02(15)
Cl1 C6 C7 C11 2.2(3)
O1 C1 C2 C3 30.6(3)
O1 C1 C2 C10 -146.18(19)
O1 C1 C12 C13 49.7(2)
O1 C1 C12 C14 -73.6(2)
O1 C1 C12 C15 163.98(15)
O2 C3 C4 C5 -9.0(3)
O2 C3 C4 C9 166.22(18)
C1 O1 C9 C4 21.2(3)
C1 O1 C9 C8 -161.77(16)
C1 C2 C3 O2 175.67(18)
C1 C2 C3 C4 -8.2(3)
C1 C2 C10 O3 -176.16(19)
C1 C12 C13 O4 -133.88(17)
C1 C12 C13 O5 47.7(3)
C2 C1 C12 C13 176.37(16)
C2 C1 C12 C14 53.0(2)
C2 C1 C12 C15 -69.4(2)
C2 C3 C4 C5 174.78(18)
C2 C3 C4 C9 -10.0(3)
C3 C2 C10 O3 7.0(3)
C3 C4 C5 C6 175.27(18)
C3 C4 C9 O1 3.9(3)
C3 C4 C9 C8 -173.07(18)
C4 C5 C6 Cl1 177.08(14)
C4 C5 C6 C7 -2.6(3)
C5 C4 C9 O1 179.25(17)
C5 C4 C9 C8 2.3(3)
C5 C6 C7 C8 2.7(3)
C5 C6 C7 C11 -178.11(18)
C6 C7 C8 C9 -0.2(3)
C7 C8 C9 O1 -179.38(16)
C7 C8 C9 C4 -2.2(3)
C9 O1 C1 C2 -36.8(2)
C9 O1 C1 C12 91.67(19)
C9 C4 C5 C6 0.1(3)
C10 C2 C3 O2 -7.5(3)
C10 C2 C3 C4 168.68(18)
C11 C7 C8 C9 -179.44(18)
C12 C1 C2 C3 -94.5(2)
C12 C1 C2 C10 88.7(2)
C14 C12 C13 O4 -10.0(2)
C14 C12 C13 O5 171.6(2)
C15 C12 C13 O4 110.46(19)
C15 C12 C13 O5 -67.9(3)
C16 O4 C13 O5 -2.1(3)
C16 O4 C13 C12 179.47(17)
