#------------------------------------------------------------------------------
#$Date: 2015-09-06 04:40:40 +0300 (Sun, 06 Sep 2015) $
#$Revision: 154793 $
#$URL: svn://www.crystallography.net/cod/cif/1/52/94/1529421.cif $
#------------------------------------------------------------------------------
#
# This file is available in the Crystallography Open Database (COD),
# http://www.crystallography.net/
#
# All data on this site have been placed in the public domain by the
# contributors.
#
data_1529421
loop_
_publ_author_name
'Rybak, Taras'
'Hall, Dennis G.'
_publ_section_title
;
 Stereoselective and Regiodivergent Allylic Suzuki-Miyaura Cross-Coupling
 of 2-Ethoxydihydropyranyl Boronates: Synthesis and Confirmation of
 Absolute Stereochemistry of Diospongin B.
;
_journal_issue                   17
_journal_name_full               'Organic letters'
_journal_page_first              4156
_journal_page_last               4159
_journal_paper_doi               10.1021/acs.orglett.5b01906
_journal_volume                  17
_journal_year                    2015
_chemical_absolute_configuration unk
_chemical_formula_moiety         'C13 H18 O4'
_chemical_formula_sum            'C13 H18 O4'
_chemical_formula_weight         238.27
_space_group_crystal_system      monoclinic
_space_group_IT_number           4
_space_group_name_Hall           'P 2yb'
_space_group_name_H-M_alt        'P 1 21 1'
_symmetry_space_group_name_Hall  'P 2yb'
_symmetry_space_group_name_H-M   'P 1 21 1'
_atom_sites_solution_hydrogens   mixed
_audit_creation_method           SHELXL-2014/7
_cell_angle_alpha                90
_cell_angle_beta                 101.240(3)
_cell_angle_gamma                90
_cell_formula_units_Z            2
_cell_length_a                   5.9170(15)
_cell_length_b                   7.864(2)
_cell_length_c                   13.651(3)
_cell_measurement_reflns_used    4050
_cell_measurement_temperature    193(2)
_cell_measurement_theta_max      27.13
_cell_measurement_theta_min      3.00
_cell_volume                     623.0(3)
_computing_cell_refinement       'Bruker SAINT'
_computing_data_collection       'Bruker APEX2'
_computing_data_reduction        'Bruker SAINT'
_computing_molecular_graphics    'Bruker SHELXTL'
_computing_publication_material  'Bruker SHELXTL'
_computing_structure_refinement  'SHELXL-2014/7 (Sheldrick, 2014)'
_computing_structure_solution    'SHELXD (Schneider & Sheldrick, 2002)'
_diffrn_ambient_temperature      193(2)
_diffrn_measured_fraction_theta_full 0.998
_diffrn_measured_fraction_theta_max 0.990
_diffrn_measurement_device_type  'Bruker APEX-II CCD'
_diffrn_measurement_method       '\w scans'
_diffrn_radiation_type           MoK\a
_diffrn_radiation_wavelength     0.71073
_diffrn_reflns_av_R_equivalents  0.0226
_diffrn_reflns_av_unetI/netI     0.0334
_diffrn_reflns_laue_measured_fraction_full 0.998
_diffrn_reflns_laue_measured_fraction_max 0.990
_diffrn_reflns_limit_h_max       7
_diffrn_reflns_limit_h_min       -7
_diffrn_reflns_limit_k_max       10
_diffrn_reflns_limit_k_min       -10
_diffrn_reflns_limit_l_max       17
_diffrn_reflns_limit_l_min       -17
_diffrn_reflns_number            5557
_diffrn_reflns_point_group_measured_fraction_full 0.997
_diffrn_reflns_point_group_measured_fraction_max 0.983
_diffrn_reflns_theta_full        25.242
_diffrn_reflns_theta_max         27.485
_diffrn_reflns_theta_min         1.521
_exptl_absorpt_coefficient_mu    0.093
_exptl_absorpt_correction_T_max  1.0000
_exptl_absorpt_correction_T_min  0.9184
_exptl_absorpt_correction_type   numerical
_exptl_absorpt_process_details   'SADABS 2014/5'
_exptl_crystal_colour            colourless
_exptl_crystal_density_diffrn    1.270
_exptl_crystal_description       fragment
_exptl_crystal_F_000             256
_exptl_crystal_size_max          0.296
_exptl_crystal_size_mid          0.212
_exptl_crystal_size_min          0.141
_refine_diff_density_max         0.172
_refine_diff_density_min         -0.148
_refine_diff_density_rms         0.037
_refine_ls_abs_structure_details
; 
 Flack x determined using 885 quotients [(I+)-(I-)]/[(I+)+(I-)] 
 (Parsons, Flack and Wagner, Acta Cryst. B69 (2013) 249-259). 
;
_refine_ls_abs_structure_Flack   0.8(5)
_refine_ls_extinction_method     none
_refine_ls_goodness_of_fit_ref   1.035
_refine_ls_hydrogen_treatment    mixed
_refine_ls_matrix_type           full
_refine_ls_number_parameters     162
_refine_ls_number_reflns         2822
_refine_ls_number_restraints     1
_refine_ls_restrained_S_all      1.035
_refine_ls_R_factor_all          0.0521
_refine_ls_R_factor_gt           0.0407
_refine_ls_shift/su_max          0.003
_refine_ls_shift/su_mean         0.000
_refine_ls_structure_factor_coef Fsqd
_refine_ls_weighting_details
'w=1/[\s^2^(Fo^2^)+(0.0518P)^2^+0.0642P] where P=(Fo^2^+2Fc^2^)/3'
_refine_ls_weighting_scheme      calc
_refine_ls_wR_factor_gt          0.0949
_refine_ls_wR_factor_ref         0.0997
_reflns_Friedel_coverage         0.850
_reflns_friedel_fraction_full    0.996
_reflns_friedel_fraction_max     0.974
_reflns_number_gt                2363
_reflns_number_total             2822
_reflns_threshold_expression     'I > 2\s(I)'
_cod_data_source_file            ol5b01906_si_003.cif
_cod_data_source_block           dgh1501
_cod_depositor_comments
'Adding full bibliography for 1529421--1529422.cif.'
_cod_database_code               1529421
_shelx_shelxl_version_number     2014/7
_shelx_space_group_comment
; 
The symmetry employed for this shelxl refinement is uniquely defined 
by the following loop, which should always be used as a source of 
symmetry information in preference to the above space-group names. 
They are only intended as comments. 
;
_shelx_estimated_absorpt_t_min   0.973
_shelx_estimated_absorpt_t_max   0.987
_shelx_res_file
; 
  
    dgh1501.res created by SHELXL-2014/7 
  
  
TITL dgh1501 in P2(1) 
CELL 0.71073 5.9170 7.8639 13.6514 90.0 101.2395 90.0 
ZERR    2.00 0.0015 0.0020  0.0034  0.0   0.0028  0.0 
LATT -1 
SYMM -X, 0.5+Y, -Z 
SFAC C H O 
UNIT 26 36 8 
SIZE 0.141 0.212 0.296 
TEMP -80 
EQIV $1 1-X, -0.5+Y, 1-Z 
L.S. 4 
ACTA 
CONF 
HTAB O3 O4 
HTAB O4 O3_$1 
WGHT    0.051800    0.064200 
FVAR       0.44948 
O1    3   -0.014883    0.152229    0.259782    11.00000    0.03286    0.02987 = 
         0.02583   -0.00294    0.00340    0.00628 
O2    3   -0.248643    0.329190    0.327176    11.00000    0.03619    0.03002 = 
         0.03711    0.00164    0.00832    0.00747 
O3    3    0.422744    0.202648    0.471003    11.00000    0.03828    0.05449 = 
         0.04096   -0.01843    0.00734   -0.00989 
H3O   2    0.533110    0.171110    0.447397    11.00000    0.07358 
O4    3    0.503407   -0.083472    0.366064    11.00000    0.03387    0.04183 = 
         0.03095    0.00503    0.00329    0.00699 
H4O   2    0.538008   -0.142782    0.416085    11.00000    0.06756 
C1    1   -0.027692    0.260749    0.342935    11.00000    0.03150    0.02851 = 
         0.02760   -0.00533    0.00557    0.00075 
AFIX  13 
H1    2    0.088946    0.353893    0.347470    11.00000   -1.20000 
AFIX   0 
C2    1    0.015133    0.157254    0.438314    11.00000    0.03411    0.03646 = 
         0.02926   -0.00082    0.00885   -0.00019 
AFIX  23 
H2A   2    0.009261    0.232418    0.495940    11.00000   -1.20000 
H2B   2   -0.106558    0.069886    0.435095    11.00000   -1.20000 
AFIX   0 
C3    1    0.248513    0.072091    0.452314    11.00000    0.03333    0.04002 = 
         0.02518    0.00050    0.00335   -0.00279 
AFIX  13 
H3    2    0.267589   -0.006199    0.511076    11.00000   -1.20000 
AFIX   0 
C4    1    0.272711   -0.028818    0.359611    11.00000    0.02905    0.02701 = 
         0.02535    0.00029    0.00198   -0.00055 
AFIX  13 
H4    2    0.168784   -0.130165    0.353190    11.00000   -1.20000 
AFIX   0 
C5    1    0.210714    0.080893    0.265177    11.00000    0.02508    0.02605 = 
         0.02591   -0.00075    0.00407   -0.00289 
AFIX  13 
H5    2    0.325319    0.175260    0.268763    11.00000   -1.20000 
AFIX   0 
C6    1   -0.275635    0.475315    0.261277    11.00000    0.05481    0.03466 = 
         0.04621    0.00942    0.01349    0.00918 
AFIX  23 
H6A   2   -0.224120    0.446368    0.198536    11.00000   -1.20000 
H6B   2   -0.179872    0.570633    0.293593    11.00000   -1.20000 
AFIX   0 
C7    1   -0.520613    0.526319    0.239003    11.00000    0.05676    0.03257 = 
         0.06756    0.01077    0.00596    0.01128 
AFIX  33 
H7A   2   -0.539789    0.625162    0.194430    11.00000   -1.20000 
H7B   2   -0.614341    0.431849    0.206502    11.00000   -1.20000 
H7C   2   -0.570212    0.555778    0.301302    11.00000   -1.20000 
AFIX   0 
C8    1    0.209487   -0.021141    0.171440    11.00000    0.02888    0.02215 = 
         0.02565    0.00278    0.00089    0.00285 
C9    1    0.026404   -0.129624    0.134662    11.00000    0.03151    0.03877 = 
         0.03499   -0.00497    0.00550   -0.00058 
AFIX  43 
H9    2   -0.099459   -0.138708    0.168215    11.00000   -1.20000 
AFIX   0 
C10   1    0.027844   -0.224555    0.048903    11.00000    0.04135    0.04240 = 
         0.04463   -0.01398   -0.00433   -0.00020 
AFIX  43 
H10   2   -0.097021   -0.298580    0.023980    11.00000   -1.20000 
AFIX   0 
C11   1    0.210477   -0.211527   -0.000204    11.00000    0.04945    0.04824 = 
         0.03207   -0.00919    0.00323    0.01343 
AFIX  43 
H11   2    0.210330   -0.275818   -0.059133    11.00000   -1.20000 
AFIX   0 
C12   1    0.393041   -0.105216    0.036286    11.00000    0.04204    0.04984 = 
         0.03331    0.00244    0.01171    0.01015 
AFIX  43 
H12   2    0.518574   -0.096409    0.002518    11.00000   -1.20000 
AFIX   0 
C13   1    0.393232   -0.011165    0.122325    11.00000    0.03383    0.03168 = 
         0.03231    0.00058    0.00501   -0.00006 
AFIX  43 
H13   2    0.520272    0.060614    0.147764    11.00000   -1.20000 
  
AFIX   0 
HKLF 4 
  
REM  dgh1501 in P2(1) 
REM R1 =  0.0407 for    2363 Fo > 4sig(Fo)  and  0.0521 for all    2822 data 
REM    162 parameters refined using      1 restraints 
  
END 
  
WGHT      0.0534      0.0529 
  
REM Highest difference peak  0.172,  deepest hole -0.148,  1-sigma level  0.037 
Q1    1   0.1414  0.1450  0.4462  11.00000  0.05    0.17 
Q2    1  -0.0679  0.4805  0.2577  11.00000  0.05    0.17 
Q3    1   0.2396  0.0386  0.3175  11.00000  0.05    0.15 
Q4    1   0.2732  0.0019  0.1400  11.00000  0.05    0.14 
Q5    1  -0.4413  0.2975  0.3260  11.00000  0.05    0.14 
Q6    1   0.2996 -0.0220  0.1576  11.00000  0.05    0.14 
Q7    1   0.2487  0.0138  0.4041  11.00000  0.05    0.14 
Q8    1   0.0931  0.2804  0.3358  11.00000  0.05    0.13 
Q9    1  -0.1385 -0.0760  0.1336  11.00000  0.05    0.13 
Q10   1   0.5867  0.2018  0.2388  11.00000  0.05    0.12 
Q11   1   0.1982 -0.0785  0.3562  11.00000  0.05    0.12 
Q12   1   0.1294  0.1411  0.2597  11.00000  0.05    0.12 
Q13   1   0.3345  0.1189  0.4642  11.00000  0.05    0.12 
Q14   1   0.0969 -0.0248  0.1426  11.00000  0.05    0.12 
Q15   1   0.3346  0.3734  0.3336  11.00000  0.05    0.12 
Q16   1   0.6444 -0.0810  0.0411  11.00000  0.05    0.12 
Q17   1  -0.2351 -0.0477  0.3688  11.00000  0.05    0.12 
Q18   1   0.3523  0.3155  0.3768  11.00000  0.05    0.12 
Q19   1   0.1502 -0.0931  0.1638  11.00000  0.05    0.11 
Q20   1   0.5528  0.1432  0.4813  11.00000  0.05    0.11 
;
_shelx_res_checksum              76763
_shelx_hkl_file
; 
   1  -2 -17    2.85    0.70 
   2  -2 -17    1.71    0.60 
   2  -1 -17    4.02    0.72 
   3  -1 -17   -0.41    0.58 
   2   0 -17   -2.13    0.83 
   3   0 -17    0.93    0.59 
   3   1 -17    1.16    0.55 
   0   2 -17    1.20    0.79 
   1   2 -17    3.44    0.99 
   1  -4 -16    7.06    0.84 
   2  -4 -16    5.38    0.81 
   0  -3 -16    5.59    0.77 
   1  -3 -16    5.14    0.75 
   2  -3 -16    1.42    0.62 
   3  -3 -16    4.10    0.68 
   0  -2 -16    0.60    0.91 
   1  -2 -16   14.41    1.04 
   2  -2 -16    2.93    0.61 
   3  -2 -16    0.18    0.56 
   4  -2 -16    0.52    0.45 
   1  -1 -16    2.05    0.55 
   2  -1 -16    1.15    0.52 
   3  -1 -16   -0.61    0.53 
   4  -1 -16    0.63    0.41 
  -1   0 -16    5.26    0.92 
   2   0 -16    0.75    0.52 
   3   0 -16    0.00    0.50 
   4   0 -16    2.07    0.63 
  -1   1 -16    2.42    0.79 
   0   1 -16    8.64    1.00 
   3   1 -16    0.33    0.48 
   4   1 -16    1.17    0.54 
  -1   2 -16    0.68    0.79 
   0   2 -16    1.05    0.75 
   1   2 -16   14.06    1.20 
   3   2 -16    0.41    0.80 
   4   2 -16    1.20    0.59 
   0   3 -16    6.35    0.99 
   1   3 -16    2.61    0.84 
   2   3 -16    1.14    0.72 
   1   4 -16    9.10    1.06 
   2   4 -16    4.54    0.91 
   0  -5 -15    1.25    0.66 
   1  -5 -15    0.20    0.59 
   2  -5 -15    2.58    0.67 
  -1  -4 -15    1.44    0.59 
   0  -4 -15    5.02    0.76 
   1  -4 -15    2.38    0.60 
   2  -4 -15    2.70    0.68 
   3  -4 -15    0.90    0.40 
  -1  -3 -15    0.30    0.53 
   0  -3 -15    2.13    0.57 
   1  -3 -15   18.17    1.05 
   2  -3 -15    1.63    0.59 
   3  -3 -15   -0.05    0.34 
   4  -3 -15    0.54    0.41 
   0  -2 -15    7.80    0.73 
   1  -2 -15    6.72    0.73 
   2  -2 -15    0.53    0.46 
   3  -2 -15    0.63    0.35 
   4  -2 -15   -0.08    0.40 
  -2  -1 -15    0.63    0.73 
   1  -1 -15    1.85    0.51 
   2  -1 -15    7.32    0.71 
   3  -1 -15    0.55    0.33 
   4  -1 -15    0.39    0.38 
   5  -1 -15    5.26    0.55 
  -2   0 -15    0.58    0.79 
  -1   0 -15    7.15    0.90 
   0   0 -15    2.86    0.73 
   1   0 -15    2.32    0.51 
   2   0 -15    0.87    0.48 
   3   0 -15    0.65    0.47 
   4   0 -15    1.80    0.58 
   5   0 -15    2.62    0.66 
  -2   1 -15    0.98    0.70 
  -1   1 -15    0.25    0.67 
   0   1 -15    1.04    0.66 
   1   1 -15    1.22    0.61 
   2   1 -15    6.18    0.66 
   3   1 -15    0.34    0.44 
   4   1 -15    0.47    0.53 
   5   1 -15    4.80    0.72 
  -2   2 -15    1.02    0.78 
  -1   2 -15    0.86    0.72 
   0   2 -15    8.31    0.95 
   1   2 -15    6.51    0.90 
   2   2 -15    0.05    0.56 
   3   2 -15    0.37    0.46 
   4   2 -15    0.75    0.55 
  -2   3 -15   -0.01    0.75 
  -1   3 -15    0.38    0.72 
   0   3 -15    3.10    0.78 
   1   3 -15   14.81    1.20 
   2   3 -15    1.91    0.67 
   3   3 -15   -0.36    0.56 
   4   3 -15    0.74    0.57 
  -1   4 -15    1.79    0.79 
   0   4 -15    5.25    0.95 
   1   4 -15    1.46    0.70 
   2   4 -15    2.81    0.77 
   3   4 -15    0.58    0.69 
   0   5 -15   -0.36    0.73 
   1   5 -15    0.88    0.73 
   2   5 -15    2.83    0.81 
   0  -6 -14    0.27    0.63 
   1  -6 -14    0.76    0.66 
   2  -6 -14    0.54    0.62 
  -1  -5 -14    2.83    0.72 
   0  -5 -14    1.61    0.57 
   1  -5 -14    2.39    0.63 
   2  -5 -14    0.71    0.57 
   3  -5 -14    0.65    0.40 
  -2  -4 -14    3.90    0.70 
  -1  -4 -14   -0.30    0.48 
   0  -4 -14    0.46    0.49 
   1  -4 -14   -0.02    0.48 
   2  -4 -14    0.49    0.47 
   3  -4 -14    0.52    0.36 
   4  -4 -14    2.82    0.45 
  -1  -3 -14    1.90    0.49 
   0  -3 -14    1.10    0.51 
   1  -3 -14    0.36    0.43 
   2  -3 -14    0.95    0.50 
   3  -3 -14    0.20    0.32 
   4  -3 -14    0.91    0.39 
   5  -3 -14    0.57    0.43 
  -3  -2 -14    2.46    0.82 
  -2  -2 -14    2.45    0.72 
  -1  -2 -14    0.35    0.66 
   0  -2 -14    1.43    0.47 
   1  -2 -14    0.98    0.46 
   2  -2 -14    0.43    0.45 
   3  -2 -14    2.19    0.37 
   4  -2 -14   -0.01    0.34 
   5  -2 -14    1.72    0.46 
  -3  -1 -14    2.12    0.80 
  -2  -1 -14    0.70    0.61 
  -1  -1 -14    1.18    0.63 
   0  -1 -14    2.43    0.47 
   1  -1 -14    1.38    0.45 
   2  -1 -14    4.50    0.56 
   3  -1 -14    0.96    0.34 
   4  -1 -14    1.14    0.38 
   5  -1 -14    2.86    0.45 
  -3   0 -14    2.24    0.82 
  -2   0 -14    0.13    0.65 
  -1   0 -14    0.41    0.55 
   0   0 -14    3.08    0.65 
   1   0 -14    4.04    0.51 
   2   0 -14    4.78    0.60 
   3   0 -14    5.75    0.66 
   4   0 -14    4.06    0.64 
   5   0 -14    0.26    0.54 
  -3   1 -14    1.91    0.83 
  -2   1 -14    0.40    0.70 
  -1   1 -14    1.68    0.66 
   0   1 -14    1.96    0.64 
   1   1 -14    2.38    0.64 
   2   1 -14    4.96    0.47 
   3   1 -14    0.58    0.44 
   4   1 -14    1.53    0.51 
   5   1 -14    2.64    0.61 
  -3   2 -14    2.80    0.88 
  -2   2 -14    2.93    0.76 
  -1   2 -14    2.71    0.70 
   0   2 -14    0.85    0.58 
   1   2 -14    0.11    0.58 
   2   2 -14    1.53    0.37 
   3   2 -14    2.13    0.38 
   4   2 -14   -0.20    0.45 
   5   2 -14    1.56    0.59 
  -2   3 -14    1.48    0.73 
  -1   3 -14    0.93    0.64 
   0   3 -14   -0.19    0.59 
   1   3 -14    0.43    0.64 
   2   3 -14    0.64    0.54 
   3   3 -14   -0.12    0.32 
   4   3 -14    0.88    0.39 
   5   3 -14    0.17    0.55 
  -2   4 -14    3.65    0.85 
  -1   4 -14    0.70    0.70 
   0   4 -14    0.84    0.65 
   1   4 -14    0.42    0.63 
   2   4 -14   -0.43    0.58 
   3   4 -14    0.40    0.61 
   4   4 -14    2.50    0.46 
  -1   5 -14    3.49    0.83 
   0   5 -14   -0.04    0.70 
   1   5 -14    3.39    0.74 
   2   5 -14    1.33    0.72 
   3   5 -14   -0.15    0.65 
   1   6 -14    0.29    0.71 
   2   6 -14    1.21    0.72 
  -1  -6 -13    0.29    0.60 
   0  -6 -13    0.81    0.61 
   1  -6 -13    0.81    0.55 
   2  -6 -13    0.84    0.38 
   3  -6 -13    1.01    0.44 
  -2  -5 -13    0.30    0.58 
  -1  -5 -13    0.57    0.50 
   0  -5 -13    0.78    0.51 
   1  -5 -13    0.88    0.53 
   2  -5 -13    2.27    0.41 
   3  -5 -13    1.74    0.42 
   4  -5 -13    4.83    0.52 
  -2  -4 -13    0.25    0.54 
  -1  -4 -13    1.52    0.52 
   0  -4 -13    1.50    0.50 
   1  -4 -13    0.52    0.48 
   2  -4 -13    2.45    0.36 
   3  -4 -13    3.16    0.42 
   4  -4 -13    2.72    0.41 
   5  -4 -13    1.68    0.48 
  -3  -3 -13    3.04    0.79 
  -2  -3 -13    0.35    0.46 
  -1  -3 -13    0.62    0.47 
   0  -3 -13    0.93    0.42 
   1  -3 -13   14.53    0.87 
   2  -3 -13    3.50    0.38 
   3  -3 -13    0.01    0.29 
   4  -3 -13    0.65    0.35 
   5  -3 -13    3.10    0.48 
  -3  -2 -13    0.35    0.72 
  -2  -2 -13    0.31    0.55 
  -1  -2 -13   12.48    0.63 
   0  -2 -13    0.62    0.42 
   1  -2 -13    6.10    0.61 
   2  -2 -13   21.65    0.69 
   3  -2 -13    0.52    0.29 
   4  -2 -13    2.38    0.39 
   5  -2 -13    0.56    0.37 
  -3  -1 -13    5.47    0.87 
  -2  -1 -13    0.69    0.55 
  -1  -1 -13    0.02    0.50 
   0  -1 -13   22.00    0.70 
   1  -1 -13    9.88    0.73 
   2  -1 -13    8.67    0.50 
   3  -1 -13    2.16    0.35 
   4  -1 -13    7.22    0.53 
   5  -1 -13    3.01    0.43 
   6  -1 -13    1.15    0.45 
  -3   0 -13   11.10    1.05 
  -2   0 -13    1.32    0.64 
  -1   0 -13   -0.56    0.51 
   0   0 -13   12.54    0.60 
   1   0 -13   21.39    0.68 
   2   0 -13    2.47    0.46 
   3   0 -13    6.59    0.46 
   4   0 -13   12.94    0.64 
   5   0 -13   16.00    1.01 
   6   0 -13    0.75    0.61 
  -3   1 -13    4.75    0.88 
  -2   1 -13   -0.06    0.63 
  -1   1 -13    1.32    0.57 
   0   1 -13   23.51    1.19 
   1   1 -13    8.51    0.50 
   2   1 -13    8.76    0.51 
   3   1 -13    1.79    0.47 
   4   1 -13    8.39    0.74 
   5   1 -13    2.56    0.62 
   6   1 -13    1.07    0.60 
  -3   2 -13    1.23    0.74 
  -2   2 -13    1.37    0.61 
  -1   2 -13   12.30    1.05 
   0   2 -13    0.99    0.57 
   1   2 -13    5.28    0.73 
   2   2 -13   21.01    0.69 
   3   2 -13    0.71    0.33 
   4   2 -13    2.09    0.52 
   5   2 -13    1.18    0.49 
  -3   3 -13    2.41    0.74 
  -2   3 -13    0.05    0.65 
  -1   3 -13    0.40    0.59 
   0   3 -13    0.06    0.56 
   1   3 -13   15.40    1.10 
   2   3 -13    4.38    0.70 
   3   3 -13    0.30    0.32 
   4   3 -13    0.97    0.37 
   5   3 -13    3.94    0.65 
  -3   4 -13    0.36    0.86 
  -2   4 -13    1.46    0.71 
  -1   4 -13    0.98    0.65 
   0   4 -13    0.72    0.58 
   1   4 -13    1.08    0.61 
   2   4 -13    1.62    0.64 
   3   4 -13    2.29    0.64 
   4   4 -13    3.41    0.46 
   5   4 -13    3.17    0.51 
  -2   5 -13    1.20    0.75 
  -1   5 -13   -0.54    0.59 
   0   5 -13    0.69    0.68 
   1   5 -13    1.81    0.65 
   2   5 -13    2.23    0.66 
   3   5 -13    2.12    0.71 
   4   5 -13    4.48    0.60 
  -1   6 -13    0.75    0.73 
   0   6 -13    2.21    0.75 
   1   6 -13    0.63    0.65 
   2   6 -13    0.73    0.65 
   3   6 -13    1.61    0.70 
   0  -7 -12    0.35    0.57 
   1  -7 -12    1.62    0.61 
   2  -7 -12    1.81    0.47 
   3  -7 -12    3.77    0.73 
  -2  -6 -12    1.22    0.61 
  -1  -6 -12   -0.15    0.50 
   0  -6 -12    8.06    0.86 
   1  -6 -12    1.68    0.54 
   2  -6 -12    0.76    0.38 
   3  -6 -12    0.13    0.38 
   4  -6 -12    7.89    0.63 
  -3  -5 -12    0.29    0.58 
  -2  -5 -12    2.24    0.58 
  -1  -5 -12    4.82    0.69 
   0  -5 -12    2.08    0.55 
   1  -5 -12    0.68    0.43 
   2  -5 -12    2.41    0.38 
   3  -5 -12    6.92    0.55 
   4  -5 -12    1.71    0.41 
   5  -5 -12    1.54    0.45 
  -3  -4 -12    1.33    0.49 
  -2  -4 -12    0.12    0.44 
  -1  -4 -12    6.87    0.71 
   0  -4 -12    2.18    0.55 
   1  -4 -12    1.21    0.45 
   2  -4 -12    0.01    0.29 
   3  -4 -12    5.75    0.48 
   4  -4 -12    2.56    0.40 
   5  -4 -12    0.18    0.40 
  -4  -3 -12    0.80    0.75 
  -3  -3 -12    1.09    0.65 
  -2  -3 -12    3.13    0.42 
  -1  -3 -12    6.88    0.65 
   0  -3 -12    0.61    0.37 
   1  -3 -12    0.72    0.41 
   2  -3 -12    1.97    0.32 
   3  -3 -12   10.43    0.57 
   4  -3 -12    2.14    0.38 
   5  -3 -12    1.38    0.40 
   6  -3 -12    2.67    0.51 
  -4  -2 -12    0.73    0.74 
  -3  -2 -12    3.80    0.73 
  -2  -2 -12    6.79    0.80 
  -1  -2 -12    2.32    0.34 
   0  -2 -12    6.28    0.60 
   1  -2 -12    3.03    0.47 
   2  -2 -12   34.46    0.83 
   3  -2 -12    0.47    0.25 
   4  -2 -12    1.03    0.32 
   5  -2 -12    1.02    0.38 
   6  -2 -12    7.01    0.60 
  -4  -1 -12    6.37    0.97 
  -3  -1 -12   16.17    1.22 
  -2  -1 -12    3.85    0.69 
  -1  -1 -12    4.61    0.39 
   0  -1 -12   22.31    0.66 
   1  -1 -12   52.83    1.45 
   2  -1 -12   12.20    0.51 
   3  -1 -12    5.38    0.42 
   4  -1 -12    9.14    0.57 
   5  -1 -12   10.16    0.62 
   6  -1 -12    3.20    0.49 
  -4   0 -12    4.43    0.86 
  -3   0 -12    2.25    0.66 
  -2   0 -12    7.97    0.84 
  -1   0 -12    2.18    0.59 
   0   0 -12    0.19    0.26 
   1   0 -12   49.11    0.99 
   2   0 -12    8.30    0.39 
   3   0 -12   19.77    0.65 
   4   0 -12    2.99    0.37 
   5   0 -12    0.76    0.33 
   6   0 -12    0.81    0.55 
  -4   1 -12    5.38    0.92 
  -3   1 -12   15.85    1.19 
  -2   1 -12    3.11    0.66 
  -1   1 -12    5.06    0.68 
   0   1 -12   22.65    1.10 
   1   1 -12   52.45    1.04 
   2   1 -12   11.94    0.54 
   3   1 -12    5.56    0.43 
   4   1 -12    9.66    0.74 
   5   1 -12    9.76    0.86 
   6   1 -12    2.36    0.63 
  -4   2 -12   -0.07    0.69 
  -3   2 -12    2.26    0.73 
  -2   2 -12    6.13    0.83 
  -1   2 -12    1.56    0.60 
   0   2 -12    6.03    0.71 
   1   2 -12    2.17    0.34 
   2   2 -12   34.51    0.84 
   3   2 -12   -0.23    0.27 
   4   2 -12    1.45    0.33 
   5   2 -12    0.87    0.49 
   6   2 -12    7.07    0.80 
  -4   3 -12    0.31    0.89 
  -3   3 -12    0.58    0.66 
  -2   3 -12    2.12    0.68 
  -1   3 -12    7.04    0.82 
   0   3 -12    0.02    0.47 
   1   3 -12    1.09    0.58 
   2   3 -12    2.13    0.34 
   3   3 -12    9.53    0.54 
   4   3 -12    1.76    0.37 
   5   3 -12    1.35    0.39 
   6   3 -12    2.83    0.73 
  -3   4 -12    1.60    0.74 
  -2   4 -12    0.19    0.57 
  -1   4 -12    8.08    0.89 
   0   4 -12    2.35    0.63 
   1   4 -12    1.50    0.54 
   2   4 -12    0.20    0.50 
   3   4 -12    3.79    0.42 
   4   4 -12    1.82    0.40 
   5   4 -12    0.04    0.40 
  -3   5 -12    0.72    0.78 
  -2   5 -12    0.50    0.70 
  -1   5 -12    6.30    0.83 
   0   5 -12    0.97    0.66 
   1   5 -12   -0.14    0.53 
   2   5 -12    1.90    0.59 
   3   5 -12    7.07    0.88 
   4   5 -12    1.07    0.41 
   5   5 -12    1.54    0.69 
  -2   6 -12   -0.32    0.67 
  -1   6 -12    0.21    0.65 
   0   6 -12    7.18    0.94 
   1   6 -12    1.51    0.63 
   2   6 -12    0.99    0.61 
   3   6 -12    0.02    0.58 
   4   6 -12    8.81    1.02 
   0   7 -12    1.36    0.75 
   1   7 -12    0.66    0.70 
   2   7 -12    1.91    0.76 
   1  -8 -11    0.01    0.64 
  -1  -7 -11    7.12    0.86 
   0  -7 -11    1.35    0.55 
   1  -7 -11    0.58    0.38 
   2  -7 -11    2.01    0.43 
   3  -7 -11    2.76    0.50 
  -2  -6 -11    1.34    0.58 
  -1  -6 -11    1.31    0.53 
   0  -6 -11    5.67    0.73 
   1  -6 -11    6.23    0.50 
   2  -6 -11    0.46    0.34 
   3  -6 -11    2.04    0.39 
   4  -6 -11    6.13    0.57 
  -3  -5 -11    1.63    0.60 
  -2  -5 -11    0.45    0.49 
  -1  -5 -11    0.40    0.44 
   0  -5 -11    2.80    0.54 
   1  -5 -11    6.04    0.45 
   2  -5 -11    0.52    0.30 
   3  -5 -11    0.51    0.34 
   4  -5 -11    2.81    0.44 
   5  -5 -11    1.22    0.41 
  -4  -4 -11    6.39    0.91 
  -3  -4 -11    0.77    0.37 
  -2  -4 -11   12.59    0.89 
  -1  -4 -11    0.20    0.40 
   0  -4 -11    5.20    0.60 
   1  -4 -11    0.17    0.22 
   2  -4 -11   10.93    0.54 
   3  -4 -11    4.58    0.44 
   4  -4 -11    1.18    0.33 
   5  -4 -11    0.52    0.38 
   6  -4 -11    0.51    0.52 
  -4  -3 -11    3.00    0.80 
  -3  -3 -11    1.16    0.38 
  -2  -3 -11    7.64    0.50 
  -1  -3 -11   22.02    0.68 
   0  -3 -11    2.25    0.44 
   1  -3 -11    0.96    0.25 
   2  -3 -11    4.61    0.38 
   3  -3 -11   13.72    0.58 
   4  -3 -11    3.61    0.41 
   5  -3 -11    3.20    0.44 
   6  -3 -11    2.24    0.43 
  -4  -2 -11    5.96    0.88 
  -3  -2 -11    4.28    0.74 
  -2  -2 -11    3.17    0.38 
  -1  -2 -11   25.24    0.72 
   0  -2 -11   22.06    0.64 
   1  -2 -11    5.30    0.35 
   2  -2 -11   14.77    0.55 
   3  -2 -11   18.44    0.62 
   4  -2 -11   15.57    0.63 
   5  -2 -11   12.93    0.66 
   6  -2 -11    2.74    0.46 
  -4  -1 -11    6.36    0.90 
  -3  -1 -11   14.16    1.06 
  -2  -1 -11    6.06    0.75 
  -1  -1 -11    3.78    0.36 
   0  -1 -11   13.66    0.54 
   1  -1 -11   91.15    1.15 
   2  -1 -11    0.06    0.23 
   3  -1 -11   30.22    0.77 
   4  -1 -11    8.73    0.53 
   5  -1 -11   10.43    0.62 
   6  -1 -11    2.36    0.45 
  -4   0 -11    4.81    0.90 
  -3   0 -11   21.44    1.27 
  -2   0 -11   -0.17    0.46 
  -1   0 -11    1.73    0.36 
   0   0 -11   25.90    0.69 
   1   0 -11    1.86    0.23 
   2   0 -11   39.20    0.68 
   3   0 -11    0.42    0.25 
   4   0 -11   16.12    0.61 
   5   0 -11    1.07    0.33 
   6   0 -11    0.51    0.49 
  -4   1 -11    5.21    0.84 
  -3   1 -11   15.00    1.08 
  -2   1 -11    5.80    0.74 
  -1   1 -11    2.67    0.58 
   0   1 -11   13.63    0.51 
   1   1 -11   91.94    1.44 
   2   1 -11    0.31    0.25 
   3   1 -11   30.23    0.77 
   4   1 -11    8.88    0.72 
   5   1 -11    9.43    0.81 
   6   1 -11    2.40    0.64 
  -4   2 -11    4.29    0.79 
  -3   2 -11    3.66    0.77 
  -2   2 -11    3.17    0.66 
  -1   2 -11   26.77    1.20 
   0   2 -11   20.78    1.06 
   1   2 -11    4.84    0.38 
   2   2 -11   15.33    0.56 
   3   2 -11   18.23    0.63 
   4   2 -11   15.66    0.63 
   5   2 -11   13.65    0.75 
   6   2 -11    2.46    0.62 
  -4   3 -11    1.99    0.78 
  -3   3 -11    0.20    0.58 
  -2   3 -11    6.92    0.81 
  -1   3 -11   19.16    1.10 
   0   3 -11    2.81    0.56 
   1   3 -11    0.83    0.49 
   2   3 -11    4.24    0.38 
   3   3 -11   14.63    0.60 
   4   3 -11    3.17    0.40 
   5   3 -11    3.32    0.45 
   6   3 -11    1.86    0.65 
  -4   4 -11    3.89    0.87 
  -3   4 -11    0.68    0.63 
  -2   4 -11   15.14    1.10 
  -1   4 -11    0.81    0.50 
   0   4 -11    3.80    0.64 
   1   4 -11    0.02    0.42 
   2   4 -11   10.13    0.64 
   3   4 -11    4.12    0.42 
   4   4 -11    0.88    0.35 
   5   4 -11    2.07    0.42 
   6   4 -11    1.04    0.47 
  -3   5 -11    2.14    0.78 
  -2   5 -11    0.71    0.59 
  -1   5 -11    0.09    0.52 
   0   5 -11    2.36    0.65 
   1   5 -11    6.29    0.76 
   2   5 -11    0.83    0.49 
   3   5 -11    0.23    0.32 
   4   5 -11    2.65    0.43 
   5   5 -11    1.31    0.64 
  -2   6 -11    0.57    0.67 
  -1   6 -11    0.94    0.66 
   0   6 -11    4.76    0.76 
   1   6 -11    6.99    0.88 
   2   6 -11    0.30    0.50 
   3   6 -11    2.13    0.61 
   4   6 -11    6.25    0.89 
  -1   7 -11    4.97    0.88 
   0   7 -11    1.91    0.71 
   1   7 -11    1.23    0.68 
   2   7 -11    2.35    0.72 
   3   7 -11    2.79    0.69 
  -1  -8 -10   11.71    1.61 
   0  -8 -10   -0.19    0.55 
   1  -8 -10    0.85    0.42 
   2  -8 -10   12.27    0.76 
  -2  -7 -10    6.64    0.82 
  -1  -7 -10    3.67    0.68 
   0  -7 -10    2.83    0.61 
   1  -7 -10    1.00    0.35 
   2  -7 -10    5.04    0.50 
   3  -7 -10    1.95    0.35 
   4  -7 -10    0.99    0.36 
  -3  -6 -10    7.21    0.86 
  -2  -6 -10    0.62    0.49 
  -1  -6 -10    1.16    0.49 
   0  -6 -10    0.71    0.37 
   1  -6 -10    6.84    0.50 
   2  -6 -10    0.04    0.26 
   3  -6 -10    0.56    0.29 
   4  -6 -10    1.77    0.35 
   5  -6 -10    0.19    0.36 
  -4  -5 -10    4.63    0.54 
  -3  -5 -10    0.77    0.42 
  -2  -5 -10    3.49    0.58 
  -1  -5 -10    1.09    0.41 
   0  -5 -10    1.27    0.30 
   1  -5 -10    2.99    0.35 
   2  -5 -10    3.69    0.40 
   3  -5 -10    0.17    0.24 
   4  -5 -10    2.93    0.35 
   5  -5 -10    0.47    0.32 
  -4  -4 -10    0.56    0.44 
  -3  -4 -10    0.75    0.37 
  -2  -4 -10    2.78    0.35 
  -1  -4 -10    1.65    0.41 
   0  -4 -10    2.77    0.33 
   1  -4 -10    2.93    0.31 
   2  -4 -10    0.05    0.22 
   3  -4 -10    6.63    0.47 
   4  -4 -10    0.94    0.31 
   5  -4 -10    0.71    0.37 
   6  -4 -10    0.24    0.41 
  -4  -3 -10    1.68    0.65 
  -3  -3 -10    8.38    0.55 
  -2  -3 -10    1.31    0.30 
  -1  -3 -10   12.93    0.53 
   0  -3 -10    3.46    0.37 
   1  -3 -10    6.30    0.40 
   2  -3 -10    4.87    0.38 
   3  -3 -10    9.25    0.51 
   4  -3 -10    0.66    0.28 
   5  -3 -10    1.37    0.36 
   6  -3 -10    4.87    0.51 
  -5  -2 -10    2.72    0.83 
  -4  -2 -10    3.83    0.79 
  -3  -2 -10    2.39    0.60 
  -2  -2 -10   55.85    1.08 
  -1  -2 -10   10.16    0.48 
   0  -2 -10    3.76    0.32 
   1  -2 -10   25.20    0.62 
   2  -2 -10    6.90    0.40 
   3  -2 -10   44.47    0.94 
   4  -2 -10    2.60    0.33 
   5  -2 -10    6.48    0.50 
   6  -2 -10    1.18    0.40 
  -5  -1 -10    1.63    0.74 
  -4  -1 -10   20.82    1.24 
  -3  -1 -10   27.96    1.27 
  -2  -1 -10    5.04    0.38 
  -1  -1 -10   10.24    0.49 
   0  -1 -10   12.52    0.49 
   1  -1 -10   25.17    0.49 
   2  -1 -10    5.14    0.32 
   3  -1 -10   12.45    0.51 
   4  -1 -10   10.80    0.54 
   5  -1 -10   10.57    0.60 
   6  -1 -10    0.24    0.36 
   7  -1 -10    2.35    0.49 
  -5   0 -10    0.89    0.73 
  -4   0 -10   42.81    1.72 
  -3   0 -10   42.28    1.56 
  -2   0 -10    3.21    0.60 
  -1   0 -10    0.54    0.23 
   0   0 -10  159.49    2.13 
   1   0 -10   50.89    0.74 
   2   0 -10   32.44    0.59 
   3   0 -10    0.51    0.20 
   4   0 -10   10.78    0.53 
   5   0 -10    7.62    0.51 
   6   0 -10   -0.15    0.46 
   7   0 -10    0.45    0.60 
  -5   1 -10    1.10    0.80 
  -4   1 -10   19.16    1.31 
  -3   1 -10   24.91    1.26 
  -2   1 -10    4.83    0.64 
  -1   1 -10    8.73    0.78 
   0   1 -10   13.45    0.47 
   1   1 -10   26.82    0.65 
   2   1 -10    5.06    0.37 
   3   1 -10   11.99    0.50 
   4   1 -10   10.74    0.52 
   5   1 -10    9.22    0.75 
   6   1 -10   -0.17    0.49 
   7   1 -10    1.97    0.81 
  -5   2 -10    3.44    0.83 
  -4   2 -10    2.99    0.71 
  -3   2 -10    2.34    0.62 
  -2   2 -10   50.54    1.70 
  -1   2 -10    9.84    0.80 
   0   2 -10    2.98    0.54 
   1   2 -10   25.20    0.64 
   2   2 -10    7.05    0.42 
   3   2 -10   44.45    0.94 
   4   2 -10    2.94    0.35 
   5   2 -10    6.53    0.51 
   6   2 -10    1.67    0.56 
  -4   3 -10    1.49    0.68 
  -3   3 -10    6.08    0.83 
  -2   3 -10    1.26    0.49 
  -1   3 -10   12.85    0.89 
   0   3 -10    3.65    0.59 
   1   3 -10    7.00    0.41 
   2   3 -10    5.42    0.40 
   3   3 -10   10.14    0.53 
   4   3 -10    0.26    0.29 
   5   3 -10    0.84    0.35 
   6   3 -10    3.95    0.51 
  -4   4 -10    0.27    0.74 
  -3   4 -10    1.08    0.62 
  -2   4 -10    2.12    0.62 
  -1   4 -10    0.83    0.48 
   0   4 -10    2.08    0.50 
   1   4 -10    1.73    0.49 
   2   4 -10    0.40    0.26 
   3   4 -10    5.64    0.44 
   4   4 -10    0.85    0.32 
   5   4 -10    0.20    0.36 
   6   4 -10    0.54    0.43 
  -4   5 -10    3.38    0.91 
  -3   5 -10    1.21    0.70 
  -2   5 -10    2.76    0.68 
  -1   5 -10   -0.48    0.46 
   0   5 -10    1.05    0.52 
   1   5 -10    1.62    0.50 
   2   5 -10    3.39    0.60 
   3   5 -10   -0.24    0.27 
   4   5 -10    2.54    0.61 
   5   5 -10    0.50    0.66 
  -3   6 -10    9.27    0.73 
  -2   6 -10    0.43    0.63 
  -1   6 -10    0.75    0.59 
   0   6 -10    1.35    0.52 
   1   6 -10    5.06    0.75 
   2   6 -10    0.12    0.52 
   3   6 -10    0.64    0.53 
   4   6 -10    0.55    0.59 
   5   6 -10    0.64    0.69 
  -2   7 -10    4.61    0.84 
  -1   7 -10    2.04    0.72 
   0   7 -10    2.81    0.71 
   1   7 -10    1.68    0.59 
   2   7 -10    4.12    0.74 
   3   7 -10    2.20    0.68 
   4   7 -10    1.11    0.67 
   0   8 -10   -0.11    0.69 
   1   8 -10    0.92    0.64 
   2   8 -10   13.16    1.21 
  -1  -8  -9    1.34    0.63 
   0  -8  -9    0.73    0.36 
   1  -8  -9    0.41    0.39 
   2  -8  -9    2.25    0.42 
   3  -8  -9    0.66    0.36 
  -3  -7  -9    7.94    0.89 
  -2  -7  -9    3.13    0.72 
  -1  -7  -9    1.38    0.50 
   0  -7  -9    0.28    0.31 
   1  -7  -9    6.95    0.52 
   2  -7  -9    0.46    0.33 
   3  -7  -9    0.88    0.31 
   4  -7  -9    0.43    0.34 
  -3  -6  -9    2.89    0.62 
  -2  -6  -9    1.96    0.55 
  -1  -6  -9    0.65    0.41 
   0  -6  -9    0.83    0.28 
   1  -6  -9    3.31    0.36 
   2  -6  -9    0.06    0.23 
   3  -6  -9    2.42    0.31 
   4  -6  -9    0.05    0.28 
   5  -6  -9    0.04    0.34 
  -4  -5  -9    3.22    0.49 
  -3  -5  -9    4.33    0.48 
  -2  -5  -9    2.71    0.53 
  -1  -5  -9    7.19    0.65 
   0  -5  -9    2.38    0.31 
   1  -5  -9    0.89    0.27 
   2  -5  -9    1.08    0.23 
   3  -5  -9    8.53    0.42 
   4  -5  -9    0.37    0.26 
   5  -5  -9    0.60    0.30 
   6  -5  -9    3.45    0.56 
  -4  -4  -9    2.62    0.44 
  -3  -4  -9    0.63    0.34 
  -2  -4  -9   22.36    0.71 
  -1  -4  -9    2.56    0.31 
   0  -4  -9   12.17    0.47 
   1  -4  -9    5.55    0.38 
   2  -4  -9    1.33    0.28 
   3  -4  -9    7.57    0.39 
   4  -4  -9   10.27    0.46 
   5  -4  -9    0.09    0.28 
   6  -4  -9    0.48    0.38 
  -5  -3  -9    8.83    1.05 
  -4  -3  -9    1.33    0.63 
  -3  -3  -9    3.54    0.39 
  -2  -3  -9   33.79    0.83 
  -1  -3  -9   39.06    0.83 
   0  -3  -9   32.29    0.56 
   1  -3  -9    9.96    0.42 
   2  -3  -9   20.16    0.60 
   3  -3  -9   16.28    0.59 
   4  -3  -9    3.23    0.35 
   5  -3  -9    1.36    0.34 
   6  -3  -9    0.80    0.37 
  -5  -2  -9    1.98    0.70 
  -4  -2  -9    6.77    0.81 
  -3  -2  -9    5.56    0.43 
  -2  -2  -9    9.43    0.49 
  -1  -2  -9    3.89    0.33 
   0  -2  -9   12.20    0.33 
   1  -2  -9    3.38    0.29 
   2  -2  -9   18.90    0.55 
   3  -2  -9    2.59    0.29 
   4  -2  -9    9.71    0.53 
   5  -2  -9    2.58    0.38 
   6  -2  -9    1.08    0.36 
   7  -2  -9    0.06    0.43 
  -5  -1  -9    2.70    0.73 
  -4  -1  -9    8.21    0.89 
  -3  -1  -9    7.86    0.74 
  -2  -1  -9    0.90    0.26 
  -1  -1  -9    5.23    0.34 
   0  -1  -9   68.77    0.86 
   1  -1  -9   12.84    0.34 
   2  -1  -9    8.56    0.39 
   3  -1  -9    3.31    0.32 
   4  -1  -9    1.78    0.28 
   5  -1  -9    4.67    0.43 
   6  -1  -9   -0.04    0.33 
   7  -1  -9    0.51    0.44 
  -5   0  -9    1.11    0.70 
  -4   0  -9    5.42    0.80 
  -3   0  -9    0.53    0.44 
  -2   0  -9    4.73    0.64 
  -1   0  -9   27.47    0.63 
   0   0  -9    6.83    0.35 
   1   0  -9   31.07    0.52 
   2   0  -9   16.16    0.40 
   3   0  -9    4.29    0.27 
   4   0  -9    1.15    0.27 
   5   0  -9    3.89    0.39 
   6   0  -9    1.16    0.51 
   7   0  -9    0.86    0.59 
  -5   1  -9    1.96    0.75 
  -4   1  -9    6.29    0.83 
  -3   1  -9    4.91    0.71 
  -2   1  -9    0.61    0.44 
  -1   1  -9    4.75    0.31 
   0   1  -9   69.83    1.10 
   1   1  -9   12.73    0.44 
   2   1  -9    8.87    0.41 
   3   1  -9    2.97    0.29 
   4   1  -9    1.99    0.29 
   5   1  -9    5.88    0.49 
   6   1  -9    1.36    0.54 
   7   1  -9    0.77    0.59 
  -5   2  -9    1.13    0.74 
  -4   2  -9    4.96    0.75 
  -3   2  -9    3.93    0.64 
  -2   2  -9    8.22    0.78 
  -1   2  -9    3.34    0.51 
   0   2  -9   11.46    0.41 
   1   2  -9    3.06    0.27 
   2   2  -9   18.12    0.54 
   3   2  -9    2.46    0.30 
   4   2  -9    9.33    0.48 
   5   2  -9    3.02    0.39 
   6   2  -9    0.63    0.39 
   7   2  -9   -0.38    0.58 
  -5   3  -9    7.52    0.97 
  -4   3  -9    1.35    0.63 
  -3   3  -9    4.08    0.68 
  -2   3  -9   33.77    1.31 
  -1   3  -9   37.75    1.36 
   0   3  -9   31.39    1.19 
   1   3  -9   10.97    0.43 
   2   3  -9   21.05    0.60 
   3   3  -9   17.26    0.61 
   4   3  -9    2.64    0.35 
   5   3  -9    1.80    0.35 
   6   3  -9    0.71    0.39 
  -4   4  -9    1.99    0.75 
  -3   4  -9    1.38    0.54 
  -2   4  -9   21.15    1.14 
  -1   4  -9    2.21    0.54 
   0   4  -9   13.43    0.88 
   1   4  -9    5.88    0.66 
   2   4  -9    1.18    0.25 
   3   4  -9    7.86    0.48 
   4   4  -9   11.11    0.61 
   5   4  -9    0.63    0.37 
   6   4  -9    1.92    0.64 
  -4   5  -9    3.08    0.86 
  -3   5  -9    3.91    0.76 
  -2   5  -9    2.72    0.64 
  -1   5  -9    7.83    0.51 
   0   5  -9    1.51    0.51 
   1   5  -9    1.03    0.44 
   2   5  -9    1.20    0.47 
   3   5  -9    8.14    0.79 
   4   5  -9   -0.08    0.49 
   5   5  -9   -0.59    0.54 
   6   5  -9    3.32    0.81 
  -3   6  -9    3.06    0.56 
  -2   6  -9    1.68    0.43 
  -1   6  -9    0.16    0.52 
   0   6  -9    0.49    0.48 
   1   6  -9    2.58    0.59 
   2   6  -9    0.16    0.45 
   3   6  -9    1.35    0.54 
   4   6  -9    0.15    0.51 
   5   6  -9   -0.26    0.56 
  -3   7  -9    5.77    0.66 
  -2   7  -9    3.36    0.80 
  -1   7  -9    0.91    0.61 
   0   7  -9    0.52    0.56 
   1   7  -9    5.53    0.76 
   2   7  -9    0.64    0.56 
   3   7  -9    0.51    0.56 
   4   7  -9    1.05    0.60 
  -1   8  -9    1.55    0.73 
   0   8  -9    0.32    0.61 
   1   8  -9    0.06    0.57 
   2   8  -9    2.18    0.68 
   3   8  -9    0.34    0.65 
   0  -9  -8    0.61    0.39 
   1  -9  -8    0.18    0.40 
  -2  -8  -8    1.76    0.67 
  -1  -8  -8    1.09    0.52 
   0  -8  -8    0.48    0.34 
   1  -8  -8    0.23    0.34 
   2  -8  -8    0.94    0.38 
   3  -8  -8    3.62    0.40 
  -3  -7  -8    2.54    0.67 
  -2  -7  -8    2.39    0.60 
  -1  -7  -8    0.52    0.38 
   0  -7  -8    1.84    0.33 
   1  -7  -8    0.80    0.31 
   2  -7  -8    4.14    0.34 
   3  -7  -8    5.00    0.40 
   4  -7  -8    0.68    0.32 
  -4  -6  -8    0.97    0.44 
  -3  -6  -8   13.10    0.81 
  -2  -6  -8    5.93    0.68 
  -1  -6  -8    0.31    0.27 
   0  -6  -8    0.21    0.23 
   1  -6  -8    0.37    0.25 
   2  -6  -8    4.46    0.32 
   3  -6  -8    1.24    0.28 
   4  -6  -8    2.48    0.34 
   5  -6  -8    0.06    0.40 
  -4  -5  -8    2.99    0.48 
  -3  -5  -8    0.75    0.33 
  -2  -5  -8    2.45    0.34 
  -1  -5  -8   20.10    0.63 
   0  -5  -8    0.09    0.20 
   1  -5  -8    0.45    0.19 
   2  -5  -8   18.15    0.50 
   3  -5  -8   11.26    0.46 
   4  -5  -8    4.31    0.34 
   5  -5  -8    1.92    0.35 
   6  -5  -8    6.57    0.61 
  -5  -4  -8    0.29    0.56 
  -4  -4  -8    5.24    0.51 
  -3  -4  -8    2.62    0.37 
  -2  -4  -8   27.12    0.74 
  -1  -4  -8    2.34    0.23 
   0  -4  -8   10.98    0.44 
   1  -4  -8   30.28    0.72 
   2  -4  -8    0.92    0.21 
   3  -4  -8    1.57    0.23 
   4  -4  -8    3.51    0.32 
   5  -4  -8    9.38    0.47 
   6  -4  -8    1.23    0.33 
  -5  -3  -8    2.58    0.73 
  -4  -3  -8    0.88    0.36 
  -3  -3  -8   10.01    0.56 
  -2  -3  -8    9.79    0.51 
  -1  -3  -8    1.37    0.23 
   0  -3  -8   23.86    0.45 
   1  -3  -8   31.37    0.67 
   2  -3  -8   13.31    0.47 
   3  -3  -8   10.90    0.39 
   4  -3  -8   45.28    0.79 
   5  -3  -8    2.08    0.29 
   6  -3  -8    0.18    0.34 
   7  -3  -8    0.09    0.49 
  -5  -2  -8    5.49    0.85 
  -4  -2  -8   14.44    1.05 
  -3  -2  -8    2.22    0.33 
  -2  -2  -8   12.68    0.49 
  -1  -2  -8   15.98    0.49 
   0  -2  -8   26.36    0.45 
   1  -2  -8   23.69    0.55 
   2  -2  -8    1.13    0.21 
   3  -2  -8   11.38    0.45 
   4  -2  -8    4.44    0.38 
   5  -2  -8    8.41    0.51 
   6  -2  -8    2.50    0.39 
   7  -2  -8    0.43    0.42 
  -5  -1  -8    5.38    0.83 
  -4  -1  -8    0.68    0.51 
  -3  -1  -8    3.74    0.36 
  -2  -1  -8    5.29    0.36 
  -1  -1  -8   12.99    0.43 
   0  -1  -8   56.09    0.71 
   1  -1  -8    0.86    0.13 
   2  -1  -8    9.90    0.38 
   3  -1  -8    2.00    0.26 
   4  -1  -8    0.97    0.25 
   5  -1  -8   12.63    0.56 
   6  -1  -8    5.08    0.48 
   7  -1  -8    0.04    0.40 
  -6   0  -8    1.74    0.85 
  -5   0  -8    0.29    0.55 
  -4   0  -8    1.69    0.52 
  -3   0  -8   -0.05    0.38 
  -2   0  -8    0.52    0.21 
  -1   0  -8   19.66    0.50 
   0   0  -8   58.88    0.73 
   1   0  -8    9.61    0.28 
   2   0  -8   50.47    0.70 
   3   0  -8    4.32    0.26 
   4   0  -8    3.71    0.28 
   5   0  -8    1.77    0.31 
   6   0  -8   18.52    0.70 
   7   0  -8    0.26    0.55 
  -5   1  -8    5.76    0.85 
  -4   1  -8    1.54    0.55 
  -3   1  -8    3.99    0.60 
  -2   1  -8    4.74    0.58 
  -1   1  -8   12.99    0.39 
   0   1  -8   55.54    0.90 
   1   1  -8    0.48    0.16 
   2   1  -8    9.98    0.38 
   3   1  -8    2.30    0.26 
   4   1  -8    1.12    0.26 
   5   1  -8   14.29    0.57 
   6   1  -8    5.44    0.66 
   7   1  -8    0.02    0.54 
  -5   2  -8    5.22    0.88 
  -4   2  -8   14.37    1.07 
  -3   2  -8    3.41    0.55 
  -2   2  -8   11.87    0.83 
  -1   2  -8   15.15    0.81 
   0   2  -8   25.45    0.55 
   1   2  -8   23.67    0.54 
   2   2  -8    1.24    0.22 
   3   2  -8   11.30    0.45 
   4   2  -8    4.26    0.37 
   5   2  -8    8.29    0.51 
   6   2  -8    2.50    0.42 
   7   2  -8   -0.08    0.56 
  -5   3  -8    2.60    0.74 
  -4   3  -8    1.53    0.57 
  -3   3  -8    8.21    0.83 
  -2   3  -8    8.17    0.78 
  -1   3  -8    1.19    0.43 
   0   3  -8   23.94    0.99 
   1   3  -8   31.31    0.66 
   2   3  -8   13.76    0.47 
   3   3  -8   10.11    0.48 
   4   3  -8   45.34    0.99 
   5   3  -8    2.52    0.36 
   6   3  -8    0.13    0.34 
  -5   4  -8    0.77    0.75 
  -4   4  -8    5.19    0.85 
  -3   4  -8    1.42    0.57 
  -2   4  -8   26.67    1.20 
  -1   4  -8    2.55    0.54 
   0   4  -8   12.98    0.82 
   1   4  -8   29.46    0.68 
   2   4  -8    0.82    0.24 
   3   4  -8    0.78    0.28 
   4   4  -8    3.09    0.37 
   5   4  -8    9.34    0.58 
   6   4  -8    0.73    0.62 
  -4   5  -8    2.61    0.71 
  -3   5  -8    0.62    0.59 
  -2   5  -8    1.23    0.37 
  -1   5  -8   20.16    0.68 
   0   5  -8   -0.11    0.40 
   1   5  -8    0.67    0.43 
   2   5  -8   18.12    0.97 
   3   5  -8   10.81    0.88 
   4   5  -8    4.44    0.70 
   5   5  -8    1.94    0.60 
   6   5  -8    6.94    0.95 
  -4   6  -8    0.65    0.53 
  -3   6  -8   11.25    0.72 
  -2   6  -8    6.56    0.54 
  -1   6  -8    0.92    0.40 
   0   6  -8    0.32    0.41 
   1   6  -8    0.35    0.45 
   2   6  -8    3.73    0.63 
   3   6  -8    0.41    0.45 
   4   6  -8    3.28    0.70 
   5   6  -8    0.15    0.57 
  -3   7  -8    1.76    0.53 
  -2   7  -8    2.18    0.48 
  -1   7  -8    0.36    0.55 
   0   7  -8    1.58    0.59 
   1   7  -8    0.79    0.51 
   2   7  -8    3.40    0.66 
   3   7  -8    4.93    0.75 
   4   7  -8    0.49    0.60 
  -2   8  -8    1.61    0.72 
  -1   8  -8    0.39    0.64 
   0   8  -8    0.78    0.58 
   1   8  -8    1.02    0.62 
   2   8  -8    0.54    0.57 
   3   8  -8    2.65    0.69 
   0   9  -8    0.03    0.63 
   1   9  -8   -0.44    0.62 
  -1  -9  -7    1.14    0.42 
   0  -9  -7    1.63    0.43 
   1  -9  -7    0.49    0.39 
   2  -9  -7    1.30    0.44 
  -2  -8  -7    1.15    0.55 
  -1  -8  -7    2.04    0.40 
   0  -8  -7   -0.31    0.32 
   1  -8  -7    1.50    0.35 
   2  -8  -7    2.03    0.39 
   3  -8  -7    2.84    0.47 
   4  -8  -7    0.49    0.43 
  -4  -7  -7    0.26    0.40 
  -3  -7  -7    1.78    0.61 
  -2  -7  -7    4.41    0.63 
  -1  -7  -7    4.81    0.45 
   0  -7  -7    2.40    0.36 
   1  -7  -7    4.53    0.40 
   2  -7  -7    0.42    0.25 
   3  -7  -7   13.41    0.53 
   4  -7  -7    1.87    0.40 
   5  -7  -7    1.10    0.44 
  -4  -6  -7    2.56    0.36 
  -3  -6  -7    4.71    0.66 
  -2  -6  -7    7.15    0.72 
  -1  -6  -7    4.36    0.39 
   0  -6  -7    4.18    0.37 
   1  -6  -7    0.57    0.19 
   2  -6  -7   40.83    0.74 
   3  -6  -7    8.88    0.44 
   4  -6  -7    1.68    0.31 
   5  -6  -7    1.61    0.44 
  -5  -5  -7    1.10    0.38 
  -4  -5  -7    0.93    0.30 
  -3  -5  -7    1.90    0.28 
  -2  -5  -7   13.85    0.80 
  -1  -5  -7    0.09    0.22 
   0  -5  -7    2.94    0.31 
   1  -5  -7    1.96    0.23 
   2  -5  -7   14.35    0.44 
   3  -5  -7    6.24    0.35 
   4  -5  -7    8.34    0.41 
   5  -5  -7    3.08    0.36 
   6  -5  -7    1.48    0.46 
  -5  -4  -7    0.85    0.34 
  -4  -4  -7    2.36    0.33 
  -3  -4  -7    7.54    0.40 
  -2  -4  -7   27.50    0.72 
  -1  -4  -7   47.05    0.72 
   0  -4  -7   18.29    0.51 
   1  -4  -7   68.16    0.89 
   2  -4  -7    3.60    0.26 
   3  -4  -7   66.33    0.96 
   4  -4  -7   20.82    0.54 
   5  -4  -7    6.19    0.39 
   6  -4  -7    2.27    0.39 
  -5  -3  -7    3.59    0.48 
  -4  -3  -7    6.29    0.39 
  -3  -3  -7   12.12    0.59 
  -2  -3  -7   17.80    0.56 
  -1  -3  -7   20.96    0.41 
   0  -3  -7   26.25    0.45 
   1  -3  -7   21.78    0.53 
   2  -3  -7    3.85    0.24 
   3  -3  -7    9.10    0.35 
   4  -3  -7   67.78    0.98 
   5  -3  -7    4.47    0.34 
   6  -3  -7    1.57    0.31 
   7  -3  -7   -0.21    0.55 
  -6  -2  -7    0.91    0.48 
  -5  -2  -7    6.11    0.55 
  -4  -2  -7    5.27    0.35 
  -3  -2  -7   38.96    0.87 
  -2  -2  -7    3.57    0.30 
  -1  -2  -7    1.15    0.13 
   0  -2  -7   36.03    0.52 
   1  -2  -7   31.69    0.61 
   2  -2  -7   12.81    0.41 
   3  -2  -7   14.45    0.47 
   4  -2  -7   18.03    0.48 
   5  -2  -7   12.22    0.53 
   6  -2  -7    1.09    0.34 
   7  -2  -7   -0.16    0.42 
  -6  -1  -7    3.25    0.76 
  -5  -1  -7    0.53    0.55 
  -4  -1  -7    5.26    0.69 
  -3  -1  -7    3.65    0.34 
  -2  -1  -7    2.40    0.26 
  -1  -1  -7   13.25    0.39 
   0  -1  -7    8.99    0.24 
   1  -1  -7   53.09    0.66 
   2  -1  -7   11.29    0.37 
   3  -1  -7    4.06    0.31 
   4  -1  -7    0.42    0.24 
   5  -1  -7    3.33    0.36 
   6  -1  -7    9.00    0.55 
   7  -1  -7    0.33    0.38 
  -6   0  -7    0.48    0.68 
  -5   0  -7    6.75    0.86 
  -4   0  -7   -0.35    0.38 
  -3   0  -7    0.76    0.37 
  -2   0  -7    0.29    0.17 
  -1   0  -7   19.65    0.46 
   0   0  -7    5.09    0.20 
   1   0  -7   72.58    0.84 
   2   0  -7   29.56    0.48 
   3   0  -7   27.78    0.50 
   4   0  -7    0.81    0.19 
   5   0  -7   24.25    0.60 
   6   0  -7    1.16    0.33 
   7   0  -7    0.41    0.55 
  -6   1  -7    0.97    0.74 
  -5   1  -7   -0.29    0.53 
  -4   1  -7    4.50    0.66 
  -3   1  -7    3.57    0.56 
  -2   1  -7    3.08    0.48 
  -1   1  -7   13.34    0.66 
   0   1  -7    9.50    0.31 
   1   1  -7   53.02    0.84 
   2   1  -7   11.25    0.37 
   3   1  -7    3.97    0.30 
   4   1  -7    0.95    0.23 
   5   1  -7    2.94    0.35 
   6   1  -7    8.60    0.57 
   7   1  -7   -0.20    0.53 
  -6   2  -7    0.65    0.78 
  -5   2  -7    5.11    0.80 
  -4   2  -7    4.58    0.70 
  -3   2  -7   37.82    1.36 
  -2   2  -7    3.35    0.51 
  -1   2  -7    1.19    0.34 
   0   2  -7   35.33    0.63 
   1   2  -7   30.95    0.60 
   2   2  -7   12.68    0.40 
   3   2  -7   13.84    0.47 
   4   2  -7   18.04    0.60 
   5   2  -7   11.40    0.55 
   6   2  -7    1.04    0.35 
   7   2  -7    0.77    0.58 
  -5   3  -7    3.00    0.71 
  -4   3  -7    5.39    0.72 
  -3   3  -7   10.96    0.89 
  -2   3  -7   16.77    0.93 
  -1   3  -7   19.82    0.91 
   0   3  -7   26.79    0.96 
   1   3  -7   21.60    0.52 
   2   3  -7    4.38    0.31 
   3   3  -7    9.49    0.45 
   4   3  -7   65.47    1.21 
   5   3  -7    3.97    0.41 
   6   3  -7    1.31    0.39 
   7   3  -7    1.08    0.70 
  -5   4  -7    1.08    0.73 
  -4   4  -7    2.07    0.65 
  -3   4  -7    6.36    0.77 
  -2   4  -7   26.93    1.20 
  -1   4  -7   49.22    1.48 
   0   4  -7   17.33    0.53 
   1   4  -7   64.96    1.08 
   2   4  -7    3.27    0.30 
   3   4  -7   64.51    1.19 
   4   4  -7   21.91    0.69 
   5   4  -7    6.01    0.76 
   6   4  -7    2.26    0.67 
  -5   5  -7    0.96    0.56 
  -4   5  -7    1.65    0.48 
  -3   5  -7    2.60    0.44 
  -2   5  -7   15.08    0.66 
  -1   5  -7    0.99    0.30 
   0   5  -7    3.01    0.32 
   1   5  -7    1.82    0.47 
   2   5  -7   13.56    0.86 
   3   5  -7    6.09    0.68 
   4   5  -7    8.73    0.84 
   5   5  -7    3.81    0.66 
   6   5  -7    1.03    0.65 
  -4   6  -7    1.94    0.52 
  -3   6  -7    2.92    0.49 
  -2   6  -7    8.45    0.58 
  -1   6  -7    4.57    0.43 
   0   6  -7    5.09    0.65 
   1   6  -7    0.58    0.41 
   2   6  -7   42.78    1.48 
   3   6  -7    9.25    0.87 
   4   6  -7    1.70    0.57 
   5   6  -7    0.61    0.59 
  -3   7  -7    1.76    0.50 
  -2   7  -7    2.54    0.47 
  -1   7  -7    3.38    0.65 
   0   7  -7    1.77    0.57 
   1   7  -7    3.37    0.61 
   2   7  -7    0.36    0.49 
   3   7  -7   14.19    1.10 
   4   7  -7    2.32    0.65 
   5   7  -7    0.19    0.66 
  -2   8  -7    0.96    0.66 
  -1   8  -7    1.91    0.63 
   0   8  -7    0.48    0.49 
   1   8  -7    0.80    0.59 
   2   8  -7    2.03    0.61 
   3   8  -7    2.25    0.71 
   4   8  -7    0.04    0.65 
  -1   9  -7    1.43    0.73 
   0   9  -7    1.14    0.69 
   1   9  -7    0.73    0.62 
   2   9  -7    1.55    0.71 
  -1  -9  -6    1.00    0.44 
   0  -9  -6    0.77    0.39 
   1  -9  -6    1.93    0.41 
   2  -9  -6    0.20    0.59 
  -3  -8  -6    6.67    0.82 
  -2  -8  -6    0.50    0.42 
  -1  -8  -6    1.10    0.37 
   0  -8  -6    2.36    0.39 
   1  -8  -6    4.30    0.44 
   2  -8  -6    2.61    0.33 
   3  -8  -6    0.83    0.39 
   4  -8  -6    4.32    0.54 
  -4  -7  -6    2.13    0.44 
  -3  -7  -6    2.92    0.42 
  -2  -7  -6   12.54    0.64 
  -1  -7  -6    5.20    0.44 
   0  -7  -6    2.82    0.35 
   1  -7  -6    2.43    0.31 
   2  -7  -6   21.16    0.57 
   3  -7  -6    8.09    0.43 
   4  -7  -6    2.23    0.44 
   5  -7  -6    1.39    0.46 
  -5  -6  -6    2.38    0.50 
  -4  -6  -6    0.73    0.34 
  -3  -6  -6    2.21    0.36 
  -2  -6  -6   39.47    0.74 
  -1  -6  -6   12.30    0.52 
   0  -6  -6    1.07    0.27 
   1  -6  -6    1.22    0.21 
   2  -6  -6   21.70    0.53 
   3  -6  -6   35.67    0.71 
   4  -6  -6    2.68    0.31 
   5  -6  -6    3.91    0.48 
   6  -6  -6    5.05    0.79 
  -5  -5  -6    1.39    0.37 
  -4  -5  -6    0.65    0.33 
  -3  -5  -6    0.77    0.27 
  -2  -5  -6   10.45    0.40 
  -1  -5  -6   94.00    1.46 
   0  -5  -6    6.14    0.28 
   1  -5  -6    5.27    0.28 
   2  -5  -6   33.20    0.61 
   3  -5  -6   14.33    0.45 
   4  -5  -6   28.54    0.63 
   5  -5  -6    5.59    0.50 
   6  -5  -6    4.30    0.52 
  -5  -4  -6    1.30    0.33 
  -4  -4  -6    2.20    0.30 
  -3  -4  -6   14.87    0.57 
  -2  -4  -6    7.72    0.34 
  -1  -4  -6   50.21    0.89 
   0  -4  -6    8.32    0.27 
   1  -4  -6   39.30    0.60 
   2  -4  -6   14.00    0.38 
   3  -4  -6   55.08    0.83 
   4  -4  -6   12.89    0.44 
   5  -4  -6   18.22    0.54 
   6  -4  -6    1.02    0.38 
  -6  -3  -6    0.23    0.45 
  -5  -3  -6    2.46    0.33 
  -4  -3  -6    5.55    0.36 
  -3  -3  -6   14.03    0.45 
  -2  -3  -6    8.33    0.34 
  -1  -3  -6    4.00    0.21 
   0  -3  -6   37.63    0.54 
   1  -3  -6   74.36    0.89 
   2  -3  -6    2.87    0.20 
   3  -3  -6    3.91    0.25 
   4  -3  -6   31.87    0.63 
   5  -3  -6    4.87    0.33 
   6  -3  -6    1.59    0.29 
   7  -3  -6   -0.25    0.44 
  -6  -2  -6    3.68    0.52 
  -5  -2  -6    1.52    0.39 
  -4  -2  -6   31.31    0.66 
  -3  -2  -6    2.96    0.26 
  -2  -2  -6    8.14    0.37 
  -1  -2  -6    0.21    0.09 
   0  -2  -6  233.14    2.26 
   1  -2  -6  162.30    2.02 
   2  -2  -6    5.52    0.24 
   3  -2  -6    0.98    0.16 
   4  -2  -6   17.72    0.45 
   5  -2  -6   11.38    0.44 
   6  -2  -6    1.36    0.33 
   7  -2  -6    3.02    0.70 
  -6  -1  -6    0.94    0.44 
  -5  -1  -6    6.84    0.53 
  -4  -1  -6    1.65    0.32 
  -3  -1  -6   16.23    0.43 
  -2  -1  -6   20.21    0.51 
  -1  -1  -6    8.67    0.30 
   0  -1  -6  177.78    1.74 
   1  -1  -6  167.63    1.65 
   2  -1  -6    7.12    0.29 
   3  -1  -6   30.69    0.64 
   4  -1  -6    7.90    0.32 
   5  -1  -6   19.02    0.62 
   6  -1  -6    4.96    0.43 
   7  -1  -6    0.53    0.39 
  -6   0  -6    0.76    0.66 
  -5   0  -6    1.64    0.54 
  -4   0  -6    2.07    0.50 
  -3   0  -6    0.41    0.19 
  -2   0  -6   33.45    0.63 
  -1   0  -6    1.99    0.17 
   0   0  -6   39.69    0.51 
   1   0  -6   16.67    0.31 
   2   0  -6   23.13    0.40 
   3   0  -6   43.75    0.64 
   4   0  -6    5.63    0.30 
   5   0  -6    2.72    0.27 
   6   0  -6   11.98    0.83 
   7   0  -6    0.19    0.52 
  -6   1  -6    0.97    0.64 
  -5   1  -6    7.47    0.80 
  -4   1  -6    2.24    0.51 
  -3   1  -6   16.33    0.85 
  -2   1  -6   20.39    0.82 
  -1   1  -6    8.76    0.51 
   0   1  -6  176.60    2.15 
   1   1  -6  166.57    2.05 
   2   1  -6    7.25    0.29 
   3   1  -6   29.69    0.63 
   4   1  -6    7.89    0.41 
   5   1  -6   19.70    0.62 
   6   1  -6    4.35    0.44 
   7   1  -6    0.74    0.54 
  -6   2  -6    3.60    0.78 
  -5   2  -6    1.53    0.59 
  -4   2  -6   29.58    1.26 
  -3   2  -6    2.78    0.54 
  -2   2  -6    8.30    0.62 
  -1   2  -6    0.23    0.25 
   0   2  -6  231.50    2.79 
   1   2  -6  163.04    2.02 
   2   2  -6    5.87    0.29 
   3   2  -6    0.95    0.21 
   4   2  -6   17.55    0.56 
   5   2  -6   11.16    0.55 
   6   2  -6    0.76    0.33 
   7   2  -6    2.23    0.70 
  -6   3  -6    0.00    0.70 
  -5   3  -6    1.24    0.62 
  -4   3  -6    4.98    0.66 
  -3   3  -6   15.15    0.92 
  -2   3  -6    7.34    0.69 
  -1   3  -6    4.63    0.49 
   0   3  -6   39.41    1.12 
   1   3  -6   76.93    1.11 
   2   3  -6    3.68    0.27 
   3   3  -6    3.95    0.33 
   4   3  -6   31.68    0.80 
   5   3  -6    5.15    0.43 
   6   3  -6    0.99    0.52 
   7   3  -6    0.89    0.69 
  -5   4  -6    0.87    0.64 
  -4   4  -6    2.30    0.63 
  -3   4  -6   15.66    1.01 
  -2   4  -6    7.47    0.74 
  -1   4  -6   49.95    1.45 
   0   4  -6    8.79    0.38 
   1   4  -6   38.33    1.19 
   2   4  -6   14.62    0.76 
   3   4  -6   55.08    1.57 
   4   4  -6   12.74    0.83 
   5   4  -6   17.65    1.03 
   6   4  -6    0.73    0.56 
  -5   5  -6    1.07    0.54 
  -4   5  -6    1.24    0.42 
  -3   5  -6    1.06    0.37 
  -2   5  -6   11.79    0.60 
  -1   5  -6   94.80    1.53 
   0   5  -6    5.95    0.39 
   1   5  -6    4.92    0.58 
   2   5  -6   32.81    1.20 
   3   5  -6   14.73    0.87 
   4   5  -6   29.40    1.25 
   5   5  -6    5.98    0.77 
   6   5  -6    3.82    0.80 
  -5   6  -6    3.50    1.07 
  -4   6  -6   -0.06    0.45 
  -3   6  -6    1.85    0.44 
  -2   6  -6   38.40    1.01 
  -1   6  -6   12.85    0.60 
   0   6  -6    0.73    0.33 
   1   6  -6    1.02    0.43 
   2   6  -6   20.92    1.03 
   3   6  -6   34.86    1.34 
   4   6  -6    1.66    0.54 
   5   6  -6    4.99    0.79 
   6   6  -6    5.09    1.09 
  -4   7  -6    2.99    0.84 
  -3   7  -6    2.81    0.51 
  -2   7  -6   10.94    0.65 
  -1   7  -6    5.50    0.47 
   0   7  -6    1.57    0.51 
   1   7  -6    2.36    0.54 
   2   7  -6   21.80    1.11 
   3   7  -6    9.16    0.91 
   4   7  -6    4.49    0.75 
   5   7  -6    0.24    0.67 
  -3   8  -6    3.80    0.82 
  -2   8  -6    0.46    0.42 
  -1   8  -6    0.36    0.54 
   0   8  -6    1.72    0.57 
   1   8  -6    4.09    0.70 
   2   8  -6    1.86    0.60 
   3   8  -6    1.04    0.59 
   4   8  -6    5.20    0.85 
   0   9  -6    0.87    0.62 
   1   9  -6    1.35    0.61 
   2   9  -6    0.45    0.63 
  -2  -9  -5    2.94    0.47 
  -1  -9  -5    2.26    0.44 
   0  -9  -5    1.83    0.41 
   1  -9  -5    2.89    0.45 
   2  -9  -5    1.57    0.51 
   3  -9  -5    3.59    0.53 
  -3  -8  -5    5.41    0.77 
  -2  -8  -5    1.28    0.36 
  -1  -8  -5    5.55    0.49 
   0  -8  -5    2.95    0.38 
   1  -8  -5    6.73    0.50 
   2  -8  -5    1.50    0.30 
   3  -8  -5    0.02    0.37 
   4  -8  -5    1.25    0.47 
  -4  -7  -5   -0.03    0.36 
  -3  -7  -5    5.19    0.46 
  -2  -7  -5    5.96    0.37 
  -1  -7  -5    4.63    0.40 
   0  -7  -5   14.50    0.60 
   1  -7  -5    1.95    0.25 
   2  -7  -5    3.80    0.31 
   3  -7  -5    9.60    0.50 
   4  -7  -5    0.44    0.37 
   5  -7  -5    3.65    0.53 
  -5  -6  -5    4.06    0.53 
  -4  -6  -5    0.16    0.32 
  -3  -6  -5    2.52    0.36 
  -2  -6  -5    7.26    0.37 
  -1  -6  -5   42.39    0.91 
   0  -6  -5    5.40    0.40 
   1  -6  -5    9.03    0.38 
   2  -6  -5    2.31    0.25 
   3  -6  -5    0.85    0.22 
   4  -6  -5    4.42    0.44 
   5  -6  -5    1.42    0.39 
   6  -6  -5    2.03    0.50 
  -5  -5  -5    5.09    0.50 
  -4  -5  -5    1.22    0.32 
  -3  -5  -5    5.13    0.41 
  -2  -5  -5  190.88    2.08 
  -1  -5  -5   68.11    1.15 
   0  -5  -5    0.95    0.16 
   1  -5  -5   17.24    0.41 
   2  -5  -5   76.34    1.00 
   3  -5  -5   43.13    0.74 
   4  -5  -5    2.95    0.28 
   5  -5  -5    1.43    0.36 
   6  -5  -5    5.93    0.54 
  -6  -4  -5    0.29    0.36 
  -5  -4  -5    2.05    0.33 
  -4  -4  -5    3.84    0.38 
  -3  -4  -5   61.19    1.13 
  -2  -4  -5   15.13    0.39 
  -1  -4  -5  101.36    1.45 
   0  -4  -5    3.77    0.20 
   1  -4  -5   44.18    0.64 
   2  -4  -5   13.38    0.36 
   3  -4  -5   36.91    0.64 
   4  -4  -5   14.18    0.44 
   5  -4  -5    9.40    0.44 
   6  -4  -5    0.89    0.37 
   7  -4  -5    3.42    0.53 
  -6  -3  -5    0.57    0.45 
  -5  -3  -5    1.48    0.29 
  -4  -3  -5   47.32    0.83 
  -3  -3  -5   19.67    0.59 
  -2  -3  -5    0.53    0.13 
  -1  -3  -5   41.68    0.72 
   0  -3  -5  498.78    4.61 
   1  -3  -5   69.17    0.83 
   2  -3  -5    2.72    0.19 
   3  -3  -5    2.98    0.22 
   4  -3  -5   69.09    0.96 
   5  -3  -5   10.38    0.42 
   6  -3  -5    3.04    0.43 
   7  -3  -5    1.97    0.46 
  -6  -2  -5    0.80    0.42 
  -5  -2  -5    2.15    0.31 
  -4  -2  -5    9.67    0.41 
  -3  -2  -5   12.12    0.38 
  -2  -2  -5    3.38    0.21 
  -1  -2  -5   28.24    0.42 
   0  -2  -5   34.38    0.47 
   1  -2  -5  143.54    1.45 
   2  -2  -5   16.54    0.34 
   3  -2  -5    1.34    0.16 
   4  -2  -5    0.72    0.19 
   5  -2  -5    9.68    0.41 
   6  -2  -5    0.60    0.26 
   7  -2  -5    1.65    0.62 
  -6  -1  -5    0.18    0.38 
  -5  -1  -5    6.78    0.52 
  -4  -1  -5   16.74    0.47 
  -3  -1  -5    4.50    0.26 
  -2  -1  -5   17.51    0.37 
  -1  -1  -5   38.02    0.63 
   0  -1  -5   64.52    0.72 
   1  -1  -5  130.17    1.61 
   2  -1  -5   15.78    0.39 
   3  -1  -5   27.35    0.39 
   4  -1  -5    4.18    0.21 
   5  -1  -5   20.30    0.62 
   6  -1  -5    2.88    0.37 
   7  -1  -5    0.66    0.37 
  -6   0  -5    0.86    0.38 
  -5   0  -5   11.58    0.64 
  -4   0  -5    8.30    0.49 
  -3   0  -5   40.93    0.63 
  -2   0  -5    5.59    0.25 
  -1   0  -5   21.36    0.42 
   0   0  -5    3.96    0.15 
   1   0  -5    0.65    0.10 
   2   0  -5    5.89    0.20 
   3   0  -5    9.78    0.28 
   4   0  -5    7.24    0.31 
   5   0  -5    0.80    0.22 
   6   0  -5    7.63    0.54 
   7   0  -5    2.26    0.59 
  -6   1  -5    0.59    0.60 
  -5   1  -5    7.41    0.51 
  -4   1  -5   15.66    0.90 
  -3   1  -5    5.16    0.54 
  -2   1  -5   18.32    0.71 
  -1   1  -5   37.58    0.98 
   0   1  -5   65.44    0.89 
   1   1  -5  130.48    1.62 
   2   1  -5   15.47    0.38 
   3   1  -5   27.41    0.58 
   4   1  -5    4.25    0.32 
   5   1  -5   19.76    0.63 
   6   1  -5    2.06    0.37 
   7   1  -5   -0.01    0.86 
  -6   2  -5    0.36    0.65 
  -5   2  -5    2.94    0.62 
  -4   2  -5   10.24    0.82 
  -3   2  -5   12.31    0.77 
  -2   2  -5    3.23    0.42 
  -1   2  -5   28.85    0.89 
   0   2  -5   36.60    0.95 
   1   2  -5  146.07    1.80 
   2   2  -5   17.05    0.43 
   3   2  -5    1.47    0.21 
   4   2  -5    0.62    0.22 
   5   2  -5    9.51    0.52 
   6   2  -5    1.49    0.55 
   7   2  -5    1.76    0.68 
  -6   3  -5    0.44    0.71 
  -5   3  -5    1.13    0.57 
  -4   3  -5   49.16    1.58 
  -3   3  -5   19.74    0.96 
  -2   3  -5    0.43    0.35 
  -1   3  -5   42.70    1.18 
   0   3  -5  483.91    8.17 
   1   3  -5   71.98    1.04 
   2   3  -5    3.10    0.25 
   3   3  -5    2.52    0.27 
   4   3  -5   69.75    1.22 
   5   3  -5   10.67    0.80 
   6   3  -5    2.44    0.61 
   7   3  -5    2.21    0.74 
  -6   4  -5    0.91    0.56 
  -5   4  -5    3.21    0.67 
  -4   4  -5    4.49    0.67 
  -3   4  -5   62.98    1.79 
  -2   4  -5   15.08    0.85 
  -1   4  -5  101.93    1.52 
   0   4  -5    3.41    0.26 
   1   4  -5   46.36    1.26 
   2   4  -5   13.40    0.70 
   3   4  -5   36.77    1.21 
   4   4  -5   16.41    0.87 
   5   4  -5    9.42    0.86 
   6   4  -5    1.14    0.61 
  -5   5  -5    5.05    0.62 
  -4   5  -5    1.08    0.40 
  -3   5  -5    6.16    0.50 
  -2   5  -5  193.84    2.66 
  -1   5  -5   69.16    1.21 
   0   5  -5    1.07    0.23 
   1   5  -5   18.61    0.85 
   2   5  -5   75.08    1.88 
   3   5  -5   43.30    1.41 
   4   5  -5    2.97    0.53 
   5   5  -5    1.41    0.54 
   6   5  -5    7.14    0.90 
  -5   6  -5    4.50    1.00 
  -4   6  -5   -0.45    0.43 
  -3   6  -5    2.32    0.43 
  -2   6  -5    7.18    0.53 
  -1   6  -5   41.89    0.97 
   0   6  -5    5.55    0.41 
   1   6  -5    7.89    0.71 
   2   6  -5    3.02    0.51 
   3   6  -5    0.74    0.37 
   4   6  -5    3.80    0.64 
   5   6  -5    1.42    0.60 
   6   6  -5    1.71    0.74 
  -4   7  -5    0.43    0.74 
  -3   7  -5    4.16    0.74 
  -2   7  -5    4.58    0.49 
  -1   7  -5    3.85    0.42 
   0   7  -5   13.63    0.91 
   1   7  -5    1.90    0.50 
   2   7  -5    3.18    0.59 
   3   7  -5   10.05    0.91 
   4   7  -5    0.06    0.48 
   5   7  -5    4.44    0.87 
  -3   8  -5    3.98    0.80 
  -2   8  -5    0.03    0.57 
  -1   8  -5    3.24    0.66 
   0   8  -5    1.78    0.54 
   1   8  -5    5.70    0.75 
   2   8  -5    1.17    0.55 
   3   8  -5    0.49    0.48 
   4   8  -5    1.28    0.64 
  -2   9  -5    3.64    1.10 
   0   9  -5    0.87    0.61 
   1   9  -5    2.40    0.64 
   2   9  -5    1.29    0.65 
   3   9  -5    1.24    0.68 
  -2  -9  -4    0.32    0.40 
  -1  -9  -4    0.27    0.36 
   0  -9  -4    3.17    0.43 
   1  -9  -4   -0.24    0.54 
   2  -9  -4    0.97    0.39 
   3  -9  -4    1.16    0.46 
  -4  -8  -4    0.76    0.55 
  -3  -8  -4    2.51    0.56 
  -2  -8  -4    1.15    0.36 
  -1  -8  -4    2.79    0.39 
   0  -8  -4    8.06    0.53 
   1  -8  -4    5.76    0.37 
   2  -8  -4    1.06    0.35 
   3  -8  -4    1.18    0.40 
   4  -8  -4    0.75    0.43 
  -4  -7  -4    0.15    0.32 
  -3  -7  -4    1.05    0.27 
  -2  -7  -4    8.60    0.42 
  -1  -7  -4   20.91    0.69 
   0  -7  -4    4.22    0.39 
   1  -7  -4    5.89    0.34 
   2  -7  -4    0.63    0.22 
   3  -7  -4    0.44    0.34 
   4  -7  -4    5.40    0.52 
   5  -7  -4    1.26    0.45 
  -5  -6  -4    0.53    0.36 
  -4  -6  -4    1.20    0.35 
  -3  -6  -4    0.51    0.21 
  -2  -6  -4   28.56    0.60 
  -1  -6  -4   27.87    0.56 
   0  -6  -4    2.15    0.22 
   1  -6  -4   17.55    0.46 
   2  -6  -4   22.51    0.52 
   3  -6  -4    3.88    0.29 
   4  -6  -4    8.77    0.55 
   5  -6  -4    6.77    0.55 
   6  -6  -4    1.90    0.48 
  -6  -5  -4    3.37    0.69 
  -5  -5  -4    1.54    0.41 
  -4  -5  -4    0.41    0.27 
  -3  -5  -4    1.85    0.23 
  -2  -5  -4    6.67    0.32 
  -1  -5  -4    4.66    0.26 
   0  -5  -4   21.65    0.43 
   1  -5  -4   11.57    0.34 
   2  -5  -4    3.16    0.24 
   3  -5  -4    0.30    0.19 
   4  -5  -4    2.09    0.26 
   5  -5  -4    2.75    0.40 
   6  -5  -4    0.97    0.39 
  -6  -4  -4    0.82    0.36 
  -5  -4  -4    4.86    0.47 
  -4  -4  -4    5.94    0.43 
  -3  -4  -4   61.02    0.87 
  -2  -4  -4    8.01    0.30 
  -1  -4  -4    0.42    0.12 
   0  -4  -4    3.82    0.19 
   1  -4  -4   30.20    0.49 
   2  -4  -4    6.63    0.28 
   3  -4  -4   22.63    0.47 
   4  -4  -4   11.26    0.41 
   5  -4  -4    5.68    0.45 
   6  -4  -4    1.99    0.39 
   7  -4  -4    0.35    0.68 
  -6  -3  -4    2.03    0.36 
  -5  -3  -4    0.82    0.30 
  -4  -3  -4   19.35    0.61 
  -3  -3  -4   20.41    0.45 
  -2  -3  -4   41.37    0.60 
  -1  -3  -4   31.93    0.48 
   0  -3  -4   27.88    0.41 
   1  -3  -4   10.91    0.26 
   2  -3  -4   12.46    0.30 
   3  -3  -4   25.79    0.48 
   4  -3  -4    3.22    0.25 
   5  -3  -4    2.03    0.24 
   6  -3  -4    1.19    0.35 
   7  -3  -4   -0.01    0.64 
  -6  -2  -4    1.45    0.43 
  -5  -2  -4    4.29    0.33 
  -4  -2  -4   29.14    0.60 
  -3  -2  -4   12.43    0.42 
  -2  -2  -4   17.61    0.33 
  -1  -2  -4   10.09    0.23 
   0  -2  -4  372.11    2.96 
   1  -2  -4   20.18    0.33 
   2  -2  -4  100.34    1.09 
   3  -2  -4   24.64    0.44 
   4  -2  -4   33.76    0.49 
   5  -2  -4    2.78    0.26 
   6  -2  -4    1.13    0.26 
   7  -2  -4   -0.35    0.43 
  -6  -1  -4    0.31    0.37 
  -5  -1  -4    1.83    0.33 
  -4  -1  -4   12.73    0.40 
  -3  -1  -4    2.77    0.20 
  -2  -1  -4   70.47    0.84 
  -1  -1  -4   35.53    0.59 
   0  -1  -4   48.88    0.55 
   1  -1  -4   54.13    0.75 
   2  -1  -4   38.80    0.52 
   3  -1  -4   15.70    0.28 
   4  -1  -4    7.44    0.26 
   5  -1  -4    8.19    0.32 
   6  -1  -4    0.98    0.30 
   7  -1  -4    1.33    0.55 
  -6   0  -4   -0.11    0.35 
  -5   0  -4   33.91    0.88 
  -4   0  -4    1.22    0.20 
  -3   0  -4    9.59    0.29 
  -2   0  -4    1.99    0.14 
  -1   0  -4   92.96    1.19 
   0   0  -4   66.63    0.69 
   1   0  -4   65.05    0.70 
   2   0  -4   16.68    0.30 
   3   0  -4   24.62    0.43 
   4   0  -4    2.12    0.21 
   5   0  -4    0.75    0.21 
   6   0  -4    2.31    0.36 
  -6   1  -4    0.77    0.59 
  -5   1  -4    2.48    0.34 
  -4   1  -4   12.50    0.51 
  -3   1  -4    2.60    0.26 
  -2   1  -4   67.60    1.52 
  -1   1  -4   36.17    0.92 
   0   1  -4   49.89    0.69 
   1   1  -4   51.81    0.74 
   2   1  -4   38.58    0.64 
   3   1  -4   15.38    0.42 
   4   1  -4    7.66    0.38 
   5   1  -4    8.26    0.47 
   6   1  -4    0.79    0.31 
   7   1  -4    0.98    0.64 
  -6   2  -4    1.64    0.63 
  -5   2  -4    5.58    0.69 
  -4   2  -4   26.96    1.14 
  -3   2  -4   12.15    0.71 
  -2   2  -4   17.79    0.71 
  -1   2  -4    9.78    0.50 
   0   2  -4  368.49    6.09 
   1   2  -4   20.06    0.41 
   2   2  -4   99.54    1.35 
   3   2  -4   25.10    0.57 
   4   2  -4   33.77    0.75 
   5   2  -4    2.79    0.33 
   6   2  -4    1.36    0.54 
   7   2  -4    0.25    0.63 
  -6   3  -4    2.91    0.72 
  -5   3  -4    0.99    0.56 
  -4   3  -4   17.55    1.00 
  -3   3  -4   19.82    0.91 
  -2   3  -4   42.72    1.20 
  -1   3  -4   32.83    0.96 
   0   3  -4   27.30    0.53 
   1   3  -4   11.76    0.54 
   2   3  -4   12.41    0.38 
   3   3  -4   26.11    0.62 
   4   3  -4    2.86    0.44 
   5   3  -4    2.29    0.50 
   6   3  -4    1.01    0.58 
   7   3  -4   -0.05    0.64 
  -6   4  -4    1.89    0.84 
  -5   4  -4    6.00    0.57 
  -4   4  -4    6.13    0.70 
  -3   4  -4   61.33    1.71 
  -2   4  -4    8.58    0.46 
  -1   4  -4    0.31    0.18 
   0   4  -4    3.06    0.24 
   1   4  -4   30.25    0.95 
   2   4  -4    7.61    0.60 
   3   4  -4   20.56    0.90 
   4   4  -4   12.05    0.76 
   5   4  -4    5.70    0.69 
   6   4  -4    2.01    0.64 
   7   4  -4    1.88    0.79 
  -5   5  -4    3.16    0.78 
  -4   5  -4    0.68    0.38 
  -3   5  -4    1.83    0.35 
  -2   5  -4    6.76    0.46 
  -1   5  -4    4.13    0.36 
   0   5  -4   22.20    0.58 
   1   5  -4   11.69    0.41 
   2   5  -4    3.03    0.46 
   3   5  -4    0.04    0.33 
   4   5  -4    2.66    0.51 
   5   5  -4    3.76    0.66 
   6   5  -4    0.68    0.64 
  -5   6  -4    1.96    0.78 
  -4   6  -4    1.76    0.66 
  -3   6  -4    0.79    0.36 
  -2   6  -4   28.33    0.82 
  -1   6  -4   27.42    0.77 
   0   6  -4    2.80    0.32 
   1   6  -4   19.96    0.93 
   2   6  -4   24.12    1.05 
   3   6  -4    3.71    0.57 
   4   6  -4    9.85    0.91 
   5   6  -4    7.51    0.90 
   6   6  -4    1.45    0.73 
  -4   7  -4    1.23    0.71 
  -3   7  -4    1.75    0.61 
  -2   7  -4    7.49    0.56 
  -1   7  -4   21.77    0.74 
   0   7  -4    3.62    0.37 
   1   7  -4    6.92    0.71 
   2   7  -4    0.29    0.41 
   3   7  -4    1.08    0.52 
   4   7  -4    6.15    0.82 
   5   7  -4    0.89    0.65 
  -3   8  -4    2.78    0.76 
  -2   8  -4    0.68    0.61 
  -1   8  -4    2.69    0.42 
   0   8  -4    6.58    0.75 
   1   8  -4    5.19    0.67 
   2   8  -4    1.07    0.51 
   3   8  -4    2.22    0.63 
   4   8  -4   -0.07    0.57 
  -2   9  -4   -0.36    0.65 
   1   9  -4   -0.68    0.52 
   2   9  -4    0.16    0.57 
   3   9  -4    1.90    0.68 
   0 -10  -3    0.53    0.69 
  -3  -9  -3    5.49    0.58 
  -2  -9  -3    1.03    0.40 
  -1  -9  -3    0.61    0.37 
   0  -9  -3    2.13    0.39 
   1  -9  -3    2.19    0.64 
   2  -9  -3    0.89    0.42 
   3  -9  -3    3.08    0.51 
  -4  -8  -3   -0.18    0.37 
  -3  -8  -3    0.37    0.36 
  -2  -8  -3    0.46    0.32 
  -1  -8  -3    0.47    0.30 
   0  -8  -3    5.35    0.45 
   1  -8  -3    1.69    0.27 
   2  -8  -3   11.84    0.64 
   3  -8  -3    1.29    0.40 
   4  -8  -3    0.49    0.43 
  -5  -7  -3    0.20    0.41 
  -4  -7  -3    0.87    0.34 
  -3  -7  -3    0.85    0.23 
  -2  -7  -3   14.67    0.47 
  -1  -7  -3    4.15    0.37 
   0  -7  -3    0.60    0.21 
   1  -7  -3    0.37    0.20 
   2  -7  -3    2.86    0.28 
   3  -7  -3   11.83    0.63 
   4  -7  -3    1.24    0.40 
   5  -7  -3    1.83    0.45 
  -5  -6  -3    3.00    0.46 
  -4  -6  -3    0.91    0.33 
  -3  -6  -3    5.85    0.35 
  -2  -6  -3   25.81    0.56 
  -1  -6  -3    0.83    0.18 
   0  -6  -3   22.75    0.48 
   1  -6  -3   12.17    0.39 
   2  -6  -3   19.79    0.49 
   3  -6  -3    0.95    0.29 
   4  -6  -3   10.97    0.59 
   5  -6  -3    1.56    0.39 
   6  -6  -3    0.60    0.44 
  -6  -5  -3    1.02    0.44 
  -5  -5  -3    4.35    0.46 
  -4  -5  -3    9.49    0.55 
  -3  -5  -3    9.26    0.38 
  -2  -5  -3    6.63    0.31 
  -1  -5  -3    3.10    0.21 
   0  -5  -3   10.24    0.30 
   1  -5  -3    1.76    0.18 
   2  -5  -3   18.72    0.42 
   3  -5  -3   17.04    0.44 
   4  -5  -3   11.35    0.54 
   5  -5  -3    1.64    0.35 
   6  -5  -3    0.87    0.39 
  -6  -4  -3    1.35    0.40 
  -5  -4  -3   10.35    0.58 
  -4  -4  -3    7.05    0.45 
  -3  -4  -3   24.01    0.50 
  -2  -4  -3   22.18    0.44 
  -1  -4  -3   49.12    0.67 
   0  -4  -3   25.21    0.42 
   1  -4  -3   96.11    1.09 
   2  -4  -3    2.70    0.19 
   3  -4  -3    4.49    0.26 
   4  -4  -3    4.15    0.28 
   5  -4  -3    7.78    0.51 
   6  -4  -3    1.94    0.37 
   7  -4  -3    0.48    0.70 
  -6  -3  -3    5.31    0.41 
  -5  -3  -3    0.66    0.29 
  -4  -3  -3    7.97    0.44 
  -3  -3  -3   20.82    0.43 
  -2  -3  -3    9.65    0.27 
  -1  -3  -3   96.12    1.05 
   0  -3  -3   71.96    0.80 
   1  -3  -3   26.44    0.40 
   2  -3  -3    9.01    0.25 
   3  -3  -3   10.58    0.30 
   4  -3  -3    1.29    0.20 
   5  -3  -3    8.13    0.36 
   6  -3  -3    4.94    0.44 
   7  -3  -3    2.29    0.68 
  -7  -2  -3    6.48    0.88 
  -6  -2  -3    2.34    0.43 
  -5  -2  -3    3.30    0.36 
  -4  -2  -3   20.30    0.58 
  -3  -2  -3    8.36    0.26 
  -2  -2  -3   32.87    0.47 
  -1  -2  -3  295.86    2.78 
   0  -2  -3  334.18    3.08 
   1  -2  -3   54.96    0.64 
   2  -2  -3    5.70    0.20 
   3  -2  -3   32.85    0.51 
   4  -2  -3    6.15    0.28 
   5  -2  -3   14.50    0.42 
   6  -2  -3    1.85    0.33 
   7  -2  -3    1.21    0.77 
  -7  -1  -3    0.30    0.44 
  -6  -1  -3    8.78    0.61 
  -5  -1  -3   16.39    0.50 
  -4  -1  -3   10.96    0.37 
  -3  -1  -3   10.13    0.30 
  -2  -1  -3    4.74    0.23 
  -1  -1  -3  372.07    3.44 
   0  -1  -3  520.93    4.69 
   1  -1  -3  241.16    2.26 
   2  -1  -3   32.36    0.45 
   3  -1  -3   16.93    0.29 
   4  -1  -3   14.43    0.31 
   5  -1  -3    9.93    0.30 
   6  -1  -3    0.24    0.22 
  -7   0  -3   -0.02    0.69 
  -6   0  -3    0.04    0.34 
  -5   0  -3   21.58    0.71 
  -4   0  -3    1.87    0.21 
  -3   0  -3    7.69    0.25 
  -2   0  -3    0.11    0.09 
  -1   0  -3   36.79    0.54 
   0   0  -3  119.64    1.13 
   1   0  -3  171.07    1.61 
   2   0  -3   78.25    0.85 
   3   0  -3    3.07    0.15 
   4   0  -3   86.96    0.91 
   5   0  -3    0.34    0.17 
   6   0  -3    3.50    0.39 
  -7   1  -3    1.30    0.67 
  -6   1  -3    8.60    0.87 
  -5   1  -3   15.84    0.60 
  -4   1  -3   11.25    0.48 
  -3   1  -3   10.75    0.39 
  -2   1  -3    4.54    0.24 
  -1   1  -3  372.85    6.02 
   0   1  -3  526.39    5.75 
   1   1  -3  241.46    2.78 
   2   1  -3   32.75    0.56 
   3   1  -3   16.89    0.43 
   4   1  -3   13.60    0.35 
   5   1  -3   10.02    0.50 
   6   1  -3    0.26    0.48 
   7   1  -3    2.37    0.68 
  -6   2  -3    2.39    0.62 
  -5   2  -3    4.11    0.58 
  -4   2  -3   20.49    0.59 
  -3   2  -3    9.04    0.60 
  -2   2  -3   31.55    0.91 
  -1   2  -3  303.75    4.96 
   0   2  -3  333.49    5.46 
   1   2  -3   54.81    0.79 
   2   2  -3    5.49    0.25 
   3   2  -3   31.81    0.65 
   4   2  -3    5.89    0.38 
   5   2  -3   14.97    0.86 
   6   2  -3    1.60    0.58 
   7   2  -3    0.68    0.62 
  -6   3  -3    4.67    0.75 
  -5   3  -3    0.96    0.51 
  -4   3  -3    7.30    0.70 
  -3   3  -3   19.44    0.84 
  -2   3  -3   10.05    0.57 
  -1   3  -3   95.52    1.34 
   0   3  -3   71.49    1.02 
   1   3  -3   25.83    0.77 
   2   3  -3    8.45    0.49 
   3   3  -3   10.41    0.59 
   4   3  -3    1.04    0.34 
   5   3  -3    7.50    0.72 
   6   3  -3    5.57    0.78 
   7   3  -3    2.88    0.78 
  -6   4  -3    1.06    0.76 
  -5   4  -3    9.86    0.64 
  -4   4  -3    6.17    0.47 
  -3   4  -3   23.57    0.71 
  -2   4  -3   23.19    0.62 
  -1   4  -3   48.71    0.87 
   0   4  -3   25.22    0.54 
   1   4  -3   97.37    1.34 
   2   4  -3    2.79    0.39 
   3   4  -3    4.04    0.49 
   4   4  -3    4.85    0.59 
   5   4  -3    9.05    0.84 
   6   4  -3    1.71    0.63 
   7   4  -3   -0.09    0.71 
  -6   5  -3    2.46    0.87 
  -5   5  -3    5.50    0.84 
  -4   5  -3    9.63    0.60 
  -3   5  -3    8.46    0.53 
  -2   5  -3    6.61    0.44 
  -1   5  -3    3.42    0.30 
   0   5  -3   11.10    0.41 
   1   5  -3    2.23    0.24 
   2   5  -3   18.45    0.82 
   3   5  -3   16.95    0.87 
   4   5  -3   10.46    0.78 
   5   5  -3    0.95    0.51 
   6   5  -3   -0.07    0.56 
  -5   6  -3    3.15    0.83 
  -4   6  -3    1.89    0.63 
  -3   6  -3    5.25    0.48 
  -2   6  -3   25.74    0.77 
  -1   6  -3    0.88    0.29 
   0   6  -3   21.83    0.64 
   1   6  -3   12.70    0.48 
   2   6  -3   21.45    0.95 
   3   6  -3    0.95    0.38 
   4   6  -3   11.84    0.95 
   5   6  -3    0.90    0.57 
   6   6  -3    1.30    0.73 
  -5   7  -3    1.42    0.87 
  -4   7  -3    0.94    0.65 
  -3   7  -3    1.65    0.62 
  -2   7  -3   13.04    0.77 
  -1   7  -3    4.85    0.42 
   0   7  -3    0.74    0.29 
   1   7  -3    0.24    0.36 
   2   7  -3    3.26    0.53 
   3   7  -3   12.95    1.00 
   4   7  -3    1.34    0.57 
   5   7  -3    2.51    0.77 
  -4   8  -3   -0.19    0.74 
  -3   8  -3    0.27    0.67 
  -2   8  -3    1.40    0.53 
  -1   8  -3   -0.30    0.47 
   0   8  -3    5.42    0.53 
   1   8  -3    0.65    0.44 
   2   8  -3   11.09    0.96 
   3   8  -3    0.76    0.55 
   4   8  -3    0.47    0.60 
  -3   9  -3    4.28    0.86 
  -2   9  -3   -0.07    0.66 
  -1   9  -3    0.21    0.59 
   1   9  -3    2.42    0.62 
   2   9  -3    0.75    0.56 
   3   9  -3    3.18    0.77 
  -1 -10  -2    0.15    0.42 
   0 -10  -2    2.12    0.67 
   1 -10  -2    0.54    0.69 
  -3  -9  -2    1.78    0.45 
  -2  -9  -2    4.11    0.49 
  -1  -9  -2    3.53    0.44 
   0  -9  -2    4.58    0.49 
   1  -9  -2    5.92    0.54 
   2  -9  -2   12.46    0.72 
   3  -9  -2    1.10    0.45 
  -4  -8  -2    0.29    0.37 
  -3  -8  -2    1.42    0.36 
  -2  -8  -2    6.94    0.52 
  -1  -8  -2    1.76    0.35 
   0  -8  -2    3.61    0.39 
   1  -8  -2    1.03    0.33 
   2  -8  -2   11.72    0.64 
   3  -8  -2    1.10    0.39 
   4  -8  -2    2.62    0.47 
  -5  -7  -2    1.17    0.42 
  -4  -7  -2    1.29    0.29 
  -3  -7  -2    2.18    0.27 
  -2  -7  -2    0.26    0.20 
  -1  -7  -2   34.34    0.85 
   0  -7  -2    8.06    0.37 
   1  -7  -2    2.41    0.24 
   2  -7  -2    4.80    0.42 
   3  -7  -2   12.12    0.60 
   4  -7  -2    0.88    0.36 
   5  -7  -2    2.68    0.47 
  -5  -6  -2    0.20    0.33 
  -4  -6  -2    2.63    0.28 
  -3  -6  -2    5.16    0.32 
  -2  -6  -2    2.76    0.25 
  -1  -6  -2    8.47    0.34 
   0  -6  -2   19.75    0.45 
   1  -6  -2    9.50    0.35 
   2  -6  -2    0.73    0.19 
   3  -6  -2   10.70    0.54 
   4  -6  -2    9.02    0.55 
   5  -6  -2   -0.70    0.35 
   6  -6  -2    3.62    0.81 
  -6  -5  -2    1.24    0.41 
  -5  -5  -2    2.50    0.39 
  -4  -5  -2    3.57    0.28 
  -3  -5  -2    0.16    0.16 
  -2  -5  -2    3.34    0.23 
  -1  -5  -2    3.66    0.22 
   0  -5  -2   26.51    0.47 
   1  -5  -2    1.62    0.17 
   2  -5  -2    8.83    0.31 
   3  -5  -2   15.74    0.42 
   4  -5  -2   13.34    0.55 
   5  -5  -2    1.12    0.32 
   6  -5  -2    3.33    0.72 
  -6  -4  -2    1.26    0.37 
  -5  -4  -2    4.99    0.42 
  -4  -4  -2    1.20    0.19 
  -3  -4  -2    8.80    0.32 
  -2  -4  -2    6.21    0.27 
  -1  -4  -2   29.31    0.47 
   0  -4  -2    4.23    0.15 
   1  -4  -2   78.98    0.92 
   2  -4  -2    9.01    0.27 
   3  -4  -2    7.76    0.29 
   4  -4  -2    8.97    0.48 
   5  -4  -2    1.41    0.32 
   6  -4  -2    3.37    0.46 
   7  -4  -2    0.28    0.66 
  -6  -3  -2    1.82    0.37 
  -5  -3  -2    1.57    0.28 
  -4  -3  -2   23.25    0.50 
  -3  -3  -2   27.08    0.49 
  -2  -3  -2   70.78    0.86 
  -1  -3  -2   66.89    0.78 
   0  -3  -2   21.41    0.28 
   1  -3  -2   22.35    0.35 
   2  -3  -2   24.95    0.41 
   3  -3  -2    5.99    0.25 
   4  -3  -2    9.06    0.32 
   5  -3  -2   18.32    0.60 
   6  -3  -2    7.30    0.50 
   7  -3  -2   -0.10    0.62 
  -7  -2  -2    1.03    0.48 
  -6  -2  -2    0.12    0.27 
  -5  -2  -2    1.39    0.28 
  -4  -2  -2    4.35    0.26 
  -3  -2  -2    0.79    0.12 
  -2  -2  -2   33.29    0.47 
  -1  -2  -2   41.10    0.50 
   0  -2  -2  288.18    2.30 
   1  -2  -2   78.43    0.82 
   2  -2  -2   16.77    0.30 
   3  -2  -2   70.32    0.84 
   4  -2  -2   33.71    0.55 
   5  -2  -2   32.36    0.60 
   6  -2  -2    7.90    0.48 
  -7  -1  -2    1.40    0.47 
  -6  -1  -2    1.21    0.38 
  -5  -1  -2   19.65    0.52 
  -4  -1  -2   17.39    0.42 
  -3  -1  -2  104.05    1.14 
  -2  -1  -2   81.76    1.09 
  -1  -1  -2  135.79    1.32 
   0  -1  -2  395.25    3.52 
   1  -1  -2  267.68    2.45 
   2  -1  -2    7.92    0.16 
   3  -1  -2  113.61    0.95 
   4  -1  -2   33.23    0.43 
   5  -1  -2   52.18    0.62 
   6  -1  -2    2.22    0.22 
  -7   0  -2   -0.15    0.64 
  -6   0  -2   18.96    0.75 
  -5   0  -2    0.15    0.23 
  -4   0  -2   25.68    0.51 
  -3   0  -2    4.07    0.16 
  -2   0  -2   16.77    0.29 
  -1   0  -2   73.60    0.76 
   0   0  -2   20.81    0.24 
   1   0  -2    1.16    0.08 
   2   0  -2   13.10    0.19 
   3   0  -2   18.39    0.26 
   4   0  -2   34.57    0.43 
   5   0  -2   10.21    0.30 
   6   0  -2    2.16    0.45 
   7   0  -2    2.00    0.71 
  -7   1  -2    1.81    0.69 
  -6   1  -2    1.82    0.60 
  -5   1  -2   19.98    0.64 
  -4   1  -2   16.18    0.39 
  -3   1  -2  104.16    1.14 
  -2   1  -2   81.07    1.09 
  -1   1  -2  141.62    2.38 
   0   1  -2  389.34    6.18 
   1   1  -2  263.25    3.01 
   2   1  -2    7.86    0.25 
   3   1  -2  116.46    1.23 
   4   1  -2   33.95    0.56 
   5   1  -2   53.80    1.02 
   6   1  -2    2.65    0.61 
   7   1  -2    1.43    0.69 
  -6   2  -2    0.43    0.54 
  -5   2  -2    1.37    0.47 
  -4   2  -2    4.75    0.32 
  -3   2  -2    0.91    0.16 
  -2   2  -2   32.05    0.87 
  -1   2  -2   41.31    0.94 
   0   2  -2  290.76    3.29 
   1   2  -2   76.09    1.49 
   2   2  -2   17.00    0.39 
   3   2  -2   72.69    1.61 
   4   2  -2   32.93    0.68 
   5   2  -2   31.75    1.21 
   6   2  -2   10.46    0.92 
   7   2  -2    0.27    0.66 
  -6   3  -2    1.31    0.63 
  -5   3  -2    1.59    0.50 
  -4   3  -2   22.94    0.97 
  -3   3  -2   26.94    0.94 
  -2   3  -2   69.58    1.09 
  -1   3  -2   66.05    0.99 
   0   3  -2   20.73    0.43 
   1   3  -2   21.89    0.42 
   2   3  -2   25.38    0.80 
   3   3  -2    6.35    0.52 
   4   3  -2    9.57    0.66 
   5   3  -2   20.80    0.99 
   6   3  -2    8.04    0.88 
   7   3  -2    1.25    0.74 
  -6   4  -2    0.17    0.71 
  -5   4  -2    6.36    0.83 
  -4   4  -2    1.13    0.31 
  -3   4  -2    9.50    0.50 
  -2   4  -2    6.09    0.36 
  -1   4  -2   28.13    0.60 
   0   4  -2    4.66    0.27 
   1   4  -2   78.58    1.13 
   2   4  -2    9.10    0.53 
   3   4  -2    8.04    0.57 
   4   4  -2    8.98    0.74 
   5   4  -2    1.83    0.52 
   6   4  -2    3.81    0.75 
   7   4  -2    0.10    0.75 
  -6   5  -2    1.80    0.83 
  -5   5  -2    0.74    0.63 
  -4   5  -2    3.17    0.63 
  -3   5  -2   -0.10    0.27 
  -2   5  -2    2.40    0.29 
  -1   5  -2    3.56    0.30 
   0   5  -2   26.67    0.61 
   1   5  -2    1.91    0.21 
   2   5  -2    8.05    0.35 
   3   5  -2   17.38    0.85 
   4   5  -2   13.89    0.84 
   5   5  -2    0.50    0.48 
   6   5  -2    2.45    0.73 
  -5   6  -2    0.62    0.69 
  -4   6  -2    3.09    0.66 
  -3   6  -2    5.07    0.65 
  -2   6  -2    3.08    0.37 
  -1   6  -2    8.74    0.47 
   0   6  -2   20.24    0.60 
   1   6  -2    9.57    0.44 
   2   6  -2    1.33    0.40 
   3   6  -2   12.21    0.90 
   4   6  -2   10.33    0.92 
   5   6  -2    1.24    0.58 
   6   6  -2    3.79    0.85 
  -5   7  -2    0.80    0.83 
  -4   7  -2    1.26    0.71 
  -3   7  -2    1.09    0.58 
  -2   7  -2    0.23    0.48 
  -1   7  -2   35.35    0.88 
   0   7  -2    9.12    0.51 
   1   7  -2    2.35    0.32 
   2   7  -2    5.38    0.64 
   3   7  -2   12.81    0.97 
   4   7  -2    0.96    0.52 
   5   7  -2    2.15    0.73 
  -4   8  -2   -0.89    0.76 
  -3   8  -2    1.49    0.69 
  -2   8  -2    8.20    0.86 
  -1   8  -2    2.04    0.57 
   0   8  -2    3.72    0.41 
   1   8  -2    0.55    0.45 
   2   8  -2   12.04    0.95 
   3   8  -2    1.08    0.52 
   4   8  -2    1.21    0.64 
  -3   9  -2    2.48    0.85 
  -2   9  -2    2.06    0.73 
  -1   9  -2    2.68    0.73 
   2   9  -2   10.72    0.97 
   3   9  -2    0.38    0.64 
  -1 -10  -1    4.24    0.83 
   0 -10  -1    2.80    0.71 
   1 -10  -1    5.29    0.91 
  -3  -9  -1    0.74    0.41 
  -2  -9  -1    3.88    0.47 
  -1  -9  -1    2.15    0.40 
   0  -9  -1    1.43    0.58 
   1  -9  -1    5.78    0.53 
   2  -9  -1    6.97    0.60 
   3  -9  -1    3.04    0.51 
  -4  -8  -1    1.61    0.32 
  -3  -8  -1    0.27    0.33 
  -2  -8  -1    1.84    0.37 
  -1  -8  -1    2.71    0.36 
   0  -8  -1    9.00    0.42 
   1  -8  -1    2.00    0.36 
   2  -8  -1    7.73    0.55 
   3  -8  -1    0.69    0.37 
   4  -8  -1    0.09    0.41 
  -5  -7  -1    1.59    0.42 
  -4  -7  -1    1.88    0.28 
  -3  -7  -1   13.14    0.47 
  -2  -7  -1    0.87    0.20 
  -1  -7  -1   14.17    0.56 
   0  -7  -1    0.41    0.19 
   1  -7  -1    5.57    0.31 
   2  -7  -1   12.28    0.60 
   3  -7  -1   10.86    0.60 
   4  -7  -1    0.53    0.34 
   5  -7  -1    1.24    0.41 
  -6  -6  -1    1.01    0.61 
  -5  -6  -1    4.40    0.45 
  -4  -6  -1    0.40    0.22 
  -3  -6  -1   15.31    0.46 
  -2  -6  -1    1.35    0.21 
  -1  -6  -1    0.80    0.14 
   0  -6  -1    2.47    0.22 
   1  -6  -1   11.75    0.36 
   2  -6  -1    1.07    0.23 
   3  -6  -1    8.75    0.51 
   4  -6  -1    1.10    0.34 
   5  -6  -1    0.92    0.37 
   6  -6  -1    0.77    0.69 
  -6  -5  -1    0.90    0.40 
  -5  -5  -1    0.34    0.31 
  -4  -5  -1    6.74    0.36 
  -3  -5  -1    3.75    0.27 
  -2  -5  -1    7.72    0.32 
  -1  -5  -1    4.76    0.20 
   0  -5  -1   37.19    0.57 
   1  -5  -1    8.78    0.28 
   2  -5  -1   11.79    0.33 
   3  -5  -1   16.72    0.55 
   4  -5  -1   19.74    0.65 
   5  -5  -1    2.68    0.36 
   6  -5  -1    1.64    0.65 
  -6  -4  -1    2.59    0.41 
  -5  -4  -1    0.08    0.27 
  -4  -4  -1    9.85    0.37 
  -3  -4  -1    4.46    0.26 
  -2  -4  -1   23.71    0.45 
   0  -4  -1   21.80    0.38 
   1  -4  -1   19.80    0.36 
   2  -4  -1   56.58    0.73 
   3  -4  -1    7.67    0.27 
   4  -4  -1    1.30    0.28 
   5  -4  -1    0.71    0.28 
   6  -4  -1    3.51    0.65 
  -7  -3  -1    1.84    0.44 
  -6  -3  -1    5.39    0.48 
  -5  -3  -1    0.80    0.27 
  -4  -3  -1   15.99    0.42 
  -3  -3  -1    3.37    0.21 
  -2  -3  -1  214.28    2.10 
  -1  -3  -1   24.15    0.38 
   0  -3  -1   46.53    0.47 
   1  -3  -1   51.68    0.62 
   2  -3  -1  138.73    1.43 
   3  -3  -1   32.57    0.50 
   4  -3  -1    1.16    0.18 
   5  -3  -1    3.05    0.32 
   6  -3  -1    8.45    0.77 
  -7  -2  -1    1.08    0.45 
  -6  -2  -1    5.41    0.46 
  -5  -2  -1   23.30    0.67 
  -4  -2  -1    6.20    0.29 
  -3  -2  -1    9.15    0.26 
  -2  -2  -1   37.40    0.52 
  -1  -2  -1  304.31    2.82 
   0  -2  -1  200.14    1.61 
   1  -2  -1   10.43    0.21 
   2  -2  -1   54.65    0.64 
   3  -2  -1  100.36    0.96 
   4  -2  -1   28.12    0.43 
   5  -2  -1   33.89    0.57 
   6  -2  -1    1.28    0.32 
   7  -2  -1    3.64    0.71 
  -7  -1  -1    0.44    0.42 
  -6  -1  -1   10.92    0.49 
  -5  -1  -1    4.75    0.36 
  -4  -1  -1   32.26    0.54 
  -3  -1  -1   37.19    0.53 
  -2  -1  -1    3.29    0.15 
  -1  -1  -1   10.27    0.19 
   0  -1  -1  426.35    3.30 
   1  -1  -1  393.94    3.56 
   2  -1  -1   52.52    0.47 
   3  -1  -1  114.22    0.94 
   4  -1  -1   14.68    0.28 
   5  -1  -1   45.73    0.57 
   6  -1  -1    1.02    0.46 
  -7   0  -1    0.64    0.67 
  -6   0  -1    0.76    0.33 
  -5   0  -1   10.22    0.39 
  -3   0  -1    1.64    0.13 
  -2   0  -1    4.21    0.19 
  -1   0  -1    1.58    0.08 
   0   0  -1   72.81    1.15 
   1   0  -1  125.92    0.91 
   2   0  -1   18.97    0.23 
   3   0  -1   11.80    0.21 
   4   0  -1  102.96    0.91 
   5   0  -1    5.79    0.32 
   6   0  -1    4.07    0.41 
   7   0  -1    2.49    0.72 
  -7   1  -1    0.56    0.64 
  -6   1  -1   11.00    0.92 
  -5   1  -1    4.27    0.37 
  -4   1  -1   32.92    0.54 
  -3   1  -1   36.78    0.52 
  -2   1  -1    2.86    0.18 
  -1   1  -1   10.62    0.22 
   0   1  -1  425.00    4.69 
   1   1  -1  396.45    4.39 
   2   1  -1   52.84    0.61 
   3   1  -1  114.67    1.23 
   4   1  -1   14.35    0.46 
   5   1  -1   47.87    0.96 
   6   1  -1    3.06    0.60 
   7   1  -1    2.61    0.76 
  -7   2  -1    0.32    0.75 
  -6   2  -1    6.62    0.72 
  -5   2  -1   23.39    1.00 
  -4   2  -1    6.46    0.36 
  -3   2  -1    9.36    0.33 
  -2   2  -1   38.36    0.91 
  -1   2  -1  305.11    3.48 
   0   2  -1  200.51    2.31 
   1   2  -1   10.81    0.25 
   2   2  -1   54.30    0.80 
   3   2  -1   99.39    1.37 
   4   2  -1   28.39    0.64 
   5   2  -1   35.24    0.82 
   6   2  -1    1.21    0.57 
   7   2  -1    3.56    0.84 
  -7   3  -1    1.71    0.85 
  -6   3  -1    5.30    0.80 
  -5   3  -1    0.59    0.33 
  -4   3  -1   16.09    0.60 
  -3   3  -1    3.91    0.31 
  -2   3  -1  208.00    2.60 
  -1   3  -1   22.76    0.48 
   0   3  -1   45.60    0.71 
   1   3  -1   52.48    0.78 
   2   3  -1  138.05    1.77 
   3   3  -1   32.19    0.64 
   4   3  -1    1.09    0.20 
   5   3  -1    2.82    0.52 
   6   3  -1    7.92    0.90 
   7   3  -1    1.63    0.73 
  -6   4  -1    2.40    0.71 
  -5   4  -1    0.57    0.50 
  -4   4  -1    9.27    0.53 
  -3   4  -1    4.46    0.36 
  -2   4  -1   24.73    0.59 
   0   4  -1   23.42    0.49 
   1   4  -1   20.22    0.46 
   2   4  -1   55.73    0.92 
   3   4  -1    7.47    0.33 
   4   4  -1    1.91    0.43 
   5   4  -1   -0.03    0.43 
   6   4  -1    3.59    0.76 
  -6   5  -1    0.89    0.72 
  -5   5  -1   -0.27    0.55 
  -4   5  -1    7.08    0.74 
  -3   5  -1    3.20    0.35 
  -2   5  -1    7.43    0.42 
  -1   5  -1    4.37    0.31 
   0   5  -1   37.94    0.73 
   1   5  -1    8.80    0.36 
   2   5  -1   12.94    0.43 
   3   5  -1   16.02    0.51 
   4   5  -1   21.40    1.00 
   5   5  -1    3.09    0.65 
   6   5  -1    1.88    0.66 
  -5   6  -1    3.36    0.80 
  -4   6  -1    0.52    0.50 
  -3   6  -1   13.82    0.94 
  -2   6  -1    1.00    0.32 
  -1   6  -1    0.87    0.25 
   0   6  -1    2.30    0.29 
   1   6  -1   11.96    0.47 
   2   6  -1    1.45    0.26 
   3   6  -1    9.90    0.81 
   4   6  -1    0.58    0.43 
   5   6  -1    1.26    0.56 
   6   6  -1    0.75    0.67 
  -5   7  -1    0.52    0.82 
  -4   7  -1    0.86    0.65 
  -3   7  -1   12.82    1.04 
  -2   7  -1    0.43    0.45 
  -1   7  -1   13.47    0.89 
   0   7  -1   -0.09    0.24 
   1   7  -1    6.14    0.42 
   2   7  -1   11.70    0.81 
   3   7  -1   10.45    0.90 
   4   7  -1   -0.75    0.49 
   5   7  -1    0.93    0.62 
  -4   8  -1   -1.30    0.72 
  -3   8  -1   -0.35    0.60 
  -2   8  -1    1.67    0.64 
  -1   8  -1    1.94    0.62 
   0   8  -1    9.76    0.81 
   1   8  -1    1.67    0.50 
   2   8  -1    6.76    0.77 
   3   8  -1    0.42    0.50 
   4   8  -1   -0.50    0.57 
  -3   9  -1    1.82    0.86 
  -2   9  -1    3.31    0.72 
  -1   9  -1    1.85    0.70 
   0   9  -1    1.47    0.56 
   2   9  -1    6.42    0.91 
   3   9  -1    2.85    0.72 
  -1  10  -1    3.25    0.83 
  -1 -10   0   10.60    1.08 
   0 -10   0   11.47    1.06 
   1 -10   0   10.79    0.75 
  -3  -9   0    3.18    0.47 
  -2  -9   0    0.00    0.37 
  -1  -9   0   11.24    0.64 
   0  -9   0    0.58    0.52 
   1  -9   0   11.00    0.67 
   2  -9   0   -0.06    0.42 
   3  -9   0    3.08    0.50 
  -4  -8   0    0.81    0.29 
  -3  -8   0    4.86    0.47 
  -2  -8   0   50.48    1.14 
  -1  -8   0    5.15    0.44 
   0  -8   0    0.73    0.23 
   1  -8   0    4.40    0.43 
   2  -8   0   49.19    1.15 
   3  -8   0    4.78    0.49 
   4  -8   0    0.41    0.44 
  -5  -7   0    1.48    0.39 
  -4  -7   0    0.94    0.27 
  -3  -7   0   16.92    0.52 
  -2  -7   0    0.42    0.19 
  -1  -7   0   14.12    0.43 
   0  -7   0    0.12    0.18 
   1  -7   0   14.04    0.56 
   2  -7   0    0.07    0.28 
   3  -7   0   17.55    0.68 
   4  -7   0    1.55    0.37 
   5  -7   0    2.45    0.74 
  -6  -6   0    0.02    0.40 
  -5  -6   0    0.75    0.29 
  -4  -6   0    4.70    0.34 
  -3  -6   0   10.06    0.43 
  -2  -6   0   12.18    0.40 
  -1  -6   0   14.99    0.33 
   0  -6   0   12.50    0.37 
   1  -6   0   14.94    0.39 
   2  -6   0   12.65    0.51 
   3  -6   0    9.65    0.51 
   4  -6   0    4.52    0.42 
   5  -6   0    1.05    0.60 
   6  -6   0    0.99    0.70 
  -6  -5   0    0.53    0.38 
  -5  -5   0    2.50    0.30 
  -4  -5   0    0.70    0.19 
  -3  -5   0    1.93    0.23 
  -2  -5   0    1.48    0.18 
  -1  -5   0   27.72    0.41 
   0  -5   0   -0.17    0.11 
   1  -5   0   28.03    0.48 
   2  -5   0    1.41    0.24 
   3  -5   0    2.11    0.29 
   4  -5   0    0.97    0.29 
   5  -5   0    2.72    0.40 
   6  -5   0    0.36    0.60 
  -6  -4   0    2.85    0.44 
  -5  -4   0    0.14    0.19 
  -4  -4   0    2.59    0.24 
  -3  -4   0    5.69    0.29 
  -2  -4   0   89.55    1.32 
  -1  -4   0   30.97    0.46 
   0  -4   0   12.86    0.28 
   1  -4   0   30.87    0.46 
   2  -4   0   93.02    1.31 
   3  -4   0    5.26    0.34 
   4  -4   0    2.55    0.31 
   5  -4   0   -0.31    0.25 
   6  -4   0    3.95    0.65 
  -7  -3   0    1.21    0.42 
  -6  -3   0    1.70    0.36 
  -5  -3   0    3.39    0.27 
  -4  -3   0    1.03    0.18 
  -3  -3   0   31.80    0.53 
  -2  -3   0   44.03    0.73 
  -1  -3   0    2.72    0.14 
   0  -3   0    0.00    0.07 
   1  -3   0    2.23    0.13 
   2  -3   0   42.07    0.71 
   3  -3   0   31.33    0.53 
   4  -3   0    1.36    0.20 
   5  -3   0    3.68    0.29 
   6  -3   0    1.82    0.38 
  -7  -2   0    2.93    0.47 
  -6  -2   0    2.05    0.35 
  -5  -2   0   16.12    0.45 
  -4  -2   0    0.67    0.15 
  -3  -2   0   49.18    0.81 
  -2  -2   0  126.89    1.61 
  -1  -2   0  355.51    4.07 
   0  -2   0   70.24    0.73 
   1  -2   0  357.68    3.29 
   2  -2   0  128.02    1.31 
   3  -2   0   48.73    0.55 
   4  -2   0    0.99    0.13 
   5  -2   0   14.45    0.43 
   6  -2   0    1.52    0.32 
   7  -2   0    2.99    0.68 
  -7  -1   0    5.71    0.54 
  -6  -1   0   12.94    0.58 
  -5  -1   0   20.22    0.50 
  -4  -1   0   12.92    0.35 
  -3  -1   0   79.83    1.11 
  -2  -1   0   29.85    0.49 
  -1  -1   0  980.71   10.74 
   0  -1   0    0.04    0.03 
   1  -1   0  981.86    7.58 
   2  -1   0   29.17    0.33 
   3  -1   0   78.86    0.69 
   4  -1   0   12.77    0.27 
   5  -1   0   20.03    0.47 
   6  -1   0    9.94    0.80 
   7  -1   0    4.27    0.71 
  -7   0   0    1.34    0.43 
  -6   0   0    0.13    0.31 
  -5   0   0   47.39    0.68 
  -4   0   0  246.10    2.44 
  -3   0   0    8.41    0.23 
   1   0   0    3.30    0.07 
   2   0   0   64.89    0.54 
   3   0   0    7.78    0.17 
   4   0   0  241.93    2.11 
   5   0   0   48.23    0.77 
   6   0   0    0.47    0.33 
  -7   1   0    5.45    1.04 
  -6   1   0   12.00    0.95 
  -5   1   0   19.64    0.49 
  -4   1   0   13.85    0.35 
  -3   1   0   76.97    1.12 
  -2   1   0   28.74    0.47 
  -1   1   0 1000.00   15.16 
   0   1   0    0.07    0.04 
   1   1   0  989.94   10.74 
   2   1   0   29.61    0.51 
   3   1   0   77.64    1.14 
   4   1   0   13.37    0.46 
   5   1   0   20.86    0.66 
   6   1   0   13.34    0.67 
   7   1   0    4.37    0.84 
  -7   2   0    2.63    0.80 
  -6   2   0    1.67    0.42 
  -5   2   0   15.38    0.84 
  -4   2   0    0.34    0.20 
  -3   2   0   47.84    0.77 
  -2   2   0  126.05    1.62 
  -1   2   0  361.47    4.07 
   0   2   0   71.38    0.91 
   1   2   0  370.38    4.08 
   2   2   0  125.64    1.61 
   3   2   0   47.80    0.82 
   4   2   0    0.64    0.18 
   5   2   0   15.55    0.91 
   6   2   0    2.04    0.59 
   7   2   0    2.75    0.81 
  -7   3   0    1.25    0.76 
  -6   3   0    1.54    0.61 
  -5   3   0    3.57    0.42 
  -4   3   0    1.83    0.28 
  -3   3   0   31.99    0.67 
  -2   3   0   42.12    0.73 
  -1   3   0    2.21    0.18 
   0   3   0   -0.04    0.09 
   1   3   0    2.56    0.19 
   2   3   0   43.38    0.73 
   3   3   0   31.14    0.64 
   4   3   0    1.68    0.24 
   5   3   0    3.89    0.58 
   6   3   0    3.26    0.67 
   7   3   0    1.35    0.74 
  -6   4   0    2.62    0.75 
  -5   4   0    0.28    0.46 
  -4   4   0    2.03    0.48 
  -3   4   0    5.45    0.36 
  -2   4   0   89.21    1.96 
  -1   4   0   31.46    0.61 
   0   4   0   12.63    0.36 
   1   4   0   32.17    0.61 
   2   4   0   88.77    1.30 
   3   4   0    5.71    0.34 
   4   4   0    2.14    0.26 
   5   4   0    1.05    0.45 
   6   4   0    3.40    0.76 
  -6   5   0    0.24    0.67 
  -5   5   0    2.63    0.68 
  -4   5   0    0.92    0.44 
  -3   5   0    2.20    0.45 
  -2   5   0    1.23    0.24 
  -1   5   0   28.25    0.63 
   0   5   0    0.13    0.16 
   1   5   0   29.42    0.63 
   2   5   0    1.30    0.21 
   3   5   0    1.95    0.26 
   4   5   0    0.80    0.40 
   5   5   0    2.66    0.65 
   6   5   0    0.49    0.63 
  -6   6   0    0.04    0.77 
  -5   6   0    1.33    0.69 
  -4   6   0    4.19    0.71 
  -3   6   0    9.83    0.82 
  -2   6   0   11.80    0.79 
  -1   6   0   14.61    0.53 
   0   6   0   12.17    0.47 
   1   6   0   15.30    0.53 
   2   6   0   11.55    0.48 
   3   6   0   10.09    0.76 
   4   6   0    4.65    0.63 
   5   6   0    0.32    0.54 
   6   6   0    1.02    0.71 
  -5   7   0    1.59    0.83 
  -4   7   0    0.82    0.65 
  -3   7   0   16.23    1.10 
  -2   7   0    0.40    0.47 
  -1   7   0   13.72    0.90 
   0   7   0   -0.22    0.23 
   1   7   0   14.75    0.56 
   2   7   0    0.79    0.26 
   3   7   0   17.19    0.99 
   4   7   0    1.79    0.55 
   5   7   0    1.48    0.65 
  -4   8   0    1.40    0.75 
  -3   8   0    6.57    0.90 
  -2   8   0   51.38    1.77 
  -1   8   0    4.60    0.73 
   0   8   0    1.19    0.45 
   1   8   0    4.71    0.50 
   2   8   0   49.31    1.61 
   3   8   0    4.69    0.70 
   4   8   0    1.05    0.60 
  -3   9   0    2.13    0.83 
  -2   9   0    0.64    0.70 
  -1   9   0   11.62    1.04 
   0   9   0    0.14    0.52 
   3   9   0    2.12    0.68 
  -1  10   0    9.78    1.00 
  -1 -10   1    4.78    0.88 
   0 -10   1    1.63    0.75 
   1 -10   1    4.52    0.57 
  -3  -9   1    3.60    0.50 
  -2  -9   1    7.18    0.56 
  -1  -9   1    7.97    0.90 
   0  -9   1    1.78    0.40 
   1  -9   1    2.28    0.46 
   2  -9   1    3.35    0.50 
   3  -9   1    2.37    0.49 
  -4  -8   1    0.40    0.27 
  -3  -8   1    0.07    0.31 
  -2  -8   1    7.92    0.52 
  -1  -8   1    1.65    0.35 
   0  -8   1    9.79    0.56 
   1  -8   1    2.54    0.39 
   2  -8   1    2.15    0.41 
   3  -8   1    0.58    0.38 
   4  -8   1    0.36    0.43 
  -5  -7   1    1.78    0.32 
  -4  -7   1    0.27    0.23 
  -3  -7   1   10.17    0.44 
  -2  -7   1   12.14    0.44 
  -1  -7   1    5.53    0.32 
   0  -7   1    0.40    0.19 
   1  -7   1   14.40    0.57 
   2  -7   1    0.46    0.28 
   3  -7   1   13.13    0.64 
   4  -7   1    0.91    0.37 
   5  -7   1    1.65    0.72 
  -6  -6   1    0.38    0.42 
  -5  -6   1    1.22    0.28 
  -4  -6   1    1.15    0.23 
  -3  -6   1    8.97    0.40 
  -2  -6   1    1.59    0.20 
  -1  -6   1   11.19    0.35 
   0  -6   1    2.70    0.22 
   1  -6   1    0.58    0.17 
   2  -6   1    0.91    0.27 
   3  -6   1   15.69    0.58 
   4  -6   1    0.73    0.31 
   5  -6   1    3.65    0.69 
  -6  -5   1    1.18    0.42 
  -5  -5   1    2.12    0.28 
  -4  -5   1   21.56    0.54 
  -3  -5   1   15.41    0.53 
  -2  -5   1   12.33    0.33 
  -1  -5   1    8.63    0.27 
   0  -5   1   37.06    0.57 
   1  -5   1    4.23    0.22 
   2  -5   1    7.67    0.41 
   3  -5   1    3.10    0.32 
   4  -5   1    6.93    0.44 
   5  -5   1    1.14    0.54 
   6  -5   1    0.56    0.63 
  -7  -4   1    3.13    0.56 
  -6  -4   1    2.57    0.41 
  -5  -4   1    1.04    0.22 
  -4  -4   1    1.67    0.25 
  -3  -4   1    7.99    0.36 
  -2  -4   1   57.58    0.73 
  -1  -4   1   20.14    0.36 
   0  -4   1   21.85    0.38 
   2  -4   1   24.05    0.55 
   3  -4   1    5.00    0.33 
   4  -4   1    9.82    0.45 
   5  -4   1    0.24    0.43 
   6  -4   1    1.17    0.57 
  -7  -3   1    1.47    0.42 
  -6  -3   1    8.24    0.55 
  -5  -3   1    2.77    0.25 
  -4  -3   1    1.06    0.21 
  -3  -3   1   33.15    0.67 
  -2  -3   1  140.15    1.44 
  -1  -3   1   52.55    0.63 
   0  -3   1   46.45    0.56 
   1  -3   1   24.41    0.47 
   2  -3   1  209.77    2.10 
   3  -3   1    3.73    0.23 
   4  -3   1   16.01    0.43 
   5  -3   1    0.58    0.29 
   6  -3   1    5.97    0.50 
   7  -3   1    1.45    0.65 
  -7  -2   1    3.47    0.47 
  -6  -2   1    0.81    0.30 
  -5  -2   1   34.13    0.65 
  -4  -2   1   28.22    0.64 
  -3  -2   1  100.73    1.39 
  -2  -2   1   55.73    0.83 
  -1  -2   1   10.75    0.21 
   0  -2   1  196.98    1.87 
   1  -2   1  301.05    2.82 
   2  -2   1   38.91    0.52 
   3  -2   1    9.88    0.27 
   4  -2   1    6.70    0.29 
   5  -2   1   22.20    0.66 
   6  -2   1    5.53    0.71 
   7  -2   1    1.45    0.63 
  -7  -1   1    2.87    0.47 
  -6  -1   1    1.71    0.34 
  -5  -1   1   46.11    0.75 
  -4  -1   1   13.94    0.34 
  -3  -1   1  114.30    1.21 
  -2  -1   1   53.77    0.61 
  -1  -1   1  394.72    3.57 
   0  -1   1  428.17    3.31 
   1  -1   1   10.40    0.19 
   2  -1   1    2.92    0.14 
   3  -1   1   37.42    0.44 
   4  -1   1   32.16    0.53 
   5  -1   1    5.29    0.35 
   6  -1   1    9.51    0.79 
   7  -1   1   -0.59    0.51 
  -7   0   1    1.83    0.45 
  -6   0   1    4.06    0.33 
  -5   0   1    5.42    0.26 
  -4   0   1  102.33    1.45 
   0   0   1   69.71    1.14 
   1   0   1    1.65    0.12 
   2   0   1    3.96    0.13 
   3   0   1    1.42    0.11 
   5   0   1   10.76    0.54 
   6   0   1    1.24    0.35 
   7   0   1    1.46    0.56 
  -6   1   1    2.75    0.41 
  -5   1   1   45.67    0.74 
  -4   1   1   13.74    0.67 
  -1   1   1  397.62    6.23 
   0   1   1  431.05    4.68 
   1   1   1   10.05    0.25 
   2   1   1    3.18    0.20 
   3   1   1   37.49    0.70 
   4   1   1   34.15    0.74 
   5   1   1    5.23    0.41 
   6   1   1    9.54    0.59 
   7   1   1    0.37    0.73 
  -7   2   1    2.89    0.81 
  -6   2   1    1.43    0.56 
  -5   2   1   34.00    0.85 
  -4   2   1   27.62    0.51 
  -3   2   1   98.70    1.39 
  -2   2   1   55.73    0.81 
  -1   2   1   10.62    0.42 
   0   2   1  201.96    2.30 
   1   2   1  304.10    3.47 
   2   2   1   37.71    0.65 
   3   2   1    9.57    0.35 
   4   2   1    6.92    0.40 
   5   2   1   23.27    0.69 
   6   2   1    6.26    0.56 
   7   2   1    0.44    0.69 
  -7   3   1    1.13    0.76 
  -6   3   1    7.97    0.87 
  -5   3   1    2.68    0.53 
  -4   3   1    0.99    0.25 
  -3   3   1   32.68    0.66 
  -2   3   1  142.02    2.64 
  -1   3   1   49.79    1.16 
   0   3   1   45.75    0.70 
   1   3   1   24.94    0.48 
   2   3   1  208.73    2.59 
   3   3   1    3.60    0.27 
   4   3   1   17.57    0.56 
   5   3   1    0.42    0.26 
   6   3   1    7.80    0.91 
   7   3   1    0.92    0.81 
  -6   4   1    2.48    0.70 
  -5   4   1    0.14    0.44 
  -4   4   1    1.20    0.44 
  -3   4   1    7.32    0.38 
  -2   4   1   57.79    1.42 
  -1   4   1   20.31    0.45 
   0   4   1   22.26    0.48 
   2   4   1   23.46    0.55 
   3   4   1    5.36    0.35 
   4   4   1   10.83    0.49 
   5   4   1    0.36    0.45 
   6   4   1    1.89    0.67 
  -6   5   1    1.33    0.72 
  -5   5   1    2.33    0.64 
  -4   5   1   20.75    1.06 
  -3   5   1   16.32    0.89 
  -2   5   1   11.86    0.73 
  -1   5   1    9.02    0.36 
   0   5   1   37.18    0.72 
   1   5   1    4.99    0.32 
   2   5   1    7.56    0.40 
   3   5   1    3.57    0.33 
   4   5   1    6.49    0.45 
   5   5   1    0.50    0.50 
   6   5   1    1.15    0.64 
  -6   6   1   -0.01    0.81 
  -5   6   1    1.24    0.67 
  -4   6   1   -0.33    0.50 
  -3   6   1    7.26    0.76 
  -2   6   1    1.11    0.43 
  -1   6   1   11.57    0.76 
   0   6   1    2.78    0.29 
   1   6   1    0.75    0.24 
   2   6   1    1.37    0.26 
   3   6   1   15.48    0.57 
   4   6   1    0.10    0.41 
   5   6   1    4.26    0.73 
  -5   7   1    0.28    0.82 
  -4   7   1    0.12    0.64 
  -3   7   1    9.94    0.91 
  -2   7   1   13.63    1.01 
  -1   7   1    5.19    0.68 
   0   7   1    0.87    0.41 
   1   7   1   13.19    0.55 
   2   7   1    0.33    0.25 
   3   7   1   12.57    0.88 
   4   7   1    0.90    0.52 
   5   7   1    2.28    0.71 
  -4   8   1   -0.13    0.73 
  -3   8   1    0.26    0.66 
  -2   8   1    6.98    0.85 
  -1   8   1    1.74    0.58 
   0   8   1    8.76    0.84 
   1   8   1    2.22    0.49 
   2   8   1    2.30    0.53 
   3   8   1    0.05    0.46 
   4   8   1    0.67    0.56 
  -3   9   1    3.78    0.86 
  -2   9   1    5.42    0.89 
  -1   9   1    7.22    0.90 
   0   9   1    1.50    0.60 
   1   9   1    2.78    0.60 
  -1  10   1    5.33    0.89 
   0  10   1    2.10    0.71 
  -1 -10   2    1.05    0.81 
   0 -10   2    1.56    0.66 
   1 -10   2    0.20    0.47 
  -3  -9   2    0.98    0.41 
  -2  -9   2   14.53    0.75 
  -1  -9   2    5.98    0.85 
   0  -9   2    5.81    0.78 
   1  -9   2    2.66    0.46 
   2  -9   2    2.80    0.48 
   3  -9   2    2.93    0.51 
  -4  -8   2    1.18    0.31 
  -3  -8   2    1.22    0.34 
  -2  -8   2   12.98    0.65 
  -1  -8   2    1.07    0.25 
   0  -8   2    3.21    0.40 
   1  -8   2    1.81    0.39 
   2  -8   2    5.89    0.52 
   3  -8   2    2.06    0.43 
   4  -8   2    0.94    0.66 
  -5  -7   2    2.45    0.35 
  -4  -7   2    0.37    0.25 
  -3  -7   2   11.87    0.45 
  -2  -7   2    5.25    0.40 
  -1  -7   2    2.35    0.24 
   0  -7   2    8.61    0.50 
   1  -7   2   35.30    0.86 
   2  -7   2    0.02    0.29 
   3  -7   2    1.88    0.36 
   4  -7   2    1.88    0.64 
   5  -7   2    1.73    0.77 
  -6  -6   2    3.64    0.53 
  -5  -6   2    0.61    0.27 
  -4  -6   2    9.43    0.43 
  -3  -6   2   11.68    0.53 
  -2  -6   2    0.68    0.19 
  -1  -6   2    9.51    0.33 
   0  -6   2   19.83    0.44 
   1  -6   2    8.51    0.44 
   2  -6   2    2.65    0.32 
   3  -6   2    4.27    0.37 
   4  -6   2    2.48    0.54 
   5  -6   2   -1.12    0.55 
  -6  -5   2    2.84    0.41 
  -5  -5   2    0.46    0.23 
  -4  -5   2   13.28    0.53 
  -3  -5   2   17.37    0.56 
  -2  -5   2    8.87    0.31 
  -1  -5   2    1.84    0.17 
   0  -5   2   26.51    0.46 
   1  -5   2    3.68    0.29 
   2  -5   2    3.12    0.30 
   3  -5   2    0.56    0.24 
   4  -5   2    3.34    0.39 
   5  -5   2    2.77    0.62 
   6  -5   2    0.96    0.64 
  -7  -4   2    0.21    0.44 
  -6  -4   2    2.90    0.35 
  -5  -4   2    1.01    0.28 
  -4  -4   2    8.99    0.46 
  -3  -4   2    8.02    0.28 
  -2  -4   2    9.46    0.27 
  -1  -4   2   78.98    0.92 
   0  -4   2    4.00    0.18 
   1  -4   2   29.69    0.59 
   2  -4   2    5.85    0.33 
   3  -4   2    9.57    0.36 
   4  -4   2    1.40    0.22 
   5  -4   2    4.60    0.45 
   6  -4   2    1.50    0.42 
  -7  -3   2    0.43    0.40 
  -6  -3   2    7.71    0.43 
  -5  -3   2   17.48    0.61 
  -4  -3   2    9.01    0.41 
  -3  -3   2    5.66    0.24 
  -2  -3   2   24.85    0.41 
  -1  -3   2   22.18    0.36 
   0  -3   2   21.33    0.33 
   1  -3   2   67.23    0.95 
   2  -3   2   69.72    0.85 
   3  -3   2   27.07    0.49 
   4  -3   2   23.54    0.51 
   5  -3   2    1.30    0.33 
   6  -3   2    1.79    0.59 
  -7  -2   2    0.74    0.38 
  -6  -2   2    8.93    0.44 
  -5  -2   2   34.02    0.79 
  -4  -2   2   32.89    0.55 
  -3  -2   2   70.39    0.85 
  -2  -2   2   16.85    0.30 
  -1  -2   2   77.24    0.83 
   0  -2   2  286.71    2.66 
   1  -2   2   38.93    0.49 
   2  -2   2   32.51    0.46 
   3  -2   2    1.09    0.14 
   4  -2   2    4.77    0.25 
   5  -2   2    1.28    0.27 
   6  -2   2    0.10    0.50 
   7  -2   2    0.32    0.61 
  -7  -1   2    1.01    0.40 
  -6  -1   2    2.25    0.27 
  -5  -1   2   51.41    0.80 
  -4  -1   2   33.19    0.55 
  -3  -1   2  115.93    1.50 
  -2  -1   2    7.74    0.24 
  -1  -1   2  271.55    3.01 
   0  -1   2  391.81    3.53 
   1  -1   2  139.39    1.32 
   2  -1   2   80.80    0.86 
   3  -1   2  103.34    1.12 
   4  -1   2   16.63    0.37 
   5  -1   2   19.59    0.96 
   6  -1   2    0.78    0.46 
   7  -1   2    0.90    0.60 
  -7   0   2    2.06    0.44 
  -6   0   2    2.29    0.29 
  -5   0   2   10.38    0.38 
  -4   0   2   34.88    0.69 
  -3   0   2   18.89    0.58 
  -2   0   2   13.22    0.43 
  -1   0   2    0.98    0.14 
   0   0   2   20.48    0.30 
   1   0   2   73.15    1.35 
   2   0   2   16.58    0.39 
   3   0   2    4.36    0.30 
   4   0   2   28.00    0.69 
   5   0   2    0.03    0.29 
   6   0   2   19.83    1.06 
   7   0   2    0.39    0.55 
  -6   1   2    2.57    0.24 
  -5   1   2   51.98    1.05 
  -4   1   2   35.18    1.04 
  -3   1   2  114.90    2.18 
  -2   1   2    7.73    0.37 
  -1   1   2  253.01    4.25 
   0   1   2  389.45    4.33 
   1   1   2  137.13    1.67 
   2   1   2   80.22    1.13 
   3   1   2  106.03    1.49 
   4   1   2   17.58    0.57 
   5   1   2   19.73    0.68 
   6   1   2    1.45    0.38 
  -6   2   2    9.85    0.87 
  -5   2   2   34.29    0.85 
  -4   2   2   31.48    0.71 
  -3   2   2   70.82    1.05 
  -2   2   2   15.91    0.57 
  -1   2   2   74.42    1.48 
   0   2   2  292.27    3.27 
   1   2   2   40.11    0.63 
   2   2   2   32.75    0.61 
   3   2   2    1.27    0.19 
   4   2   2    5.40    0.38 
   5   2   2    1.10    0.30 
   6   2   2    0.15    0.34 
   7   2   2    1.02    0.74 
  -7   3   2    0.23    0.65 
  -6   3   2    7.91    0.82 
  -5   3   2   18.72    0.99 
  -4   3   2    9.66    0.73 
  -3   3   2    6.08    0.51 
  -2   3   2   24.40    0.80 
  -1   3   2   21.83    0.69 
   0   3   2   21.62    0.41 
   1   3   2   66.42    0.98 
   2   3   2   70.25    1.07 
   3   3   2   26.86    0.64 
   4   3   2   24.00    0.67 
   5   3   2    1.34    0.30 
   6   3   2    1.73    0.67 
  -7   4   2   -0.10    0.74 
  -6   4   2    3.27    0.69 
  -5   4   2    1.97    0.55 
  -4   4   2    8.40    0.73 
  -3   4   2    8.32    0.66 
  -2   4   2    9.44    0.58 
  -1   4   2   76.80    1.71 
   0   4   2    4.11    0.24 
   1   4   2   28.80    0.59 
   2   4   2    6.52    0.36 
   3   4   2    9.68    0.45 
   4   4   2    1.20    0.25 
   5   4   2    4.87    0.44 
   6   4   2    1.35    0.66 
  -6   5   2    2.46    0.80 
  -5   5   2    1.13    0.56 
  -4   5   2   13.80    0.91 
  -3   5   2   16.87    0.91 
  -2   5   2    9.66    0.67 
  -1   5   2    1.27    0.37 
   0   5   2   27.12    0.59 
   1   5   2    3.53    0.28 
   2   5   2    3.13    0.29 
   3   5   2    0.33    0.22 
   4   5   2    3.97    0.38 
   5   5   2    2.58    0.63 
   6   5   2    0.80    0.69 
  -6   6   2    3.36    0.87 
  -5   6   2   -0.55    0.60 
  -4   6   2    8.59    0.90 
  -3   6   2   11.01    0.86 
  -2   6   2    0.75    0.43 
  -1   6   2    9.67    0.76 
   0   6   2   19.55    0.57 
   1   6   2    8.43    0.43 
   2   6   2    3.23    0.34 
   3   6   2    4.29    0.38 
   4   6   2    2.49    0.57 
   5   6   2    0.13    0.52 
  -5   7   2    2.24    0.85 
  -4   7   2    1.30    0.61 
  -3   7   2   11.75    1.04 
  -2   7   2    6.58    0.76 
  -1   7   2    1.62    0.50 
   0   7   2    8.24    0.75 
   1   7   2   33.63    0.83 
   2   7   2    0.02    0.25 
   3   7   2    1.80    0.32 
   4   7   2    1.27    0.58 
   5   7   2    1.74    0.67 
  -4   8   2   -0.21    0.75 
  -3   8   2    1.02    0.68 
  -2   8   2   12.57    1.10 
  -1   8   2    0.31    0.52 
   0   8   2    2.73    0.60 
   1   8   2    3.02    0.53 
   2   8   2    7.42    0.71 
   3   8   2    1.92    0.56 
   4   8   2    0.32    0.62 
  -3   9   2    0.69    0.90 
  -2   9   2   11.89    1.16 
  -1   9   2    7.18    0.87 
   0   9   2    5.01    0.73 
   1   9   2    3.84    0.69 
  -1  10   2    1.36    0.77 
   0  10   2    1.84    0.74 
   0 -10   3    1.57    0.51 
  -3  -9   3    3.64    0.50 
  -2  -9   3    0.41    0.62 
  -1  -9   3    3.40    0.70 
   0  -9   3    2.38    0.44 
   1  -9   3    0.34    0.39 
   2  -9   3    1.28    0.46 
   3  -9   3    4.36    0.64 
  -4  -8   3    0.71    0.29 
  -3  -8   3    1.50    0.37 
  -2  -8   3   11.63    0.63 
  -1  -8   3    1.90    0.36 
   0  -8   3    5.26    0.46 
   1  -8   3    0.42    0.34 
   2  -8   3    0.35    0.35 
   3  -8   3    0.92    0.41 
   4  -8   3    1.26    0.74 
  -5  -7   3    3.10    0.36 
  -4  -7   3    0.89    0.32 
  -3  -7   3   10.80    0.60 
  -2  -7   3    3.42    0.28 
  -1  -7   3   -0.15    0.18 
   0  -7   3    0.81    0.27 
   1  -7   3    4.75    0.39 
   2  -7   3   14.49    0.61 
   3  -7   3    0.18    0.33 
   4  -7   3    0.38    0.61 
   5  -7   3    1.57    0.72 
  -6  -6   3    1.38    0.36 
  -5  -6   3    1.25    0.36 
  -4  -6   3   13.22    0.63 
  -3  -6   3    0.70    0.25 
  -2  -6   3   20.17    0.48 
  -1  -6   3   12.09    0.37 
   0  -6   3   22.32    0.47 
   1  -6   3    0.85    0.26 
   2  -6   3   25.87    0.70 
   3  -6   3    5.24    0.42 
   4  -6   3    1.22    0.55 
   5  -6   3    2.68    0.67 
  -6  -5   3    0.66    0.28 
  -5  -5   3    1.25    0.32 
  -4  -5   3   11.81    0.52 
  -3  -5   3   17.14    0.43 
  -2  -5   3   18.23    0.42 
  -1  -5   3    1.88    0.18 
   0  -5   3    9.69    0.29 
   1  -5   3    3.25    0.29 
   2  -5   3    6.50    0.37 
   3  -5   3    9.15    0.45 
   4  -5   3    9.68    0.78 
   5  -5   3    4.19    0.66 
   6  -5   3    2.09    0.70 
  -7  -4   3    0.78    0.44 
  -6  -4   3    2.03    0.30 
  -5  -4   3    7.60    0.49 
  -4  -4   3    4.02    0.35 
  -3  -4   3    4.71    0.26 
  -2  -4   3    2.56    0.19 
  -1  -4   3   97.10    1.09 
   0  -4   3   25.41    0.41 
   1  -4   3   49.42    0.83 
   2  -4   3   23.21    0.46 
   3  -4   3   24.56    0.51 
   4  -4   3    6.56    0.46 
   5  -4   3    9.59    0.59 
   6  -4   3    1.20    0.48 
  -7  -3   3    1.95    0.43 
  -6  -3   3    3.93    0.42 
  -5  -3   3    8.37    0.49 
  -4  -3   3    1.23    0.18 
  -3  -3   3   10.15    0.30 
  -2  -3   3    8.66    0.25 
  -1  -3   3   25.29    0.40 
   0  -3   3   71.55    0.80 
   1  -3   3   96.31    1.06 
   2  -3   3   10.00    0.28 
   3  -3   3   20.20    0.42 
   4  -3   3    7.12    0.44 
   5  -3   3    0.61    0.31 
   6  -3   3    5.18    0.75 
  -7  -2   3    0.13    0.37 
  -6  -2   3    2.49    0.36 
  -5  -2   3   14.87    0.56 
  -4  -2   3    6.35    0.29 
  -3  -2   3   32.05    0.51 
  -2  -2   3    5.48    0.19 
  -1  -2   3   55.51    0.80 
   0  -2   3  335.73    3.10 
   1  -2   3  295.67    2.78 
   2  -2   3   31.90    0.46 
   3  -2   3    8.82    0.26 
   4  -2   3   21.10    0.59 
   5  -2   3    3.32    0.35 
   6  -2   3    2.15    0.59 
   7  -2   3    5.31    0.85 
  -7  -1   3    2.53    0.41 
  -6  -1   3    0.65    0.30 
  -5  -1   3    9.95    0.38 
  -4  -1   3   13.96    0.44 
  -3  -1   3   16.68    0.42 
  -2  -1   3   31.92    0.55 
  -1  -1   3  243.60    2.79 
   0  -1   3  520.27    4.69 
   1  -1   3  373.58    4.20 
   2  -1   3    4.86    0.22 
   3  -1   3   10.46    0.36 
   4  -1   3   11.36    0.42 
   5  -1   3   16.90    0.91 
   6  -1   3    6.45    0.73 
   7  -1   3    0.77    0.58 
  -7   0   3    2.49    0.56 
  -6   0   3    2.80    0.36 
  -5   0   3    0.19    0.19 
  -4   0   3   84.79    1.29 
  -3   0   3    3.21    0.21 
  -2   0   3   79.02    1.02 
  -1   0   3  164.86    2.79 
   0   0   3  116.94    1.39 
   1   0   3   36.79    0.82 
   2   0   3   -0.12    0.14 
   3   0   3    7.41    0.48 
   4   0   3    2.27    0.40 
   5   0   3   21.29    1.01 
   6   0   3   -0.37    0.43 
   7   0   3    0.50    0.55 
  -6   1   3    0.44    0.29 
  -5   1   3    9.74    0.50 
  -4   1   3   13.50    0.66 
  -3   1   3   16.51    0.60 
  -2   1   3   33.15    0.79 
  -1   1   3  245.81    3.95 
   0   1   3  520.31    5.75 
   1   1   3  372.84    4.23 
   2   1   3    4.91    0.26 
   3   1   3    9.95    0.40 
   4   1   3   10.71    0.49 
   5   1   3   16.10    0.64 
   6   1   3    6.76    0.73 
   7   1   3    0.14    0.57 
  -6   2   3    1.07    0.54 
  -5   2   3   14.72    0.85 
  -4   2   3    5.49    0.34 
  -3   2   3   31.89    0.93 
  -2   2   3    5.50    0.38 
  -1   2   3   56.76    1.19 
   0   2   3  338.63    3.80 
   1   2   3  298.41    3.46 
   2   2   3   32.38    0.63 
   3   2   3    8.73    0.38 
   4   2   3   20.31    0.65 
   5   2   3    3.78    0.40 
   6   2   3    2.38    0.42 
  -6   3   3    4.30    0.73 
  -5   3   3    7.36    0.75 
  -4   3   3    1.44    0.40 
  -3   3   3   10.71    0.62 
  -2   3   3    8.48    0.48 
  -1   3   3   23.66    0.77 
   0   3   3   72.35    0.99 
   1   3   3   96.34    1.32 
   2   3   3    9.90    0.36 
   3   3   3   20.45    0.58 
   4   3   3    7.79    0.47 
   5   3   3    0.78    0.29 
   6   3   3    4.74    0.49 
  -7   4   3    0.74    0.78 
  -6   4   3    2.96    0.70 
  -5   4   3    7.51    0.78 
  -4   4   3    4.59    0.59 
  -3   4   3    4.05    0.51 
  -2   4   3    2.67    0.40 
  -1   4   3   96.67    2.04 
   0   4   3   25.79    0.52 
   1   4   3   48.99    0.84 
   2   4   3   22.71    0.58 
   3   4   3   24.75    0.67 
   4   4   3    6.81    0.46 
   5   4   3   11.29    0.61 
   6   4   3    2.79    0.77 
  -6   5   3   -0.12    0.65 
  -5   5   3    1.45    0.58 
  -4   5   3   11.02    0.89 
  -3   5   3   17.49    0.91 
  -2   5   3   17.47    0.86 
  -1   5   3    1.52    0.38 
   0   5   3    9.86    0.37 
   1   5   3    3.37    0.29 
   2   5   3    6.46    0.40 
   3   5   3    9.39    0.50 
   4   5   3    9.83    0.55 
   5   5   3    4.88    0.74 
   6   5   3    1.64    0.76 
  -6   6   3    0.25    0.83 
  -5   6   3    0.26    0.69 
  -4   6   3   13.75    0.98 
  -3   6   3    0.75    0.47 
  -2   6   3   20.29    1.00 
  -1   6   3   12.54    0.82 
   0   6   3   23.26    0.98 
   1   6   3    0.91    0.26 
   2   6   3   25.76    0.71 
   3   6   3    5.73    0.44 
   4   6   3    0.91    0.30 
   5   6   3    3.07    0.70 
  -5   7   3    3.13    0.87 
  -4   7   3    0.85    0.64 
  -3   7   3   11.41    1.01 
  -2   7   3    3.84    0.68 
  -1   7   3    0.34    0.42 
   0   7   3    0.87    0.44 
   1   7   3    4.79    0.60 
   2   7   3   14.21    0.60 
   3   7   3    0.87    0.31 
   4   7   3    0.97    0.53 
   5   7   3    0.78    0.66 
  -4   8   3    0.95    0.77 
  -3   8   3    0.93    0.70 
  -2   8   3   12.85    1.09 
  -1   8   3    2.82    0.62 
   0   8   3    6.47    0.75 
   1   8   3    0.11    0.45 
   2   8   3    0.44    0.46 
   3   8   3    0.45    0.73 
   4   8   3    1.13    0.62 
  -3   9   3    2.39    0.92 
  -2   9   3    0.75    0.72 
  -1   9   3    2.97    0.77 
   0   9   3    2.18    0.63 
   1   9   3    0.39    0.54 
   0  10   3    0.84    0.66 
  -3  -9   4    0.98    0.42 
  -2  -9   4    0.32    0.57 
  -1  -9   4   -0.01    0.40 
   0  -9   4    3.07    0.46 
   1  -9   4    0.46    0.41 
   2  -9   4    0.00    0.43 
  -4  -8   4   -0.12    0.37 
  -3  -8   4    2.31    0.40 
  -2  -8   4    1.06    0.31 
  -1  -8   4    5.59    0.48 
   0  -8   4    6.54    0.52 
   1  -8   4    3.05    0.40 
   2  -8   4    1.27    0.37 
   3  -8   4    1.91    0.68 
  -5  -7   4    0.73    0.40 
  -4  -7   4    6.57    0.52 
  -3  -7   4    1.45    0.32 
  -2  -7   4    0.48    0.21 
  -1  -7   4    6.10    0.33 
   0  -7   4    4.07    0.39 
   1  -7   4   21.99    0.71 
   2  -7   4    8.15    0.53 
   3  -7   4    1.94    0.59 
   4  -7   4   -0.05    0.63 
  -6  -6   4    1.66    0.36 
  -5  -6   4    6.96    0.53 
  -4  -6   4    9.37    0.55 
  -3  -6   4    3.96    0.37 
  -2  -6   4   22.99    0.53 
  -1  -6   4   18.33    0.45 
   0  -6   4    2.09    0.30 
   1  -6   4   28.68    0.73 
   2  -6   4   29.13    0.74 
   3  -6   4    0.93    0.45 
   4  -6   4    0.99    0.56 
   5  -6   4    1.15    0.64 
  -6  -5   4    0.98    0.38 
  -5  -5   4    4.01    0.41 
  -4  -5   4    2.76    0.33 
  -3  -5   4    0.05    0.17 
  -2  -5   4    2.70    0.22 
  -1  -5   4   11.71    0.34 
   0  -5   4   21.44    0.42 
   1  -5   4    4.48    0.33 
   2  -5   4    7.92    0.63 
   3  -5   4    2.04    0.29 
   4  -5   4    0.39    0.32 
   5  -5   4    1.53    0.44 
  -7  -4   4    0.43    0.41 
  -6  -4   4    1.44    0.35 
  -5  -4   4    5.30    0.43 
  -4  -4   4   12.58    0.40 
  -3  -4   4   21.78    0.47 
  -2  -4   4    6.65    0.28 
  -1  -4   4   30.77    0.49 
   0  -4   4    3.23    0.25 
   1  -4   4    0.56    0.17 
   2  -4   4    8.17    0.31 
   3  -4   4   60.54    0.91 
   4  -4   4    5.89    0.46 
   5  -4   4    5.16    0.48 
   6  -4   4    1.41    0.70 
  -7  -3   4    0.50    0.38 
  -6  -3   4    1.51    0.33 
  -5  -3   4    3.03    0.34 
  -4  -3   4    2.89    0.31 
  -3  -3   4   27.25    0.49 
  -2  -3   4   12.11    0.30 
  -1  -3   4   11.01    0.26 
   0  -3   4   26.94    0.42 
   1  -3   4   31.82    0.49 
   2  -3   4   40.75    0.60 
   3  -3   4   20.34    0.48 
   4  -3   4   19.70    0.63 
   5  -3   4    0.78    0.31 
   6  -3   4    2.62    0.67 
  -7  -2   4    0.49    0.34 
  -6  -2   4    1.04    0.33 
  -5  -2   4    2.20    0.25 
  -4  -2   4   33.17    0.59 
  -3  -2   4   24.51    0.55 
  -2  -2   4   99.22    1.35 
  -1  -2   4   20.09    0.42 
   0  -2   4  371.49    3.44 
   1  -2   4    9.77    0.23 
   2  -2   4   17.39    0.44 
   3  -2   4   12.78    0.44 
   4  -2   4   29.41    0.71 
   5  -2   4    4.61    0.62 
   6  -2   4    1.45    0.54 
  -7  -1   4    0.39    0.52 
  -6  -1   4    0.54    0.31 
  -5  -1   4    7.87    0.36 
  -4  -1   4    7.69    0.39 
  -3  -1   4   14.93    0.42 
  -2  -1   4   39.86    0.66 
  -1  -1   4   51.65    0.76 
   0  -1   4   48.95    0.56 
   1  -1   4   36.80    0.59 
   2  -1   4   69.33    1.00 
   3  -1   4    2.45    0.23 
   4  -1   4   11.88    0.45 
   5  -1   4    2.26    0.48 
   6  -1   4    0.59    0.52 
  -7   0   4    0.27    0.31 
  -6   0   4    2.18    0.28 
  -5   0   4    0.51    0.24 
  -4   0   4    1.68    0.23 
  -3   0   4   25.11    0.49 
  -2   0   4   16.23    0.52 
  -1   0   4   63.97    0.85 
   0   0   4   64.32    0.86 
   1   0   4   92.51    1.18 
   2   0   4    1.77    0.27 
   3   0   4    9.19    0.55 
   4   0   4    0.83    0.33 
   5   0   4   31.55    1.24 
   6   0   4   -0.36    0.48 
  -6   1   4    1.12    0.31 
  -5   1   4    7.97    0.46 
  -4   1   4    6.57    0.36 
  -3   1   4   15.52    0.42 
  -2   1   4   37.25    0.63 
  -1   1   4   50.60    0.74 
   0   1   4   50.00    0.69 
   1   1   4   36.37    0.88 
   2   1   4   70.49    1.08 
   3   1   4    2.80    0.28 
   4   1   4   11.68    0.54 
   5   1   4    2.21    0.45 
   6   1   4   -0.04    0.47 
  -7   2   4    1.13    0.61 
  -6   2   4    1.29    0.36 
  -5   2   4    2.63    0.50 
  -4   2   4   34.29    1.07 
  -3   2   4   25.04    0.81 
  -2   2   4   95.40    1.92 
  -1   2   4   19.89    0.63 
   0   2   4  374.20    3.43 
   1   2   4    9.53    0.31 
   2   2   4   17.69    0.47 
   3   2   4   13.29    0.48 
   4   2   4   29.21    0.79 
   5   2   4    4.35    0.44 
   6   2   4    1.37    0.40 
  -7   3   4    0.17    0.61 
  -6   3   4    1.63    0.56 
  -5   3   4    2.93    0.53 
  -4   3   4    2.67    0.46 
  -3   3   4   26.02    0.92 
  -2   3   4   12.57    0.58 
  -1   3   4   11.03    0.53 
   0   3   4   26.10    0.80 
   1   3   4   32.27    0.62 
   2   3   4   42.01    0.79 
   3   3   4   19.85    0.60 
   4   3   4   17.48    0.64 
   5   3   4    1.12    0.34 
   6   3   4    1.71    0.44 
  -7   4   4    0.78    0.94 
  -6   4   4    1.84    0.64 
  -5   4   4    5.80    0.72 
  -4   4   4   12.91    0.86 
  -3   4   4   21.34    0.91 
  -2   4   4    5.97    0.53 
  -1   4   4   29.91    0.96 
   0   4   4    3.61    0.39 
   1   4   4    0.67    0.17 
   2   4   4    8.38    0.39 
   3   4   4   59.22    1.13 
   4   4   4    6.35    0.46 
   5   4   4    5.58    0.49 
   6   4   4    1.29    0.73 
  -6   5   4    1.15    0.77 
  -5   5   4    2.18    0.66 
  -4   5   4    2.43    0.56 
  -3   5   4    0.89    0.46 
  -2   5   4    3.72    0.52 
  -1   5   4   12.14    0.71 
   0   5   4   21.60    0.52 
   1   5   4    4.01    0.32 
   2   5   4    6.92    0.43 
   3   5   4    2.20    0.30 
   4   5   4    0.24    0.26 
   5   5   4    1.72    0.37 
  -6   6   4    1.53    0.78 
  -5   6   4    6.95    0.89 
  -4   6   4    8.93    0.93 
  -3   6   4    3.24    0.59 
  -2   6   4   23.84    1.13 
  -1   6   4   19.77    0.96 
   0   6   4    1.96    0.43 
   1   6   4   27.48    0.72 
   2   6   4   28.68    0.77 
   3   6   4    0.28    0.26 
   4   6   4    1.21    0.34 
   5   6   4   -0.31    0.60 
  -5   7   4    0.94    0.79 
  -4   7   4    4.80    0.90 
  -3   7   4    1.35    0.58 
  -2   7   4   -0.07    0.50 
  -1   7   4    7.53    0.78 
   0   7   4    3.56    0.54 
   1   7   4   22.17    1.08 
   2   7   4    8.56    0.78 
   3   7   4    1.35    0.33 
   4   7   4   -0.17    0.52 
  -4   8   4   -0.14    0.71 
  -3   8   4    1.18    0.78 
  -2   8   4    1.15    0.66 
  -1   8   4    7.71    0.86 
   0   8   4    9.01    0.88 
   1   8   4    2.24    0.59 
   2   8   4    1.38    0.51 
   3   8   4    2.40    0.55 
  -3   9   4   -0.08    0.79 
  -2   9   4    1.06    0.67 
  -1   9   4    0.19    0.61 
   0   9   4    2.55    0.67 
   1   9   4    0.88    0.58 
   2   9   4    0.26    0.55 
  -3  -9   5    2.77    0.72 
  -2  -9   5    0.90    0.64 
  -1  -9   5    3.25    0.47 
   0  -9   5    2.41    0.46 
   1  -9   5    2.30    0.46 
   2  -9   5    2.42    0.51 
  -4  -8   5    2.01    0.44 
  -3  -8   5   -0.21    0.34 
  -2  -8   5    2.06    0.39 
  -1  -8   5    7.51    0.52 
   0  -8   5    2.78    0.41 
   1  -8   5    4.80    0.48 
   2  -8   5    1.09    0.39 
   3  -8   5    4.80    0.81 
  -5  -7   5    4.50    0.54 
  -4  -7   5    0.33    0.34 
  -3  -7   5    8.83    0.56 
  -2  -7   5    4.37    0.31 
  -1  -7   5    2.49    0.33 
   0  -7   5   13.50    0.59 
   1  -7   5    4.34    0.42 
   2  -7   5    4.40    0.42 
   3  -7   5    4.62    0.70 
   4  -7   5   -0.23    0.61 
  -6  -6   5    2.32    0.45 
  -5  -6   5    1.34    0.38 
  -4  -6   5    3.70    0.40 
  -3  -6   5    0.27    0.19 
  -2  -6   5    2.46    0.25 
  -1  -6   5    9.69    0.37 
   0  -6   5    5.69    0.41 
   1  -6   5   41.66    0.92 
   2  -6   5    7.86    0.46 
   3  -6   5    3.09    0.57 
   4  -6   5    0.14    0.55 
   5  -6   5    4.67    0.77 
  -6  -5   5    5.70    0.53 
  -5  -5   5    1.29    0.35 
  -4  -5   5    3.10    0.35 
  -3  -5   5   43.77    0.74 
  -2  -5   5   74.38    1.00 
  -1  -5   5   17.93    0.41 
   0  -5   5    1.11    0.23 
   1  -5   5   70.28    1.15 
   2  -5   5  193.08    2.52 
   3  -5   5    4.56    0.43 
   4  -5   5    0.49    0.35 
   5  -5   5    5.01    0.54 
  -7  -4   5    3.58    0.51 
  -6  -4   5    0.99    0.36 
  -5  -4   5    9.72    0.56 
  -4  -4   5   14.56    0.44 
  -3  -4   5   37.45    0.65 
  -2  -4   5   12.88    0.36 
  -1  -4   5   44.76    0.64 
   0  -4   5    3.94    0.29 
   1  -4   5  101.92    1.19 
   2  -4   5   14.90    0.40 
   3  -4   5   60.98    1.15 
   4  -4   5    4.61    0.44 
   5  -4   5    1.12    0.38 
   6  -4   5    0.96    0.67 
  -7  -3   5    1.79    0.43 
  -6  -3   5    2.29    0.39 
  -5  -3   5   10.60    0.56 
  -4  -3   5   69.60    0.98 
  -3  -3   5    2.81    0.22 
  -2  -3   5    3.20    0.20 
  -1  -3   5   69.84    1.06 
   0  -3   5  505.17    4.63 
   1  -3   5   42.17    0.59 
   2  -3   5    0.69    0.14 
   3  -3   5   19.29    0.59 
   4  -3   5   47.81    1.00 
   5  -3   5    1.04    0.48 
   6  -3   5    0.54    0.63 
  -7  -2   5    2.18    0.42 
  -6  -2   5    1.24    0.34 
  -5  -2   5    9.18    0.40 
  -4  -2   5    0.86    0.22 
  -3  -2   5    1.43    0.20 
  -2  -2   5   16.55    0.43 
  -1  -2   5  141.20    1.81 
   0  -2   5   35.18    0.47 
   1  -2   5   27.98    0.42 
   2  -2   5    3.10    0.25 
   3  -2   5   11.69    0.45 
   4  -2   5   10.39    0.48 
   5  -2   5    2.60    0.58 
   6  -2   5    0.96    0.58 
  -7  -1   5    0.03    0.36 
  -6  -1   5    2.30    0.30 
  -5  -1   5   19.85    0.63 
  -4  -1   5    3.90    0.31 
  -3  -1   5   27.51    0.59 
  -2  -1   5   16.05    0.41 
  -1  -1   5  129.21    1.64 
   0  -1   5   64.93    0.72 
   1  -1   5   37.61    0.62 
   2  -1   5   17.90    0.43 
   3  -1   5    4.65    0.29 
   4  -1   5   16.00    0.87 
   5  -1   5    7.01    0.72 
   6  -1   5    0.86    0.58 
  -7   0   5    2.56    0.42 
  -6   0   5    6.70    0.48 
  -5   0   5    0.41    0.25 
  -4   0   5    6.92    0.35 
  -3   0   5    9.50    0.48 
  -2   0   5    6.29    0.36 
  -1   0   5    0.78    0.12 
   0   0   5    4.17    0.20 
   1   0   5   21.51    0.41 
   2   0   5    5.52    0.41 
   3   0   5   40.78    1.19 
   4   0   5    6.68    0.63 
   5   0   5   10.44    0.85 
   6   0   5   -0.55    0.50 
  -7   1   5    0.19    0.46 
  -6   1   5    2.61    0.37 
  -5   1   5   22.51    0.70 
  -4   1   5    4.10    0.44 
  -3   1   5   27.35    0.57 
  -2   1   5   15.43    0.38 
  -1   1   5  127.97    1.61 
   0   1   5   65.50    0.90 
   1   1   5   36.22    0.94 
   2   1   5   17.34    0.68 
   3   1   5    4.77    0.48 
   4   1   5   17.06    0.86 
   5   1   5    6.82    0.71 
   6   1   5    0.17    0.49 
  -7   2   5    0.83    0.39 
  -6   2   5   -0.28    0.49 
  -5   2   5    9.15    0.51 
  -4   2   5    0.86    0.34 
  -3   2   5    0.97    0.27 
  -2   2   5   16.74    0.64 
  -1   2   5  140.43    1.79 
   0   2   5   34.84    0.58 
   1   2   5   29.22    0.58 
   2   2   5    3.37    0.28 
   3   2   5   12.12    0.49 
   4   2   5    9.81    0.55 
   5   2   5    3.33    0.43 
   6   2   5    1.17    0.52 
  -7   3   5    1.13    0.68 
  -6   3   5    2.36    0.62 
  -5   3   5    9.83    0.80 
  -4   3   5   73.30    1.79 
  -3   3   5    3.14    0.45 
  -2   3   5    3.22    0.40 
  -1   3   5   66.88    1.54 
   0   3   5  503.49    8.18 
   1   3   5   42.17    0.76 
   2   3   5    0.41    0.19 
   3   3   5   19.50    0.63 
   4   3   5   47.42    1.06 
   5   3   5    1.15    0.36 
   6   3   5    0.88    0.43 
  -6   4   5    0.81    0.66 
  -5   4   5   10.12    0.90 
  -4   4   5   16.08    0.90 
  -3   4   5   37.82    1.25 
  -2   4   5   12.74    0.74 
  -1   4   5   44.54    1.24 
   0   4   5    4.44    0.45 
   1   4   5  101.04    1.47 
   2   4   5   15.40    0.52 
   3   4   5   61.81    1.18 
   4   4   5    4.35    0.42 
   5   4   5    2.29    0.39 
   6   4   5    0.55    0.43 
  -6   5   5    5.80    0.87 
  -5   5   5    1.86    0.58 
  -4   5   5    3.53    0.63 
  -3   5   5   46.77    1.48 
  -2   5   5   77.28    1.93 
  -1   5   5   19.14    0.86 
   0   5   5    0.55    0.30 
   1   5   5   66.82    1.15 
   2   5   5  187.93    2.59 
   3   5   5    6.17    0.46 
   4   5   5    0.72    0.31 
   5   5   5    5.45    0.53 
  -6   6   5    2.07    0.88 
  -5   6   5    1.54    0.70 
  -4   6   5    2.95    0.67 
  -3   6   5    0.76    0.51 
  -2   6   5    2.54    0.52 
  -1   6   5   10.23    0.82 
   0   6   5    5.46    0.63 
   1   6   5   40.96    1.36 
   2   6   5    7.50    0.48 
   3   6   5    3.25    0.38 
   4   6   5    0.12    0.31 
   5   6   5    5.04    0.83 
  -5   7   5    3.39    0.91 
  -4   7   5    0.63    0.68 
  -3   7   5    9.52    0.99 
  -2   7   5    3.88    0.63 
  -1   7   5    2.68    0.56 
   0   7   5   14.76    0.93 
   1   7   5    4.17    0.64 
   2   7   5    5.16    0.63 
   3   7   5    5.11    0.48 
   4   7   5    0.40    0.36 
  -4   8   5    0.61    0.86 
  -3   8   5   -0.13    0.70 
  -2   8   5    1.61    0.65 
  -1   8   5    8.77    0.91 
   0   8   5    3.17    0.65 
   1   8   5    5.29    0.73 
   2   8   5    2.04    0.55 
   3   8   5    4.78    0.68 
  -3   9   5    2.17    0.92 
  -2   9   5    0.91    0.74 
  -1   9   5    2.75    0.76 
   0   9   5    3.42    0.69 
   1   9   5    3.70    0.69 
   2   9   5    3.38    0.68 
  -2  -9   6    1.38    0.69 
  -1  -9   6    1.76    0.47 
   0  -9   6    0.92    0.45 
   1  -9   6    1.53    0.45 
  -4  -8   6    4.89    0.54 
  -3  -8   6    0.58    0.36 
  -2  -8   6    1.84    0.40 
  -1  -8   6    4.80    0.47 
   0  -8   6    2.86    0.42 
   1  -8   6    0.99    0.40 
   2  -8   6    0.75    0.58 
   3  -8   6    4.97    0.81 
  -5  -7   6    1.14    0.45 
  -4  -7   6    3.11    0.45 
  -3  -7   6    8.89    0.49 
  -2  -7   6   21.57    0.57 
  -1  -7   6    2.90    0.37 
   0  -7   6    3.46    0.39 
   1  -7   6    5.94    0.46 
   2  -7   6   10.98    0.89 
   3  -7   6    4.73    0.74 
   4  -7   6    2.35    0.73 
  -6  -6   6    5.68    0.60 
  -5  -6   6    4.49    0.48 
  -4  -6   6    2.29    0.35 
  -3  -6   6   35.54    0.70 
  -2  -6   6   21.63    0.52 
  -1  -6   6    0.87    0.27 
   0  -6   6    0.58    0.27 
   1  -6   6   11.93    0.55 
   2  -6   6   37.25    1.31 
   3  -6   6    2.12    0.58 
   4  -6   6    0.23    0.56 
   5  -6   6    2.48    0.79 
  -6  -5   6    4.47    0.52 
  -5  -5   6    5.31    0.50 
  -4  -5   6   28.67    0.64 
  -3  -5   6   14.77    0.45 
  -2  -5   6   33.16    0.62 
  -1  -5   6    5.07    0.27 
   0  -5   6    6.57    0.40 
   1  -5   6   94.32    1.45 
   2  -5   6   10.50    0.45 
   3  -5   6    0.90    0.32 
   4  -5   6    0.94    0.40 
   5  -5   6    1.43    0.48 
  -6  -4   6    0.29    0.35 
  -5  -4   6   17.19    0.68 
  -4  -4   6   13.96    0.45 
  -3  -4   6   55.60    0.84 
  -2  -4   6   14.64    0.39 
  -1  -4   6   38.94    0.60 
   0  -4   6    8.58    0.37 
   1  -4   6   50.50    0.73 
   2  -4   6    7.15    0.38 
   3  -4   6   16.43    0.59 
   4  -4   6    1.80    0.37 
   5  -4   6    0.53    0.42 
  -7  -3   6    0.19    0.42 
  -6  -3   6    1.60    0.40 
  -5  -3   6    4.84    0.33 
  -4  -3   6   33.10    0.64 
  -3  -3   6    4.11    0.32 
  -2  -3   6    3.24    0.28 
  -1  -3   6   73.44    1.13 
   0  -3   6   38.44    0.55 
   1  -3   6    4.52    0.21 
   2  -3   6    8.44    0.42 
   3  -3   6   14.86    0.54 
   4  -3   6    5.43    0.43 
   5  -3   6    3.30    0.62 
   6  -3   6    0.86    0.63 
  -7  -2   6    2.51    0.46 
  -6  -2   6    0.82    0.33 
  -5  -2   6   10.30    0.55 
  -4  -2   6   17.27    0.57 
  -3  -2   6    1.09    0.19 
  -2  -2   6    6.02    0.33 
  -1  -2   6  158.32    2.04 
   0  -2   6  236.25    2.28 
   1  -2   6    0.23    0.09 
   2  -2   6    8.08    0.36 
   3  -2   6    2.55    0.29 
   4  -2   6   31.28    0.77 
   5  -2   6    1.40    0.57 
   6  -2   6    2.58    0.68 
  -7  -1   6   -0.03    0.39 
  -6  -1   6    4.97    0.44 
  -5  -1   6   20.11    0.66 
  -4  -1   6    6.82    0.41 
  -3  -1   6   29.82    0.65 
  -2  -1   6    7.30    0.31 
  -1  -1   6  166.27    2.07 
   0  -1   6  175.21    1.74 
   1  -1   6    8.49    0.30 
   2  -1   6   21.56    0.50 
   3  -1   6   16.55    0.47 
   4  -1   6    1.55    0.42 
   5  -1   6    5.78    0.73 
   6  -1   6    1.92    0.61 
  -7   0   6    1.16    0.38 
  -6   0   6   11.05    0.60 
  -5   0   6    2.31    0.32 
  -4   0   6    5.94    0.38 
  -3   0   6   44.56    1.12 
  -2   0   6   23.16    0.71 
  -1   0   6   15.45    0.36 
   0   0   6   38.36    0.63 
   1   0   6    2.28    0.18 
   2   0   6   33.12    0.99 
   3   0   6    0.52    0.29 
   4   0   6    2.72    0.47 
   5   0   6    1.12    0.49 
   6   0   6    0.04    0.58 
  -7   1   6    1.03    0.40 
  -6   1   6    5.06    0.46 
  -5   1   6   19.72    0.92 
  -4   1   6    7.75    0.40 
  -3   1   6   29.81    0.61 
  -2   1   6    6.80    0.28 
  -1   1   6  165.14    2.05 
   0   1   6  178.42    2.15 
   1   1   6    8.54    0.48 
   2   1   6   19.86    0.77 
   3   1   6   17.11    0.80 
   4   1   6    2.03    0.44 
   5   1   6    6.72    0.75 
   6   1   6    0.76    0.59 
  -7   2   6    3.27    0.49 
  -6   2   6    1.33    0.49 
  -5   2   6   10.37    0.55 
  -4   2   6   16.77    0.56 
  -3   2   6    0.82    0.20 
  -2   2   6    5.65    0.31 
  -1   2   6  159.42    2.02 
   0   2   6  238.15    2.80 
   1   2   6    0.09    0.18 
   2   2   6    8.00    0.54 
   3   2   6    2.80    0.42 
   4   2   6   31.37    1.18 
   5   2   6    1.05    0.47 
   6   2   6    2.55    0.60 
  -7   3   6    1.03    0.65 
  -6   3   6    1.85    0.57 
  -5   3   6    5.67    0.65 
  -4   3   6   32.89    1.18 
  -3   3   6    4.44    0.49 
  -2   3   6    3.52    0.43 
  -1   3   6   68.08    1.62 
   0   3   6   37.98    0.67 
   1   3   6    4.22    0.29 
   2   3   6    8.61    0.46 
   3   3   6   14.39    0.59 
   4   3   6    5.43    0.45 
   5   3   6    2.83    0.44 
   6   3   6   -0.52    0.51 
  -6   4   6    1.05    0.57 
  -5   4   6   18.29    1.03 
  -4   4   6   14.67    0.92 
  -3   4   6   57.08    1.60 
  -2   4   6   13.22    0.77 
  -1   4   6   39.21    1.17 
   0   4   6    7.46    0.55 
   1   4   6   50.23    0.93 
   2   4   6    7.18    0.45 
   3   4   6   14.91    0.61 
   4   4   6    2.17    0.36 
   5   4   6    1.59    0.39 
  -6   5   6    4.58    0.90 
  -5   5   6    5.80    0.84 
  -4   5   6   29.06    1.27 
  -3   5   6   15.48    0.98 
  -2   5   6   31.42    1.21 
  -1   5   6    5.03    0.57 
   0   5   6    5.52    0.58 
   1   5   6   92.20    1.46 
   2   5   6   10.63    0.52 
   3   5   6    1.28    0.31 
   4   5   6    1.05    0.35 
   5   5   6    1.79    0.43 
  -6   6   6    4.87    1.01 
  -5   6   6    3.60    0.83 
  -4   6   6    2.49    0.66 
  -3   6   6   33.39    1.41 
  -2   6   6   20.26    1.04 
  -1   6   6    1.01    0.43 
   0   6   6    0.61    0.38 
   1   6   6   11.90    0.81 
   2   6   6   40.98    1.06 
   3   6   6    2.02    0.37 
   4   6   6    0.22    0.35 
   5   6   6    2.82    0.61 
  -5   7   6    3.14    0.87 
  -4   7   6    3.56    0.86 
  -3   7   6    7.74    0.92 
  -2   7   6   22.08    1.18 
  -1   7   6    4.05    0.65 
   0   7   6    2.82    0.56 
   1   7   6    5.20    0.68 
   2   7   6   13.54    1.02 
   3   7   6    2.58    0.55 
   4   7   6    2.31    0.46 
  -4   8   6    3.64    0.99 
  -3   8   6    0.42    0.71 
  -2   8   6    2.51    0.71 
  -1   8   6    5.41    0.78 
   0   8   6    3.23    0.67 
   1   8   6    1.93    0.56 
   2   8   6    0.29    0.52 
   3   8   6    5.13    0.72 
  -2   9   6    1.42    0.75 
  -1   9   6    3.21    0.79 
   0   9   6    0.77    0.68 
   1   9   6    0.81    0.58 
  -2  -9   7    1.60    0.55 
  -1  -9   7    0.13    0.42 
   0  -9   7    1.45    0.46 
   1  -9   7    0.26    0.45 
  -4  -8   7    0.36    0.44 
  -3  -8   7    4.12    0.78 
  -2  -8   7    1.65    0.41 
  -1  -8   7    1.28    0.38 
   0  -8   7    0.07    0.35 
   1  -8   7    2.79    0.45 
   2  -8   7    0.94    0.59 
  -5  -7   7    0.38    0.39 
  -4  -7   7    1.51    0.41 
  -3  -7   7   13.59    0.54 
  -2  -7   7   -0.05    0.32 
  -1  -7   7    4.31    0.42 
   0  -7   7    3.42    0.39 
   1  -7   7    5.10    0.46 
   2  -7   7    2.44    0.63 
   3  -7   7    1.82    0.69 
   4  -7   7    1.02    0.73 
  -5  -6   7    1.90    0.43 
  -4  -6   7    2.05    0.36 
  -3  -6   7    9.24    0.44 
  -2  -6   7   41.19    0.74 
  -1  -6   7    0.56    0.28 
   0  -6   7    4.89    0.40 
   1  -6   7    4.15    0.40 
   2  -6   7    9.79    0.81 
   3  -6   7    3.78    0.63 
   4  -6   7    3.03    0.69 
  -6  -5   7    0.56    0.42 
  -5  -5   7    3.89    0.44 
  -4  -5   7    8.44    0.43 
  -3  -5   7    6.29    0.35 
  -2  -5   7   13.76    0.43 
  -1  -5   7    2.14    0.22 
   0  -5   7    3.32    0.33 
   1  -5   7    0.77    0.21 
   2  -5   7   14.62    0.60 
   3  -5   7    2.60    0.39 
   4  -5   7    1.10    0.40 
   5  -5   7    0.31    0.48 
  -6  -4   7    2.21    0.43 
  -5  -4   7    6.34    0.41 
  -4  -4   7   22.79    0.56 
  -3  -4   7   67.62    0.97 
  -2  -4   7    3.54    0.26 
  -1  -4   7   67.11    0.88 
   0  -4   7   17.26    0.41 
   1  -4   7   49.64    0.73 
   2  -4   7   27.66    0.72 
   3  -4   7    7.94    0.48 
   4  -4   7    1.75    0.36 
   5  -4   7    0.84    0.66 
  -7  -3   7    1.00    0.45 
  -6  -3   7    1.93    0.39 
  -5  -3   7    3.92    0.33 
  -4  -3   7   67.04    1.23 
  -3  -3   7    9.46    0.44 
  -2  -3   7    4.27    0.33 
  -1  -3   7   21.20    0.54 
   0  -3   7   26.23    0.46 
   1  -3   7   20.47    0.41 
   2  -3   7   18.18    0.56 
   3  -3   7   10.94    0.54 
   4  -3   7    5.85    0.45 
   5  -3   7    2.50    0.65 
  -7  -2   7    0.28    0.40 
  -6  -2   7    1.12    0.30 
  -5  -2   7   11.88    0.60 
  -4  -2   7   17.94    0.61 
  -3  -2   7   14.86    0.51 
  -2  -2   7   12.51    0.42 
  -1  -2   7   30.81    0.62 
   0  -2   7   36.20    0.52 
   1  -2   7    1.29    0.19 
   2  -2   7    3.21    0.29 
   3  -2   7   38.78    0.83 
   4  -2   7    5.35    0.66 
   5  -2   7    4.67    0.76 
   6  -2   7    1.50    0.70 
  -7  -1   7    0.13    0.38 
  -6  -1   7    7.91    0.54 
  -5  -1   7    3.04    0.35 
  -4  -1   7    1.03    0.25 
  -3  -1   7    3.52    0.29 
  -2  -1   7   10.91    0.39 
  -1  -1   7   51.04    0.84 
   0  -1   7    9.34    0.24 
   1  -1   7   12.71    0.38 
   2  -1   7    2.93    0.26 
   3  -1   7    3.94    0.31 
   4  -1   7    4.60    0.60 
   5  -1   7   -0.69    0.50 
   6  -1   7    1.30    0.65 
  -7   0   7    0.44    0.40 
  -6   0   7    0.74    0.33 
  -5   0   7   22.97    0.72 
  -4   0   7    0.98    0.25 
  -3   0   7   28.27    0.90 
  -2   0   7   29.06    0.85 
  -1   0   7   69.71    1.02 
   0   0   7    5.43    0.19 
   1   0   7   19.45    0.44 
   2   0   7    0.57    0.27 
   3   0   7    0.23    0.30 
   4   0   7   -0.31    0.37 
   5   0   7    7.10    0.80 
   6   0   7   -0.56    0.60 
  -7   1   7    0.10    0.41 
  -6   1   7    8.34    0.55 
  -5   1   7    3.20    0.51 
  -4   1   7    1.06    0.26 
  -3   1   7    3.19    0.26 
  -2   1   7   10.62    0.35 
  -1   1   7   51.55    0.83 
   0   1   7    8.79    0.31 
   1   1   7   13.51    0.61 
   2   1   7    3.67    0.44 
   3   1   7    3.22    0.49 
   4   1   7    4.66    0.60 
   5   1   7   -0.50    0.45 
   6   1   7    1.18    0.64 
  -7   2   7    0.06    0.41 
  -6   2   7    1.99    0.58 
  -5   2   7   12.35    0.86 
  -4   2   7   18.19    0.58 
  -3   2   7   14.82    0.49 
  -2   2   7   12.45    0.41 
  -1   2   7   30.48    0.61 
   0   2   7   36.57    0.65 
   1   2   7    0.96    0.25 
   2   2   7    3.13    0.44 
   3   2   7   38.24    1.27 
   4   2   7    5.71    0.65 
   5   2   7    5.20    0.70 
   6   2   7    1.05    0.58 
  -7   3   7    0.69    0.66 
  -6   3   7    0.75    0.58 
  -5   3   7    4.27    0.44 
  -4   3   7   65.40    1.22 
  -3   3   7    9.98    0.50 
  -2   3   7    4.72    0.34 
  -1   3   7   21.62    0.53 
   0   3   7   26.75    0.55 
   1   3   7   20.24    0.82 
   2   3   7   17.81    0.83 
   3   3   7   11.26    0.84 
   4   3   7    6.66    0.71 
   5   3   7    3.43    0.67 
  -6   4   7    3.06    0.70 
  -5   4   7    4.84    0.75 
  -4   4   7   21.35    1.07 
  -3   4   7   67.83    1.81 
  -2   4   7    3.14    0.49 
  -1   4   7   66.77    1.68 
   0   4   7   16.35    0.79 
   1   4   7   47.73    0.93 
   2   4   7   25.51    0.73 
   3   4   7    7.11    0.52 
   4   4   7    3.07    0.42 
   5   4   7    2.04    0.54 
  -6   5   7    0.37    0.77 
  -5   5   7    2.25    0.70 
  -4   5   7    7.56    0.85 
  -3   5   7    6.55    0.71 
  -2   5   7   14.71    0.90 
  -1   5   7    1.96    0.43 
   0   5   7    3.33    0.51 
   1   5   7    0.45    0.33 
   2   5   7   14.27    0.60 
   3   5   7    2.11    0.37 
   4   5   7    1.16    0.39 
   5   5   7    1.52    0.46 
  -5   6   7    1.31    0.76 
  -4   6   7    2.01    0.72 
  -3   6   7    9.29    0.90 
  -2   6   7   41.18    1.48 
  -1   6   7    0.97    0.42 
   0   6   7    5.33    0.64 
   1   6   7    5.19    0.65 
   2   6   7    9.69    0.86 
   3   6   7    3.34    0.45 
   4   6   7    2.80    0.46 
  -5   7   7   -1.39    0.80 
  -4   7   7    0.74    0.73 
  -3   7   7   14.13    1.14 
  -2   7   7   -0.07    0.51 
  -1   7   7    4.78    0.71 
   0   7   7    3.21    0.63 
   1   7   7    6.80    0.80 
   2   7   7    2.29    0.58 
   3   7   7    3.23    0.65 
  -4   8   7    0.96    0.85 
  -3   8   7    4.00    0.84 
  -2   8   7    2.11    0.73 
  -1   8   7    1.86    0.71 
   0   8   7   -0.19    0.61 
   1   8   7    2.86    0.70 
   2   8   7    1.13    0.62 
  -2   9   7    1.49    0.79 
  -1   9   7    1.00    0.73 
   0   9   7    1.80    0.73 
   1   9   7    1.99    0.69 
  -1  -9   8    0.36    0.44 
   0  -9   8   -0.54    0.43 
  -3  -8   8    4.92    0.84 
  -2  -8   8    0.65    0.39 
  -1  -8   8    1.14    0.41 
   0  -8   8    0.72    0.38 
   1  -8   8    1.19    0.62 
   2  -8   8    2.49    0.72 
  -4  -7   8   -0.20    0.37 
  -3  -7   8    5.81    0.40 
  -2  -7   8    2.84    0.43 
  -1  -7   8    1.30    0.36 
   0  -7   8    2.88    0.39 
   1  -7   8    1.36    0.54 
   2  -7   8    1.88    0.66 
   3  -7   8    2.19    0.74 
  -5  -6   8    0.09    0.38 
  -4  -6   8    3.43    0.35 
  -3  -6   8    1.40    0.28 
  -2  -6   8    3.99    0.33 
  -1  -6   8    0.44    0.29 
   0  -6   8    0.60    0.27 
   1  -6   8    1.19    0.45 
   2  -6   8    6.68    0.68 
   3  -6   8   11.50    0.67 
   4  -6   8    0.00    0.46 
  -6  -5   8    6.69    0.61 
  -5  -5   8    2.60    0.43 
  -4  -5   8    4.25    0.35 
  -3  -5   8   10.63    0.45 
  -2  -5   8   18.92    0.49 
  -1  -5   8    0.53    0.26 
   0  -5   8    0.23    0.25 
   1  -5   8   19.61    0.63 
   2  -5   8    1.64    0.36 
   3  -5   8    0.96    0.37 
   4  -5   8    3.19    0.46 
  -6  -4   8    1.54    0.44 
  -5  -4   8   10.60    0.51 
  -4  -4   8    2.75    0.30 
  -3  -4   8    1.58    0.24 
  -2  -4   8    1.25    0.20 
  -1  -4   8   30.83    0.55 
   0  -4   8   11.42    0.36 
   1  -4   8    3.14    0.32 
   2  -4   8   26.45    0.73 
   3  -4   8    2.49    0.37 
   4  -4   8    4.95    0.48 
   5  -4   8   -0.26    0.64 
  -7  -3   8    0.41    0.48 
  -6  -3   8    0.19    0.36 
  -5  -3   8    2.23    0.30 
  -4  -3   8   46.61    1.00 
  -3  -3   8   11.73    0.50 
  -2  -3   8   13.31    0.50 
  -1  -3   8   30.70    0.69 
   0  -3   8   23.76    0.45 
   1  -3   8    1.42    0.25 
   2  -3   8   10.03    0.48 
   3  -3   8    8.19    0.50 
   4  -3   8    0.82    0.51 
   5  -3   8    1.77    0.69 
  -7  -2   8    0.39    0.43 
  -6  -2   8    2.69    0.36 
  -5  -2   8    7.97    0.53 
  -4  -2   8    4.70    0.40 
  -3  -2   8   11.00    0.48 
  -2  -2   8    1.18    0.22 
  -1  -2   8   22.98    0.56 
   0  -2   8   26.28    0.45 
   1  -2   8   15.77    0.47 
   2  -2   8   12.46    0.48 
   3  -2   8    2.31    0.32 
   4  -2   8   14.11    0.98 
   5  -2   8    4.01    0.71 
  -7  -1   8    0.34    0.41 
  -6  -1   8    4.42    0.46 
  -5  -1   8   12.09    0.60 
  -4  -1   8    1.13    0.29 
  -3  -1   8    1.81    0.27 
  -2  -1   8   10.56    0.41 
  -1  -1   8    0.64    0.16 
   0  -1   8   56.45    0.72 
   1  -1   8   13.37    0.42 
   2  -1   8    5.46    0.34 
   3  -1   8    3.82    0.54 
   4  -1   8    0.66    0.46 
   5  -1   8    5.20    0.78 
  -7   0   8    0.30    0.43 
  -6   0   8   18.99    0.78 
  -5   0   8    1.43    0.33 
  -4   0   8    3.17    0.34 
  -3   0   8    4.53    0.46 
  -2   0   8   48.44    1.24 
  -1   0   8    9.17    0.33 
   0   0   8   58.25    0.73 
   1   0   8   19.49    0.48 
   2   0   8    0.34    0.30 
   3   0   8   -0.25    0.30 
   4   0   8    0.65    0.45 
   5   0   8    0.07    0.52 
   6   0   8    1.01    0.76 
  -7   1   8    0.53    0.43 
  -6   1   8    4.93    0.49 
  -5   1   8   13.80    0.84 
  -4   1   8    1.76    0.40 
  -3   1   8    2.69    0.26 
  -2   1   8    9.66    0.36 
  -1   1   8    0.60    0.16 
   0   1   8   56.44    0.90 
   1   1   8   13.99    0.67 
   2   1   8    5.02    0.53 
   3   1   8    3.75    0.55 
   4   1   8    0.32    0.40 
   5   1   8    4.55    0.76 
  -7   2   8    1.27    0.46 
  -6   2   8    2.13    0.60 
  -5   2   8    7.84    0.73 
  -4   2   8    4.59    0.38 
  -3   2   8   10.61    0.45 
  -2   2   8    1.26    0.21 
  -1   2   8   23.45    0.55 
   0   2   8   25.77    0.56 
   1   2   8   16.05    0.74 
   2   2   8   13.11    0.75 
   3   2   8    2.61    0.49 
   4   2   8   14.63    0.96 
   5   2   8    5.83    0.80 
  -7   3   8    0.23    0.71 
  -6   3   8    0.47    0.57 
  -5   3   8    2.39    0.54 
  -4   3   8   45.74    1.01 
  -3   3   8   10.51    0.50 
  -2   3   8   13.04    0.48 
  -1   3   8   31.64    0.68 
   0   3   8   24.78    0.56 
   1   3   8    1.63    0.35 
   2   3   8   10.31    0.79 
   3   3   8    9.56    0.83 
   4   3   8    1.03    0.46 
   5   3   8    1.69    0.62 
  -6   4   8    0.49    0.66 
  -5   4   8    9.01    0.64 
  -4   4   8    2.52    0.39 
  -3   4   8    1.61    0.34 
  -2   4   8    0.90    0.28 
  -1   4   8   30.75    0.70 
   0   4   8   11.47    0.71 
   1   4   8    2.34    0.46 
   2   4   8   26.99    1.11 
   3   4   8    1.32    0.48 
   4   4   8    4.93    0.69 
   5   4   8    0.65    0.55 
  -6   5   8    6.37    0.91 
  -5   5   8    1.23    0.71 
  -4   5   8    3.84    0.69 
  -3   5   8   12.06    0.91 
  -2   5   8   19.00    0.99 
  -1   5   8    0.53    0.24 
   0   5   8    0.44    0.34 
   1   5   8   19.32    0.95 
   2   5   8    1.60    0.35 
   3   5   8    0.93    0.34 
   4   5   8    2.03    0.45 
  -5   6   8   -0.15    0.74 
  -4   6   8    3.71    0.72 
  -3   6   8    1.05    0.53 
  -2   6   8    5.14    0.71 
  -1   6   8    0.39    0.41 
   0   6   8    1.05    0.44 
   1   6   8    1.09    0.47 
   2   6   8    6.47    0.75 
   3   6   8   13.93    1.09 
   4   6   8    0.53    0.42 
  -4   7   8   -0.04    0.66 
  -3   7   8    6.80    0.90 
  -2   7   8    3.28    0.68 
  -1   7   8    0.54    0.48 
   0   7   8    2.50    0.64 
   1   7   8    2.32    0.62 
   2   7   8    3.66    0.67 
   3   7   8    2.60    0.67 
  -3   8   8    4.47    0.90 
  -2   8   8    0.75    0.66 
  -1   8   8    0.20    0.55 
   0   8   8   -0.12    0.60 
   1   8   8    1.58    0.64 
   2   8   8    2.68    0.69 
  -1   9   8    1.31    0.75 
   0   9   8    0.41    0.72 
  -3  -8   9    0.40    0.45 
  -2  -8   9    1.55    0.46 
  -1  -8   9    1.23    0.43 
   0  -8   9    0.63    0.43 
   1  -8   9    3.07    0.71 
  -4  -7   9    2.03    0.45 
  -3  -7   9    0.18    0.40 
  -2  -7   9    0.33    0.38 
  -1  -7   9    6.19    0.53 
   0  -7   9    0.78    0.36 
   1  -7   9    0.92    0.55 
   2  -7   9    3.78    0.73 
   3  -7   9    6.72    0.87 
  -5  -6   9    0.50    0.42 
  -4  -6   9    0.39    0.29 
  -3  -6   9    2.13    0.30 
  -2  -6   9    0.10    0.30 
  -1  -6   9    3.88    0.43 
   0  -6   9    0.96    0.30 
   1  -6   9    1.21    0.49 
   2  -6   9    1.15    0.57 
   3  -6   9    3.20    0.49 
  -6  -5   9    3.02    0.53 
  -5  -5   9    0.73    0.32 
  -4  -5   9    0.45    0.27 
  -3  -5   9    8.10    0.42 
  -2  -5   9    1.16    0.23 
  -1  -5   9    1.04    0.29 
   0  -5   9    2.10    0.32 
   1  -5   9    7.25    0.56 
   2  -5   9    3.06    0.41 
   3  -5   9    2.93    0.45 
   4  -5   9    2.11    0.50 
  -6  -4   9    0.76    0.45 
  -5  -4   9    0.57    0.29 
  -4  -4   9   10.79    0.48 
  -3  -4   9    7.53    0.50 
  -2  -4   9    1.78    0.30 
  -1  -4   9    5.81    0.40 
   0  -4   9   12.04    0.49 
   1  -4   9    2.88    0.32 
   2  -4   9   23.07    0.70 
   3  -4   9    0.55    0.33 
   4  -4   9    2.04    0.46 
  -6  -3   9    0.73    0.33 
  -5  -3   9    1.51    0.36 
  -4  -3   9    2.78    0.35 
  -3  -3   9   18.77    0.63 
  -2  -3   9   19.76    0.62 
  -1  -3   9   10.99    0.45 
   0  -3   9   31.77    0.56 
   1  -3   9   39.16    0.84 
   2  -3   9   32.57    0.80 
   3  -3   9    2.97    0.38 
   4  -3   9   -0.35    0.53 
   5  -3   9    6.02    0.91 
  -7  -2   9    0.47    0.46 
  -6  -2   9    0.37    0.38 
  -5  -2   9    2.77    0.39 
  -4  -2   9    9.70    0.54 
  -3  -2   9    2.17    0.30 
  -2  -2   9   18.38    0.56 
  -1  -2   9    3.27    0.29 
   0  -2   9   12.15    0.33 
   1  -2   9    4.08    0.32 
   2  -2   9   10.16    0.47 
   3  -2   9    5.65    0.42 
   4  -2   9    5.33    0.80 
   5  -2   9    1.63    0.63 
  -7  -1   9    0.53    0.48 
  -6  -1   9    0.53    0.38 
  -5  -1   9    4.40    0.45 
  -4  -1   9    1.46    0.32 
  -3  -1   9    3.12    0.33 
  -2  -1   9    9.53    0.42 
  -1  -1   9   12.23    0.32 
   0  -1   9   69.03    1.04 
   1  -1   9    4.63    0.32 
   2  -1   9    0.53    0.23 
   3  -1   9    5.70    0.65 
   4  -1   9    5.62    0.74 
   5  -1   9    2.67    0.71 
  -7   0   9    0.80    0.45 
  -6   0   9    0.46    0.38 
  -5   0   9    2.57    0.40 
  -4   0   9    0.90    0.28 
  -3   0   9    3.48    0.34 
  -2   0   9   16.71    0.73 
  -1   0   9   29.89    0.51 
   0   0   9    6.51    0.25 
   1   0   9   28.02    0.62 
   2   0   9    3.82    0.38 
   3   0   9   -0.20    0.33 
   4   0   9    4.66    0.71 
   5   0   9    2.25    0.66 
  -7   1   9    0.73    0.48 
  -6   1   9    0.89    0.36 
  -5   1   9    6.42    0.68 
  -4   1   9    2.37    0.46 
  -3   1   9    3.08    0.30 
  -2   1   9    9.14    0.39 
  -1   1   9   12.62    0.43 
   0   1   9   68.89    1.09 
   1   1   9    4.46    0.51 
   2   1   9    0.44    0.34 
   3   1   9    7.34    0.73 
   4   1   9    8.15    0.83 
   5   1   9    1.89    0.69 
  -7   2   9    1.15    0.48 
  -6   2   9    2.54    0.62 
  -5   2   9    2.65    0.53 
  -4   2   9    9.06    0.71 
  -3   2   9    2.27    0.29 
  -2   2   9   18.55    0.54 
  -1   2   9    3.48    0.29 
   0   2   9   11.89    0.42 
   1   2   9    4.97    0.54 
   2   2   9    9.80    0.78 
   3   2   9    5.21    0.64 
   4   2   9    5.52    0.75 
   5   2   9    0.91    0.64 
  -6   3   9    1.23    0.64 
  -5   3   9    1.36    0.54 
  -4   3   9    3.31    0.37 
  -3   3   9   16.93    0.61 
  -2   3   9   19.76    0.60 
  -1   3   9    9.99    0.43 
   0   3   9   33.64    0.69 
   1   3   9   39.19    1.27 
   2   3   9   31.49    1.21 
   3   3   9    3.61    0.60 
   4   3   9    0.89    0.50 
   5   3   9    7.40    0.93 
  -6   4   9    1.27    0.66 
  -5   4   9    0.14    0.46 
  -4   4   9   10.30    0.58 
  -3   4   9    8.16    0.51 
  -2   4   9    1.44    0.29 
  -1   4   9    5.81    0.38 
   0   4   9   13.78    0.83 
   1   4   9    3.21    0.52 
   2   4   9   21.90    1.08 
   3   4   9    0.24    0.45 
   4   4   9    3.02    0.62 
  -6   5   9    1.65    0.85 
  -5   5   9    0.28    0.44 
  -4   5   9    0.55    0.37 
  -3   5   9    8.04    0.54 
  -2   5   9    0.90    0.30 
  -1   5   9    0.84    0.26 
   0   5   9    1.90    0.47 
   1   5   9    7.71    0.79 
   2   5   9    3.77    0.62 
   3   5   9    3.57    0.67 
   4   5   9    3.13    0.70 
  -5   6   9    0.78    0.49 
  -4   6   9    2.30    0.64 
  -3   6   9    1.83    0.60 
  -2   6   9   -0.06    0.42 
  -1   6   9    3.51    0.62 
   0   6   9    1.44    0.51 
   1   6   9    0.45    0.46 
   2   6   9    2.05    0.61 
   3   6   9    3.40    0.74 
  -4   7   9    1.39    0.75 
  -3   7   9   -0.04    0.60 
  -2   7   9    0.23    0.55 
  -1   7   9    5.78    0.84 
   0   7   9    1.48    0.57 
   1   7   9    1.07    0.60 
   2   7   9    4.79    0.77 
   3   7   9    7.63    0.95 
  -3   8   9    0.35    0.76 
  -2   8   9    1.34    0.76 
  -1   8   9    0.28    0.67 
   0   8   9    0.75    0.64 
   1   8   9    3.45    0.78 
  -2  -8  10   14.92    0.80 
  -1  -8  10    1.32    0.46 
   0  -8  10    0.09    0.64 
  -4  -7  10    1.68    0.40 
  -3  -7  10    2.00    0.46 
  -2  -7  10    4.81    0.53 
  -1  -7  10    1.26    0.41 
   0  -7  10    2.98    0.68 
   1  -7  10    3.47    0.67 
   2  -7  10    4.48    0.81 
  -5  -6  10    0.39    0.41 
  -4  -6  10    1.51    0.33 
  -3  -6  10    0.62    0.30 
  -2  -6  10    0.24    0.35 
  -1  -6  10    7.63    0.54 
   0  -6  10    0.61    0.46 
   1  -6  10    0.63    0.51 
   2  -6  10   -0.11    0.56 
   3  -6  10    8.17    0.65 
  -5  -5  10    0.74    0.33 
  -4  -5  10    2.43    0.35 
  -3  -5  10    0.07    0.25 
  -2  -5  10    3.50    0.40 
  -1  -5  10    1.44    0.32 
   0  -5  10    1.48    0.51 
   1  -5  10    1.14    0.48 
   2  -5  10    2.58    0.43 
   3  -5  10    0.18    0.41 
   4  -5  10    3.84    0.58 
  -6  -4  10    0.00    0.43 
  -5  -4  10    1.28    0.32 
  -4  -4  10    0.66    0.27 
  -3  -4  10    6.00    0.47 
  -2  -4  10   -0.33    0.26 
  -1  -4  10    3.44    0.35 
   0  -4  10    2.43    0.49 
   1  -4  10    1.05    0.29 
   2  -4  10    1.71    0.36 
   3  -4  10    0.47    0.36 
   4  -4  10    0.20    0.59 
  -6  -3  10    4.94    0.44 
  -5  -3  10    1.56    0.38 
  -4  -3  10    1.00    0.33 
  -3  -3  10    9.49    0.53 
  -2  -3  10    5.15    0.40 
  -1  -3  10    7.08    0.42 
   0  -3  10    3.72    0.50 
   1  -3  10   11.89    0.54 
   2  -3  10    0.87    0.31 
   3  -3  10    7.45    0.50 
   4  -3  10    0.19    0.60 
  -6  -2  10    1.31    0.43 
  -5  -2  10    6.19    0.52 
  -4  -2  10    2.34    0.37 
  -3  -2  10   44.09    0.98 
  -2  -2  10    6.10    0.42 
  -1  -2  10   25.11    0.64 
   0  -2  10    3.48    0.31 
   1  -2  10    9.17    0.48 
   2  -2  10   55.21    1.05 
   3  -2  10    1.58    0.53 
   4  -2  10    4.03    0.77 
   5  -2  10    1.60    0.71 
  -7  -1  10    1.71    0.52 
  -6  -1  10    0.81    0.40 
  -5  -1  10    9.91    0.61 
  -4  -1  10   10.98    0.59 
  -3  -1  10   11.62    0.56 
  -2  -1  10    5.09    0.37 
  -1  -1  10   25.05    0.48 
   0  -1  10   12.62    0.46 
   1  -1  10    9.14    0.45 
   2  -1  10    4.71    0.36 
   3  -1  10   27.00    1.21 
   4  -1  10   20.27    1.21 
   5  -1  10    0.82    0.70 
  -7   0  10    1.34    0.47 
  -6   0  10   -0.15    0.37 
  -5   0  10    7.21    0.52 
  -4   0  10    9.53    0.55 
  -3   0  10    0.34    0.25 
  -2   0  10   33.87    0.76 
  -1   0  10   51.11    0.74 
   0   0  10  157.41    2.11 
   1   0  10    0.36    0.21 
   2   0  10    4.35    0.56 
   3   0  10   39.94    1.44 
   4   0  10   42.86    1.68 
   5   0  10    0.33    0.61 
  -7   1  10    1.26    0.54 
  -6   1  10    0.92    0.40 
  -5   1  10   10.09    0.87 
  -4   1  10    9.19    0.74 
  -3   1  10   12.56    0.75 
  -2   1  10    4.33    0.33 
  -1   1  10   25.11    0.63 
   0   1  10   13.71    0.47 
   1   1  10    9.02    0.73 
   2   1  10    5.28    0.60 
   3   1  10   25.89    1.19 
   4   1  10   20.80    1.18 
   5   1  10    0.10    0.64 
  -6   2  10    1.38    0.60 
  -5   2  10    7.33    0.75 
  -4   2  10    1.83    0.46 
  -3   2  10   44.31    0.92 
  -2   2  10    6.70    0.42 
  -1   2  10   24.85    0.64 
   0   2  10    3.79    0.31 
   1   2  10   10.45    0.75 
   2   2  10   57.03    1.67 
   3   2  10    1.92    0.52 
   4   2  10    4.74    0.74 
   5   2  10    1.97    0.75 
  -6   3  10    4.92    0.77 
  -5   3  10    0.91    0.57 
  -4   3  10    1.35    0.46 
  -3   3  10    9.84    0.52 
  -2   3  10    5.53    0.40 
  -1   3  10    7.27    0.42 
   0   3  10    4.42    0.55 
   1   3  10   13.34    0.83 
   2   3  10    1.23    0.43 
   3   3  10    8.23    0.86 
   4   3  10    0.50    0.58 
  -6   4  10   -0.19    0.69 
  -5   4  10    1.10    0.56 
  -4   4  10    1.30    0.35 
  -3   4  10    5.50    0.45 
  -2   4  10    0.27    0.24 
  -1   4  10    3.51    0.33 
   0   4  10    2.52    0.48 
   1   4  10    1.20    0.43 
   2   4  10    2.18    0.54 
   3   4  10    0.11    0.54 
   4   4  10    0.68    0.60 
  -5   5  10    1.12    0.51 
  -4   5  10    2.36    0.43 
  -3   5  10    0.31    0.31 
  -2   5  10    3.84    0.38 
  -1   5  10    2.26    0.54 
   0   5  10    1.72    0.51 
   1   5  10    0.94    0.48 
   2   5  10    2.90    0.67 
   3   5  10    1.26    0.65 
   4   5  10    5.90    0.88 
  -5   6  10    0.48    0.49 
  -4   6  10    0.70    0.44 
  -3   6  10    0.49    0.39 
  -2   6  10    0.84    0.33 
  -1   6  10    8.05    0.87 
   0   6  10    0.29    0.53 
   1   6  10    1.04    0.57 
   2   6  10    0.63    0.57 
   3   6  10   10.15    1.04 
  -4   7  10    1.39    0.52 
  -3   7  10    2.81    0.48 
  -2   7  10    5.58    0.82 
  -1   7  10    1.38    0.71 
   0   7  10    5.79    0.85 
   1   7  10    4.78    0.83 
   2   7  10    6.46    0.91 
  -2   8  10   15.66    1.30 
  -1   8  10    0.13    0.74 
   0   8  10   -0.29    0.67 
   1   8  10   13.29    1.45 
  -3  -7  11    3.15    0.54 
  -2  -7  11    2.58    0.50 
  -1  -7  11    0.80    0.42 
   0  -7  11    1.02    0.61 
   1  -7  11    9.05    0.90 
  -4  -6  11    5.15    0.44 
  -3  -6  11    2.30    0.45 
  -2  -6  11    0.20    0.37 
  -1  -6  11    6.28    0.53 
   0  -6  11    7.14    0.75 
   1  -6  11    2.11    0.57 
   2  -6  11    1.70    0.69 
  -5  -5  11    0.57    0.37 
  -4  -5  11    2.88    0.36 
  -3  -5  11    0.56    0.28 
  -2  -5  11    1.54    0.37 
  -1  -5  11    7.33    0.51 
   0  -5  11    2.49    0.60 
   1  -5  11    0.67    0.46 
   2  -5  11    0.50    0.51 
   3  -5  11    1.74    0.47 
  -6  -4  11    1.71    0.45 
  -5  -4  11    1.29    0.33 
  -4  -4  11    0.89    0.38 
  -3  -4  11    5.03    0.45 
  -2  -4  11   11.42    0.61 
  -1  -4  11    0.02    0.24 
   0  -4  11    5.99    0.67 
   1  -4  11    0.97    0.45 
   2  -4  11   13.69    0.64 
   3  -4  11    0.44    0.38 
   4  -4  11    4.22    0.85 
  -6  -3  11    1.69    0.40 
  -5  -3  11    3.15    0.46 
  -4  -3  11    3.63    0.43 
  -3  -3  11   14.18    0.61 
  -2  -3  11    4.52    0.39 
  -1  -3  11    0.69    0.26 
   0  -3  11    2.62    0.49 
   1  -3  11   19.73    0.67 
   2  -3  11    7.31    0.49 
   3  -3  11    1.21    0.55 
   4  -3  11    1.11    0.71 
  -6  -2  11    2.07    0.49 
  -5  -2  11   13.43    0.74 
  -4  -2  11   15.85    0.69 
  -3  -2  11   17.91    0.66 
  -2  -2  11   15.73    0.58 
  -1  -2  11    4.87    0.36 
   0  -2  11   20.80    0.62 
   1  -2  11   24.10    0.69 
   2  -2  11    3.27    0.35 
   3  -2  11    3.45    0.70 
   4  -2  11    2.85    0.75 
  -6  -1  11    1.85    0.48 
  -5  -1  11    8.99    0.62 
  -4  -1  11    8.32    0.55 
  -3  -1  11   30.74    0.82 
  -2  -1  11    0.40    0.25 
  -1  -1  11   91.04    1.41 
   0  -1  11   12.51    0.51 
   1  -1  11    3.26    0.33 
   2  -1  11    5.55    0.66 
   3  -1  11   13.47    1.00 
   4  -1  11    6.18    0.84 
  -6   0  11    0.44    0.42 
  -5   0  11    0.99    0.41 
  -4   0  11   16.11    0.67 
  -3   0  11   -0.13    0.25 
  -2   0  11   38.41    0.86 
  -1   0  11    1.46    0.21 
   0   0  11   25.44    0.67 
   1   0  11    1.92    0.29 
   2   0  11    0.48    0.40 
   3   0  11   24.27    1.19 
   4   0  11    7.04    0.94 
  -6   1  11    2.92    0.53 
  -5   1  11    9.12    0.92 
  -4   1  11    7.56    0.73 
  -3   1  11   28.94    1.10 
  -2   1  11    0.04    0.24 
  -1   1  11   91.38    1.42 
   0   1  11   13.18    0.50 
   1   1  11    3.32    0.54 
   2   1  11    5.67    0.68 
   3   1  11   15.43    1.03 
   4   1  11    5.84    0.83 
  -6   2  11    3.11    0.74 
  -5   2  11   15.33    1.06 
  -4   2  11   16.01    0.93 
  -3   2  11   16.66    0.85 
  -2   2  11   15.86    0.56 
  -1   2  11    5.15    0.39 
   0   2  11   21.23    0.60 
   1   2  11   26.81    1.11 
   2   2  11    2.56    0.58 
   3   2  11    4.42    0.71 
   4   2  11    3.22    0.76 
  -6   3  11    2.89    0.76 
  -5   3  11    4.23    0.65 
  -4   3  11    4.25    0.63 
  -3   3  11   14.66    0.59 
  -2   3  11    4.99    0.40 
  -1   3  11    1.45    0.27 
   0   3  11    2.75    0.50 
   1   3  11   20.07    1.02 
   2   3  11    7.69    0.80 
   3   3  11    0.74    0.53 
   4   3  11    3.29    0.74 
  -6   4  11    2.37    0.94 
  -5   4  11    1.68    0.62 
  -4   4  11    1.00    0.40 
  -3   4  11    5.31    0.45 
  -2   4  11   10.92    0.54 
  -1   4  11    0.01    0.24 
   0   4  11    6.57    0.73 
   1   4  11    0.75    0.45 
   2   4  11   15.77    1.05 
   3   4  11   -0.29    0.60 
   4   4  11    4.96    0.89 
  -5   5  11    1.44    0.67 
  -4   5  11    2.78    0.46 
  -3   5  11    0.69    0.35 
  -2   5  11    1.56    0.35 
  -1   5  11    7.37    0.77 
   0   5  11    3.84    0.66 
   1   5  11    0.09    0.48 
   2   5  11    0.07    0.52 
   3   5  11    3.49    0.80 
  -4   6  11    6.65    0.60 
  -3   6  11    1.95    0.43 
  -2   6  11   -0.05    0.53 
  -1   6  11    6.28    0.82 
   0   6  11    7.51    0.90 
   1   6  11    2.54    0.70 
   2   6  11    3.15    0.73 
  -3   7  11    3.24    0.53 
  -2   7  11    2.92    0.76 
  -1   7  11    0.62    0.63 
   0   7  11    2.07    0.73 
   1   7  11    9.18    1.01 
  -3  -7  12    3.49    0.80 
  -2  -7  12    1.88    0.51 
  -1  -7  12    0.06    0.62 
   0  -7  12    1.55    0.69 
  -4  -6  12    7.82    0.66 
  -3  -6  12    0.46    0.42 
  -2  -6  12    1.18    0.42 
  -1  -6  12    2.57    0.68 
   0  -6  12    7.80    0.83 
   1  -6  12   -0.01    0.56 
   2  -6  12    0.66    0.68 
  -5  -5  12    1.72    0.41 
  -4  -5  12    0.86    0.35 
  -3  -5  12    6.94    0.57 
  -2  -5  12    3.04    0.43 
  -1  -5  12    1.06    0.55 
   0  -5  12    2.10    0.59 
   1  -5  12    5.72    0.73 
   2  -5  12    1.52    0.57 
   3  -5  12    1.17    0.53 
  -5  -4  12    0.87    0.36 
  -4  -4  12    2.37    0.47 
  -3  -4  12    5.46    0.51 
  -2  -4  12    0.13    0.31 
  -1  -4  12    1.48    0.51 
   0  -4  12    2.92    0.57 
   1  -4  12    9.90    0.82 
   2  -4  12    1.04    0.42 
   3  -4  12    0.62    0.62 
  -6  -3  12    3.55    0.56 
  -5  -3  12    1.11    0.41 
  -4  -3  12    2.34    0.41 
  -3  -3  12   10.05    0.61 
  -2  -3  12    1.84    0.34 
  -1  -3  12    1.05    0.45 
   0  -3  12    0.67    0.44 
   1  -3  12    8.22    0.72 
   2  -3  12    3.40    0.41 
   3  -3  12    0.38    0.59 
   4  -3  12   -0.01    0.70 
  -6  -2  12    6.21    0.63 
  -5  -2  12    1.75    0.42 
  -4  -2  12    0.95    0.36 
  -3  -2  12    0.21    0.30 
  -2  -2  12   35.25    0.86 
  -1  -2  12    3.04    0.40 
   0  -2  12    4.74    0.57 
   1  -2  12    1.75    0.32 
   2  -2  12    6.35    0.50 
   3  -2  12    2.17    0.68 
   4  -2  12   -0.84    0.66 
  -6  -1  12    1.52    0.51 
  -5  -1  12    9.61    0.65 
  -4  -1  12    8.71    0.57 
  -3  -1  12    6.27    0.48 
  -2  -1  12   12.47    0.55 
  -1  -1  12   54.62    1.13 
   0  -1  12   22.06    0.65 
   1  -1  12    5.50    0.41 
   2  -1  12    3.10    0.57 
   3  -1  12   18.72    1.17 
   4  -1  12    6.50    0.87 
  -6   0  12    1.43    0.51 
  -5   0  12    0.13    0.42 
  -4   0  12    2.77    0.41 
  -3   0  12   18.96    0.69 
  -2   0  12    7.85    0.48 
  -1   0  12   48.68    1.00 
   0   0  12    0.19    0.24 
   1   0  12    1.53    0.35 
   2   0  12    7.95    0.81 
   3   0  12    2.68    0.67 
   4   0  12    2.38    0.76 
  -6   1  12    3.49    0.55 
  -5   1  12   11.73    0.71 
  -4   1  12   10.87    0.87 
  -3   1  12    7.30    0.70 
  -2   1  12   13.76    0.88 
  -1   1  12   53.96    1.03 
   0   1  12   21.73    0.63 
   1   1  12    4.09    0.60 
   2   1  12    3.07    0.59 
   3   1  12   16.22    1.21 
   4   1  12    5.91    0.92 
  -6   2  12    7.73    0.98 
  -5   2  12    1.22    0.63 
  -4   2  12    0.98    0.53 
  -3   2  12    0.45    0.42 
  -2   2  12   34.55    0.84 
  -1   2  12    2.59    0.32 
   0   2  12    4.81    0.59 
   1   2  12    2.11    0.55 
   2   2  12    6.37    0.75 
   3   2  12    3.85    0.73 
   4   2  12   -0.48    0.65 
  -6   3  12    5.40    0.95 
  -5   3  12    0.81    0.60 
  -4   3  12    2.46    0.57 
  -3   3  12   10.06    0.68 
  -2   3  12    1.45    0.32 
  -1   3  12    1.48    0.30 
   0   3  12    0.18    0.42 
   1   3  12    7.63    0.78 
   2   3  12    3.61    0.69 
   3   3  12    0.96    0.59 
   4   3  12    0.76    1.02 
  -5   4  12    1.18    0.61 
  -4   4  12    2.12    0.58 
  -3   4  12    4.70    0.46 
  -2   4  12    0.03    0.28 
  -1   4  12    1.58    0.47 
   0   4  12    3.14    0.60 
   1   4  12   11.94    1.01 
   2   4  12    0.23    0.56 
   3   4  12    0.83    0.67 
  -5   5  12    1.01    0.72 
  -4   5  12    1.35    0.45 
  -3   5  12    7.32    0.54 
  -2   5  12    3.21    0.42 
  -1   5  12    0.64    0.53 
   0   5  12    2.22    0.62 
   1   5  12    8.17    0.88 
   2   5  12    0.95    0.67 
   3   5  12    1.74    0.94 
  -4   6  12    8.74    0.68 
  -3   6  12    0.61    0.41 
  -2   6  12    0.78    0.61 
  -1   6  12    3.02    0.70 
   0   6  12    8.51    0.97 
   1   6  12    0.71    0.64 
   2   6  12    1.00    0.72 
  -2   7  12    1.91    0.79 
  -1   7  12    1.08    0.71 
   0   7  12    1.29    0.71 
  -3  -6  13    1.39    0.50 
  -2  -6  13   -0.24    0.44 
  -1  -6  13    2.13    0.70 
   0  -6  13    1.60    0.67 
   1  -6  13    0.59    0.65 
  -4  -5  13    4.00    0.46 
  -3  -5  13    1.26    0.45 
  -2  -5  13    2.38    0.43 
  -1  -5  13    1.71    0.59 
   0  -5  13   -0.31    0.56 
   1  -5  13    0.70    0.58 
   2  -5  13    1.17    0.63 
  -5  -4  13    3.63    0.46 
  -4  -4  13    3.04    0.49 
  -3  -4  13    3.57    0.48 
  -2  -4  13    2.01    0.39 
  -1  -4  13    1.73    0.54 
   0  -4  13    1.26    0.56 
   1  -4  13    1.05    0.52 
   2  -4  13    1.34    0.55 
   3  -4  13   -0.02    0.70 
  -5  -3  13    3.76    0.54 
  -4  -3  13    0.64    0.40 
  -3  -3  13    0.41    0.36 
  -2  -3  13    3.01    0.41 
  -1  -3  13   15.39    0.95 
   0  -3  13    0.06    0.48 
   1  -3  13    0.55    0.51 
   2  -3  13   -0.13    0.35 
   3  -3  13    1.02    0.67 
  -5  -2  13   -0.06    0.43 
  -4  -2  13    2.48    0.44 
  -3  -2  13    0.58    0.33 
  -2  -2  13   21.97    0.73 
  -1  -2  13    5.31    0.65 
   0  -2  13    1.19    0.50 
   1  -2  13   13.60    0.70 
   2  -2  13    0.18    0.49 
   3  -2  13    0.08    0.62 
  -6  -1  13    0.73    0.52 
  -5  -1  13    2.56    0.48 
  -4  -1  13    8.41    0.61 
  -3  -1  13    2.54    0.39 
  -2  -1  13   10.17    0.55 
  -1  -1  13    7.89    0.74 
   0  -1  13   23.27    1.01 
   1  -1  13    0.36    0.29 
   2  -1  13   -0.25    0.50 
   3  -1  13    6.77    0.85 
  -6   0  13    0.43    0.51 
  -5   0  13   17.67    0.87 
  -4   0  13   12.10    0.69 
  -3   0  13    5.12    0.47 
  -2   0  13    3.53    0.39 
  -1   0  13   21.34    0.94 
   0   0  13   12.68    0.56 
   1   0  13    0.72    0.42 
   2   0  13    1.14    0.55 
   3   0  13   11.10    1.08 
  -6   1  13   -0.10    0.52 
  -5   1  13    3.22    0.51 
  -4   1  13    8.39    0.61 
  -3   1  13    1.74    0.53 
  -2   1  13    8.94    0.75 
  -1   1  13    8.21    0.48 
   0   1  13   23.69    0.73 
   1   1  13   -0.06    0.43 
   2   1  13    0.13    0.51 
   3   1  13    5.47    0.84 
  -5   2  13   -0.14    0.61 
  -4   2  13    3.32    0.60 
  -3   2  13    0.12    0.45 
  -2   2  13   19.83    0.98 
  -1   2  13    5.30    0.42 
   0   2  13    1.41    0.49 
   1   2  13   13.82    1.04 
   2   2  13    0.55    0.51 
   3   2  13    1.18    0.67 
  -5   3  13    2.75    0.76 
  -4   3  13    1.17    0.58 
  -3   3  13    0.56    0.45 
  -2   3  13    4.12    0.41 
  -1   3  13   17.06    0.96 
   0   3  13    0.49    0.48 
   1   3  13    0.27    0.51 
   2   3  13   -0.12    0.56 
   3   3  13    2.25    0.74 
  -5   4  13    3.94    0.79 
  -4   4  13    3.11    0.62 
  -3   4  13    3.10    0.47 
  -2   4  13    2.82    0.39 
  -1   4  13    1.02    0.51 
   0   4  13    0.90    0.50 
   1   4  13    2.19    0.62 
   2   4  13    0.73    0.65 
   3   4  13    0.87    1.01 
  -4   5  13    5.31    0.76 
  -3   5  13    1.75    0.42 
  -2   5  13    2.92    0.65 
  -1   5  13    1.68    0.59 
   0   5  13    1.10    0.57 
   1   5  13    0.94    0.63 
   2   5  13    1.42    0.69 
  -3   6  13    3.00    0.59 
  -2   6  13    0.97    0.62 
  -1   6  13    1.44    0.65 
   0   6  13    2.40    0.71 
   1   6  13    2.21    0.76 
  -2  -6  14    0.92    0.74 
  -1  -6  14    1.17    0.75 
   0  -6  14    0.73    0.79 
  -3  -5  14    0.65    0.46 
  -2  -5  14    1.41    0.70 
  -1  -5  14    3.00    0.74 
   0  -5  14    0.76    0.66 
   1  -5  14    5.49    0.79 
  -4  -4  14    2.99    0.51 
  -3  -4  14    1.69    0.43 
  -2  -4  14    0.48    0.58 
  -1  -4  14    0.99    0.61 
   0  -4  14    1.13    0.56 
   1  -4  14   -0.13    0.53 
   2  -4  14    3.93    0.71 
  -5  -3  14    0.45    0.47 
  -4  -3  14    0.55    0.44 
  -3  -3  14   -0.12    0.37 
  -2  -3  14    1.62    0.61 
  -1  -3  14    0.56    0.53 
   0  -3  14    0.77    0.55 
   1  -3  14    1.88    0.63 
  -5  -2  14    1.48    0.50 
  -4  -2  14   -0.13    0.40 
  -3  -2  14    2.05    0.41 
  -2  -2  14    1.70    0.60 
  -1  -2  14    0.63    0.50 
   0  -2  14    1.28    0.52 
   1  -2  14    1.95    0.56 
   2  -2  14    1.21    0.61 
   3  -2  14    2.42    0.76 
  -5  -1  14    2.01    0.51 
  -4  -1  14    0.97    0.41 
  -3  -1  14    0.89    0.36 
  -2  -1  14    5.32    0.67 
  -1  -1  14    2.56    0.59 
   0  -1  14    2.29    0.52 
   1  -1  14    2.37    0.56 
   2  -1  14    1.08    0.60 
   3  -1  14    0.62    0.63 
  -5   0  14   -0.58    0.45 
  -4   0  14    6.11    0.56 
  -3   0  14    5.07    0.49 
  -2   0  14    5.88    0.54 
  -1   0  14    4.98    0.58 
   0   0  14    1.55    0.47 
   1   0  14   -0.01    0.46 
   2   0  14    0.09    0.51 
   3   0  14    1.55    0.73 
  -5   1  14    2.61    0.56 
  -4   1  14    2.25    0.44 
  -3   1  14    0.91    0.36 
  -2   1  14    3.98    0.48 
  -1   1  14    1.61    0.47 
   0   1  14    2.64    0.55 
   1   1  14    2.03    0.55 
   2   1  14    1.75    0.61 
   3   1  14    0.91    0.66 
  -5   2  14    2.82    0.73 
  -4   2  14    0.08    0.54 
  -3   2  14    2.94    0.59 
  -2   2  14    1.77    0.51 
  -1   2  14    0.60    0.31 
   0   2  14    1.71    0.54 
   1   2  14    1.05    0.56 
   2   2  14    1.93    0.61 
   3   2  14    1.99    0.77 
  -5   3  14    0.12    0.70 
  -4   3  14    1.78    0.64 
  -3   3  14    0.06    0.49 
  -2   3  14    1.62    0.53 
  -1   3  14    1.06    0.50 
   0   3  14    1.41    0.55 
   1   3  14    1.59    0.65 
   2   3  14    1.16    0.66 
  -4   4  14    1.54    0.66 
  -3   4  14   -0.09    0.51 
  -2   4  14    0.69    0.50 
  -1   4  14    1.10    0.54 
   0   4  14    1.04    0.55 
   1   4  14    0.29    0.59 
   2   4  14    4.54    0.87 
  -3   5  14    0.54    0.49 
  -2   5  14    2.07    0.67 
  -1   5  14    2.31    0.67 
   0   5  14    1.40    0.64 
   1   5  14    5.17    0.91 
  -2   6  14    0.49    0.68 
  -1   6  14    1.75    0.71 
  -2  -5  15    1.35    0.75 
  -1  -5  15    0.45    0.69 
   0  -5  15    0.16    0.70 
  -3  -4  15    0.62    0.46 
  -2  -4  15    2.51    0.76 
  -1  -4  15    1.76    0.69 
   0  -4  15    5.95    0.80 
   1  -4  15    0.96    0.65 
  -4  -3  15    0.30    0.47 
  -3  -3  15    0.39    0.43 
  -2  -3  15    2.74    0.71 
  -1  -3  15   17.67    1.13 
   0  -3  15    2.70    0.66 
   1  -3  15   -0.98    0.59 
  -4  -2  15    0.52    0.44 
  -3  -2  15    1.31    0.41 
  -2  -2  15    0.20    0.58 
  -1  -2  15    5.97    0.78 
   0  -2  15    7.36    0.80 
  -5  -1  15    4.84    0.63 
  -4  -1  15    0.03    0.43 
  -3  -1  15    0.76    0.39 
  -2  -1  15    8.27    0.80 
  -1  -1  15    1.40    0.57 
   0  -1  15    2.26    0.56 
   2  -1  15    0.02    0.63 
  -5   0  15    1.67    0.54 
  -4   0  15    1.43    0.47 
  -3   0  15    0.88    0.39 
  -2   0  15    2.10    0.60 
  -1   0  15    2.47    0.57 
   1   0  15    6.20    0.80 
   2   0  15    0.80    0.61 
  -5   1  15    4.29    0.61 
  -4   1  15    0.20    0.43 
  -3   1  15   -0.37    0.36 
  -2   1  15    6.28    0.72 
  -1   1  15    1.38    0.49 
   0   1  15    2.17    0.74 
   1   1  15    0.64    0.54 
   2   1  15    0.01    0.58 
  -5   2  15    0.24    0.94 
  -4   2  15    0.28    0.65 
  -3   2  15    0.77    0.58 
  -2   2  15    0.43    0.49 
   0   2  15    7.42    0.84 
   1   2  15    1.80    0.66 
   2   2  15    0.49    0.64 
  -4   3  15    1.04    0.62 
  -3   3  15    0.92    0.56 
  -2   3  15    1.50    0.58 
  -1   3  15   17.84    1.10 
   0   3  15    2.57    0.70 
   1   3  15    0.07    0.66 
   2   3  15    1.29    0.72 
  -3   4  15    1.11    0.56 
  -1   4  15    3.10    0.68 
   0   4  15    5.91    0.85 
   1   4  15    1.66    0.72 
  -2   5  15    2.54    0.72 
  -1   5  15    1.68    0.66 
   0   5  15    1.16    0.68 
  -2  -4  16    4.50    0.85 
  -1  -4  16    9.44    1.00 
  -3  -3  16    4.81    0.86 
  -2  -3  16    3.32    0.79 
  -1  -3  16    4.34    0.79 
   0  -3  16    8.03    0.90 
  -4  -2  16    0.86    0.50 
  -3  -2  16    0.43    0.68 
  -2  -2  16    4.06    0.79 
  -1  -2  16   15.09    1.10 
   0  -2  16    0.29    0.62 
  -4  -1  16    0.55    0.48 
  -3  -1  16    0.21    0.63 
  -2  -1  16    1.72    0.70 
  -1  -1  16    1.99    0.64 
  -4   0  16    1.65    0.50 
  -3   0  16    0.22    0.60 
  -2   0  16    0.62    0.56 
  -1   0  16    0.73    0.59 
  -4   1  16    0.24    0.48 
  -3   1  16    0.01    0.59 
  -2   1  16    1.26    0.57 
   1   1  16    2.50    0.70 
  -4   2  16    0.75    0.47 
  -3   2  16    0.90    0.60 
  -2   2  16    3.15    0.67 
   0   2  16    1.01    0.75 
   1   2  16    1.69    0.71 
  -3   3  16    5.57    0.82 
   0   3  16    5.59    0.88 
  -1   4  16   10.43    1.01 
  -2  -2  17    0.56    0.73 
  -1  -2  17    5.43    0.85 
   0  -2  17    1.42    0.84 
  -3  -1  17    0.72    0.68 
  -2  -1  17    4.82    0.84 
  -1  -1  17   -0.29    0.69 
  -3   0  17    0.58    0.68 
  -2   0  17    0.39    0.60 
  -1   0  17    4.95    1.12 
  -3   1  17   -0.34    0.64 
  -2   1  17    4.10    0.74 
   0   0   0    0.00    0.00 
;
_shelx_hkl_checksum              92579
loop_
_space_group_symop_operation_xyz
'x, y, z'
'-x, y+1/2, -z'
loop_
_atom_site_label
_atom_site_type_symbol
_atom_site_fract_x
_atom_site_fract_y
_atom_site_fract_z
_atom_site_U_iso_or_equiv
_atom_site_adp_type
_atom_site_occupancy
_atom_site_site_symmetry_order
_atom_site_calc_flag
_atom_site_refinement_flags_posn
_atom_site_refinement_flags_adp
O1 O -0.0149(3) 0.1522(2) 0.25978(13) 0.0298(4) Uani 1 1 d . .
O2 O -0.2486(3) 0.3292(2) 0.32718(14) 0.0343(5) Uani 1 1 d . .
O3 O 0.4227(4) 0.2026(3) 0.47100(16) 0.0446(5) Uani 1 1 d . .
H3O H 0.533(7) 0.171(6) 0.447(3) 0.074(13) Uiso 1 1 d . .
O4 O 0.5034(3) -0.0835(3) 0.36606(16) 0.0360(5) Uani 1 1 d . .
H4O H 0.538(7) -0.143(5) 0.416(3) 0.068(13) Uiso 1 1 d . .
C1 C -0.0277(4) 0.2607(3) 0.34293(19) 0.0292(6) Uani 1 1 d . .
H1 H 0.0889 0.3539 0.3475 0.035 Uiso 1 1 calc R U
C2 C 0.0151(4) 0.1573(3) 0.43831(19) 0.0329(6) Uani 1 1 d . .
H2A H 0.0093 0.2324 0.4959 0.039 Uiso 1 1 calc R U
H2B H -0.1066 0.0699 0.4351 0.039 Uiso 1 1 calc R U
C3 C 0.2485(4) 0.0721(4) 0.45231(19) 0.0332(6) Uani 1 1 d . .
H3 H 0.2676 -0.0062 0.5111 0.040 Uiso 1 1 calc R U
C4 C 0.2727(4) -0.0288(3) 0.35961(18) 0.0276(5) Uani 1 1 d . .
H4 H 0.1688 -0.1302 0.3532 0.033 Uiso 1 1 calc R U
C5 C 0.2107(4) 0.0809(3) 0.26518(18) 0.0258(5) Uani 1 1 d . .
H5 H 0.3253 0.1753 0.2688 0.031 Uiso 1 1 calc R U
C6 C -0.2756(5) 0.4753(4) 0.2613(2) 0.0447(7) Uani 1 1 d . .
H6A H -0.2241 0.4464 0.1985 0.054 Uiso 1 1 calc R U
H6B H -0.1799 0.5706 0.2936 0.054 Uiso 1 1 calc R U
C7 C -0.5206(5) 0.5263(4) 0.2390(3) 0.0531(9) Uani 1 1 d . .
H7A H -0.5398 0.6252 0.1944 0.064 Uiso 1 1 calc R U
H7B H -0.6143 0.4318 0.2065 0.064 Uiso 1 1 calc R U
H7C H -0.5702 0.5558 0.3013 0.064 Uiso 1 1 calc R U
C8 C 0.2095(4) -0.0211(3) 0.17144(18) 0.0262(5) Uani 1 1 d . .
C9 C 0.0264(4) -0.1296(3) 0.1347(2) 0.0352(6) Uani 1 1 d . .
H9 H -0.0995 -0.1387 0.1682 0.042 Uiso 1 1 calc R U
C10 C 0.0278(5) -0.2246(4) 0.0489(2) 0.0445(8) Uani 1 1 d . .
H10 H -0.0970 -0.2986 0.0240 0.053 Uiso 1 1 calc R U
C11 C 0.2105(5) -0.2115(4) -0.0002(2) 0.0439(7) Uani 1 1 d . .
H11 H 0.2103 -0.2758 -0.0591 0.053 Uiso 1 1 calc R U
C12 C 0.3930(5) -0.1052(4) 0.0363(2) 0.0411(7) Uani 1 1 d . .
H12 H 0.5186 -0.0964 0.0025 0.049 Uiso 1 1 calc R U
C13 C 0.3932(4) -0.0112(3) 0.12233(19) 0.0328(6) Uani 1 1 d . .
H13 H 0.5203 0.0606 0.1478 0.039 Uiso 1 1 calc R U
loop_
_atom_site_aniso_label
_atom_site_aniso_U_11
_atom_site_aniso_U_22
_atom_site_aniso_U_33
_atom_site_aniso_U_23
_atom_site_aniso_U_13
_atom_site_aniso_U_12
O1 0.0329(9) 0.0299(9) 0.0258(9) -0.0029(7) 0.0034(7) 0.0063(7)
O2 0.0362(10) 0.0300(10) 0.0371(11) 0.0016(8) 0.0083(8) 0.0075(8)
O3 0.0383(11) 0.0545(13) 0.0410(12) -0.0184(10) 0.0073(9) -0.0099(10)
O4 0.0339(10) 0.0418(11) 0.0310(11) 0.0050(9) 0.0033(8) 0.0070(8)
C1 0.0315(13) 0.0285(13) 0.0276(13) -0.0053(10) 0.0056(10) 0.0007(10)
C2 0.0341(14) 0.0365(15) 0.0293(14) -0.0008(12) 0.0088(11) -0.0002(12)
C3 0.0333(14) 0.0400(15) 0.0252(14) 0.0005(11) 0.0033(11) -0.0028(12)
C4 0.0290(12) 0.0270(13) 0.0253(13) 0.0003(10) 0.0020(10) -0.0006(11)
C5 0.0251(12) 0.0260(13) 0.0259(14) -0.0008(10) 0.0041(10) -0.0029(10)
C6 0.0548(18) 0.0347(15) 0.0462(18) 0.0094(14) 0.0135(14) 0.0092(14)
C7 0.057(2) 0.0326(16) 0.068(2) 0.0108(16) 0.0060(16) 0.0113(14)
C8 0.0289(12) 0.0222(11) 0.0257(13) 0.0028(10) 0.0009(10) 0.0029(10)
C9 0.0315(13) 0.0388(15) 0.0350(15) -0.0050(12) 0.0055(11) -0.0006(11)
C10 0.0413(17) 0.0424(18) 0.0446(18) -0.0140(15) -0.0043(13) -0.0002(13)
C11 0.0494(17) 0.0482(18) 0.0321(16) -0.0092(14) 0.0032(13) 0.0134(15)
C12 0.0420(16) 0.0498(17) 0.0333(16) 0.0024(13) 0.0117(12) 0.0101(14)
C13 0.0338(13) 0.0317(14) 0.0323(14) 0.0006(12) 0.0050(11) -0.0001(12)
loop_
_atom_type_symbol
_atom_type_description
_atom_type_scat_dispersion_real
_atom_type_scat_dispersion_imag
_atom_type_scat_source
C C 0.0033 0.0016 'International Tables Vol C Tables 4.2.6.8 and 6.1.1.4'
H H 0.0000 0.0000 'International Tables Vol C Tables 4.2.6.8 and 6.1.1.4'
O O 0.0106 0.0060 'International Tables Vol C Tables 4.2.6.8 and 6.1.1.4'
loop_
_geom_angle_atom_site_label_1
_geom_angle_atom_site_label_2
_geom_angle_atom_site_label_3
_geom_angle
C1 O1 C5 112.57(18)
C1 O2 C6 112.9(2)
O2 C1 O1 107.51(19)
O2 C1 C2 109.6(2)
O1 C1 C2 109.6(2)
C3 C2 C1 110.0(2)
O3 C3 C2 108.1(2)
O3 C3 C4 109.8(2)
C2 C3 C4 110.9(2)
O4 C4 C3 110.6(2)
O4 C4 C5 106.99(19)
C3 C4 C5 111.0(2)
O1 C5 C8 108.26(19)
O1 C5 C4 109.27(18)
C8 C5 C4 112.0(2)
O2 C6 C7 109.2(2)
C13 C8 C9 119.2(2)
C13 C8 C5 120.4(2)
C9 C8 C5 120.4(2)
C10 C9 C8 120.0(2)
C11 C10 C9 120.2(3)
C12 C11 C10 120.1(3)
C11 C12 C13 120.0(3)
C8 C13 C12 120.5(2)
loop_
_geom_bond_atom_site_label_1
_geom_bond_atom_site_label_2
_geom_bond_distance
O1 C1 1.434(3)
O1 C5 1.437(3)
O2 C1 1.391(3)
O2 C6 1.449(4)
O3 C3 1.442(3)
O4 C4 1.417(3)
C1 C2 1.514(4)
C2 C3 1.513(4)
C3 C4 1.524(4)
C4 C5 1.535(3)
C5 C8 1.509(3)
C6 C7 1.477(4)
C8 C13 1.386(3)
C8 C9 1.393(3)
C9 C10 1.390(4)
C10 C11 1.382(4)
C11 C12 1.380(4)
C12 C13 1.388(4)
loop_
_geom_hbond_atom_site_label_D
_geom_hbond_atom_site_label_H
_geom_hbond_atom_site_label_A
_geom_hbond_distance_DH
_geom_hbond_distance_HA
_geom_hbond_distance_DA
_geom_hbond_angle_DHA
_geom_hbond_site_symmetry_A
O3 H3O O4 0.82(4) 2.28(4) 2.758(3) 118(4) .
O4 H4O O3 0.82(4) 1.94(4) 2.755(3) 172(4) 2_646
loop_
_geom_torsion_atom_site_label_1
_geom_torsion_atom_site_label_2
_geom_torsion_atom_site_label_3
_geom_torsion_atom_site_label_4
_geom_torsion
C6 O2 C1 O1 -82.1(2)
C6 O2 C1 C2 158.8(2)
C5 O1 C1 O2 176.89(19)
C5 O1 C1 C2 -64.1(2)
O2 C1 C2 C3 176.0(2)
O1 C1 C2 C3 58.3(3)
C1 C2 C3 O3 67.4(3)
C1 C2 C3 C4 -52.9(3)
O3 C3 C4 O4 50.5(3)
C2 C3 C4 O4 169.9(2)
O3 C3 C4 C5 -68.1(3)
C2 C3 C4 C5 51.2(3)
C1 O1 C5 C8 -176.33(19)
C1 O1 C5 C4 61.5(2)
O4 C4 C5 O1 -174.9(2)
C3 C4 C5 O1 -54.1(2)
O4 C4 C5 C8 65.2(2)
C3 C4 C5 C8 -174.1(2)
C1 O2 C6 C7 173.1(2)
O1 C5 C8 C13 137.4(2)
C4 C5 C8 C13 -102.1(3)
O1 C5 C8 C9 -44.2(3)
C4 C5 C8 C9 76.3(3)
C13 C8 C9 C10 -0.9(4)
C5 C8 C9 C10 -179.3(3)
C8 C9 C10 C11 -0.1(4)
C9 C10 C11 C12 0.6(4)
C10 C11 C12 C13 -0.1(4)
C9 C8 C13 C12 1.4(4)
C5 C8 C13 C12 179.8(2)
C11 C12 C13 C8 -0.9(4)
