#------------------------------------------------------------------------------
#$Date: 2015-08-10 13:04:37 +0300 (Mon, 10 Aug 2015) $
#$Revision: 153317 $
#$URL: svn://www.crystallography.net/cod/cif/1/52/93/1529387.cif $
#------------------------------------------------------------------------------
#
# This file is available in the Crystallography Open Database (COD),
# http://www.crystallography.net/
#
# All data on this site have been placed in the public domain by the
# contributors.
#
data_1529387
loop_
_publ_author_name
'A.M. Astakhov'
'A.D. Vasiliev'
'M.S. Molokeev'
'L.A. Kruglyakova'
'A.M. Sirotinin'
'R.S. Stepanov'
_publ_section_title
;
 Crystal and molecular structure of nitraminotetrazole and
 nitramino-1,2,4-triazole. IV. 5-nitraminotetrazole sodium salt
 sesquihydrate
;
_journal_issue                   3
_journal_name_full               'Journal of Structural Chemistry'
_journal_page_first              537
_journal_page_last               540
_journal_paper_doi               10.1007/s10947-005-0026-5
_journal_volume                  45
_journal_year                    2004
_chemical_formula_sum            'C3 H8 F N4 O2'
_chemical_formula_weight         151.13
_space_group_crystal_system      monoclinic
_space_group_IT_number           14
_space_group_name_Hall           '-P 2ybc'
_space_group_name_H-M_alt        'P 1 21/c 1'
_symmetry_space_group_name_Hall  '-P 2ybc'
_symmetry_space_group_name_H-M   'P 1 21/c 1'
_atom_sites_solution_hydrogens   difmap
_audit_creation_method           SHELXL-2014/7
_cell_angle_alpha                90
_cell_angle_beta                 110.68(3)
_cell_angle_gamma                90
_cell_formula_units_Z            4
_cell_length_a                   3.5510(10)
_cell_length_b                   21.834(4)
_cell_length_c                   9.075(2)
_cell_measurement_temperature    293(2)
_cell_volume                     658.3(3)
_computing_structure_refinement  'SHELXL-2014/7 (Sheldrick, 2014)'
_diffrn_ambient_temperature      293(2)
_diffrn_measured_fraction_theta_full 1.000
_diffrn_measured_fraction_theta_max 1.000
_diffrn_radiation_wavelength     1.5406
_diffrn_reflns_av_R_equivalents  0.0300
_diffrn_reflns_av_unetI/netI     0.0084
_diffrn_reflns_laue_measured_fraction_full 1.000
_diffrn_reflns_laue_measured_fraction_max 1.000
_diffrn_reflns_limit_h_max       4
_diffrn_reflns_limit_h_min       0
_diffrn_reflns_limit_k_max       26
_diffrn_reflns_limit_k_min       -16
_diffrn_reflns_limit_l_max       10
_diffrn_reflns_limit_l_min       -10
_diffrn_reflns_number            1299
_diffrn_reflns_point_group_measured_fraction_full 1.000
_diffrn_reflns_point_group_measured_fraction_max 1.000
_diffrn_reflns_theta_full        25.000
_diffrn_reflns_theta_max         69.975
_diffrn_reflns_theta_min         4.046
_exptl_absorpt_coefficient_mu    1.260
_exptl_crystal_density_diffrn    1.525
_exptl_crystal_F_000             316
_refine_diff_density_max         0.611
_refine_diff_density_min         -0.327
_refine_diff_density_rms         0.109
_refine_ls_extinction_coef       0.041(6)
_refine_ls_extinction_expression Fc^*^=kFc[1+0.001xFc^2^\l^3^/sin(2\q)]^-1/4^
_refine_ls_extinction_method     'SHELXL-2014/7 (Sheldrick 2014'
_refine_ls_goodness_of_fit_ref   0.847
_refine_ls_hydrogen_treatment    refall
_refine_ls_matrix_type           full
_refine_ls_number_parameters     126
_refine_ls_number_reflns         1257
_refine_ls_number_restraints     0
_refine_ls_restrained_S_all      0.847
_refine_ls_R_factor_all          0.0634
_refine_ls_R_factor_gt           0.0618
_refine_ls_shift/su_max          0.100
_refine_ls_shift/su_mean         0.006
_refine_ls_structure_factor_coef Fsqd
_refine_ls_weighting_details
'w=1/[\s^2^(Fo^2^)+(0.1432P)^2^+1.0583P] where P=(Fo^2^+2Fc^2^)/3'
_refine_ls_weighting_scheme      calc
_refine_ls_wR_factor_gt          0.1767
_refine_ls_wR_factor_ref         0.1790
_reflns_Friedel_coverage         0.000
_reflns_friedel_fraction_full    .
_reflns_friedel_fraction_max     .
_reflns_number_gt                1193
_reflns_number_total             1257
_reflns_threshold_expression     'I > 2\s(I)'
_cod_data_source_file            C3H8FN4O2.cif
_cod_data_source_block           m
_cod_database_code               1529387
_shelx_shelxl_version_number     2014/7
_shelx_space_group_comment
;
The symmetry employed for this shelxl refinement is uniquely defined
by the following loop, which should always be used as a source of
symmetry information in preference to the above space-group names.
They are only intended as comments.
;
_shelx_res_file
;

    MSS.res created by SHELXL-2014/7

TITL MSS-5-NATZ in P2(1)/c
CELL 1.5406    3.551   21.834    9.075   90.000 110.68   90.000
ZERR    4.00   0.001    0.004    0.002    0.000   0.03    0.000
LATT  1
SYMM -X, 0.5+Y, 0.5-Z
SFAC C N O H F
UNIT 12 16 8 32 4
ACTA 50
L.S. 10
BOND
FMAP 2
PLAN 20
WGHT    0.143200    1.058300
EXTI    0.041346
FVAR       0.35755
S     5    0.055352    0.458256    0.328646    11.00000    0.02397    0.03069 =
         0.04194   -0.01595    0.00783   -0.00349
N1    2   -0.441385    0.590164    0.335653    11.00000    0.03694    0.03150 =
         0.03664    0.00422    0.00978    0.00347
O1    3   -0.229546    0.630617    0.421203    11.00000    0.05309    0.04104 =
         0.03926    0.00245   -0.00425   -0.00058
N2    2   -0.617295    0.712936    0.220992    11.00000    0.03395    0.02999 =
         0.02842    0.00092    0.00120    0.00101
O2    3   -0.392674    0.534804    0.381038    11.00000    0.05479    0.03317 =
         0.05653    0.01306    0.01617    0.00712
N3    2   -0.784988    0.759604    0.123354    11.00000    0.04114    0.03212 =
         0.03415    0.00312    0.00054    0.00207
N4    2   -0.720417    0.600385    0.198843    11.00000    0.03906    0.03216 =
         0.03840   -0.00024    0.00492   -0.00104
N5    2   -1.047717    0.673945    0.010663    11.00000    0.03361    0.03712 =
         0.03057   -0.00185   -0.00002   -0.00037
N6    2   -1.040478    0.735341   -0.001178    11.00000    0.03914    0.03721 =
         0.03194    0.00219    0.00025    0.00162
C     1   -0.779185    0.660505    0.151506    11.00000    0.02974    0.03279 =
         0.02930   -0.00128    0.00707   -0.00040
Q4    3    0.508966    0.391466    0.271155    11.00000    0.04949    0.03883 =
         0.04439   -0.00522    0.00224    0.00155
Q1    1   -0.196395    0.491857    0.058068    11.00000    0.29443    0.08114 =
         0.09399   -0.01250    0.06606   -0.00326
H1    4   -0.421496    0.723080    0.313968    11.00000    0.06256
H3    4    0.361041    0.375505    0.171330    11.00000    0.10115
H4    4    0.644806    0.350426    0.351847    11.00000    0.15872
H5    4   -0.929315    0.795244    0.207223    11.00000    0.27438
HKLF 4

REM  MSS-5-NATZ in P2(1)/c
REM R1 =  0.0618 for    1193 Fo > 4sig(Fo)  and  0.0634 for all    1257 data
REM    126 parameters refined using      0 restraints

END

WGHT      0.0898      0.7009

REM Highest difference peak  0.611,  deepest hole -0.327,  1-sigma level  0.109
Q1    1   0.0062  0.4749  0.2625  11.00000  0.05    0.61
Q2    1  -0.2080  0.6804  0.4240  11.00000  0.05    0.35
Q3    1  -0.6935  0.8001  0.1429  11.00000  0.05    0.34
Q4    1  -0.3233  0.6727  0.3656  11.00000  0.05    0.32
Q5    1  -1.0007  0.6210  0.0335  11.00000  0.05    0.30
Q6    1  -1.0204  0.7887 -0.0033  11.00000  0.05    0.28
Q7    1  -1.1439  0.6413 -0.0351  11.00000  0.05    0.27
Q8    1  -1.1810  0.7692 -0.0585  11.00000  0.05    0.27
Q9    1  -0.6146  0.6786  0.1965  11.00000  0.05    0.27
Q10   1  -0.7028  0.6374  0.1840  11.00000  0.05    0.27
Q11   1  -0.7637  0.5544  0.1890  11.00000  0.05    0.26
Q12   1  -0.4532  0.6415  0.2954  11.00000  0.05    0.24
Q13   1  -0.3042  0.7717  0.3682  11.00000  0.05    0.22
Q14   1  -0.7984  0.7106  0.1042  11.00000  0.05    0.22
Q15   1  -0.1960  0.5795  0.4306  11.00000  0.05    0.21
Q16   1  -0.9253  0.5821  0.0665  11.00000  0.05    0.21
Q17   1  -0.0316  0.5999  0.5161  11.00000  0.05    0.21
Q18   1  -0.4135  0.7622  0.2847  11.00000  0.05    0.21
Q19   1   0.8940  0.3923  0.3744  11.00000  0.05    0.21
Q20   1  -1.0872  0.7068 -0.0033  11.00000  0.05    0.20
;
_shelx_res_checksum              47063
_shelx_hkl_file
;
   0   0 -10    1.92    0.05   1-0.20733-0.43515-0.40150 0.40100-0.90782-0.90782
   0   1 -10   14.84    0.13   1-0.21210-0.43035-0.36412 0.43425-0.92334-0.89229
   0   2 -10    2.82    0.06   1-0.21769-0.42473-0.32333 0.46407-0.93843-0.87718
   0   3 -10    0.66    0.02   1-0.22400-0.41840-0.27908 0.49044-0.95269-0.86290
   0   4 -10    1.25    0.04   1-0.23095-0.41143-0.23129 0.51328-0.96571-0.84986
   0   5 -10    1.30    0.04   1-0.23845-0.40390-0.17982 0.53243-0.97703-0.83851
   0   6 -10    1.17    0.04   1-0.24647-0.39587-0.12442 0.54766-0.98619-0.82934
   0  13  -9    0.42    0.01   1-0.24778-0.33014 0.16866 0.74898-0.97994-0.65389
   0  12  -9    0.35    0.01   1-0.23863-0.33932 0.09255 0.75446-0.98856-0.64528
   0  11  -9    0.18    0.01   1-0.22941-0.34856 0.02140 0.75499-0.99131-0.64256
   0  10  -9    4.34    0.08   1-0.22009-0.35790-0.04580 0.75158-0.98925-0.64464
   0   9  -9    0.20    0.01   1-0.21068-0.36734-0.10962 0.74477-0.98312-0.65079
   0   8  -9   11.87    0.13   1-0.20121-0.37683-0.17034 0.73487-0.97345-0.66048
   0   7  -9   11.90    0.14   1-0.19174-0.38632-0.22814 0.72204-0.96070-0.67324
   0   6  -9    4.73    0.09   1-0.18234-0.39575-0.28308 0.70636-0.94527-0.68870
   0   5  -9    2.00    0.06   1-0.17309-0.40502-0.33517 0.68783-0.92752-0.70646
   0   4  -9    1.36    0.05   1-0.16407-0.41406-0.38440 0.66644-0.90783-0.72617
   0   3  -9    2.16    0.06   1-0.15540-0.42276-0.43073 0.64215-0.88656-0.74746
   0   2  -9    1.49    0.05   1-0.14717-0.43101-0.47412 0.61491-0.86409-0.76995
   0   1  -9    1.55    0.05   1-0.13950-0.43870-0.51452 0.58469-0.84078-0.79328
   0   0  -8    4.75    0.10   1-0.07027-0.44371-0.65794 0.65754-0.72626-0.72626
   0   1  -8    0.33    0.01   1-0.07953-0.43442-0.62028 0.69050-0.75811-0.69438
   0   2  -8   29.53    0.25   1-0.08945-0.42448-0.57945 0.72030-0.78943-0.66304
   0   3  -8    0.38    0.01   1-0.09988-0.41403-0.53555 0.74702-0.81977-0.63269
   0   4  -8   17.02    0.19   1-0.11067-0.40322-0.48867 0.77076-0.84869-0.60375
   0   5  -8    3.72    0.09   1-0.12168-0.39218-0.43894 0.79165-0.87579-0.57663
   0   6  -8    0.41    0.01   1-0.13280-0.38104-0.38650 0.80983-0.90070-0.55170
   0   7  -8   34.70    0.27   1-0.14390-0.36991-0.33151 0.82547-0.92308-0.52930
   0   8  -8    0.25    0.01   1-0.15488-0.35891-0.27411 0.83868-0.94260-0.50976
   0   9  -8   19.41    0.20   1-0.16563-0.34814-0.21441 0.84961-0.95897-0.49337
   0  10  -8    6.02    0.11   1-0.17609-0.33766-0.15253 0.85835-0.97191-0.48041
   0  11  -8   14.24    0.16   1-0.18618-0.32755-0.08849 0.86494-0.98111-0.47119
   0  12  -8    5.77    0.10   1-0.19584-0.31786-0.02229 0.86936-0.98626-0.46603
   0  13  -8    1.67    0.05   1-0.20503-0.30864 0.04620 0.87149-0.98695-0.46531
   0  14  -8    5.44    0.09   1-0.21373-0.29992 0.11724 0.87108-0.98269-0.46956
   0  15  -8    5.38    0.08   1-0.22190-0.29172 0.19131 0.86763-0.97273-0.47949
   0  16  -8    0.16    0.01   1-0.22956-0.28405 0.26933 0.86023-0.95594-0.49626
   0  19  -7    3.43    0.06   1-0.21693-0.23236 0.41860 0.92287-0.90149-0.36909
   0  18  -7    1.44    0.04   1-0.21195-0.23736 0.33834 0.93251-0.93245-0.33815
   0  17  -7   15.04    0.15   1-0.20607-0.24326 0.26205 0.93818-0.95466-0.31596
   0  16  -7    0.89    0.03   1-0.19934-0.25002 0.18846 0.94115-0.96992-0.30072
   0  15  -7    0.13    0.01   1-0.19179-0.25759 0.11687 0.94211-0.97925-0.29141
   0   2   0    1.72    0.02   1-0.20881 0.20885 0.07062 0.07062-0.98617 0.98621
   0   4   0    1.32    0.02   1-0.20721 0.20730 0.14124 0.14124-0.97870 0.97878
   0   6   0   59.78    0.47   1-0.20453 0.20467 0.21187 0.21187-0.96615 0.96627
   0   8   0  131.22    0.83   1-0.20073 0.20092 0.28249 0.28249-0.94831 0.94847
   0  10   0    8.32    0.08   1-0.19575 0.19598 0.35311 0.35311-0.92487 0.92506
   0  12   0   16.69    0.14   1-0.18949 0.18977 0.42373 0.42373-0.89539 0.89563
   0  14   0  178.79    1.44   1-0.18182 0.18214 0.49436 0.49436-0.85926 0.85953
   0  16   0   72.74    0.35   1-0.17255 0.17292 0.56498 0.56498-0.81559 0.81590
   0  18   0    3.30    0.08   1-0.16141 0.16183 0.63560 0.63560-0.76308 0.76343
   0  20   0    2.86    0.08   1-0.14798 0.14845 0.70622 0.70622-0.69976 0.70015
   0  22   0    9.35    0.14   1-0.13157 0.13208 0.77685 0.77685-0.62233 0.62276
   0  24   0   13.29    0.14   1-0.11085 0.11141 0.84747 0.84747-0.52459 0.52506
   0  26   0    0.47    0.02   1-0.08268 0.08328 0.91809 0.91809-0.39162 0.39213
   0  26   1    0.05    0.00   1-0.05789 0.12274 0.95579 0.88045-0.28993 0.47200
   0  25   1    2.18    0.05   1-0.07592 0.14075 0.92960 0.83601-0.36399 0.54604
   0  24   1    9.02    0.12   1-0.09106 0.15587 0.90279 0.79220-0.42516 0.60719
   0  23   1    3.54    0.08   1-0.10430 0.16908 0.87574 0.74863-0.47759 0.65960
   0  22   1   11.27    0.15   1-0.11615 0.18091 0.84868 0.70506-0.52351 0.70551
   0  21   1    4.80    0.10   1-0.12695 0.19169 0.82178 0.66134-0.56428 0.74625
   0  20   1    1.28    0.04   1-0.13693 0.20165 0.79517 0.61733-0.60077 0.78273
   0  19   1    8.90    0.14   1-0.14625 0.21094 0.76898 0.57289-0.63362 0.81556
   0  18   1   16.33    0.18   1-0.15503 0.21970 0.74335 0.52790-0.66327 0.84519
   0  17   1   28.66    0.23   1-0.16339 0.22803 0.71843 0.48221-0.69004 0.87194
   0  16   1   47.65    0.29   1-0.17142 0.23604 0.69437 0.43564-0.71418 0.89605
   0  15   1    2.81    0.07   1-0.17921 0.24381 0.67140 0.38799-0.73583 0.91769
   0  14   1   30.53    0.21   1-0.18684 0.25142 0.64975 0.33902-0.75512 0.93696
   0  13   1   91.76    0.98   1-0.19441 0.25897 0.62974 0.28841-0.77207 0.95389
   0  12   1    0.18    0.01   1-0.20203 0.26656 0.61177 0.23575-0.78666 0.96846
   0  11   1  138.32    1.07   1-0.20980 0.27430 0.59638 0.18052-0.79877 0.98054
   0  10   1   15.14    0.12   1-0.21786 0.28234 0.58427 0.12201-0.80814 0.98990
   0   9   1    0.16    0.00   1-0.22639 0.29085 0.57641 0.05924-0.81434 0.99608
   0   8   1   42.06    0.48   1-0.23560 0.30003 0.57415-0.00912-0.81661 0.99834
   0   7   1    1.90    0.03   1-0.24574 0.31015 0.57940-0.08499-0.81364 0.99534
   0   6   1    1.72    0.03   1-0.25709 0.32148 0.59493-0.17115-0.80310 0.98478
   0   5   1  159.49    0.74   1-0.26990 0.33426 0.62469-0.27153-0.78067 0.96233
   0   4   1   65.84    0.43   1-0.28403 0.34837 0.67404-0.39150-0.73810 0.91974
   0   3   1   80.81    0.43   1-0.29793 0.36225 0.74864-0.53672-0.65913 0.84076
   0   2   1  133.88    0.50   1-0.30559 0.36988 0.84758-0.70628-0.51360 0.69520
   0   1   1   52.56    0.29   1-0.29077 0.35504 0.94149-0.87081-0.26167 0.44325
   0   0   2   90.80    0.53   1-0.19543 0.32392 0.94335-0.94325 0.18156 0.18156
   0   1   2  105.22    0.57   1-0.23123 0.35975 0.96889-0.89817 0.00002 0.36313
   0   2   2   93.85    0.56   1-0.25396 0.38250 0.96371-0.82236-0.16578 0.52894
   0   3   2  112.11    0.64   1-0.26471 0.39328 0.93770-0.72573-0.30367 0.66686
   0   4   2  120.41    0.70   1-0.26658 0.39517 0.90244-0.61985-0.41051 0.77372
   0   5   2   21.26    0.11   1-0.26279 0.39140 0.86663-0.51342-0.48938 0.85261
   0   6   2  164.66    0.91   1-0.25579 0.38442 0.83516-0.41133-0.54564 0.90889
   0   7   2    0.01    0.01   1-0.24715 0.37581 0.81003-0.31558-0.58456 0.94782
   0   8   2   11.49    0.09   1-0.23778 0.36646 0.79159-0.22651-0.61038 0.97366
   0   9   2    0.06    0.00   1-0.22816 0.35686 0.77942-0.14372-0.62625 0.98955
   0  10   2  101.28    0.91   1-0.21851 0.34724 0.77278-0.06646-0.63443 0.99775
   0  11   2   44.09    0.22   1-0.20893 0.33768 0.77092 0.00603-0.63649 0.99983
   0  12   2   63.99    0.28   1-0.19942 0.32820 0.77309 0.07448-0.63353 0.99690
   0  13   2    4.61    0.08   1-0.18996 0.31876 0.77868 0.13951-0.62630 0.98969
   0  14   2    7.71    0.11   1-0.18050 0.30932 0.78713 0.20169-0.61530 0.97870
   0  15   2   22.20    0.19   1-0.17096 0.29981 0.79797 0.26147-0.60084 0.96427
   0  16   2   81.12    0.38   1-0.16128 0.29015 0.81082 0.31924-0.58311 0.94655
   0  17   2   40.93    0.28   1-0.15137 0.28027 0.82533 0.37535-0.56214 0.92560
   0  18   2    3.57    0.09   1-0.14115 0.27006 0.84123 0.43008-0.53791 0.90139
   0  19   2    0.01    0.02   1-0.13050 0.25944 0.85823 0.48369-0.51025 0.87375
   0  20   2   24.01    0.22   1-0.11931 0.24827 0.87612 0.53643-0.47888 0.84240
   0  21   2   21.75    0.21   1-0.10742 0.23640 0.89466 0.58851-0.44339 0.80693
   0  22   2    4.59    0.09   1-0.09463 0.22364 0.91360 0.64019-0.40313 0.76669
   0  23   2    0.35    0.01   1-0.08068 0.20971 0.93269 0.69173-0.35713 0.72071
   0  24   2    0.14    0.01   1-0.06513 0.19419 0.95157 0.74347-0.30386 0.66745
   0  25   2    0.12    0.01   1-0.04730 0.17638 0.96972 0.79594-0.24063 0.60425
   0  26   2    0.09    0.00   1-0.02579 0.15490 0.98616 0.85012-0.16211 0.52575
   0  25   3    7.11    0.08   1-0.00977 0.20310 0.99542 0.77030-0.09226 0.63744
   0  24   3    2.40    0.06   1-0.03110 0.22440 0.98665 0.70844-0.16029 0.70545
   0  23   3    3.09    0.07   1-0.04927 0.24255 0.97597 0.64849-0.21572 0.76086
   0  22   3    7.63    0.12   1-0.06538 0.25864 0.96446 0.58939-0.26237 0.80749
   0  21   3   18.83    0.19   1-0.08001 0.27325 0.95272 0.53050-0.30225 0.84735
   0  20   3    3.08    0.08   1-0.09354 0.28675 0.94119 0.47141-0.33654 0.88163
   0  19   3   32.73    0.26   1-0.10619 0.29938 0.93019 0.41179-0.36599 0.91106
   0  18   3    0.06    0.02   1-0.11816 0.31132 0.92001 0.35134-0.39106 0.93610
   0  17   3    8.52    0.13   1-0.12956 0.32270 0.91092 0.28981-0.41198 0.95701
   0  16   3    4.50    0.09   1-0.14049 0.33361 0.90316 0.22695-0.42889 0.97390
   0  15   3   71.54    0.36   1-0.15103 0.34412 0.89700 0.16249-0.44175 0.98674
   0  14   3   17.42    0.17   1-0.16121 0.35428 0.89269 0.09618-0.45042 0.99539
   0  13   3    8.87    0.12   1-0.17106 0.36410 0.89049 0.02775-0.45461 0.99956
   0  12   3   13.66    0.14   1-0.18057 0.37359 0.89067-0.04305-0.45390 0.99883
   0  11   3   31.85    0.20   1-0.18968 0.38268 0.89343-0.11644-0.44769 0.99260
   0  10   3   11.09    0.11   1-0.19831 0.39128 0.89896-0.19259-0.43518 0.98007
   0   9   3    6.42    0.08   1-0.20626 0.39922 0.90731-0.27156-0.41537 0.96024
   0   8   3  110.41    0.94   1-0.21328 0.40620 0.91833-0.35320-0.38702 0.93186
   0   7   3   32.25    0.17   1-0.21894 0.41184 0.93155-0.43704-0.34864 0.89347
   0   6   3   98.75    0.81   1-0.22267 0.41555 0.94602-0.52213-0.29865 0.84346
   0   5   3   49.99    0.56   1-0.22370 0.41656 0.96011-0.60685-0.23552 0.78031
   0   4   3   49.00    0.53   1-0.22111 0.41394 0.97141-0.68877-0.15812 0.70289
   0   3   3   85.54    0.68   1-0.21388 0.40669 0.97674-0.76472-0.06631 0.61106
   0   2   3  147.78    0.87   1-0.20111 0.39390 0.97247-0.83108 0.03853 0.50621
   0   1   3  294.64    1.21   1-0.18233 0.37510 0.95529-0.88452 0.15309 0.39163
   0   0   4    1.57    0.04   1-0.11754 0.37453 0.89387-0.89367 0.36313 0.36313
   0   1   4  144.64    1.02   1-0.13584 0.39285 0.92805-0.85722 0.27634 0.44994
   0   2   4  101.63    0.87   1-0.15083 0.40786 0.95325-0.81181 0.19151 0.53479
   0   3   4  101.97    0.88   1-0.16229 0.41935 0.97013-0.75807 0.11108 0.61524
   0   4   4    8.08    0.09   1-0.17026 0.42734 0.97986-0.69717 0.03702 0.68932
   0   5   4    2.11    0.05   1-0.17496 0.43207 0.98391-0.63059-0.02931 0.75567
   0   6   4    0.63    0.02   1-0.17676 0.43389 0.98384-0.55990-0.08716 0.81354
   0   7   4   12.69    0.12   1-0.17606 0.43321 0.98112-0.48656-0.13632 0.86272
   0   8   4    0.32    0.01   1-0.17328 0.43045 0.97700-0.41182-0.17699 0.90341
   0   9   4   66.93    0.30   1-0.16879 0.42599 0.97245-0.33665-0.20963 0.93606
   0  10   4  104.08    1.11   1-0.16291 0.42014 0.96820-0.26178-0.23480 0.96125
   0  11   4   47.29    0.27   1-0.15591 0.41315 0.96474-0.18770-0.25312 0.97959
   0  12   4    3.23    0.07   1-0.14796 0.40523 0.96237-0.11470-0.26517 0.99167
   0  13   4   12.06    0.15   1-0.13922 0.39652 0.96125-0.04296-0.27148 0.99799
   0  14   4    1.70    0.05   1-0.12978 0.38710 0.96142 0.02749-0.27245 0.99898
   0  15   4    6.80    0.12   1-0.11968 0.37702 0.96286 0.09668-0.26843 0.99499
   0  16   4    1.17    0.04   1-0.10894 0.36630 0.96546 0.16470-0.25965 0.98622
   0  17   4   18.94    0.20   1-0.09753 0.35492 0.96909 0.23170-0.24620 0.97279
   0  18   4   24.04    0.22   1-0.08541 0.34282 0.97357 0.29784-0.22808 0.95468
   0  19   4    0.84    0.03   1-0.07247 0.32990 0.97868 0.36335-0.20513 0.93175
   0  20   4    2.12    0.07   1-0.05856 0.31602 0.98415 0.42850-0.17700 0.90365
   0  21   4    0.32    0.01   1-0.04346 0.30094 0.98964 0.49363-0.14311 0.86978
   0  22   4    0.64    0.02   1-0.02684 0.28434 0.99466 0.55923-0.10242 0.82911
   0  23   4    0.38    0.01   1-0.00811 0.26564 0.99851 0.62601-0.05320 0.77991
   0  24   4    7.18    0.08   1 0.01373 0.24383 0.99991 0.69523 0.00784 0.71889
   0  23   5    0.21    0.01   1 0.04621 0.27556 0.99096 0.63361 0.13444 0.77383
   0  22   5    1.03    0.03   1 0.02321 0.29854 0.99700 0.55695 0.07756 0.83069
   0  21   5    0.62    0.02   1 0.00374 0.31799 0.99943 0.48390 0.03302 0.87522
   0  20   5    3.99    0.08   1-0.01337 0.33508 0.99990 0.41279-0.00262 0.91084
   0  19   5    5.86    0.10   1-0.02873 0.35041 0.99932 0.34275-0.03113 0.93932
   0  18   5    2.84    0.08   1-0.04269 0.36435 0.99822 0.27323-0.05351 0.96168
   0  17   5    6.52    0.12   1-0.05548 0.37711 0.99696 0.20387-0.07034 0.97850
   0  16   5    0.85    0.03   1-0.06723 0.38885 0.99576 0.13445-0.08197 0.99010
   0  15   5    5.89    0.11   1-0.07803 0.39962 0.99478 0.06480-0.08854 0.99665
   0  14   5   34.29    0.27   1-0.08790 0.40946 0.99409-0.00513-0.09008 0.99817
   0  13   5    5.58    0.11   1-0.09683 0.41837 0.99369-0.07535-0.08653 0.99460
   0  12   5   33.18    0.25   1-0.10478 0.42630 0.99350-0.14578-0.07774 0.98580
   0  11   5   11.36    0.15   1-0.11167 0.43316 0.99337-0.21627-0.06354 0.97158
   0  10   5   13.56    0.16   1-0.11739 0.43886 0.99304-0.28657-0.04372 0.95173
   0   9   5   14.85    0.16   1-0.12180 0.44325 0.99216-0.35630-0.01806 0.92605
   0   8   5    2.47    0.06   1-0.12473 0.44616 0.99024-0.42501 0.01360 0.89437
   0   7   5    3.44    0.07   1-0.12599 0.44739 0.98669-0.49208 0.05134 0.85661
   0   6   5   34.57    0.22   1-0.12537 0.44675 0.98082-0.55684 0.09511 0.81283
   0   5   5   25.10    0.19   1-0.12268 0.44403 0.97185-0.61849 0.14466 0.76326
   0   4   5   10.80    0.12   1-0.11776 0.43909 0.95898-0.67624 0.19953 0.70837
   0   3   5   88.34    0.97   1-0.11048 0.43179 0.94141-0.72929 0.25899 0.64889
   0   2   5    4.78    0.08   1-0.10082 0.42210 0.91849-0.77699 0.32203 0.58583
   0   1   5   18.04    0.15   1-0.08883 0.41009 0.88972-0.81885 0.38746 0.52038
   0   0   6   60.38    0.31   1-0.02871 0.41419 0.80461-0.80431 0.54469 0.54469
   0   1   6    7.57    0.11   1-0.03986 0.42537 0.83969-0.76877 0.49257 0.59684
   0   2   6    0.08    0.01   1-0.04945 0.43499 0.87023-0.72868 0.44106 0.64837
   0   3   6   42.60    0.27   1-0.05736 0.44291 0.89633-0.68416 0.39103 0.69841
   0   4   6    9.76    0.13   1-0.06350 0.44907 0.91822-0.63543 0.34329 0.74617
   0   5   6    1.07    0.03   1-0.06785 0.45345 0.93623-0.58282 0.29855 0.79093
   0   6   6    0.69    0.02   1-0.07044 0.45607 0.95078-0.52674 0.25740 0.83210
   0   7   6    2.07    0.06   1-0.07133 0.45697 0.96230-0.46765 0.22031 0.86921
   0   8   6   33.34    0.25   1-0.07058 0.45625 0.97128-0.40600 0.18763 0.90191
   0   9   6    8.57    0.13   1-0.06830 0.45399 0.97814-0.34224 0.15960 0.92997
   0  10   6   15.44    0.18   1-0.06457 0.45029 0.98330-0.27677 0.13636 0.95323
   0  11   6   57.24    0.35   1-0.05950 0.44524 0.98710-0.20996 0.11799 0.97161
   0  12   6   28.71    0.25   1-0.05314 0.43891 0.98985-0.14208 0.10453 0.98509
   0  13   6    0.74    0.02   1-0.04557 0.43136 0.99175-0.07335 0.09601 0.99363
   0  14   6   15.75    0.18   1-0.03682 0.42263 0.99294-0.00393 0.09246 0.99721
   0  15   6    0.04    0.02   1-0.02689 0.41272 0.99351 0.06613 0.09394 0.99574
   0  16   6   10.94    0.15   1-0.01573 0.40159 0.99343 0.13683 0.10060 0.98910
   0  17   6   17.46    0.18   1-0.00328 0.38916 0.99258 0.20830 0.11270 0.97702
   0  18   6    0.45    0.02   1 0.01064 0.37527 0.99072 0.28078 0.13065 0.95908
   0  19   6    0.55    0.02   1 0.02627 0.35965 0.98745 0.35468 0.15518 0.93458
   0  20   6    0.38    0.01   1 0.04409 0.34186 0.98202 0.43073 0.18750 0.90228
   0  21   6    0.57    0.02   1 0.06489 0.32108 0.97314 0.51023 0.22980 0.85999
   0  19   7    3.20    0.06   1 0.09666 0.35351 0.93267 0.40951 0.35950 0.91183
   0  18   7    1.31    0.04   1 0.07718 0.37298 0.94411 0.32744 0.32725 0.94405
   0  17   7   14.68    0.14   1 0.06070 0.38943 0.95137 0.24956 0.30417 0.96711
   0  16   7    0.81    0.03   1 0.04650 0.40361 0.95574 0.17457 0.28838 0.98289
   0  15   7    0.08    0.01   1 0.03415 0.41593 0.95792 0.10176 0.27882 0.99243
   0  14   7   16.59    0.18   1 0.02343 0.42663 0.95830 0.03076 0.27483 0.99639
   0  13   7    0.70    0.02   1 0.01418 0.43586 0.95706-0.03862 0.27598 0.99523
   0  12   7    2.03    0.07   1 0.00633 0.44369 0.95427-0.10645 0.28195 0.98923
   0  11   7    0.16    0.01   1-0.00016 0.45015 0.94987-0.17267 0.29252 0.97865
   0  10   7   15.23    0.18   1-0.00529 0.45525 0.94376-0.23719 0.30747 0.96368
   0   9   7    4.57    0.10   1-0.00905 0.45899 0.93578-0.29983 0.32660 0.94453
   0   8   7   35.25    0.28   1-0.01141 0.46133 0.92571-0.36038 0.34970 0.92141
   0   7   7   31.36    0.26   1-0.01236 0.46226 0.91331-0.41860 0.37651 0.89458
   0   6   7   30.02    0.25   1-0.01187 0.46174 0.89830-0.47422 0.40674 0.86433
   0   5   7    0.90    0.03   1-0.00991 0.45976 0.88044-0.52698 0.44001 0.83104
   0   4   7    6.60    0.12   1-0.00650 0.45632 0.85946-0.57662 0.47592 0.79511
   0   3   7   41.57    0.29   1-0.00165 0.45145 0.83516-0.62294 0.51397 0.75704
   0   2   7    4.47    0.10   1 0.00460 0.44518 0.80735-0.66575 0.55364 0.71735
   0   1   7    0.22    0.01   1 0.01218 0.43758 0.77592-0.70495 0.59434 0.67663
   0   0   8    4.53    0.10   1 0.07547 0.43851 0.65961-0.65921 0.72626 0.72626
   0   1   8    0.30    0.01   1 0.06866 0.44535 0.69458-0.62356 0.69422 0.75831
   0   2   8   28.38    0.25   1 0.06288 0.45114 0.72636-0.58472 0.66253 0.79002
   0   3   8    0.36    0.01   1 0.05823 0.45582 0.75498-0.54271 0.63165 0.82093
   0   4   8   16.32    0.19   1 0.05477 0.45931 0.78047-0.49758 0.60202 0.85058
   0   5   8    3.43    0.09   1 0.05255 0.46154 0.80293-0.44942 0.57408 0.87853
   0   6   8    0.39    0.01   1 0.05163 0.46249 0.82246-0.39832 0.54825 0.90438
   0   7   8   32.69    0.26   1 0.05203 0.46211 0.83917-0.34442 0.52491 0.92774
   0   8   8    0.05    0.02   1 0.05378 0.46038 0.85320-0.28782 0.50443 0.94825
   0   9   8   17.94    0.19   1 0.05692 0.45727 0.86466-0.22866 0.48713 0.96556
   0  10   8    5.64    0.10   1 0.06147 0.45274 0.87364-0.16702 0.47337 0.97934
   0  11   8   13.47    0.15   1 0.06748 0.44675 0.88019-0.10294 0.46346 0.98927
   0  12   8    5.10    0.09   1 0.07503 0.43923 0.88429-0.03642 0.45778 0.99497
   0  13   8    1.52    0.05   1 0.08422 0.43006 0.88585 0.03265 0.45674 0.99603
   0  14   8    5.03    0.08   1 0.09524 0.41906 0.88459 0.10453 0.46090 0.99189
   0  15   8    4.90    0.08   1 0.10838 0.40595 0.88003 0.17971 0.47103 0.98178
   0  16   8    0.13    0.00   1 0.12414 0.39022 0.87123 0.25913 0.48833 0.96450
   0  13   9    0.39    0.01   1 0.17226 0.40627 0.75836 0.16018 0.64913 0.98521
   0  12   9    0.27    0.01   1 0.15888 0.41962 0.76478 0.08314 0.64040 0.99391
   0  11   9    0.18    0.01   1 0.14823 0.43026 0.76588 0.01141 0.63781 0.99649
   0  10   9    4.23    0.07   1 0.13976 0.43870 0.76274-0.05606 0.64020 0.99407
   0   9   9    0.04    0.02   1 0.13318 0.44526 0.75591-0.11986 0.64680 0.98745
   0   8   9   11.23    0.13   1 0.12827 0.45014 0.74574-0.18031 0.65703 0.97721
   0   7   9   10.77    0.13   1 0.12490 0.45349 0.73238-0.23757 0.67039 0.96383
   0   6   9    4.47    0.09   1 0.12296 0.45541 0.71594-0.29176 0.68645 0.94775
   0   5   9    1.77    0.06   1 0.12236 0.45599 0.69645-0.34289 0.70479 0.92939
   0   4   9    1.33    0.05   1 0.12302 0.45530 0.67392-0.39098 0.72503 0.90913
   0   3   9    2.27    0.06   1 0.12488 0.45342 0.64834-0.43602 0.74677 0.88737
   0   2   9    1.41    0.05   1 0.12785 0.45042 0.61971-0.47802 0.76962 0.86450
   0   1   9    1.50    0.05   1 0.13188 0.44637 0.58803-0.51696 0.79317 0.84093
   0   0  10    1.85    0.05   1 0.21050 0.43197 0.40251-0.40201 0.90782 0.90782
   0   1  10   14.18    0.13   1 0.20745 0.43505 0.43671-0.36559 0.89223 0.92344
   0   2  10    2.78    0.06   1 0.20545 0.43707 0.46746-0.32571 0.87699 0.93869
   0   3  10    0.63    0.02   1 0.20463 0.43792 0.49468-0.28231 0.86252 0.95319
   0   4  10    1.11    0.03   1 0.20508 0.43749 0.51826-0.23527 0.84924 0.96648
   0   5  10    1.26    0.04   1 0.20696 0.43563 0.53802-0.18441 0.83762 0.97812
   0   6  10    1.10    0.03   1 0.21044 0.43217 0.55369-0.12945 0.82817 0.98760
   1  11 -10    7.05    0.08   1-0.02331-0.15479 0.08114 0.69536-0.94020-0.71100
   1  10 -10    0.00    0.01   1-0.01276-0.16536 0.00949 0.69639-0.93970-0.71153
   1   9 -10    5.51    0.08   1-0.00277-0.17538-0.05715 0.69240-0.93476-0.71648
   1   8 -10    0.23    0.01   1 0.00674-0.18491-0.11960 0.68423-0.92620-0.72506
   1   7 -10    9.19    0.11   1 0.01579-0.19398-0.17831 0.67232-0.91463-0.73665
   1   6 -10    2.14    0.06   1 0.02435-0.20256-0.23357 0.65696-0.90056-0.75074
   1   5 -10    5.58    0.09   1 0.03239-0.21063-0.28553 0.63829-0.88443-0.76689
   1   4 -10   10.20    0.12   1 0.03986-0.21813-0.33427 0.61642-0.86665-0.78469
   1   3 -10    5.02    0.09   1 0.04671-0.22499-0.37986 0.59138-0.84762-0.80374
   1   2 -10    4.44    0.08   1 0.05286-0.23117-0.42230 0.56320-0.82772-0.82366
   1   1 -10    0.27    0.01   1 0.05825-0.23658-0.46163 0.53191-0.80734-0.84406
   1   0 -10    6.84    0.10   1 0.06281-0.24117-0.49786 0.49752-0.78686-0.86456
   1   1  -9    4.91    0.10   1 0.12817-0.24225-0.57753 0.64786-0.70879-0.76104
   1   2  -9    5.87    0.11   1 0.12148-0.23554-0.53865 0.67960-0.73686-0.73296
   1   3  -9    0.54    0.02   1 0.11405-0.22809-0.49671 0.70828-0.76443-0.70537
   1   4  -9    0.71    0.02   1 0.10595-0.21996-0.45174 0.73393-0.79109-0.67868
   1   5  -9    1.06    0.03   1 0.09727-0.21126-0.40380 0.75661-0.81644-0.65331
   1   6  -9    0.65    0.02   1 0.08809-0.20206-0.35296 0.77640-0.84009-0.62965
   1   7  -9    7.62    0.12   1 0.07852-0.19246-0.29930 0.79336-0.86165-0.60806
   1   8  -9    2.03    0.06   1 0.06862-0.18254-0.24288 0.80756-0.88077-0.58892
   1   9  -9    9.25    0.13   1 0.05848-0.17238-0.18375 0.81905-0.89708-0.57259
   1  10  -9    2.08    0.06   1 0.04816-0.16203-0.12190 0.82783-0.91021-0.55945
   1  11  -9   10.17    0.12   1 0.03772-0.15157-0.05729 0.83384-0.91976-0.54988
   1  12  -9    0.02    0.01   1 0.02719-0.14102 0.01026 0.83692-0.92528-0.54434
   1  13  -9    2.93    0.06   1 0.01660-0.13041 0.08106 0.83673-0.92621-0.54339
   1  14  -9    3.67    0.06   1 0.00592-0.11971 0.15572 0.83270-0.92175-0.54782
   1  15  -9    0.29    0.01   1-0.00494-0.10882 0.23536 0.82368-0.91072-0.55884
   1  18  -8    0.31    0.01   1 0.01252-0.06196 0.37010 0.90086-0.86432-0.42362
   1  17  -8   13.18    0.12   1 0.02244-0.07190 0.28706 0.91328-0.88771-0.40025
   1  16  -8    0.29    0.01   1 0.03255-0.08204 0.20887 0.92085-0.90262-0.38536
   1  15  -8    0.07    0.01   1 0.04293-0.09245 0.13410 0.92499-0.91077-0.37722
   1  14  -8    0.45    0.01   1 0.05362-0.10315 0.06201 0.92646-0.91317-0.37484
   1  13  -8    4.15    0.09   1 0.06459-0.11415-0.00780 0.92565-0.91046-0.37757
   1  12  -8   48.44    0.30   1 0.07582-0.12540-0.07554 0.92276-0.90311-0.38494
   1  11  -8    8.99    0.14   1 0.08724-0.13684-0.14127 0.91787-0.89147-0.39661
   1  10  -8    0.77    0.02   1 0.09879-0.14842-0.20497 0.91095-0.87583-0.41226
   1   9  -8   10.57    0.15   1 0.11040-0.16005-0.26655 0.90190-0.85650-0.43161
   1   8  -8    0.24    0.01   1 0.12195-0.17163-0.32587 0.89060-0.83375-0.45439
   1   7  -8    0.75    0.03   1 0.13335-0.18305-0.38276 0.87687-0.80788-0.48027
   1   6  -8    0.26    0.01   1 0.14448-0.19420-0.43705 0.86053-0.77924-0.50893
   1   5  -8    1.03    0.04   1 0.15522-0.20497-0.48853 0.84139-0.74820-0.53999
   1   4  -8    0.98    0.03   1 0.16545-0.21522-0.53702 0.81926-0.71517-0.57303
   1   3  -8   23.79    0.23   1 0.17505-0.22484-0.58237 0.79399-0.68061-0.60762
   1   2  -8   28.56    0.25   1 0.18390-0.23372-0.62444 0.76543-0.64498-0.64327
   1   1  -8   10.35    0.15   1 0.19190-0.24174-0.66315 0.73352-0.60881-0.67946
   1   0  -8    4.46    0.10   1 0.19896-0.24882-0.69846 0.69821-0.57260-0.71568
   1   1  -7   19.11    0.19   1 0.25386-0.23945-0.72813 0.79856-0.50570-0.60101
   1   2  -7    0.04    0.02   1 0.24448-0.23005-0.68952 0.83057-0.55117-0.55552
   1   3  -7   11.94    0.15   1 0.23401-0.21955-0.64696 0.85863-0.59601-0.51066
   1   4  -7   38.59    0.27   1 0.22259-0.20811-0.60058 0.88288-0.63954-0.46710
   1   5  -7    9.84    0.14   1 0.21039-0.19589-0.55062 0.90354-0.68114-0.42549
   1   6  -7    0.09    0.01   1 0.19759-0.18306-0.49735 0.92089-0.72022-0.38639
   1   7  -7    2.79    0.08   1 0.18436-0.16981-0.44109 0.93525-0.75630-0.35028
   1   8  -7    5.95    0.11   1 0.17088-0.15630-0.38218 0.94696-0.78897-0.31760
   1   9  -7    0.03    0.02   1 0.15731-0.14272-0.32095 0.95636-0.81788-0.28866
   1  10  -7   10.89    0.15   1 0.14382-0.12920-0.25772 0.96375-0.84277-0.26375
   1  11  -7    4.48    0.10   1 0.13054-0.11590-0.19276 0.96941-0.86343-0.24308
   1  12  -7    1.80    0.06   1 0.11759-0.10292-0.12630 0.97357-0.87968-0.22681
   1  13  -7    1.17    0.04   1 0.10505-0.09036-0.05851 0.97641-0.89135-0.21512
   1  14  -7    0.56    0.02   1 0.09302-0.07830 0.01050 0.97802-0.89828-0.20817
   1  15  -7   19.94    0.20   1 0.08154-0.06680 0.08070 0.97844-0.90026-0.20617
   1  16  -7    0.88    0.03   1 0.07065-0.05589 0.15218 0.97759-0.89702-0.20939
   1  17  -7    0.52    0.02   1 0.06040-0.04561 0.22513 0.97525-0.88813-0.21826
   1  18  -7   10.95    0.13   1 0.05078-0.03597 0.29996 0.97105-0.87296-0.23342
   1  19  -7    5.01    0.08   1 0.04179-0.02696 0.37738 0.96425-0.85042-0.25594
   1  20  -7    0.00    0.01   1 0.03340-0.01855 0.45874 0.95351-0.81861-0.28773
   1  22  -6    1.04    0.03   1 0.05097 0.02818 0.57456 0.97899-0.74591-0.17882
   1  21  -6    1.57    0.04   1 0.05710 0.02203 0.49474 0.98818-0.79079-0.13396
   1  20  -6    0.43    0.02   1 0.06419 0.01491 0.41882 0.99348-0.82442-0.10035
   1  19  -6    0.01    0.02   1 0.07223 0.00685 0.34516 0.99652-0.84961-0.07518
   1  18  -6   17.62    0.18   1 0.08121-0.00216 0.27288 0.99818-0.86782-0.05699
   1  17  -6    2.04    0.07   1 0.09113-0.01210 0.20146 0.99897-0.87988-0.04495
   1  16  -6    1.09    0.03   1 0.10198-0.02298 0.13062 0.99919-0.88626-0.03858
   1  15  -6    0.04    0.02   1 0.11376-0.03478 0.06018 0.99901-0.88726-0.03760
   1  14  -6    5.53    0.11   1 0.12644-0.04748-0.00992 0.99849-0.88301-0.04188
   1  13  -6    2.19    0.07   1 0.13998-0.06105-0.07966 0.99760-0.87357-0.05134
   1  12  -6   32.56    0.26   1 0.15434-0.07542-0.14891 0.99623-0.85894-0.06598
   1  11  -6    5.86    0.11   1 0.16941-0.09052-0.21749 0.99419-0.83913-0.08581
   1  10  -6    0.41    0.01   1 0.18510-0.10623-0.28513 0.99120-0.81413-0.11083
   1   9  -6    7.86    0.12   1 0.20125-0.12240-0.35146 0.98691-0.78398-0.14100
   1   8  -6    8.34    0.12   1 0.21766-0.13884-0.41605 0.98088-0.74880-0.17621
   1   7  -6   14.13    0.16   1 0.23412-0.15533-0.47841 0.97262-0.70878-0.21624
   1   6  -6    2.09    0.06   1 0.25036-0.17158-0.53799 0.96158-0.66428-0.26076
   1   5  -6   13.48    0.15   1 0.26608-0.18733-0.59424 0.94721-0.61577-0.30929
   1   4  -6    1.53    0.05   1 0.28099-0.20227-0.64662 0.92897-0.56388-0.36120
   1   3  -6   17.97    0.17   1 0.29480-0.21610-0.69465 0.90637-0.50940-0.41570
   1   2  -6    4.59    0.08   1 0.30725-0.22857-0.73796 0.87906-0.45325-0.47187
   1   1  -6   26.25    0.20   1 0.31812-0.23947-0.77630 0.84678-0.39640-0.52873
   1   0  -6   54.64    0.28   1 0.32726-0.24863-0.80961 0.80946-0.33990-0.58525
   1   1  -5   37.18    0.21   1 0.39056-0.24765-0.80803 0.87856-0.27425-0.46933
   1   2  -5   72.03    0.29   1 0.37799-0.23506-0.77071 0.91186-0.34596-0.39759
   1   3  -5   53.12    0.25   1 0.36279-0.21984-0.72674 0.93851-0.41716-0.32638
   1   4  -5   67.34    0.29   1 0.34534-0.20237-0.67647 0.95887-0.48619-0.25733
   1   5  -5    8.26    0.10   1 0.32616-0.18316-0.62055 0.97356-0.55158-0.19192
   1   6  -5    0.35    0.01   1 0.30581-0.16279-0.55980 0.98344-0.61211-0.13136
   1   7  -5   41.93    0.24   1 0.28487-0.14182-0.49518 0.98944-0.66688-0.07657
   1   8  -5   62.56    0.30   1 0.26384-0.12077-0.42764 0.99252-0.71532-0.02812
   1   9  -5   41.89    0.26   1 0.24317-0.10008-0.35806 0.99357-0.75713 0.01372
   1  10  -5    2.85    0.07   1 0.22320-0.08008-0.28722 0.99335-0.79228 0.04888
   1  11  -5   20.67    0.19   1 0.20417-0.06104-0.21575 0.99250-0.82086 0.07748
   1  12  -5    6.34    0.11   1 0.18628-0.04312-0.14411 0.99148-0.84309 0.09973
   1  13  -5   19.19    0.20   1 0.16961-0.02642-0.07266 0.99066-0.85923 0.11589
   1  14  -5    5.81    0.11   1 0.15422-0.01101-0.00162 0.99023-0.86954 0.12622
   1  15  -5    5.93    0.11   1 0.14013 0.00310 0.06890 0.99034-0.87423 0.13093
   1  16  -5    7.82    0.13   1 0.12733 0.01592 0.13887 0.99099-0.87348 0.13020
   1  17  -5   16.23    0.19   1 0.11581 0.02747 0.20834 0.99215-0.86734 0.12408
   1  18  -5    0.29    0.01   1 0.10553 0.03778 0.27743 0.99368-0.85577 0.11253
   1  19  -5   10.54    0.14   1 0.09646 0.04686 0.34636 0.99537-0.83858 0.09536
   1  20  -5   10.73    0.14   1 0.08860 0.05475 0.41542 0.99693-0.81533 0.07212
   1  21  -5    1.91    0.06   1 0.08193 0.06144 0.48508 0.99790-0.78524 0.04206
   1  22  -5    3.81    0.07   1 0.07648 0.06691 0.55605 0.99755-0.74694 0.00378
   1  23  -5    4.65    0.07   1 0.07232 0.07110 0.62959 0.99463-0.69783-0.04531
   1  24  -4    1.16    0.04   1 0.09211 0.11558 0.70192 0.99297-0.62790 0.06634
   1  23  -4    0.29    0.01   1 0.09375 0.11391 0.63463 0.98964-0.68422 0.12264
   1  22  -4    9.85    0.12   1 0.09699 0.11065 0.56926 0.98438-0.72920 0.16760
   1  21  -4   17.14    0.17   1 0.10166 0.10596 0.50469 0.97834-0.76580 0.20418
   1  20  -4   27.43    0.23   1 0.10771 0.09988 0.44025 0.97215-0.79555 0.23391
   1  19  -4   22.96    0.22   1 0.11515 0.09242 0.37548 0.96630-0.81935 0.25770
   1  18  -4   29.20    0.25   1 0.12402 0.08352 0.31005 0.96111-0.83769 0.27601
   1  17  -4    3.27    0.09   1 0.13439 0.07314 0.24367 0.95687-0.85078 0.28908
   1  16  -4    9.39    0.14   1 0.14633 0.06117 0.17610 0.95381-0.85865 0.29694
   1  15  -4    1.28    0.04   1 0.15996 0.04752 0.10716 0.95213-0.86119 0.29945
   1  14  -4    6.33    0.11   1 0.17537 0.03209 0.03670 0.95197-0.85811 0.29635
   1  13  -4   13.42    0.15   1 0.19267 0.01476-0.03536 0.95340-0.84900 0.28723
   1  12  -4    0.77    0.03   1 0.21198-0.00457-0.10901 0.95644-0.83334 0.27155
   1  11  -4   45.67    0.26   1 0.23333-0.02595-0.18414 0.96094-0.81048 0.24866
   1  10  -4  102.97    1.10   1 0.25675-0.04939-0.26042 0.96660-0.77968 0.21785
   1   9  -4    2.12    0.05   1 0.28214-0.07480-0.33732 0.97287-0.74020 0.17834
   1   8  -4    0.48    0.02   1 0.30925-0.10193-0.41398 0.97892-0.69134 0.12947
   1   7  -4   44.82    0.22   1 0.33763-0.13034-0.48923 0.98354-0.63266 0.07077
   1   6  -4   19.38    0.14   1 0.36660-0.15933-0.56151 0.98519-0.56412 0.00220
   1   5  -4   74.38    0.78   1 0.39517-0.18793-0.62900 0.98207-0.48631-0.07562
   1   4  -4   23.15    0.15   1 0.42214-0.21492-0.68984 0.97228-0.40067-0.16128
   1   3  -4  241.01    1.34   1 0.44618-0.23899-0.74236 0.95418-0.30952-0.25246
   1   2  -4    0.42    0.01   1 0.46606-0.25889-0.78544 0.92664-0.21584-0.34615
   1   1  -4   14.15    0.11   1 0.48087-0.27372-0.81877 0.88935-0.12294-0.43907
   1   0  -4    4.17    0.06   1 0.49023-0.28310-0.84279 0.84275-0.03392-0.52811
   1   1  -3  110.96    0.77   1 0.60076-0.32936-0.78998 0.86060 0.09904-0.47948
   1   2  -3   90.72    0.71   1 0.58231-0.31089-0.77318 0.91443-0.02849-0.35194
   1   3  -3    0.38    0.01   1 0.55292-0.28148-0.73935 0.95122-0.16351-0.21690
   1   4  -3   33.66    0.16   1 0.51529-0.24382-0.68724 0.96974-0.29646-0.08393
   1   5  -3  133.66    0.94   1 0.47300-0.20150-0.61928 0.97240-0.41875 0.03838
   1   6  -3   52.15    0.61   1 0.42945-0.15793-0.54015 0.96389-0.52495 0.14460
   1   7  -3   20.86    0.14   1 0.38721-0.11567-0.45486 0.94922-0.61308 0.23275
   1   8  -3    1.90    0.05   1 0.34785-0.07629-0.36749 0.93247-0.68364 0.30334
   1   9  -3  147.00    1.17   1 0.31214-0.04055-0.28083 0.91643-0.73843 0.35814
   1  10  -3   11.44    0.12   1 0.28029-0.00868-0.19650 0.90273-0.77963 0.39936
   1  11  -3    7.37    0.10   1 0.25220 0.01943-0.11531 0.89216-0.80938 0.42913
   1  12  -3    0.24    0.01   1 0.22763 0.04403-0.03751 0.88498-0.82953 0.44930
   1  13  -3    0.30    0.01   1 0.20624 0.06544 0.03696 0.88114-0.84156 0.46135
   1  14  -3    9.28    0.13   1 0.18771 0.08400 0.10832 0.88040-0.84664 0.46645
   1  15  -3    7.13    0.12   1 0.17173 0.09999 0.17688 0.88246-0.84565 0.46547
   1  16  -3    0.37    0.01   1 0.15804 0.11371 0.24297 0.88700-0.83920 0.45905
   1  17  -3   22.87    0.22   1 0.14640 0.12537 0.30693 0.89366-0.82772 0.44759
   1  18  -3   26.10    0.24   1 0.13662 0.13517 0.36909 0.90212-0.81143 0.43132
   1  19  -3    1.39    0.05   1 0.12855 0.14327 0.42976 0.91207-0.79038 0.41029
   1  20  -3    1.65    0.06   1 0.12206 0.14978 0.48927 0.92318-0.76443 0.38435
   1  21  -3    0.08    0.01   1 0.11710 0.15477 0.54794 0.93513-0.73319 0.35314
   1  22  -3    9.06    0.12   1 0.11361 0.15827 0.60613 0.94757-0.69601 0.31597
   1  23  -3    0.02    0.01   1 0.11165 0.16026 0.66428 0.96004-0.65169 0.27168
   1  24  -3    5.37    0.08   1 0.11134 0.16060 0.72304 0.97191-0.59819 0.21820
   1  25  -3    0.67    0.02   1 0.11298 0.15898 0.78348 0.98209-0.53147 0.15149
   1  25  -2    1.77    0.04   1 0.13214 0.20406 0.81329 0.95232-0.48316 0.28475
   1  24  -2    0.04    0.01   1 0.12871 0.20747 0.76218 0.93281-0.54778 0.34935
   1  23  -2    0.81    0.03   1 0.12725 0.20891 0.71165 0.91272-0.60111 0.40266
   1  22  -2    1.09    0.04   1 0.12746 0.20867 0.66113 0.89262-0.64636 0.44788
   1  21  -2   11.18    0.15   1 0.12920 0.20691 0.61024 0.87289-0.68526 0.48677
   1  20  -2    1.56    0.05   1 0.13244 0.20365 0.55865 0.85385-0.71886 0.52035
   1  19  -2   18.75    0.20   1 0.13721 0.19885 0.50609 0.83579-0.74779 0.54927
   1  18  -2    3.44    0.09   1 0.14360 0.19245 0.45225 0.81901-0.77244 0.57389
   1  17  -2   29.21    0.24   1 0.15173 0.18429 0.39680 0.80384-0.79298 0.59441
   1  16  -2    7.16    0.12   1 0.16179 0.17420 0.33935 0.79066-0.80940 0.61081
   1  15  -2    1.28    0.04   1 0.17404 0.16193 0.27947 0.77992-0.82154 0.62294
   1  14  -2   17.03    0.17   1 0.18878 0.14717 0.21661 0.77216-0.82904 0.63041
   1  13  -2    5.14    0.09   1 0.20642 0.12951 0.15013 0.76802-0.83126 0.63262
   1  12  -2   31.71    0.21   1 0.22744 0.10846 0.07927 0.76826-0.82728 0.62861
   1  11  -2    2.23    0.05   1 0.25246 0.08342 0.00312 0.77378-0.81567 0.61698
   1  10  -2   22.35    0.16   1 0.28219 0.05367-0.07932 0.78560-0.79437 0.59566
   1   9  -2   19.13    0.14   1 0.31749 0.01835-0.16903 0.80469-0.76037 0.56165
   1   8  -2  143.74    1.04   1 0.35925-0.02344-0.26672 0.83175-0.70934 0.51060
   1   7  -2   26.07    0.15   1 0.40831-0.07252-0.37206 0.86647-0.63517 0.43641
   1   6  -2  130.55    0.89   1 0.46500-0.12924-0.48237 0.90615-0.52977 0.33098
   1   5  -2   73.34    0.64   1 0.52846-0.19272-0.58995 0.94312-0.38392 0.18512
   1   4  -2  159.69    0.90   1 0.59508-0.25936-0.67894 0.96148-0.19145-0.00738
   1   3  -2  136.02    0.80   1 0.65685-0.32116-0.72539 0.93731 0.04053-0.23937
   1   2  -2  530.16    1.54   1 0.70213-0.36646-0.71104 0.85234 0.27941-0.47827
   1   1  -2  343.30    1.22   1 0.72285-0.38721-0.64904 0.71972 0.47685-0.67573
   1   0  -2 1389.45    2.43   1 0.72085-0.38523-0.58149 0.58155 0.60739-0.80629
   1   1  -1   84.78    0.57   1 0.58729-0.18739-0.00751 0.07824 0.96479-0.98211
   1   2  -1  306.56    1.11   1 0.65840-0.25848-0.62940 0.77075 0.61861-0.63591
   1   3  -1  176.04    0.87   1 0.58150-0.18157-0.76581 0.97778-0.05065 0.03338
   1   4  -1  219.86    1.02   1 0.50569-0.10573-0.60819 0.89079-0.39327 0.37602
   1   5  -1   22.03    0.12   1 0.44723-0.04724-0.43767 0.79088-0.57130 0.55406
   1   6  -1  252.50    1.20   1 0.39649 0.00352-0.28873 0.71257-0.67478 0.65756
   1   7  -1   19.90    0.12   1 0.35176 0.04828-0.16300 0.65746-0.73769 0.72049
   1   8  -1   95.29    0.82   1 0.31292 0.08714-0.05682 0.62190-0.77601 0.75883
   1   9  -1    0.36    0.01   1 0.27972 0.12036 0.03404 0.60166-0.79842 0.78126
   1  10  -1   67.01    0.77   1 0.25166 0.14844 0.11323 0.59310-0.80992 0.79278
   1  11  -1   44.25    0.23   1 0.22810 0.17202 0.18357 0.59338-0.81358 0.79646
   1  12  -1    1.02    0.03   1 0.20844 0.19171 0.24723 0.60034-0.81127 0.79417
   1  13  -1    7.00    0.10   1 0.19210 0.20808 0.30579 0.61241-0.80418 0.78710
   1  14  -1    0.79    0.03   1 0.17861 0.22159 0.36043 0.62839-0.79306 0.77599
   1  15  -1   58.75    0.32   1 0.16758 0.23264 0.41203 0.64741-0.77834 0.76130
   1  16  -1    8.25    0.13   1 0.15870 0.24154 0.46125 0.66881-0.76028 0.74326
   1  17  -1    0.02    0.02   1 0.15171 0.24856 0.50859 0.69209-0.73897 0.72196
   1  18  -1   68.58    0.38   1 0.14641 0.25388 0.55445 0.71686-0.71436 0.69738
   1  19  -1   11.55    0.16   1 0.14268 0.25764 0.59913 0.74280-0.68632 0.66935
   1  20  -1   19.19    0.20   1 0.14040 0.25994 0.64287 0.76968-0.65454 0.63759
   1  21  -1    2.54    0.07   1 0.13953 0.26083 0.68588 0.79730-0.61857 0.60164
   1  22  -1   26.85    0.22   1 0.14008 0.26031 0.72833 0.82547-0.57772 0.56082
   1  23  -1    0.02    0.02   1 0.14211 0.25830 0.77040 0.85402-0.53095 0.51407
   1  24  -1    7.41    0.10   1 0.14579 0.25464 0.81228 0.88277-0.47657 0.45970
   1  25  -1    1.02    0.03   1 0.15150 0.24895 0.85418 0.91148-0.41156 0.39472
   1  25   0    0.05    0.00   1 0.17299 0.29171 0.89846 0.86725-0.31619 0.48091
   1  24   0    1.33    0.04   1 0.16452 0.30016 0.86612 0.82897-0.38319 0.54789
   1  23   0    0.02    0.01   1 0.15821 0.30645 0.83341 0.79106-0.43922 0.60390
   1  22   0    5.96    0.11   1 0.15357 0.31107 0.80045 0.75340-0.48751 0.65217
   1  21   0   43.95    0.30   1 0.15035 0.31426 0.76726 0.71596-0.52986 0.69450
   1  20   0    1.97    0.07   1 0.14841 0.31617 0.73386 0.67874-0.56742 0.73204
   1  19   0    1.80    0.06   1 0.14769 0.31687 0.70025 0.64173-0.60094 0.76554
   1  18   0    0.74    0.03   1 0.14817 0.31637 0.66638 0.60497-0.63097 0.79555
   1  17   0    8.48    0.13   1 0.14986 0.31466 0.63222 0.56851-0.65789 0.82245
   1  16   0   27.51    0.23   1 0.15279 0.31171 0.59769 0.53242-0.68199 0.84653
   1  15   0   14.10    0.16   1 0.15702 0.30745 0.56270 0.49679-0.70348 0.86801
   1  14   0    9.98    0.13   1 0.16262 0.30182 0.52710 0.46176-0.72253 0.88703
   1  13   0   36.30    0.23   1 0.16967 0.29475 0.49074 0.42751-0.73925 0.90373
   1  12   0   10.55    0.12   1 0.17820 0.28619 0.45338 0.39424-0.75372 0.91818
   1  11   0   10.59    0.11   1 0.18819 0.27618 0.41478 0.36222-0.76602 0.93046
   1  10   0  232.76    1.45   1 0.19945 0.26490 0.37470 0.33168-0.77625 0.94067
   1   9   0   42.49    0.20   1 0.21148 0.25285 0.33298 0.30277-0.78460 0.94900
   1   8   0   13.58    0.11   1 0.22316 0.24114 0.28995 0.27518-0.79146 0.95584
   1   7   0   58.19    0.62   1 0.23224 0.23204 0.24716 0.24735-0.79767 0.96203
   1   6   0   85.45    0.71   1 0.23440 0.22985 0.20945 0.21444-0.80493 0.96927
   1   5   0    1.06    0.03   1 0.22181 0.24243 0.19019 0.16308-0.81598 0.98031
   1   4   0  160.06    0.89   1 0.18175 0.28246 0.22405 0.05860-0.83120 0.99550
   1   3   0  126.35    0.76   1 0.10292 0.36127 0.38898-0.17696-0.81978 0.98407
   1   2   0   48.18    0.46   1 0.02943 0.43473 0.73659-0.59519-0.62146 0.78573
   1   1   0   48.40    0.45   1 0.08846 0.37568 0.97918-0.90841-0.13956 0.30381
   1   0   0    0.21    0.01   1 0.23206 0.23206 0.94189-0.94174 0.30970-0.14547
   1   1   1   18.55    0.11   1 0.18096 0.34743 0.98228-0.91145 0.01737 0.32845
   1   2   1   61.89    0.57   1 0.14587 0.38254 0.94950-0.80805-0.20821 0.55405
   1   3   1    2.27    0.04   1 0.13193 0.39651 0.87592-0.66385-0.38729 0.73314
   1   4   1    3.62    0.05   1 0.13390 0.39455 0.79322-0.51052-0.50815 0.85402
   1   5   1   19.00    0.12   1 0.14233 0.38615 0.72432-0.37100-0.58053 0.92643
   1   6   1  374.31    1.60   1 0.15049 0.37802 0.67668-0.25275-0.62079 0.96670
   1   7   1    8.67    0.09   1 0.15576 0.37277 0.64839-0.15383-0.64181 0.98774
   1   8   1    4.73    0.07   1 0.15802 0.37053 0.63481-0.06963-0.65143 0.99738
   1   9   1    4.48    0.07   1 0.15807 0.37051 0.63166 0.00414-0.65386 0.99983
   1  10   1    0.01    0.01   1 0.15679 0.37181 0.63579 0.07064-0.65133 0.99732
   1  11   1    0.99    0.03   1 0.15493 0.37369 0.64505 0.13200-0.64497 0.99098
   1  12   1    9.50    0.12   1 0.15301 0.37563 0.65799 0.18968-0.63540 0.98143
   1  13   1   14.79    0.15   1 0.15138 0.37729 0.67366 0.24463-0.62294 0.96899
   1  14   1   14.85    0.16   1 0.15026 0.37844 0.69139 0.29753-0.60773 0.95380
   1  15   1    9.40    0.13   1 0.14978 0.37894 0.71072 0.34882-0.58981 0.93590
   1  16   1    1.87    0.06   1 0.15004 0.37870 0.73130 0.39886-0.56914 0.91525
   1  17   1   15.41    0.18   1 0.15109 0.37767 0.75287 0.44791-0.54561 0.89174
   1  18   1    3.54    0.09   1 0.15299 0.37579 0.77523 0.49618-0.51902 0.86517
   1  19   1   70.32    0.38   1 0.15579 0.37302 0.79818 0.54385-0.48909 0.83525
   1  20   1   20.35    0.20   1 0.15956 0.36927 0.82157 0.59108-0.45539 0.80158
   1  21   1    1.51    0.05   1 0.16439 0.36447 0.84523 0.63804-0.41737 0.76357
   1  22   1    0.72    0.02   1 0.17042 0.35846 0.86899 0.68491-0.37416 0.72038
   1  23   1    0.16    0.01   1 0.17789 0.35102 0.89261 0.73191-0.32447 0.67071
   1  24   1    0.13    0.01   1 0.18716 0.34176 0.91579 0.77935-0.26616 0.61242
   1  25   1    1.69    0.04   1 0.19899 0.32996 0.93798 0.82779-0.19519 0.54147
   1  24   2    3.24    0.06   1 0.21639 0.37679 0.95259 0.74260-0.12364 0.65147
   1  23   2    1.91    0.05   1 0.20366 0.38949 0.93940 0.68517-0.18593 0.71374
   1  22   2    0.09    0.01   1 0.19319 0.39993 0.92505 0.62890-0.23755 0.76534
   1  21   2   10.73    0.14   1 0.18436 0.40875 0.91029 0.57303-0.28143 0.80920
   1  20   2    1.18    0.04   1 0.17679 0.41629 0.89561 0.51710-0.31922 0.84696
   1  19   2   26.06    0.23   1 0.17028 0.42277 0.88135 0.46073-0.35191 0.87964
   1  18   2   23.34    0.22   1 0.16467 0.42836 0.86783 0.40363-0.38014 0.90785
   1  17   2    2.14    0.07   1 0.15984 0.43317 0.85534 0.34550-0.40430 0.93199
   1  16   2    1.78    0.06   1 0.15570 0.43729 0.84418 0.28603-0.42461 0.95228
   1  15   2    3.84    0.09   1 0.15216 0.44080 0.83468 0.22491-0.44115 0.96880
   1  14   2    0.48    0.01   1 0.14916 0.44378 0.82721 0.16176-0.45384 0.98147
   1  13   2   10.03    0.13   1 0.14661 0.44630 0.82219 0.09616-0.46248 0.99009
   1  12   2   11.57    0.14   1 0.14444 0.44845 0.82011 0.02762-0.46668 0.99427
   1  11   2    5.03    0.09   1 0.14256 0.45031 0.82153-0.04443-0.46583 0.99340
   1  10   2   95.63    1.04   1 0.14091 0.45193 0.82708-0.12060-0.45900 0.98656
   1   9   2   27.06    0.18   1 0.13946 0.45336 0.83740-0.20154-0.44489 0.97243
   1   8   2    5.57    0.08   1 0.13828 0.45452 0.85304-0.28780-0.42165 0.94916
   1   7   2  141.78    1.13   1 0.13764 0.45514 0.87419-0.37958-0.38678 0.91427
   1   6   2    2.92    0.06   1 0.13812 0.45463 0.90029-0.47630-0.33716 0.86464
   1   5   2  209.23    1.28   1 0.14076 0.45197 0.92938-0.57601-0.26932 0.79678
   1   4   2    0.78    0.03   1 0.14699 0.44571 0.95746-0.67472-0.18025 0.70769
   1   3   2   64.95    0.68   1 0.15838 0.43430 0.97833-0.76621-0.06889 0.59630
   1   2   2   35.77    0.17   1 0.17589 0.41677 0.98447-0.84297 0.06222 0.46517
   1   1   2   51.23    0.59   1 0.19922 0.39342 0.96925-0.89837 0.20619 0.32119
   1   0   2    2.67    0.05   1 0.22649 0.36612 0.92945-0.92920 0.35291 0.17445
   1   1   3  130.87    1.08   1 0.20644 0.45044 0.93545-0.86453 0.34174 0.36721
   1   2   3  142.39    1.13   1 0.19004 0.46686 0.96419-0.82264 0.24075 0.46822
   1   3   3   19.43    0.15   1 0.17612 0.48081 0.98054-0.76837 0.14416 0.56482
   1   4   3   61.48    0.27   1 0.16509 0.49186 0.98633-0.70353 0.05552 0.65348
   1   5   3   92.97    0.96   1 0.15700 0.49998 0.98408-0.63066-0.02277 0.73179
   1   6   3    0.34    0.01   1 0.15160 0.50540 0.97654-0.55251-0.08950 0.79854
   1   7   3    6.84    0.10   1 0.14851 0.50852 0.96621-0.47155-0.14454 0.85360
   1   8   3    3.00    0.07   1 0.14726 0.50978 0.95507-0.38978-0.18848 0.89756
   1   9   3    4.58    0.08   1 0.14747 0.50960 0.94452-0.30862-0.22231 0.93141
   1  10   3    0.32    0.01   1 0.14880 0.50829 0.93547-0.22894-0.24715 0.95626
   1  11   3  100.29    0.42   1 0.15104 0.50607 0.92840-0.15125-0.26407 0.97321
   1  12   3   26.96    0.22   1 0.15404 0.50310 0.92351-0.07573-0.27404 0.98320
   1  13   3    5.32    0.10   1 0.15769 0.49947 0.92080-0.00240-0.27784 0.98702
   1  14   3    5.47    0.11   1 0.16197 0.49521 0.92016 0.06885-0.27607 0.98526
   1  15   3    6.62    0.12   1 0.16687 0.49034 0.92141 0.13823-0.26917 0.97838
   1  16   3   24.91    0.23   1 0.17242 0.48482 0.92432 0.20595-0.25742 0.96665
   1  17   3   16.27    0.19   1 0.17865 0.47860 0.92862 0.27226-0.24094 0.95019
   1  18   3   20.47    0.21   1 0.18565 0.47163 0.93405 0.33746-0.21969 0.92896
   1  19   3    4.94    0.10   1 0.19353 0.46378 0.94029 0.40184-0.19345 0.90274
   1  20   3    0.11    0.01   1 0.20243 0.45490 0.94700 0.46575-0.16175 0.87106
   1  21   3    4.41    0.08   1 0.21259 0.44477 0.95373 0.52964-0.12377 0.83310
   1  22   3    0.30    0.01   1 0.22435 0.43302 0.95989 0.59410-0.07812 0.78747
   1  23   3    5.02    0.07   1 0.23835 0.41905 0.96453 0.66009-0.02226 0.73163
   1  22   4    0.37    0.01   1 0.26698 0.45464 0.96371 0.59033 0.10603 0.78488
   1  21   4    0.30    0.01   1 0.25141 0.47019 0.96727 0.51616 0.05476 0.83614
   1  20   4    1.04    0.03   1 0.23834 0.48324 0.96835 0.44445 0.01424 0.87664
   1  19   4    1.79    0.06   1 0.22706 0.49449 0.96823 0.37395-0.01811 0.90897
   1  18   4    0.05    0.01   1 0.21716 0.50436 0.96764 0.30392-0.04369 0.93453
   1  17   4    0.92    0.03   1 0.20842 0.51308 0.96705 0.23388-0.06325 0.95407
   1  16   4   16.25    0.18   1 0.20069 0.52080 0.96679 0.16352-0.07721 0.96801
   1  15   4    1.14    0.04   1 0.19386 0.52760 0.96709 0.09260-0.08574 0.97652
   1  14   4    4.42    0.10   1 0.18790 0.53353 0.96808 0.02099-0.08885 0.97961
   1  13   4   14.64    0.18   1 0.18280 0.53861 0.96982-0.05138-0.08641 0.97715
   1  12   4   72.62    0.39   1 0.17858 0.54281 0.97228-0.12446-0.07815 0.96888
   1  11   4   54.71    0.33   1 0.17531 0.54606 0.97532-0.19812-0.06377 0.95447
   1  10   4    8.89    0.13   1 0.17307 0.54827 0.97864-0.27206-0.04287 0.93355
   1   9   4   14.57    0.16   1 0.17199 0.54932 0.98179-0.34584-0.01505 0.90572
   1   8   4    6.71    0.11   1 0.17224 0.54906 0.98413-0.41880 0.02003 0.87061
   1   7   4    3.43    0.08   1 0.17397 0.54730 0.98481-0.49010 0.06262 0.82800
   1   6   4    1.13    0.04   1 0.17737 0.54388 0.98276-0.55867 0.11274 0.77787
   1   5   4   16.22    0.16   1 0.18258 0.53864 0.97678-0.62332 0.17007 0.72051
   1   4   4   11.43    0.13   1 0.18968 0.53152 0.96560-0.68276 0.23393 0.65663
   1   3   4    5.65    0.09   1 0.19866 0.52252 0.94803-0.73581 0.30315 0.58740
   1   2   4   10.29    0.12   1 0.20937 0.51178 0.92309-0.78149 0.37613 0.51439
   1   1   4    3.59    0.07   1 0.22158 0.49955 0.89022-0.81924 0.45096 0.43955
   1   0   4   25.64    0.19   1 0.23492 0.48619 0.84932-0.84897 0.52553 0.36495
   1   1   5    2.75    0.07   1 0.24639 0.53899 0.83433-0.76330 0.54869 0.52338
   1   2   5   38.39    0.26   1 0.23702 0.54838 0.86839-0.72674 0.49155 0.58054
   1   3   5   64.01    0.34   1 0.22874 0.55669 0.89685-0.68458 0.43535 0.63676
   1   4   5   47.11    0.30   1 0.22171 0.56373 0.91993-0.63704 0.38125 0.69088
   1   5   5   10.90    0.14   1 0.21606 0.56942 0.93802-0.58450 0.33030 0.74185
   1   6   5    7.41    0.12   1 0.21182 0.57367 0.95167-0.52754 0.28336 0.78881
   1   7   5   26.45    0.23   1 0.20903 0.57649 0.96154-0.46678 0.24113 0.83106
   1   8   5   18.09    0.19   1 0.20764 0.57790 0.96828-0.40290 0.20408 0.86813
   1   9   5    1.20    0.04   1 0.20760 0.57797 0.97255-0.33655 0.17251 0.89971
   1  10   5    0.01    0.02   1 0.20884 0.57675 0.97494-0.26831 0.14659 0.92566
   1  11   5    8.76    0.14   1 0.21130 0.57431 0.97594-0.19869 0.12634 0.94592
   1  12   5   13.36    0.17   1 0.21491 0.57073 0.97597-0.12809 0.11177 0.96052
   1  13   5   10.06    0.15   1 0.21962 0.56604 0.97529-0.05680 0.10282 0.96948
   1  14   5    6.30    0.12   1 0.22541 0.56027 0.97411 0.01500 0.09947 0.97285
   1  15   5    0.24    0.01   1 0.23229 0.55341 0.97250 0.08724 0.10175 0.97059
   1  16   5   16.69    0.18   1 0.24031 0.54542 0.97042 0.15994 0.10978 0.96259
   1  17   5   25.34    0.21   1 0.24957 0.53619 0.96770 0.23328 0.12383 0.94855
   1  18   5   13.56    0.14   1 0.26023 0.52555 0.96402 0.30759 0.14443 0.92797
   1  19   5    0.45    0.01   1 0.27259 0.51321 0.95879 0.38344 0.17251 0.89991
   1  20   5    2.00    0.05   1 0.28719 0.49864 0.95098 0.46187 0.20977 0.86267
   1  21   5    0.12    0.00   1 0.30504 0.48080 0.93856 0.54492 0.25962 0.81284
   1  18   6    3.20    0.06   1 0.31775 0.53227 0.91436 0.35730 0.34766 0.90630
   1  17   6    4.80    0.08   1 0.30377 0.54623 0.92518 0.27586 0.32082 0.93312
   1  16   6    0.29    0.01   1 0.29210 0.55788 0.93249 0.19792 0.30262 0.95131
   1  15   6    0.03    0.02   1 0.28226 0.56769 0.93732 0.12247 0.29157 0.96234
   1  14   6   25.35    0.21   1 0.27397 0.57596 0.94019 0.04898 0.28685 0.96704
   1  13   6    0.42    0.01   1 0.26708 0.58283 0.94135-0.02280 0.28792 0.96595
   1  12   6    0.18    0.01   1 0.26148 0.58841 0.94088-0.09296 0.29444 0.95941
   1  11   6    8.20    0.13   1 0.25713 0.59273 0.93872-0.16142 0.30615 0.94768
   1  10   6   49.30    0.32   1 0.25401 0.59583 0.93471-0.22803 0.32283 0.93098
   1   9   6    3.75    0.09   1 0.25212 0.59769 0.92861-0.29255 0.34427 0.90953
   1   8   6    0.17    0.01   1 0.25146 0.59832 0.92011-0.35468 0.37021 0.88357
   1   7   6    0.90    0.03   1 0.25204 0.59772 0.90887-0.41406 0.40034 0.85341
   1   6   6    4.14    0.10   1 0.25386 0.59589 0.89453-0.47034 0.43428 0.81945
   1   5   6   39.30    0.29   1 0.25688 0.59284 0.87673-0.52316 0.47154 0.78217
   1   4   6   40.14    0.29   1 0.26107 0.58862 0.85514-0.57219 0.51156 0.74214
   1   3   6    1.51    0.05   1 0.26638 0.58329 0.82949-0.61717 0.55367 0.70001
   1   2   6    3.97    0.09   1 0.27270 0.57695 0.79962-0.65792 0.59715 0.65651
   1   1   6    3.82    0.09   1 0.27993 0.56969 0.76545-0.69437 0.64122 0.61241
   1   0   6   64.55    0.37   1 0.28794 0.56166 0.72701-0.72655 0.68512 0.56850
   1   1   7    2.29    0.07   1 0.32175 0.59212 0.67903-0.60791 0.73121 0.70399
   1   2   7   17.43    0.19   1 0.31633 0.59757 0.71282-0.57107 0.69762 0.73760
   1   3   7    6.69    0.12   1 0.31173 0.60219 0.74299-0.53062 0.66450 0.77074
   1   4   7    4.77    0.10   1 0.30804 0.60591 0.76957-0.48657 0.63242 0.80284
   1   5   7   15.35    0.18   1 0.30533 0.60863 0.79262-0.43900 0.60193 0.83335
   1   6   7    1.25    0.04   1 0.30369 0.61030 0.81224-0.38800 0.57355 0.86175
   1   7   7    3.81    0.09   1 0.30315 0.61086 0.82859-0.33373 0.54779 0.88753
   1   8   7   20.66    0.20   1 0.30379 0.61025 0.84182-0.27633 0.52510 0.91024
   1   9   7    0.16    0.01   1 0.30536 0.60779 0.85197-0.21588 0.50605 0.92947
   1  10   7   12.24    0.14   1 0.30848 0.60469 0.85938-0.15266 0.49077 0.94477
   1  11   7    3.60    0.08   1 0.31292 0.60026 0.86402-0.08668 0.47979 0.95577
   1  12   7    0.25    0.01   1 0.31879 0.59441 0.86589-0.01792 0.47355 0.96203
   1  13   7    7.12    0.10   1 0.32621 0.58701 0.86483 0.05376 0.47257 0.96303
   1  14   7    0.41    0.01   1 0.33540 0.57784 0.86049 0.12872 0.47754 0.95808
   1  15   7    0.03    0.01   1 0.34671 0.56655 0.85214 0.20770 0.48948 0.94616
   1  16   7    0.21    0.01   1 0.36078 0.55249 0.83830 0.29216 0.51014 0.92552
   1  12   8    0.11    0.00   1 0.39341 0.58391 0.73224 0.11577 0.65926 0.95796
   1  11   8    0.00    0.01   1 0.38380 0.59351 0.73756 0.03983 0.65558 0.96162
   1  10   8    0.36    0.01   1 0.37642 0.60087 0.73750-0.03074 0.65775 0.95944
   1   9   8    0.29    0.01   1 0.37087 0.60639 0.73299-0.09685 0.66470 0.95246
   1   8   8    0.64    0.02   1 0.36691 0.61034 0.72451-0.15900 0.67569 0.94146
   1   7   8    1.77    0.05   1 0.36435 0.61288 0.71233-0.21744 0.69009 0.92703
   1   6   8    3.70    0.07   1 0.36307 0.61414 0.69659-0.27232 0.70738 0.90973
   1   5   8    0.10    0.01   1 0.36296 0.61423 0.67735-0.32371 0.72704 0.89005
   1   4   8    0.24    0.01   1 0.36394 0.61324 0.65464-0.37162 0.74859 0.86848
   1   3   8    0.65    0.02   1 0.36590 0.61126 0.62849-0.41610 0.77156 0.84549
   1   2   8   14.66    0.15   1 0.36877 0.60837 0.59891-0.45715 0.79545 0.82158
   1   1   8   20.88    0.19   1 0.37246 0.60466 0.56595-0.49481 0.81981 0.79720
   1   0   8    9.40    0.12   1 0.37688 0.60022 0.52966-0.52914 0.84416 0.77283
   1   1   9    2.14    0.05   1 0.43780 0.60344 0.40219-0.33100 0.90700 0.89165
   1   2   9    0.12    0.00   1 0.43614 0.60512 0.43330-0.29149 0.89201 0.90666
   1   3   9    1.43    0.04   1 0.43550 0.60578 0.46043-0.24798 0.87761 0.92108
   1   4   9    0.01    0.01   1 0.43601 0.60529 0.48336-0.20029 0.86432 0.93439
   2   0 -10    0.03    0.02   1 0.32819-0.04118-0.47152 0.47126-0.65000-0.83875
   2   1 -10    1.91    0.06   1 0.32527-0.03824-0.43693 0.50730-0.66984-0.81889
   2   2 -10    0.84    0.03   1 0.32115-0.03410-0.39928 0.54028-0.69012-0.79860
   2   3 -10    0.32    0.01   1 0.31586-0.02879-0.35850 0.57012-0.71044-0.77825
   2   4 -10    0.74    0.03   1 0.30943-0.02234-0.31451 0.59675-0.73043-0.75825
   2   5 -10    3.91    0.07   1 0.30190-0.01480-0.26722 0.62009-0.74966-0.73900
   2   6 -10    1.13    0.04   1 0.29331-0.00618-0.21653 0.64002-0.76771-0.72093
   2   7 -10    1.38    0.04   1 0.28367 0.00348-0.16228 0.65639-0.78412-0.70449
   2   8 -10    0.04    0.02   1 0.27299 0.01417-0.10424 0.66898-0.79842-0.69018
   2   9 -10    8.27    0.09   1 0.26126 0.02592-0.04206 0.67742-0.81004-0.67854
   2  10 -10    4.58    0.07   1 0.24839 0.03881 0.02487 0.68112-0.81831-0.67025
   2  14  -9    0.16    0.01   1 0.27006 0.08133 0.18070 0.80784-0.78949-0.51735
   2  13  -9    3.08    0.06   1 0.28594 0.06543 0.10372 0.81419-0.79033-0.51653
   2  12  -9    0.02    0.01   1 0.30099 0.05037 0.03169 0.81560-0.78548-0.52140
   2  11  -9    0.21    0.01   1 0.31533 0.03601-0.03627 0.81293-0.77593-0.53097
   2  10  -9    9.04    0.12   1 0.32899 0.02233-0.10062 0.80666-0.76238-0.54454
   2   9  -9    1.12    0.04   1 0.34196 0.00934-0.16163 0.79705-0.74541-0.56153
   2   8  -9    0.27    0.01   1 0.35416-0.00288-0.21942 0.78421-0.72554-0.58141
   2   7  -9    0.79    0.03   1 0.36553-0.01426-0.27405 0.76822-0.70326-0.60372
   2   6  -9    9.00    0.13   1 0.37596-0.02471-0.32554 0.74908-0.67902-0.62797
   2   5  -9    2.06    0.06   1 0.38537-0.03414-0.37390 0.72682-0.65329-0.65373
   2   4  -9    0.06    0.02   1 0.39368-0.04247-0.41914 0.70143-0.62651-0.68052
   2   3  -9    0.31    0.01   1 0.40080-0.04961-0.46127 0.67293-0.59915-0.70790
   2   2  -9    9.08    0.14   1 0.40668-0.05550-0.50032 0.64136-0.57164-0.73543
   2   1  -9    6.75    0.12   1 0.41127-0.06011-0.53634 0.60676-0.54441-0.76268
   2   0  -8    3.93    0.09   1 0.49822-0.08289-0.63428 0.63416-0.37723-0.74841
   2   1  -8    2.67    0.08   1 0.49491-0.07957-0.60335 0.67386-0.41037-0.71525
   2   2  -8    7.65    0.13   1 0.48998-0.07462-0.56935 0.71048-0.44468-0.68092
   2   3  -8    7.98    0.13   1 0.48343-0.06805-0.53215 0.74391-0.47969-0.64590
   2   4  -8    1.31    0.04   1 0.47533-0.05993-0.49169 0.77407-0.51486-0.61070
   2   5  -8    0.76    0.02   1 0.46576-0.05034-0.44791 0.80092-0.54967-0.57588
   2   6  -8    0.85    0.03   1 0.45485-0.03941-0.40082 0.82446-0.58355-0.54198
   2   7  -8    0.90    0.03   1 0.44273-0.02728-0.35047 0.84474-0.61595-0.50957
   2   8  -8    1.89    0.06   1 0.42957-0.01410-0.29695 0.86184-0.64631-0.47919
   2   9  -8    4.31    0.09   1 0.41554-0.00005-0.24036 0.87588-0.67412-0.45136
   2  10  -8    6.85    0.12   1 0.40081 0.01470-0.18081 0.88696-0.69888-0.42659
   2  11  -8    1.42    0.05   1 0.38552 0.03000-0.11842 0.89519-0.72011-0.40534
   2  12  -8    0.62    0.02   1 0.36983 0.04572-0.05324 0.90064-0.73734-0.38809
   2  13  -8    0.25    0.01   1 0.35383 0.06173 0.01471 0.90331-0.75012-0.37530
   2  14  -8    0.55    0.02   1 0.33760 0.07797 0.08556 0.90309-0.75789-0.36750
   2  15  -8    0.76    0.02   1 0.32117 0.09443 0.15960 0.89969-0.76003-0.36535
   2  16  -8    0.32    0.01   1 0.30445 0.11116 0.23744 0.89246-0.75561-0.36975
   2  17  -8    0.32    0.01   1 0.28725 0.12839 0.32036 0.88017-0.74319-0.38216
   2  19  -7    0.22    0.01   1 0.30908 0.17070 0.41477 0.92706-0.69162-0.25203
   2  18  -7    9.11    0.10   1 0.32624 0.15353 0.33105 0.94015-0.71327-0.23040
   2  17  -7    4.29    0.08   1 0.34338 0.13637 0.25174 0.94883-0.72538-0.21830
   2  16  -7    0.42    0.01   1 0.36073 0.11900 0.17551 0.95444-0.72972-0.21399
   2  15  -7    5.75    0.10   1 0.37840 0.10131 0.10171 0.95762-0.72726-0.21646
   2  14  -7    2.04    0.06   1 0.39638 0.08332 0.03004 0.95865-0.71863-0.22510
   2  13  -7    0.53    0.02   1 0.41460 0.06508-0.03955 0.95762-0.70430-0.23946
   2  12  -7    4.52    0.10   1 0.43296 0.04670-0.10700 0.95444-0.68462-0.25915
   2  11  -7    0.64    0.02   1 0.45130 0.02834-0.17213 0.94895-0.65997-0.28382
   2  10  -7    2.76    0.08   1 0.46943 0.01019-0.23469 0.94088-0.63074-0.31306
   2   9  -7   13.67    0.17   1 0.48711-0.00750-0.29439 0.92995-0.59738-0.34644
   2   8  -7    1.86    0.06   1 0.50408-0.02449-0.35094 0.91588-0.56043-0.38341
   2   7  -7   11.55    0.16   1 0.52006-0.04049-0.40406 0.89838-0.52052-0.42334
   2   6  -7   16.41    0.19   1 0.53476-0.05521-0.45353 0.87722-0.47833-0.46554
   2   5  -7    0.19    0.01   1 0.54792-0.06839-0.49919 0.85225-0.43465-0.50925
   2   4  -7    0.15    0.01   1 0.55930-0.07978-0.54098 0.82341-0.39025-0.55366
   2   3  -7    0.32    0.01   1 0.56869-0.08919-0.57893 0.79073-0.34594-0.59798
   2   2  -7    0.18    0.01   1 0.57597-0.09649-0.61317 0.75435-0.30248-0.64147
   2   1  -7    0.48    0.02   1 0.58107-0.10161-0.64391 0.71446-0.26053-0.68343
   2   0  -6   14.27    0.16   1 0.67343-0.12986-0.67736 0.67733-0.03909-0.72322
   2   1  -6   15.93    0.17   1 0.67150-0.12792-0.65583 0.72642-0.08552-0.67679
   2   2  -6   25.60    0.22   1 0.66653-0.12293-0.63107 0.77229-0.13590-0.62638
   2   3  -6    0.99    0.03   1 0.65845-0.11483-0.60245 0.81430-0.18955-0.57272
   2   4  -6    6.50    0.11   1 0.64735-0.10372-0.56940 0.85188-0.24549-0.51676
   2   5  -6   11.06    0.15   1 0.63344-0.08979-0.53150 0.88460-0.30254-0.45969
   2   6  -6    0.06    0.02   1 0.61704-0.07337-0.48851 0.91224-0.35940-0.40281
   2   7  -6   18.50    0.19   1 0.59857-0.05488-0.44047 0.93482-0.41474-0.34745
   2   8  -6    0.85    0.03   1 0.57850-0.03479-0.38762 0.95260-0.46731-0.29487
   2   9  -6   34.13    0.27   1 0.55729-0.01357-0.33040 0.96601-0.51601-0.24615
   2  10  -6   18.38    0.20   1 0.53541 0.00833-0.26937 0.97561-0.55998-0.20216
   2  11  -6    1.97    0.07   1 0.51327 0.03049-0.20513 0.98199-0.59855-0.16358
   2  12  -6    3.77    0.09   1 0.49122 0.05256-0.13827 0.98576-0.63126-0.13085
   2  13  -6    2.54    0.08   1 0.46947 0.07430-0.06930 0.98743-0.65790-0.10424
   2  14  -6    3.97    0.09   1 0.44837 0.09541 0.00131 0.98745-0.67809-0.08404
   2  15  -6   14.70    0.17   1 0.42799 0.11580 0.07325 0.98614-0.69178-0.07032
   2  16  -6    1.83    0.06   1 0.40845 0.13536 0.14635 0.98367-0.69883-0.06326
   2  17  -6    0.51    0.02   1 0.38976 0.15406 0.22059 0.98006-0.69899-0.06308
   2  18  -6    8.40    0.11   1 0.37192 0.17191 0.29615 0.97514-0.69185-0.07020
   2  19  -6    0.06    0.01   1 0.35485 0.18899 0.37348 0.96844-0.67665-0.08538
   2  20  -6    2.91    0.06   1 0.33840 0.20547 0.45353 0.95902-0.65196-0.11005
   2  21  -6    0.72    0.02   1 0.32218 0.22169 0.53829 0.94489-0.61487-0.14713
   2  22  -5    0.59    0.02   1 0.34519 0.26282 0.59720 0.95666-0.55554-0.02478
   2  21  -5    1.06    0.03   1 0.35962 0.24837 0.51728 0.96594-0.59964 0.01931
   2  20  -5    9.94    0.12   1 0.37480 0.23317 0.44071 0.97188-0.63084 0.05049
   2  19  -5    4.20    0.08   1 0.39102 0.21694 0.36575 0.97621-0.65220 0.07183
   2  18  -5    0.78    0.03   1 0.40845 0.19950 0.29151 0.97982-0.66514 0.08475
   2  17  -5   13.34    0.16   1 0.42719 0.18075 0.21753 0.98317-0.67034 0.08994
   2  16  -5    0.02    0.02   1 0.44731 0.16061 0.14357 0.98650-0.66809 0.08767
   2  15  -5    6.09    0.12   1 0.46886 0.13905 0.06960 0.98984-0.65839 0.07795
   2  14  -5    0.89    0.03   1 0.49181 0.11609-0.00424 0.99304-0.64109 0.06063
   2  13  -5   17.37    0.19   1 0.51610 0.09178-0.07762 0.99579-0.61597 0.03549
   2  12  -5    5.10    0.11   1 0.54161 0.06626-0.15002 0.99756-0.58277 0.00228
   2  11  -5    5.35    0.11   1 0.56809 0.03977-0.22068 0.99759-0.54133-0.03918
   2  10  -5   17.59    0.19   1 0.59519 0.01265-0.28864 0.99491-0.49164-0.08889
   2   9  -5    3.55    0.08   1 0.62246-0.01463-0.35274 0.98838-0.43402-0.14653
   2   8  -5    0.70    0.02   1 0.64926-0.04145-0.41171 0.97672-0.36920-0.21137
   2   7  -5    1.85    0.06   1 0.67488-0.06708-0.46430 0.95868-0.29844-0.28214
   2   6  -5    8.21    0.12   1 0.69849-0.09070-0.50952 0.93326-0.22361-0.35699
   2   5  -5   26.56    0.21   1 0.71927-0.11150-0.54681 0.89992-0.14704-0.43357
   2   4  -5   52.16    0.29   1 0.73650-0.12874-0.57628 0.85876-0.07137-0.50927
   2   3  -5    0.78    0.02   1 0.74964-0.14189-0.59874 0.81059 0.00085-0.58150
   2   2  -5    1.03    0.03   1 0.75838-0.15065-0.61559 0.75680 0.06745-0.64811
   2   1  -5  149.89    1.39   1 0.76270-0.15498-0.62852 0.69911 0.12696-0.70764
   2   0  -4  272.76    1.74   1 0.83559-0.16377-0.52719 0.52718 0.43881-0.83785
   2   1  -4  146.19    1.28   1 0.83836-0.16652-0.53621 0.60684 0.38679-0.78581
   2   2  -4   63.77    0.29   1 0.83609-0.16424-0.54782 0.68908 0.31922-0.71822
   2   3  -4    0.92    0.03   1 0.82801-0.15615-0.55730 0.76919 0.23572-0.63471
   2   4  -4    0.17    0.01   1 0.81365-0.14178-0.55909 0.84161 0.13848-0.53745
   2   5  -4   11.66    0.13   1 0.79315-0.12126-0.54839 0.90155 0.03224-0.43119
   2   6  -4   13.31    0.14   1 0.76735-0.09545-0.52260 0.94639-0.07674-0.32220
   2   7  -4   23.05    0.19   1 0.73763-0.06571-0.48172 0.97614-0.18231-0.21661
   2   8  -4   17.85    0.17   1 0.70553-0.03360-0.42774 0.99279-0.27965-0.11925
   2   9  -4    3.29    0.08   1 0.67247-0.00053-0.36369 0.99937-0.36579-0.03309
   2  10  -4    0.97    0.03   1 0.63957 0.03238-0.29269 0.99900-0.43937 0.04051
   2  11  -4    0.31    0.01   1 0.60765 0.06432-0.21746 0.99441-0.50025 0.10141
   2  12  -4    0.43    0.01   1 0.57722 0.09476-0.14011 0.98770-0.54899 0.15017
   2  13  -4   22.98    0.22   1 0.54861 0.12339-0.06217 0.98038-0.58649 0.18768
   2  14  -4    6.68    0.12   1 0.52196 0.15005 0.01538 0.97347-0.61373 0.21494
   2  15  -4   16.32    0.19   1 0.49732 0.17470 0.09194 0.96754-0.63164 0.23286
   2  16  -4    0.46    0.02   1 0.47466 0.19737 0.16722 0.96289-0.64099 0.24223
   2  17  -4    0.23    0.01   1 0.45392 0.21813 0.24114 0.95961-0.64237 0.24363
   2  18  -4    2.17    0.07   1 0.43500 0.23706 0.31380 0.95758-0.63612 0.23739
   2  19  -4    0.26    0.01   1 0.41790 0.25430 0.38534 0.95657-0.62233 0.22359
   2  20  -4    0.17    0.01   1 0.40227 0.26994 0.45636 0.95618-0.60065 0.20193
   2  21  -4    0.81    0.03   1 0.38810 0.28413 0.52734 0.95583-0.57024 0.17154
   2  22  -4    0.27    0.01   1 0.37521 0.29703 0.59926 0.95454-0.52925 0.13057
   2  23  -3    4.71    0.07   1 0.38826 0.34808 0.69215 0.93234-0.43224 0.21525
   2  22  -3    4.45    0.07   1 0.39773 0.33860 0.62661 0.92724-0.48670 0.26969
   2  21  -3    0.02    0.01   1 0.40860 0.32771 0.56188 0.92135-0.52878 0.31175
   2  20  -3    0.22    0.01   1 0.42097 0.31533 0.49681 0.91579-0.56154 0.34448
   2  19  -3    8.25    0.12   1 0.43494 0.30135 0.43070 0.91127-0.58642 0.36934
   2  18  -3    0.09    0.01   1 0.45063 0.28565 0.36300 0.90834-0.60410 0.38700
   2  17  -3    8.56    0.13   1 0.46814 0.26812 0.29326 0.90744-0.61477 0.39765
   2  16  -3   41.42    0.30   1 0.48762 0.24863 0.22109 0.90899-0.61823 0.40109
   2  15  -3   60.44    0.36   1 0.50919 0.22705 0.14614 0.91331-0.61396 0.39680
   2  14  -3    1.43    0.05   1 0.53297 0.20325 0.06818 0.92064-0.60111 0.38392
   2  13  -3    8.59    0.13   1 0.55910 0.17711-0.01289 0.93108-0.57845 0.36124
   2  12  -3    5.58    0.10   1 0.58765 0.14854-0.09687 0.94443-0.54433 0.32710
   2  11  -3    1.18    0.04   1 0.61867 0.11750-0.18312 0.96005-0.49663 0.27938
   2  10  -3    0.29    0.01   1 0.65211 0.08405-0.27024 0.97654-0.43273 0.21546
   2   9  -3    4.30    0.08   1 0.68774 0.04841-0.35557 0.99125-0.34960 0.13230
   2   8  -3    7.21    0.11   1 0.72500 0.01114-0.43460 0.99965-0.24417 0.02686
   2   7  -3   22.16    0.18   1 0.76271-0.02659-0.50019 0.99461-0.11447-0.10287
   2   6  -3    8.44    0.11   1 0.79865-0.06254-0.54249 0.96627 0.03818-0.25554
   2   5  -3    2.35    0.06   1 0.82930-0.09320-0.55088 0.90404 0.20559-0.42297
   2   4  -3    4.02    0.07   1 0.85066-0.11458-0.52011 0.80264 0.37052-0.58792
   2   3  -3   12.31    0.12   1 0.86075-0.12468-0.45787 0.66977 0.51134-0.72876
   2   2  -3    5.82    0.09   1 0.86149-0.12544-0.38466 0.52594 0.61380-0.83125
   2   1  -3  229.21    1.50   1 0.85717-0.12113-0.32230 0.39294 0.67810-0.89557
   2   0  -2  126.67    1.09   1 0.74548 0.05464 0.17592-0.17585 0.86464-0.90046
   2   1  -2   11.20    0.11   1 0.74092 0.05921 0.14686-0.07616 0.87466-0.91046
   2   2  -2  238.84    1.51   1 0.75727 0.04288 0.02698 0.11435 0.87776-0.91354
   2   3  -2    7.71    0.10   1 0.79741 0.00275-0.22099 0.43294 0.80663-0.84238
   2   4  -2    0.02    0.01   1 0.81873-0.01856-0.49940 0.78199 0.55358-0.58931
   2   5  -2   22.07    0.17   1 0.78933 0.01086-0.60975 0.96297 0.21231-0.24803
   2   6  -2    6.83    0.10   1 0.74462 0.05558-0.57462 0.99846-0.05500 0.01930
   2   7  -2   11.14    0.13   1 0.70500 0.09521-0.48509 0.97957-0.23535 0.19968
   2   8  -2    2.34    0.06   1 0.67132 0.12891-0.38158 0.94668-0.35771 0.32206
   2   9  -2   12.24    0.14   1 0.64145 0.15880-0.27755 0.91328-0.44293 0.40730
   2  10  -2    2.67    0.07   1 0.61401 0.18624-0.17754 0.88390-0.50301 0.46740
   2  11  -2    0.03    0.02   1 0.58843 0.21184-0.08303 0.86001-0.54497 0.50938
   2  12  -2  104.28    0.44   1 0.56450 0.23578 0.00570 0.84192-0.57318 0.53761
   2  13  -2    9.53    0.14   1 0.54221 0.25809 0.08886 0.82939-0.59050 0.55496
   2  14  -2    6.30    0.12   1 0.52158 0.27874 0.16692 0.82196-0.59888 0.56336
   2  15  -2   16.39    0.19   1 0.50261 0.29771 0.24042 0.81909-0.59966 0.56416
   2  16  -2   16.06    0.19   1 0.48532 0.31502 0.30993 0.82020-0.59373 0.55825
   2  17  -2    8.53    0.13   1 0.46967 0.33068 0.37601 0.82476-0.58165 0.54620
   2  18  -2    3.42    0.08   1 0.45564 0.34473 0.43917 0.83222-0.56369 0.52826
   2  19  -2    3.35    0.08   1 0.44316 0.35722 0.49992 0.84210-0.53984 0.50443
   2  20  -2    1.37    0.05   1 0.43221 0.36818 0.55872 0.85393-0.50976 0.47437
   2  21  -2    8.31    0.11   1 0.42274 0.37767 0.61608 0.86720-0.47268 0.43731
   2  22  -2    2.70    0.06   1 0.41473 0.38569 0.67254 0.88137-0.42713 0.39178
   2  23  -2    0.71    0.02   1 0.40822 0.39222 0.72884 0.89570-0.37024 0.33492
   2  23  -1    0.22    0.01   1 0.42596 0.43856 0.77582 0.84877-0.28520 0.43154
   2  22  -1    0.74    0.02   1 0.42886 0.43566 0.72993 0.82403-0.34665 0.49297
   2  21  -1    3.61    0.07   1 0.43322 0.43128 0.68350 0.79984-0.39680 0.54310
   2  20  -1   13.22    0.15   1 0.43889 0.42560 0.63614 0.77657-0.43887 0.58515
   2  19  -1   28.21    0.23   1 0.44574 0.41873 0.58755 0.75453-0.47460 0.62085
   2  18  -1   14.08    0.17   1 0.45368 0.41077 0.53744 0.73400-0.50503 0.65126
   2  17  -1    9.40    0.14   1 0.46263 0.40182 0.48553 0.71529-0.53081 0.67701
   2  16  -1    5.17    0.11   1 0.47244 0.39199 0.43151 0.69868-0.55236 0.69855
   2  15  -1    7.34    0.13   1 0.48293 0.38148 0.37507 0.68449-0.56996 0.71612
   2  14  -1   27.19    0.24   1 0.49385 0.37055 0.31592 0.67302-0.58377 0.72991
   2  13  -1    0.40    0.01   1 0.50479 0.35960 0.25379 0.66451-0.59391 0.74004
   2  12  -1    4.79    0.10   1 0.51520 0.34918 0.18854 0.65913-0.60053 0.74663
   2  11  -1   16.05    0.17   1 0.52427 0.34009 0.12022 0.65683-0.60384 0.74992
   2  10  -1    6.52    0.11   1 0.53087 0.33348 0.04927 0.65715-0.60432 0.75038
   2   9  -1   12.96    0.15   1 0.53338 0.33096-0.02311 0.65890-0.60302 0.74906
   2   8  -1   28.67    0.21   1 0.52941 0.33491-0.09427 0.65942-0.60213 0.74814
   2   7  -1    5.42    0.09   1 0.51515 0.34916-0.15824 0.65276-0.60648 0.75247
   2   6  -1   45.55    0.25   1 0.48287 0.38143-0.19945 0.62335-0.62752 0.77349
   2   5  -1    1.15    0.04   1 0.40998 0.45430-0.16044 0.51371-0.69552 0.84147
   2   4  -1   26.28    0.18   1 0.21353 0.65074 0.30221-0.01958-0.79389 0.93982
   2   3  -1    0.24    0.01   1 0.20992 0.65433 0.96754-0.75553-0.05766 0.20356
   2   2  -1   66.74    0.28   1 0.35864 0.50560 0.90385-0.76247 0.34530-0.19941
   2   1  -1   16.11    0.14   1 0.46147 0.40275 0.80075-0.72999 0.52052-0.37466
   2   0   0   40.64    0.23   1 0.46415 0.46415 0.85778-0.85760 0.37095-0.04344
   2   1   0   27.84    0.19   1 0.39711 0.53121 0.91669-0.84588 0.18342 0.14411
   2   2   0   33.43    0.21   1 0.33375 0.59459 0.92780-0.78636-0.03840 0.36595
   2   3   0    6.75    0.10   1 0.29007 0.63828 0.86881-0.65675-0.27305 0.60062
   2   4   0   24.27    0.18   1 0.28204 0.64632 0.73983-0.45713-0.47193 0.79952
   2   5   0    0.04    0.01   1 0.30854 0.61983 0.58581-0.23248-0.59229 0.91990
   2   6   0    3.98    0.08   1 0.35042 0.57797 0.46120-0.03725-0.63905 0.96668
   2   7   0    1.12    0.04   1 0.39038 0.53802 0.38591 0.10868-0.64434 0.97200
   2   8   0   30.80    0.22   1 0.42142 0.50699 0.35290 0.21232-0.63294 0.96062
   2   9   0    2.34    0.07   1 0.44293 0.48550 0.34901 0.28683-0.61642 0.94412
   2  10   0    1.46    0.05   1 0.45644 0.47200 0.36346 0.34301-0.59883 0.92655
   2  11   0    3.92    0.09   1 0.46387 0.46458 0.38898 0.38812-0.58106 0.90880
   2  12   0    5.06    0.10   1 0.46692 0.46155 0.42093 0.42680-0.56291 0.89067
   2  13   0   15.05    0.18   1 0.46695 0.46153 0.45644 0.46192-0.54388 0.87167
   2  14   0   23.98    0.23   1 0.46502 0.46348 0.49377 0.49522-0.52344 0.85125
   2  15   0    1.81    0.06   1 0.46192 0.46659 0.53185 0.52776-0.50109 0.82892
   2  16   0    6.65    0.12   1 0.45825 0.47027 0.57006 0.56019-0.47635 0.80420
   2  17   0    4.53    0.10   1 0.45446 0.47408 0.60802 0.59285-0.44872 0.77660
   2  18   0    0.89    0.03   1 0.45088 0.47767 0.64553 0.62597-0.41766 0.74556
   2  19   0    2.82    0.07   1 0.44778 0.48078 0.68248 0.65965-0.38249 0.71041
   2  20   0    1.25    0.04   1 0.44539 0.48319 0.71880 0.69396-0.34229 0.67023
   2  21   0    0.10    0.01   1 0.44391 0.48468 0.75445 0.72894-0.29572 0.62368
   2  22   0    2.39    0.05   1 0.44362 0.48498 0.78936 0.76465-0.24055 0.56853
   2  23   0    0.90    0.03   1 0.44491 0.48371 0.82341 0.80124-0.17259 0.50059
   2  22   1    0.04    0.00   1 0.46303 0.52966 0.83893 0.71515-0.10431 0.61395
   2  21   1    0.85    0.03   1 0.45903 0.53365 0.81656 0.66689-0.16557 0.67519
   2  20   1    0.29    0.01   1 0.45650 0.53628 0.79322 0.61965-0.21614 0.72570
   2  19   1   10.58    0.14   1 0.45478 0.53799 0.76949 0.57276-0.25921 0.76874
   2  18   1    6.59    0.11   1 0.45364 0.53910 0.74579 0.52583-0.29650 0.80602
   2  17   1   32.18    0.26   1 0.45282 0.53991 0.72251 0.47848-0.32913 0.83863
   2  16   1   28.31    0.25   1 0.45201 0.54069 0.70008 0.43028-0.35780 0.86728
   2  15   1   16.84    0.19   1 0.45093 0.54176 0.67902 0.38071-0.38299 0.89246
   2  14   1    0.70    0.02   1 0.44919 0.54347 0.66002 0.32908-0.40498 0.91443
   2  13   1   23.84    0.23   1 0.44640 0.54624 0.64398 0.27449-0.42387 0.93330
   2  12   1   14.30    0.18   1 0.44210 0.55052 0.63211 0.21574-0.43949 0.94891
   2  11   1    3.81    0.09   1 0.43585 0.55675 0.62594 0.15128-0.45135 0.96075
   2  10   1    9.27    0.14   1 0.42727 0.56531 0.62744 0.07915-0.45837 0.96775
   2   9   1   63.35    0.35   1 0.41620 0.57636 0.63880-0.00284-0.45863 0.96800
   2   8   1    1.07    0.04   1 0.40301 0.58953 0.66214-0.09680-0.44898 0.95833
   2   7   1    0.43    0.01   1 0.38890 0.60362 0.69861-0.20390-0.42476 0.93410
   2   6   1    0.26    0.01   1 0.37627 0.61623 0.74700-0.32292-0.38011 0.88943
   2   5   1   19.70    0.18   1 0.36867 0.62381 0.80223-0.44877-0.30937 0.81867
   2   4   1    6.35    0.10   1 0.36999 0.62246 0.85490-0.57207-0.20984 0.71913
   2   3   1  137.24    1.33   1 0.38286 0.60957 0.89355-0.68136-0.08457 0.59383
   2   2   1  128.99    1.27   1 0.40725 0.58516 0.90877-0.76720 0.05758 0.45166
   2   1   1   59.51    0.30   1 0.44042 0.55197 0.89637-0.82542 0.20492 0.30431
   2   0   2   39.70    0.26   1 0.50033 0.55615 0.82708-0.82673 0.41675 0.27415
   2   1   2    7.75    0.12   1 0.47740 0.57910 0.86494-0.79396 0.31414 0.37677
   2   2   2    0.11    0.01   1 0.45673 0.59979 0.88819-0.74657 0.21045 0.48048
   2   3   2   18.70    0.18   1 0.43977 0.61677 0.89695-0.68471 0.11040 0.58054
   2   4   2   22.75    0.20   1 0.42751 0.62905 0.89300-0.61013 0.01858 0.67238
   2   5   2    4.20    0.09   1 0.42022 0.63636 0.87943-0.52593-0.06133 0.75231
   2   6   2    0.23    0.01   1 0.41748 0.63912 0.86011-0.43599-0.12717 0.81817
   2   7   2   22.69    0.21   1 0.41836 0.63826 0.83886-0.34411-0.17840 0.86941
   2   8   2   21.57    0.21   1 0.42174 0.63491 0.81878-0.25340-0.21580 0.90684
   2   9   2    5.21    0.11   1 0.42651 0.63015 0.80196-0.16595-0.24098 0.93203
   2  10   2    0.32    0.01   1 0.43185 0.62483 0.78950-0.08287-0.25579 0.94685
   2  11   2   48.99    0.33   1 0.43717 0.61953 0.78172-0.00445-0.26199 0.95307
   2  12   2    2.54    0.08   1 0.44217 0.61456 0.77841 0.06948-0.26103 0.95213
   2  13   2   64.54    0.38   1 0.44672 0.61003 0.77910 0.13942-0.25403 0.94514
   2  14   2    8.09    0.13   1 0.45085 0.60592 0.78318 0.20597-0.24171 0.93284
   2  15   2    3.58    0.09   1 0.45467 0.60212 0.79002 0.26975-0.22452 0.91567
   2  16   2   12.50    0.16   1 0.45834 0.59847 0.79902 0.33138-0.20260 0.89377
   2  17   2    1.27    0.04   1 0.46206 0.59477 0.80961 0.39142-0.17583 0.86701
   2  18   2    0.24    0.01   1 0.46605 0.59080 0.82124 0.45042-0.14377 0.83496
   2  19   2    0.09    0.01   1 0.47058 0.58629 0.83334 0.50895-0.10558 0.79679
   2  20   2    0.03    0.01   1 0.47596 0.58093 0.84523 0.56769-0.05977 0.75100
   2  21   2    0.60    0.02   1 0.48271 0.57420 0.85595 0.62759-0.00356 0.69482
   2  20   3    0.03    0.01   1 0.50745 0.61354 0.86013 0.55283 0.12859 0.74432
   2  19   3    0.35    0.01   1 0.49809 0.62288 0.86069 0.48164 0.07610 0.79680
   2  18   3    4.71    0.08   1 0.49044 0.63051 0.85904 0.41266 0.03514 0.83775
   2  17   3    3.70    0.08   1 0.48391 0.63702 0.85661 0.34446 0.00272 0.87015
   2  16   3    0.39    0.01   1 0.47816 0.64275 0.85424 0.27621-0.02264 0.89549
   2  15   3   21.82    0.20   1 0.47300 0.64790 0.85250 0.20732-0.04168 0.91452
   2  14   3   11.27    0.15   1 0.46828 0.65259 0.85184 0.13735-0.05473 0.92754
   2  13   3    0.07    0.01   1 0.46394 0.65691 0.85256 0.06600-0.06178 0.93458
   2  12   3   22.29    0.22   1 0.45994 0.66090 0.85491-0.00694-0.06260 0.93538
   2  11   3    3.39    0.09   1 0.45646 0.66436 0.85884-0.08151-0.05680 0.92957
   2  10   3    1.46    0.05   1 0.45361 0.66720 0.86426-0.15756-0.04383 0.91658
   2   9   3    3.90    0.09   1 0.45163 0.66916 0.87076-0.23469-0.02304 0.89578
   2   8   3   53.37    0.34   1 0.45085 0.66991 0.87763-0.31218 0.00616 0.86657
   2   7   3    3.09    0.08   1 0.45166 0.66908 0.88378-0.38897 0.04422 0.82849
   2   6   3    0.18    0.01   1 0.45446 0.66626 0.88783-0.46366 0.09129 0.78140
   2   5   3    8.25    0.13   1 0.45956 0.66113 0.88814-0.53459 0.14706 0.72562
   2   4   3   12.90    0.16   1 0.46717 0.65350 0.88296-0.60004 0.21064 0.66203
   2   3   3    9.65    0.14   1 0.47728 0.64338 0.87070-0.65842 0.28054 0.59212
   2   2   3    1.24    0.04   1 0.48962 0.63101 0.85014-0.70849 0.35474 0.51790
   2   1   3   62.79    0.35   1 0.50373 0.61688 0.82057-0.74955 0.43093 0.44170
   2   0   4    4.55    0.10   1 0.53826 0.64644 0.72251-0.72209 0.59623 0.45806
   2   1   4    6.05    0.12   1 0.52752 0.65721 0.76122-0.69016 0.53945 0.51486
   2   2   4   53.17    0.34   1 0.51746 0.66729 0.79367-0.65198 0.48235 0.57197
   2   3   4   13.08    0.17   1 0.50840 0.67636 0.81986-0.60754 0.42634 0.62800
   2   4   4    0.07    0.01   1 0.50062 0.68417 0.84007-0.55712 0.37280 0.68155
   2   5   4   40.55    0.30   1 0.49430 0.69051 0.85483-0.50125 0.32299 0.73137
   2   6   4    5.28    0.11   1 0.48953 0.69530 0.86487-0.44065 0.27795 0.77643
   2   7   4    9.72    0.15   1 0.48632 0.69853 0.87101-0.37616 0.23848 0.81591
   2   8   4   13.15    0.17   1 0.48459 0.70028 0.87413-0.30865 0.20513 0.84928
   2   9   4    2.69    0.08   1 0.48424 0.70065 0.87505-0.23894 0.17821 0.87621
   2  10   4    7.86    0.13   1 0.48513 0.69979 0.87447-0.16773 0.15784 0.89659
   2  11   4    2.20    0.07   1 0.48712 0.69782 0.87297-0.09560 0.14403 0.91041
   2  12   4   21.05    0.20   1 0.49010 0.69486 0.87095-0.02295 0.13672 0.91774
   2  13   4    0.78    0.03   1 0.49400 0.69098 0.86863 0.05000 0.13587 0.91861
   2  14   4    3.32    0.07   1 0.49879 0.68621 0.86608 0.12318 0.14151 0.91298
   2  15   4    0.75    0.02   1 0.50451 0.68052 0.86317 0.19673 0.15386 0.90064
   2  16   4    8.42    0.11   1 0.51126 0.67379 0.85955 0.27098 0.17343 0.88109
   2  17   4    4.96    0.07   1 0.51928 0.66578 0.85455 0.34661 0.20121 0.85332
   2  18   4    4.23    0.06   1 0.52903 0.65606 0.84691 0.42488 0.23924 0.81530
   2  15   5    0.59    0.02   1 0.55000 0.69913 0.81620 0.24373 0.36045 0.87573
   2  14   5    1.21    0.04   1 0.54209 0.70703 0.82469 0.16461 0.34309 0.89308
   2  13   5    1.89    0.05   1 0.53579 0.71331 0.83023 0.08844 0.33389 0.90227
   2  12   5    0.43    0.02   1 0.53086 0.71822 0.83346 0.01458 0.33178 0.90437
   2  11   5    0.04    0.01   1 0.52718 0.72187 0.83465-0.05724 0.33612 0.90001
   2  10   5    2.70    0.07   1 0.52471 0.72432 0.83381-0.12703 0.34650 0.88962
   2   9   5   10.78    0.14   1 0.52344 0.72557 0.83077-0.19463 0.36255 0.87355
   2   8   5   54.93    0.32   1 0.52336 0.72563 0.82525-0.25974 0.38394 0.85215
   2   7   5    2.88    0.08   1 0.52449 0.72448 0.81687-0.32199 0.41029 0.82578
   2   6   5   11.05    0.15   1 0.52682 0.72213 0.80521-0.38096 0.44113 0.79493
   2   5   5   33.46    0.26   1 0.53032 0.71860 0.78982-0.43620 0.47590 0.76015
   2   4   5    4.36    0.10   1 0.53495 0.71396 0.77032-0.48733 0.51390 0.72213
   2   3   5    0.05    0.02   1 0.54059 0.70829 0.74636-0.53401 0.55436 0.68165
   2   2   5    7.88    0.13   1 0.54711 0.70175 0.71773-0.57601 0.59642 0.63958
   2   1   5    0.50    0.02   1 0.55434 0.69450 0.68432-0.61322 0.63916 0.59683
   2   0   6   36.82    0.25   1 0.59310 0.71983 0.54641-0.54592 0.76279 0.65487
   2   1   6    6.31    0.11   1 0.58762 0.72533 0.58364-0.51251 0.73196 0.68571
   2   2   6    9.65    0.13   1 0.58263 0.73034 0.61686-0.47510 0.70098 0.71670
   2   3   6    0.45    0.01   1 0.57826 0.73473 0.64603-0.43364 0.67053 0.74716
   2   4   6    2.62    0.07   1 0.57461 0.73837 0.67113-0.38817 0.64131 0.77640
   2   5   6    2.03    0.06   1 0.57185 0.74114 0.69226-0.33866 0.61395 0.80377
   2   6   6    1.59    0.05   1 0.57005 0.74296 0.70949-0.28527 0.58913 0.82861
   2   7   6    2.62    0.06   1 0.56931 0.74372 0.72297-0.22811 0.56746 0.85030
   2   8   6    0.13    0.01   1 0.56971 0.74334 0.73279-0.16731 0.54954 0.86823
   2   9   6    0.36    0.01   1 0.57133 0.74174 0.73903-0.10292 0.53597 0.88182
   2  10   6    0.53    0.02   1 0.57428 0.73880 0.74164-0.03490 0.52738 0.89042
   2  11   6    0.10    0.00   1 0.57871 0.73439 0.74039 0.03698 0.52453 0.89328
   2  12   6    0.04    0.00   1 0.58485 0.72826 0.73469 0.11331 0.52841 0.88942
   2   6   7    0.87    0.03   1 0.62500 0.75212 0.55911-0.13485 0.73048 0.86894
   2   5   7    0.19    0.01   1 0.62426 0.75285 0.54469-0.19105 0.74448 0.85492
   2   4   7    0.64    0.02   1 0.62463 0.75246 0.52560-0.24260 0.76102 0.83837
   2   3   7    0.08    0.00   1 0.62597 0.75110 0.50210-0.28972 0.77939 0.81998
   2   2   7    0.03    0.01   1 0.62813 0.74892 0.47434-0.33259 0.79895 0.80041
   2   1   7    0.45    0.02   1 0.63099 0.74605 0.44246-0.37134 0.81906 0.78028
   3   4 -10    0.06    0.00   1 0.52913 0.22219-0.16312 0.44558-0.59243-0.73300
   3   3 -10    2.58    0.05   1 0.53642 0.21489-0.20768 0.41950-0.57609-0.74936
   3   2 -10    0.05    0.00   1 0.54169 0.20960-0.24825 0.38945-0.56027-0.76519
   3   1 -10    0.13    0.01   1 0.54501 0.20626-0.28518 0.35575-0.54539-0.78008
   3   0 -10    6.54    0.08   1 0.54642 0.20484-0.31870 0.31864-0.53186-0.79363
   3   1  -9    0.04    0.02   1 0.65194 0.16345-0.38345 0.45406-0.38200-0.76179
   3   2  -9    0.60    0.02   1 0.64901 0.16640-0.35043 0.49167-0.40278-0.74099
   3   3  -9    0.37    0.01   1 0.64421 0.17121-0.31454 0.52641-0.42498-0.71878
   3   4  -9    2.35    0.06   1 0.63754 0.17790-0.27555 0.55804-0.44819-0.69556
   3   5  -9    0.00    0.02   1 0.62899 0.18646-0.23318 0.58630-0.47195-0.67179
   3   6  -9    0.09    0.01   1 0.61857 0.19690-0.18715 0.61090-0.49574-0.64798
   3   7  -9    2.36    0.05   1 0.60629 0.20920-0.13714 0.63152-0.51899-0.62471
   3   8  -9    0.05    0.00   1 0.59212 0.22338-0.08278 0.64779-0.54107-0.60262
   3   9  -9    2.22    0.05   1 0.57601 0.23951-0.02357 0.65920-0.56128-0.58239
   3  10  -9    0.18    0.01   1 0.55779 0.25774 0.04124 0.66503-0.57880-0.56486
   3  13  -8    1.05    0.03   1 0.58751 0.29219 0.14573 0.77246-0.53747-0.42446
   3  12  -8    1.60    0.04   1 0.61044 0.26924 0.07208 0.77549-0.52263-0.43931
   3  11  -8    0.91    0.03   1 0.63158 0.24808 0.00446 0.77248-0.50255-0.45941
   3  10  -8    2.61    0.06   1 0.65113 0.22852-0.05789 0.76420-0.47831-0.48367
   3   9  -8    2.10    0.06   1 0.66909 0.21054-0.11539 0.75107-0.45083-0.51116
   3   8  -8    1.50    0.05   1 0.68541 0.19420-0.16832 0.73336-0.42098-0.54102
   3   7  -8    0.00    0.02   1 0.70000 0.17960-0.21688 0.71130-0.38961-0.57241
   3   6  -8    1.54    0.05   1 0.71275 0.16683-0.26133 0.68512-0.35751-0.60453
   3   5  -8    0.28    0.01   1 0.72355 0.15601-0.30193 0.65509-0.32544-0.63661
   3   4  -8    1.16    0.04   1 0.73234 0.14721-0.33898 0.62151-0.29411-0.66795
   3   3  -8    0.39    0.01   1 0.73905 0.14048-0.37282 0.58473-0.26413-0.69795
   3   2  -8    0.00    0.02   1 0.74368 0.13583-0.40384 0.54511-0.23601-0.72608
   3   1  -8    1.38    0.05   1 0.74623 0.13326-0.43237 0.50302-0.21018-0.75193
   3   0  -8    2.58    0.07   1 0.74676 0.13272-0.45878 0.45879-0.18695-0.77518
   3   1  -7    0.77    0.03   1 0.83113 0.11247-0.44116 0.51184-0.02327-0.75716
   3   2  -7    3.77    0.09   1 0.82919 0.11443-0.41908 0.56039-0.05334-0.72708
   3   3  -7   14.24    0.17   1 0.82486 0.11878-0.39508 0.60702-0.08716-0.69324
   3   4  -7   28.32    0.24   1 0.81810 0.12555-0.36847 0.65104-0.12432-0.65606
   3   5  -7    5.42    0.11   1 0.80891 0.13477-0.33859 0.69179-0.16421-0.61616
   3   6  -7    0.02    0.02   1 0.79734 0.14636-0.30478 0.72861-0.20599-0.57436
   3   7  -7    0.00    0.02   1 0.78351 0.16014-0.26679 0.76113-0.24844-0.53141
   3   8  -7    0.18    0.01   1 0.76760 0.17606-0.22371 0.78867-0.29096-0.48887
   3   9  -7    4.70    0.09   1 0.74982 0.19386-0.17558 0.81117-0.33214-0.44768
   3  10  -7    3.89    0.08   1 0.73041 0.21328-0.12235 0.82857-0.37085-0.40896
   3  11  -7    3.94    0.08   1 0.70960 0.23410-0.06406 0.84091-0.40601-0.37378
   3  12  -7    1.21    0.04   1 0.68758 0.25613-0.00080 0.84828-0.43663-0.34314
   3  13  -7    0.90    0.03   1 0.66449 0.27924 0.06739 0.85072-0.46175-0.31800
   3  14  -7    0.42    0.02   1 0.64035 0.30339 0.14068 0.84806-0.48041-0.29932
   3  15  -7    0.13    0.00   1 0.61498 0.32877 0.21966 0.83971-0.49146-0.28825
   3  17  -6    5.13    0.07   1 0.62246 0.38544 0.33180 0.86887-0.44344-0.15459
   3  16  -6    2.69    0.05   1 0.64920 0.35869 0.24603 0.88402-0.44420-0.15385
   3  15  -6    0.26    0.01   1 0.67507 0.33281 0.16561 0.89380-0.43432-0.16374
   3  14  -6    0.02    0.02   1 0.70044 0.30742 0.08964 0.89915-0.41519-0.18289
   3  13  -6    1.97    0.06   1 0.72543 0.28243 0.01797 0.90019-0.38767-0.21043
   3  12  -6    0.04    0.02   1 0.74992 0.25792-0.04910 0.89663-0.35249-0.24563
   3  11  -6    0.47    0.02   1 0.77372 0.23411-0.11104 0.88794-0.31041-0.28772
   3  10  -6    1.58    0.05   1 0.79652 0.21130-0.16720 0.87346-0.26243-0.33572
   3   9  -6    1.42    0.05   1 0.81794 0.18987-0.21694 0.85258-0.20977-0.38840
   3   8  -6    1.32    0.05   1 0.83756 0.17023-0.25982 0.82483-0.15396-0.44422
   3   7  -6    3.09    0.08   1 0.85499 0.15279-0.29568 0.79006-0.09679-0.50141
   3   6  -6    1.09    0.03   1 0.86988 0.13788-0.32479 0.74854-0.04017-0.55805
   3   5  -6    3.93    0.09   1 0.88200 0.12576-0.34789 0.70101 0.01404-0.61228
   3   4  -6    2.12    0.07   1 0.89121 0.11653-0.36612 0.64861 0.06422-0.66248
   3   3  -6    2.80    0.08   1 0.89753 0.11020-0.38090 0.59277 0.10916-0.70743
   3   2  -6   10.60    0.15   1 0.90105 0.10666-0.39371 0.53494 0.14813-0.74643
   3   1  -6   49.25    0.32   1 0.90197 0.10574-0.40589 0.47649 0.18089-0.77920
   3   0  -6    4.07    0.10   1 0.90046 0.10723-0.41851 0.41849 0.20755-0.80588
   3   1  -5    6.33    0.12   1 0.94745 0.12438-0.31300 0.38365 0.39552-0.81218
   3   2  -5    9.91    0.15   1 0.94830 0.12354-0.31568 0.45696 0.36382-0.78046
   3   3  -5   21.20    0.21   1 0.94682 0.12503-0.32132 0.53323 0.32196-0.73859
   3  10  -5    2.01    0.07   1 0.84459 0.22735-0.20107 0.90738-0.16609-0.25042
   3  11  -5    7.05    0.12   1 0.81981 0.25214-0.14451 0.92145-0.22901-0.18748
   3  12  -5    2.08    0.07   1 0.79431 0.27766-0.08069 0.92826-0.28295-0.13352
   3  13  -5    2.83    0.07   1 0.76855 0.30343-0.01126 0.92946-0.32719-0.08926
   3  14  -5    5.56    0.10   1 0.74283 0.32916 0.06244 0.92639-0.36141-0.05503
   3  15  -5    2.00    0.06   1 0.71733 0.35468 0.13946 0.92000-0.38545-0.03096
   3  16  -5    9.33    0.11   1 0.69205 0.37996 0.21931 0.91077-0.39913-0.01727
   3  17  -5    2.44    0.05   1 0.66686 0.40517 0.30206 0.89865-0.40193-0.01445
   3  18  -5    0.21    0.01   1 0.64133 0.43071 0.38860 0.88274-0.39257-0.02380
   3  18  -4    0.69    0.02   1 0.67097 0.46519 0.38737 0.88402-0.35467 0.11995
   3  17  -4    6.91    0.09   1 0.69349 0.44267 0.30439 0.89636-0.36615 0.13141
   3  16  -4    1.36    0.05   1 0.71627 0.41988 0.22266 0.90747-0.36591 0.13116
   3  15  -4    2.15    0.06   1 0.73959 0.39654 0.14167 0.91783-0.35452 0.11975
   3  14  -4    3.35    0.08   1 0.76360 0.37251 0.06152 0.92735-0.33179 0.09701
   3   9  -4    0.56    0.02   1 0.89131 0.24475-0.27875 0.91448-0.01984-0.21503
   3   8  -4    0.93    0.03   1 0.91486 0.22118-0.31282 0.87792 0.08426-0.31915
   3   7  -4    4.82    0.10   1 0.93472 0.20131-0.32506 0.81953 0.19589-0.43080
   3   6  -4    0.61    0.02   1 0.94903 0.18699-0.31351 0.73736 0.30628-0.54121
   3   5  -4   40.91    0.29   1 0.95680 0.17920-0.28155 0.63477 0.40494-0.63989
   3   4  -4    8.52    0.14   1 0.95869 0.17730-0.23813 0.52071 0.48372-0.71868
   3   3  -4    5.98    0.11   1 0.95677 0.17921-0.19441 0.40637 0.53997-0.77495
   3   2  -4    1.99    0.06   1 0.95334 0.18263-0.15946 0.30079 0.57626-0.81126
   3   1  -4    4.39    0.10   1 0.94991 0.18605-0.13803 0.20872 0.59758-0.83259
   3   0  -4   11.91    0.16   1 0.94695 0.18900-0.13106 0.13113 0.60876-0.84378
   3   1  -3    0.80    0.03   1 0.88667 0.31341 0.15383-0.08309 0.72108-0.77444
   3   2  -3    0.24    0.01   1 0.88823 0.31186 0.13149 0.00988 0.72546-0.77881
   3   3  -3    0.64    0.02   1 0.89875 0.30136 0.06947 0.14253 0.72236-0.77569
   3   4  -3    7.32    0.12   1 0.91845 0.28167-0.04125 0.32388 0.69226-0.74557
   3   5  -3    0.00    0.03   1 0.93855 0.26158-0.18683 0.54009 0.60271-0.65601
   3   6  -3   69.69    0.38   1 0.94273 0.25742-0.31272 0.73660 0.44092-0.49420
   3   7  -3    5.26    0.11   1 0.92611 0.27404-0.36768 0.86219 0.24855-0.30181
   3   8  -3    8.62    0.14   1 0.89909 0.30108-0.35433 0.91948 0.07702-0.13026
   3   9  -3    5.02    0.10   1 0.87097 0.32921-0.30070 0.93648-0.05603 0.00280
   3  10  -3    2.51    0.07   1 0.84497 0.35522-0.22808 0.93448-0.15427 0.10107
   3  11  -3    3.61    0.09   1 0.82132 0.37889-0.14756 0.92459-0.22563 0.17244
   3  16  -3    2.53    0.06   1 0.72162 0.47865 0.26191 0.86826-0.34482 0.29172
   3  17  -3    6.60    0.09   1 0.70350 0.49678 0.34037 0.86043-0.33536 0.28228
   3  18  -3    1.02    0.03   1 0.68560 0.51470 0.41830 0.85314-0.31542 0.26235
   3  19  -3    2.03    0.04   1 0.66757 0.53273 0.49687 0.84519-0.28314 0.23009
   3  19  -2    2.16    0.04   1 0.67761 0.58682 0.54671 0.79540-0.22104 0.34964
   3  18  -2    0.15    0.01   1 0.68970 0.57472 0.47872 0.79276-0.26482 0.39340
   3  17  -2    0.02    0.02   1 0.70130 0.56311 0.41083 0.79002-0.29751 0.42607
   3  11  -2    0.53    0.02   1 0.75587 0.50846-0.02467 0.80175-0.34529 0.47375
   3  10  -2   13.36    0.17   1 0.76084 0.50348-0.10364 0.81009-0.33077 0.45921
   3   9  -2    5.61    0.11   1 0.76489 0.49942-0.18515 0.82097-0.30722 0.43565
   3   8  -2    0.06    0.02   1 0.76992 0.49438-0.27099 0.83618-0.26874 0.39715
   3   7  -2    0.49    0.02   1 0.78333 0.48095-0.36727 0.86183-0.19265 0.32104
   3   6  -2    2.36    0.07   1 0.85002 0.41425-0.47839 0.90232 0.09404 0.03434
   3   5  -2    0.23    0.01   1 0.74593 0.51833 0.42588-0.07257 0.74261-0.61426
   3   4  -2    0.88    0.03   1 0.68119 0.58305 0.61129-0.32862 0.61769-0.48935
   3   3  -2   11.27    0.15   1 0.69642 0.56782 0.60774-0.39570 0.60322-0.47490
   3   2  -2    0.60    0.02   1 0.72499 0.53923 0.57207-0.43065 0.61510-0.48679
   3   1  -2    1.48    0.05   1 0.75645 0.50775 0.52246-0.45167 0.63544-0.50716
   3   0  -2    6.39    0.12   1 0.78708 0.47712 0.46422-0.46406 0.65815-0.52988
   3   1  -1    0.35    0.01   1 0.66248 0.66585 0.72513-0.65430 0.41022-0.10029
   3   2  -1    7.54    0.13   1 0.61003 0.71832 0.78764-0.64618 0.29740 0.01255
   3   3  -1    2.28    0.07   1 0.55286 0.77550 0.83185-0.61977 0.14830 0.16167
   3   4  -1   29.62    0.25   1 0.49696 0.83141 0.83362-0.55090-0.05025 0.36023
   3   5  -1   10.99    0.15   1 0.46239 0.86599 0.74588-0.39254-0.28531 0.59531
   3   6  -1   19.69    0.21   1 0.47872 0.84968 0.55444-0.13047-0.46789 0.77791
   3   7  -1    5.27    0.11   1 0.53466 0.79375 0.36207 0.13254-0.52564 0.83568
   3   8  -1   14.52    0.18   1 0.59106 0.73736 0.24939 0.31585-0.50904 0.81910
   3   9  -1    4.04    0.09   1 0.63312 0.69531 0.20613 0.42973-0.47455 0.78462
   3  10  -1    0.10    0.01   1 0.66186 0.66659 0.20459 0.50190-0.44108 0.75117
   3  17  -1    7.92    0.10   1 0.69575 0.63278 0.50537 0.69552-0.23196 0.54217
   3  18  -1    3.48    0.06   1 0.69086 0.63769 0.55784 0.71368-0.18646 0.49669
   3  17   0   11.07    0.11   1 0.69685 0.69581 0.59987 0.60107-0.12189 0.61375
   3  16   0    1.63    0.05   1 0.69506 0.69759 0.56672 0.56359-0.16860 0.66044
   3   9   0    3.21    0.08   1 0.61114 0.78142 0.50446 0.13145-0.35492 0.84664
   3   8   0    6.85    0.12   1 0.58776 0.80479 0.55005 0.01523-0.34758 0.83928
   3   7   0    5.84    0.11   1 0.56674 0.82580 0.61213-0.11749-0.31587 0.80755
   3   6   0    1.00    0.03   1 0.55342 0.83911 0.68137-0.25735-0.25282 0.74448
   3   5   0   22.71    0.22   1 0.55266 0.83985 0.74288-0.38949-0.15837 0.65002
   3   4   0   15.21    0.18   1 0.56609 0.82641 0.78291-0.50014-0.04175 0.53339
   3   3   0   10.20    0.15   1 0.59138 0.80111 0.79522-0.58308 0.08313 0.40848
   3   2   0    0.15    0.01   1 0.62416 0.76831 0.78122-0.63971 0.20451 0.28709
   3   1   0   25.19    0.23   1 0.66019 0.73227 0.74604-0.67517 0.31557 0.17601
   3   0   0    3.36    0.08   1 0.69622 0.69622 0.69522-0.69497 0.41359 0.07797
   3  14   1    0.31    0.01   1 0.69280 0.76395 0.62378 0.36532-0.09405 0.76751
   3  15   1    8.21    0.10   1 0.69983 0.75693 0.63519 0.42453-0.05876 0.73223
   3  16   1    0.30    0.01   1 0.70582 0.75095 0.64958 0.48077-0.01538 0.68887
   3  14   2    6.70    0.08   1 0.71800 0.80287 0.67576 0.31338 0.09705 0.75806
   3  13   2    0.32    0.01   1 0.71057 0.81029 0.67651 0.24200 0.06957 0.78552
   3  12   2    4.63    0.08   1 0.70324 0.81761 0.67916 0.16872 0.05131 0.80376
   3  11   2    3.05    0.07   1 0.69616 0.82467 0.68410 0.09315 0.04192 0.81313
   3  10   2    9.39    0.12   1 0.68967 0.83116 0.69131 0.01532 0.04157 0.81346
   3   9   2    0.08    0.01   1 0.68422 0.83659 0.70025-0.06425 0.05069 0.80432
   3   8   2    3.51    0.08   1 0.68040 0.84040 0.70991-0.14454 0.06968 0.78532
   3   7   2    0.51    0.02   1 0.67880 0.84199 0.71879-0.22405 0.09867 0.75631
   3   6   2    0.15    0.01   1 0.67996 0.84082 0.72509-0.30098 0.13733 0.71764
   3   5   2    0.47    0.02   1 0.68420 0.83656 0.72686-0.37338 0.18469 0.67026
   3   4   2    2.95    0.08   1 0.69162 0.82913 0.72236-0.43951 0.23922 0.61571
   3   3   2   39.84    0.28   1 0.70198 0.81875 0.71023-0.49801 0.29889 0.55603
   3   2   2    4.84    0.10   1 0.71480 0.80592 0.68969-0.54809 0.36142 0.49347
   3   1   2    2.35    0.07   1 0.72940 0.79131 0.66053-0.58957 0.42456 0.43032
   3   0   2   23.81    0.22   1 0.74501 0.77569 0.62311-0.62277 0.48624 0.36863
   3   1   3    0.33    0.01   1 0.76358 0.82125 0.58762-0.51661 0.52038 0.51614
   3   2   3   14.06    0.15   1 0.75400 0.83085 0.61813-0.47649 0.47458 0.56197
   3   3   3    0.97    0.03   1 0.74550 0.83936 0.64248-0.43022 0.42966 0.60690
   3   4   3    0.56    0.02   1 0.73842 0.84645 0.66083-0.37794 0.38705 0.64953
   3   5   3   25.08    0.20   1 0.73304 0.85185 0.67360-0.32007 0.34812 0.68848
   3   6   3    6.92    0.10   1 0.72951 0.85539 0.68143-0.25727 0.31413 0.72248
   3   7   3    0.02    0.01   1 0.72788 0.85703 0.68513-0.19034 0.28618 0.75045
   3   8   3    3.46    0.07   1 0.72807 0.85685 0.68558-0.12017 0.26514 0.77151
   3   9   3   14.65    0.13   1 0.72994 0.85500 0.68361-0.04757 0.25166 0.78501
   3  10   3    4.99    0.08   1 0.73330 0.85165 0.67990 0.02677 0.24629 0.79039
   3  11   3    1.18    0.04   1 0.73798 0.84698 0.67485 0.10245 0.24958 0.78712
   3  12   3    0.09    0.00   1 0.74386 0.84111 0.66846 0.17946 0.26234 0.77438
   3   8   4    1.23    0.03   1 0.77743 0.87162 0.59946-0.03400 0.45310 0.76520
   3   7   4    0.18    0.01   1 0.77636 0.87267 0.59705-0.10223 0.46352 0.75476
   3   6   4    0.16    0.01   1 0.77680 0.87222 0.59027-0.16607 0.48000 0.73826
   3   5   4    0.03    0.01   1 0.77865 0.87036 0.57900-0.22543 0.50151 0.71674
   3   4   4    0.45    0.01   1 0.78181 0.86719 0.56304-0.28009 0.52702 0.69121
   3   3   4    0.11    0.01   1 0.78611 0.86288 0.54218-0.32987 0.55551 0.66270
   3   2   4   22.71    0.16   1 0.79138 0.85760 0.51630-0.37462 0.58595 0.63224
   3   1   4    0.49    0.02   1 0.79738 0.85158 0.48536-0.41430 0.61730 0.60087
   3   0   4    6.29    0.09   1 0.80387 0.84508 0.44942-0.44899 0.64857 0.56959
   4   5  -7    0.02    0.01   1 0.90151 0.50626-0.05390 0.40706-0.08347-0.53256
   4   4  -7    0.19    0.01   1 0.91107 0.49669-0.08499 0.36752-0.05578-0.56028
   4   3  -7    0.09    0.00   1 0.91783 0.48992-0.11276 0.32466-0.03208-0.58398
   4   2  -7    4.68    0.07   1 0.92204 0.48570-0.13838 0.27965-0.01271-0.60337
   4   1  -7    4.22    0.07   1 0.92390 0.48383-0.16280 0.23344 0.00223-0.61833
   4   0  -6    3.79    0.07   1 0.97656 0.49528-0.14097 0.14103 0.19269-0.62716
   3  -4  -5    0.20    0.01   1 0.91739 0.15400-0.37442 0.09201 0.44953-0.86592
   3  -5  -5    1.01    0.03   1 0.90686 0.16451-0.39871 0.04567 0.44725-0.86366
   3  -6  -5    0.02    0.02   1 0.89496 0.17639-0.42506 0.00139 0.44210-0.85853
   3  -7  -5    0.29    0.01   1 0.88179 0.18954-0.45271-0.04159 0.43433-0.85079
   3  -8  -5    0.34    0.01   1 0.86750 0.20381-0.48101-0.08392 0.42405-0.84053
   3  -9  -5    8.63    0.14   1 0.85222 0.21906-0.50946-0.12610 0.41127-0.82777
   3 -13  -4    0.01    0.02   1 0.81534 0.32002-0.54610-0.37192 0.46719-0.70216
   3 -12  -4    4.17    0.09   1 0.83249 0.30290-0.51155-0.33584 0.49247-0.72742
   3 -11  -4    2.18    0.07   1 0.84888 0.28652-0.47574-0.30102 0.51481-0.74973
   3 -10  -4   10.44    0.15   1 0.86444 0.27098-0.43873-0.26740 0.53448-0.76938
   3 -12  -3    1.25    0.04   1 0.84962 0.34993-0.41715-0.43018 0.60162-0.65493
   3 -13  -3    0.10    0.01   1 0.83456 0.36497-0.46096-0.45700 0.57661-0.62995
   3 -14  -3    0.71    0.03   1 0.81858 0.38093-0.50296-0.48563 0.54818-0.60154
   3 -15  -3    0.54    0.02   1 0.80168 0.39781-0.54327-0.51595 0.51585-0.56923
   3 -16  -2    0.30    0.01   1 0.79902 0.46461-0.51977-0.61002 0.56460-0.43637
   3 -15  -2    0.47    0.02   1 0.81481 0.44884-0.47313-0.58603 0.60083-0.47258
   3 -14  -2    0.26    0.01   1 0.82942 0.43425-0.42472-0.56381 0.63212-0.50384
   3 -13  -2    1.65    0.05   1 0.84290 0.42079-0.37429-0.54361 0.65909-0.53079
   3 -12  -2    6.29    0.11   1 0.85518 0.40854-0.32164-0.52563 0.68211-0.55379
   3 -11  -1   17.95    0.19   1 0.86055 0.46735-0.17537-0.60120 0.75127-0.44129
   3 -12  -1    0.32    0.01   1 0.85291 0.47498-0.23770-0.60951 0.73597-0.42602
   3 -13  -1    0.08    0.01   1 0.84359 0.48427-0.29748-0.62036 0.71603-0.40610
   3 -14  -1    0.09    0.01   1 0.83280 0.49504-0.35497-0.63350 0.69132-0.38142
   3 -15  -1    1.91    0.06   1 0.82063 0.50719-0.41045-0.64865 0.66155-0.35168
   3 -16  -1    2.69    0.06   1 0.80705 0.52074-0.46422-0.66551 0.62610-0.31624
   3 -15   0    2.58    0.06   1 0.82195 0.57004-0.36399-0.69505 0.69993-0.20841
   3 -14   0    0.57    0.02   1 0.83192 0.56009-0.30283-0.68558 0.72867-0.23713
   3 -13   0   32.29    0.23   1 0.84031 0.55172-0.24009-0.67769 0.75139-0.25983
   3 -12   0    3.83    0.08   1 0.84706 0.54499-0.17547-0.67168 0.76847-0.27689
   3 -11   0    6.07    0.11   1 0.85200 0.54007-0.10876-0.66775 0.78001-0.28841
   3 -10   0    0.93    0.03   1 0.85489 0.53720-0.03982-0.66607 0.78591-0.29428
   3  -1   1    1.20    0.04   1 0.74044 0.71601 0.62270-0.69285 0.49888 0.17459
   3  -2   1    0.82    0.03   1 0.76281 0.69362 0.56438-0.70516 0.56523 0.10822
   3  -3   1   13.07    0.17   1 0.78304 0.67336 0.50007-0.71148 0.62302 0.05040
   3  -4   1   10.71    0.15   1 0.80062 0.65577 0.43151-0.71355 0.67207 0.00134
   3  -5   1   10.19    0.15   1 0.81525 0.64111 0.36021-0.71288 0.71248-0.03910
   3  -6   1    4.60    0.10   1 0.82686 0.62948 0.28740-0.71071 0.74457-0.07121
   3  -7   1    0.24    0.01   1 0.83551 0.62081 0.21407-0.70800 0.76874-0.09541
   3  -8   1   12.44    0.16   1 0.84136 0.61494 0.14094-0.70551 0.78546-0.11215
   3  -9   1    3.26    0.08   1 0.84463 0.61165 0.06856-0.70375 0.79514-0.12185
   3 -10   1    6.22    0.11   1 0.84555 0.61071-0.00275-0.70307 0.79817-0.12491
   3 -11   1   21.33    0.19   1 0.84435 0.61188-0.07281-0.70365 0.79483-0.12159
   3 -12   1    3.28    0.07   1 0.84123 0.61499-0.14158-0.70551 0.78526-0.11205
   3 -13   1    5.19    0.09   1 0.83631 0.61988-0.20915-0.70857 0.76942-0.09623
   4  -1  -6    0.15    0.01   1 0.97413 0.49726-0.16246 0.09202 0.19741-0.63140
   4  -2  -6    0.54    0.02   1 0.97019 0.50118-0.18575 0.04468 0.19739-0.63141
   4  -3  -6    0.62    0.02   1 0.96465 0.50670-0.21108-0.00062 0.19349-0.62753
   4  -4  -6    0.34    0.01   1 0.95742 0.51390-0.23810-0.04423 0.18586-0.61992
   4  -7  -6    1.42    0.04   1 0.92436 0.54690-0.32482-0.16940 0.13968-0.57381
   4  -8  -6    0.06    0.00   1 0.90889 0.56235-0.35402-0.21083 0.11520-0.54935
   4  -9  -5    0.04    0.01   1 0.93551 0.59997-0.33619-0.29910 0.22961-0.48224
   4  -8  -5    0.16    0.01   1 0.95042 0.58509-0.29930-0.26537 0.25764-0.51025
   4  -7  -5    3.75    0.06   1 0.96286 0.57267-0.26218-0.23186 0.28075-0.53335
   4  -6  -5    0.29    0.01   1 0.97309 0.56246-0.22532-0.19810 0.29974-0.55232
   4  -5  -5    0.33    0.01   1 0.98130 0.55427-0.18924-0.16355 0.31517-0.56773
   4  -4  -5    1.06    0.04   1 0.98767 0.54792-0.15457-0.12760 0.32737-0.57992
   4  -3  -5    3.37    0.07   1 0.99238 0.54323-0.12199-0.08955 0.33658-0.58912
   4  -2  -5    0.84    0.03   1 0.99566 0.53997-0.09230-0.04862 0.34288-0.59540
   4  -3  -4    2.48    0.06   1 0.99588 0.60389-0.00634-0.20516 0.43636-0.50726
   4  -4  -4    0.19    0.01   1 0.99546 0.60428-0.04818-0.23394 0.42819-0.49910
   4  -5  -4    0.45    0.01   1 0.99317 0.60656-0.09205-0.26070 0.41749-0.48841
   4  -6  -4    0.29    0.01   1 0.98878 0.61092-0.13719-0.28619 0.40383-0.47477
   4  -7  -4    0.14    0.01   1 0.98214 0.61754-0.18296-0.31104 0.38675-0.45771
   4  -8  -4    0.62    0.02   1 0.97310 0.62656-0.22888-0.33575 0.36569-0.43667
   4  -9  -4    1.99    0.05   1 0.96150 0.63815-0.27453-0.36072 0.33991-0.41090
   4 -10  -4    0.22    0.01   1 0.94703 0.65259-0.31963-0.38625 0.30830-0.37931
   4 -10  -3    2.89    0.05   1 0.96229 0.70148-0.26681-0.43902 0.38799-0.27737
   4  -9  -3    1.69    0.04   1 0.97378 0.69001-0.21333-0.42188 0.41707-0.30643
   4  -8  -3    0.01    0.01   1 0.98218 0.68164-0.15931-0.40527 0.43976-0.32910
   4  -7  -3    1.91    0.05   1 0.98769 0.67614-0.10489-0.38907 0.45713-0.34645
   4  -6  -3    1.66    0.05   1 0.99044 0.67342-0.05030-0.37304 0.46988-0.35919
   4  -5  -3    0.99    0.03   1 0.99048 0.67340 0.00412-0.35682 0.47854-0.36784
   4  -4  -3    0.56    0.02   1 0.98791 0.67599 0.05791-0.33999 0.48357-0.37284
   4  -4  -2    0.90    0.03   1 0.97611 0.75194 0.13656-0.41860 0.50310-0.21074
   4  -5  -2    0.07    0.00   1 0.98248 0.74555 0.07592-0.42859 0.50636-0.21402
   4  -6  -2    0.29    0.01   1 0.98584 0.74218 0.01488-0.43818 0.50451-0.21218
   4  -7  -2    0.28    0.01   1 0.98615 0.74185-0.04626-0.44766 0.49725-0.20494
   4  -8  -2    0.02    0.01   1 0.98338 0.74459-0.10731-0.45724 0.48415-0.19185
   4  -9  -2    0.03    0.01   1 0.97743 0.75053-0.16818-0.46699 0.46449-0.17221
   4  -7  -1    1.18    0.03   1 0.98328 0.80887-0.02211-0.47177 0.51635-0.04240
   4  -6  -1    3.94    0.06   1 0.98179 0.81037 0.04254-0.46579 0.52003-0.04607
   4  -5  -1    0.43    0.01   1 0.97725 0.81494 0.10631-0.45893 0.51702-0.04304
   4  -4  -1    2.49    0.05   1 0.96975 0.82246 0.16896-0.45095 0.50762-0.03362
   4  -2   0    0.27    0.01   1 0.95354 0.90287 0.26262-0.40332 0.47541 0.18026
   4  -3   0    3.85    0.06   1 0.96388 0.89251 0.20703-0.41835 0.49756 0.15809
   4  -5  -6    0.21    0.01   1 0.94841 0.52301-0.26627-0.08657 0.17434-0.60854
   4  -6  -6    0.10    0.00   1 0.93745 0.53394-0.29533-0.12813 0.15907-0.59329
   4   0  -4    3.65    0.07   1 0.83753 0.76230-0.48495 0.48533 0.06068-0.13153
   4   0  -2   13.46    0.13   1 0.93493 0.79321-0.29915 0.29961 0.50832-0.21589
   4   0   0    6.23    0.08   1 0.92822 0.92822-0.09226 0.09282 0.66494-0.00924
   4   4   0    4.00    0.06   1 0.91839 0.93815 0.20646 0.07660 0.64036 0.01541
   4   1  -5    3.58    0.07   1 0.75331 0.78239-0.43800 0.50896-0.19277-0.05969
   4   1  -4    0.05    0.02   1 0.85050 0.74935-0.45039 0.52139 0.04658-0.11741
   4   2  -4    6.80    0.10   1 0.85968 0.74020-0.41336 0.55499 0.02311-0.09392
   4   3  -3    0.03    0.01   1 0.95225 0.71179-0.30328 0.51558 0.30584-0.19499
   4   2  -3    2.96    0.06   1 0.93950 0.72452-0.34177 0.48344 0.31467-0.20384
   4   1  -3    0.23    0.01   1 0.92400 0.74001-0.38192 0.45297 0.31471-0.20390
   4   1  -2    4.37    0.08   1 0.94915 0.77901-0.23792 0.30901 0.52779-0.23535
   4   2  -2    6.45    0.09   1 0.96047 0.76771-0.17038 0.31210 0.54497-0.25251
   4   3  -2    0.04    0.02   1 0.96790 0.76030-0.09472 0.30707 0.55953-0.26705
   4   3  -1    1.17    0.04   1 0.94014 0.85222 0.07001 0.14238 0.64415-0.17004
   4   2  -1    1.64    0.04   1 0.94290 0.84943-0.01999 0.16175 0.64405-0.16996
   4   1  -1    7.02    0.09   1 0.94038 0.85193-0.10184 0.17297 0.63564-0.16156
   4   1   0    3.89    0.06   1 0.93042 0.92605-0.02188 0.09305 0.67087-0.01515
   0   0   0    0.00    0.00   0 0.00000 0.00000 0.00000 0.00000 0.00000 0.00000
;
_shelx_hkl_checksum              53817
loop_
_space_group_symop_operation_xyz
'x, y, z'
'-x, y+1/2, -z+1/2'
'-x, -y, -z'
'x, -y-1/2, z-1/2'
loop_
_atom_site_label
_atom_site_type_symbol
_atom_site_fract_x
_atom_site_fract_y
_atom_site_fract_z
_atom_site_U_iso_or_equiv
_atom_site_adp_type
_atom_site_occupancy
_atom_site_site_symmetry_order
_atom_site_calc_flag
_atom_site_refinement_flags_posn
_atom_site_refinement_flags_adp
_atom_site_refinement_flags_occupancy
_atom_site_disorder_assembly
_atom_site_disorder_group
S F 0.0554(4) 0.45826(6) 0.32865(17) 0.0332(5) Uani 1 1 d . . . . .
N1 N -0.4414(7) 0.59016(10) 0.3357(3) 0.0359(6) Uani 1 1 d . . . . .
O1 O -0.2295(7) 0.63062(10) 0.4212(2) 0.0500(7) Uani 1 1 d . . . . .
N2 N -0.6173(7) 0.71294(10) 0.2210(3) 0.0334(6) Uani 1 1 d . . . . .
O2 O -0.3927(7) 0.53480(9) 0.3810(3) 0.0491(7) Uani 1 1 d . . . . .
N3 N -0.7850(7) 0.75960(11) 0.1234(3) 0.0392(6) Uani 1 1 d . . . . .
N4 N -0.7204(7) 0.60039(10) 0.1988(3) 0.0389(6) Uani 1 1 d . . . . .
N5 N -1.0477(7) 0.67395(11) 0.0107(3) 0.0368(6) Uani 1 1 d . . . . .
N6 N -1.0405(7) 0.73534(11) -0.0012(3) 0.0394(6) Uani 1 1 d . . . . .
C C -0.7792(7) 0.66050(12) 0.1515(3) 0.0315(6) Uani 1 1 d . . . . .
Q4 O 0.5090(7) 0.39147(10) 0.2712(3) 0.0481(7) Uani 1 1 d . . . . .
Q1 C -0.196(4) 0.4919(3) 0.0581(9) 0.157(4) Uani 1 1 d . . . . .
H1 H -0.421(13) 0.723(2) 0.314(5) 0.063(11) Uiso 1 1 d . . . . .
H3 H 0.361(18) 0.376(3) 0.171(7) 0.101(18) Uiso 1 1 d . . . . .
H4 H 0.64(2) 0.350(4) 0.352(11) 0.16(3) Uiso 1 1 d . . . . .
H5 H -0.93(5) 0.795(5) 0.207(17) 0.27(6) Uiso 1 1 d . . . . .
loop_
_atom_site_aniso_label
_atom_site_aniso_U_11
_atom_site_aniso_U_22
_atom_site_aniso_U_33
_atom_site_aniso_U_23
_atom_site_aniso_U_13
_atom_site_aniso_U_12
S 0.0240(8) 0.0307(9) 0.0419(9) -0.0159(6) 0.0078(6) -0.0035(5)
N1 0.0369(12) 0.0315(12) 0.0366(12) 0.0042(9) 0.0098(10) 0.0035(9)
O1 0.0531(13) 0.0410(12) 0.0393(12) 0.0025(9) -0.0043(9) -0.0006(9)
N2 0.0340(12) 0.0300(12) 0.0284(11) 0.0009(8) 0.0012(9) 0.0010(8)
O2 0.0548(13) 0.0332(12) 0.0565(14) 0.0131(9) 0.0162(11) 0.0071(9)
N3 0.0411(13) 0.0321(12) 0.0342(12) 0.0031(9) 0.0005(9) 0.0021(9)
N4 0.0391(13) 0.0322(13) 0.0384(13) -0.0002(9) 0.0049(10) -0.0010(9)
N5 0.0336(12) 0.0371(12) 0.0306(11) -0.0018(9) 0.0000(9) -0.0004(9)
N6 0.0391(12) 0.0372(13) 0.0319(11) 0.0022(9) 0.0002(9) 0.0016(9)
C 0.0297(12) 0.0328(13) 0.0293(12) -0.0013(10) 0.0071(10) -0.0004(10)
Q4 0.0495(13) 0.0388(12) 0.0444(12) -0.0052(9) 0.0022(10) 0.0015(9)
Q1 0.294(12) 0.081(4) 0.094(5) -0.013(4) 0.066(6) -0.003(6)
loop_
_atom_type_symbol
_atom_type_description
_atom_type_scat_dispersion_real
_atom_type_scat_dispersion_imag
_atom_type_scat_source
C C 0.0181 0.0091 'International Tables Vol C Tables 4.2.6.8 and 6.1.1.4'
N N 0.0311 0.0180 'International Tables Vol C Tables 4.2.6.8 and 6.1.1.4'
O O 0.0492 0.0322 'International Tables Vol C Tables 4.2.6.8 and 6.1.1.4'
H H 0.0000 0.0000 'International Tables Vol C Tables 4.2.6.8 and 6.1.1.4'
F F 0.0727 0.0534 'International Tables Vol C Tables 4.2.6.8 and 6.1.1.4'
loop_
_geom_angle_atom_site_label_1
_geom_angle_atom_site_label_2
_geom_angle_atom_site_label_3
_geom_angle
_geom_angle_site_symmetry_1
_geom_angle_site_symmetry_3
O1 N1 O2 119.5(2) . .
O1 N1 N4 124.2(2) . .
O2 N1 N4 116.2(2) . .
C N2 N3 108.8(2) . .
N6 N3 N2 106.1(2) . .
N1 N4 C 116.2(2) . .
C N5 N6 105.6(2) . .
N3 N6 N5 111.5(2) . .
N5 C N2 107.9(2) . .
N5 C N4 119.3(2) . .
N2 C N4 132.8(2) . .
loop_
_geom_bond_atom_site_label_1
_geom_bond_atom_site_label_2
_geom_bond_distance
_geom_bond_site_symmetry_2
N1 O1 1.239(3) .
N1 O2 1.269(3) .
N1 N4 1.305(3) .
N2 C 1.335(3) .
N2 N3 1.344(3) .
N3 N6 1.287(3) .
N4 C 1.374(3) .
N5 C 1.330(3) .
N5 N6 1.346(3) .
Q1 Q1 2.07(2) 3_465

_cod_database_fobs_code 1529387
