#------------------------------------------------------------------------------
#$Date: 2015-12-09 13:13:31 +0200 (Wed, 09 Dec 2015) $
#$Revision: 170940 $
#$URL: svn://www.crystallography.net/cod/cif/1/52/92/1529213.cif $
#------------------------------------------------------------------------------
#
# This file is available in the Crystallography Open Database (COD),
# http://www.crystallography.net/
#
# All data on this site have been placed in the public domain by the
# contributors.
#
data_1529213
loop_
_publ_author_name
'Karad, Somnath Narayan'
'Chung, Wei-Kang'
'Liu, Rai-Shung'
_publ_section_title
;
 Gold-catalyzed formal [4\p + 2\p]-cycloadditions of propiolate
 derivatives with unactivated nitriles
;
_journal_issue                   10
_journal_name_full               'Chem. Sci.'
_journal_page_first              5964
_journal_paper_doi               10.1039/C5SC01950H
_journal_volume                  6
_journal_year                    2015
_chemical_absolute_configuration rm
_chemical_formula_sum            'C18 H16 O3'
_chemical_formula_weight         280.31
_space_group_crystal_system      monoclinic
_space_group_IT_number           4
_space_group_name_Hall           'P 2yb'
_space_group_name_H-M_alt        'P 1 21 1'
_symmetry_space_group_name_Hall  'P 2yb'
_symmetry_space_group_name_H-M   'P 1 21 1'
_atom_sites_solution_hydrogens   geom
_audit_creation_method           SHELXL-2014/6
_audit_update_record
;
2015-04-30 deposited with the CCDC.
2015-07-20 downloaded from the CCDC.
;
_cell_angle_alpha                90
_cell_angle_beta                 100.506(3)
_cell_angle_gamma                90
_cell_formula_units_Z            2
_cell_length_a                   7.9460(7)
_cell_length_b                   9.4371(9)
_cell_length_c                   9.6309(10)
_cell_measurement_reflns_used    2127
_cell_measurement_temperature    100(2)
_cell_measurement_theta_max      25.8485
_cell_measurement_theta_min      3.0474
_cell_volume                     710.09(12)
_computing_cell_refinement       'SAINT V8.34A (Bruker AXS Inc., 2013)'
_computing_data_collection       'APEX2 (Bruker AXS, 2010)'
_computing_data_reduction        'SAINT V8.34A (Bruker AXS Inc., 2013)'
_computing_molecular_graphics    'SHELXTL (Sheldrick, 2008)'
_computing_publication_material  SHELXTL
_computing_structure_refinement  'SHELXL-2014/6 (Sheldrick, 2014)'
_diffrn_ambient_temperature      100(2)
_diffrn_detector_area_resol_mean 8.3333
_diffrn_measured_fraction_theta_full 0.998
_diffrn_measured_fraction_theta_max 0.998
_diffrn_measurement_device_type  'Bruker APEX-II CCD'
_diffrn_measurement_method       '\f and \w scans'
_diffrn_radiation_type           MoK\a
_diffrn_radiation_wavelength     0.71073
_diffrn_reflns_av_R_equivalents  0.0289
_diffrn_reflns_av_unetI/netI     0.0477
_diffrn_reflns_laue_measured_fraction_full 0.998
_diffrn_reflns_laue_measured_fraction_max 0.998
_diffrn_reflns_limit_h_max       9
_diffrn_reflns_limit_h_min       -5
_diffrn_reflns_limit_k_max       11
_diffrn_reflns_limit_k_min       -11
_diffrn_reflns_limit_l_max       12
_diffrn_reflns_limit_l_min       -12
_diffrn_reflns_number            5336
_diffrn_reflns_point_group_measured_fraction_full 0.998
_diffrn_reflns_point_group_measured_fraction_max 0.999
_diffrn_reflns_theta_full        25.242
_diffrn_reflns_theta_max         26.425
_diffrn_reflns_theta_min         2.151
_exptl_absorpt_coefficient_mu    0.089
_exptl_absorpt_correction_T_max  0.9485
_exptl_absorpt_correction_T_min  0.8629
_exptl_absorpt_correction_type   multi-scan
_exptl_absorpt_process_details   'SADABS V2014/4 (Bruker AXS Inc.)'
_exptl_crystal_colour            Colorless
_exptl_crystal_density_diffrn    1.311
_exptl_crystal_density_meas      ?
_exptl_crystal_density_method    'not measured'
_exptl_crystal_description       Tabullar
_exptl_crystal_F_000             296
_exptl_crystal_size_max          0.25
_exptl_crystal_size_mid          0.20
_exptl_crystal_size_min          0.10
_refine_diff_density_max         0.204
_refine_diff_density_min         -0.267
_refine_diff_density_rms         0.074
_refine_ls_abs_structure_details
;
 Refined as an inversion twin.
;
_refine_ls_abs_structure_Flack   -0.1(17)
_refine_ls_extinction_method     none
_refine_ls_goodness_of_fit_ref   1.085
_refine_ls_hydrogen_treatment    constr
_refine_ls_matrix_type           full
_refine_ls_number_parameters     191
_refine_ls_number_reflns         2853
_refine_ls_number_restraints     1
_refine_ls_restrained_S_all      1.085
_refine_ls_R_factor_all          0.0446
_refine_ls_R_factor_gt           0.0380
_refine_ls_shift/su_max          0.000
_refine_ls_shift/su_mean         0.000
_refine_ls_structure_factor_coef Fsqd
_refine_ls_weighting_details
'w=1/[\s^2^(Fo^2^)+(0.0667P)^2^] where P=(Fo^2^+2Fc^2^)/3'
_refine_ls_weighting_scheme      calc
_refine_ls_wR_factor_gt          0.0998
_refine_ls_wR_factor_ref         0.1154
_reflns_Friedel_coverage         0.883
_reflns_friedel_fraction_full    0.999
_reflns_friedel_fraction_max     0.999
_reflns_number_gt                2577
_reflns_number_total             2853
_reflns_threshold_expression     'I > 2\s(I)'
_cod_data_source_file            c5sc01950h2.cif
_cod_data_source_block           150135LT_0m
_cod_depositor_comments
;
The following automatic conversions were performed:

'_exptl_crystal_density_meas' value 'not measured' was changed to '?'
- the value is perceived as not measured.

Automatic conversion script
Id: cif_fix_values 3271 2015-04-21 07:52:19Z andrius 

 Adding full bibliography for 1529211--1529213.cif.
;
_cod_database_code               1529213
_shelx_space_group_comment
;
The symmetry employed for this shelxl refinement is uniquely defined
by the following loop, which should always be used as a source of
symmetry information in preference to the above space-group names.
They are only intended as comments.
;
_shelxl_version_number           2014/6
_shelx_res_file
;
TITL 150135LT_0m in P2(1)
CELL 0.71073 7.9460 9.4371 9.6309 90.000 100.506 90.000
ZERR 2.00 0.0007 0.0009 0.0010 0.000 0.003 0.000
LATT -1
SYMM -x, y+1/2, -z
SFAC C  H  O
UNIT 36  32  6
L.S. 4
ACTA
BOND $H
FMAP 2
PLAN 5
TWIN
TEMP -173.000
WGHT    0.066700
BASF  -0.08431
FVAR       1.34878
O1    3    0.540046    0.893308    0.863794    11.00000    0.02103    0.02123 =
         0.01557    0.00150    0.00112   -0.00236
O2    3    0.581008    0.792187    1.071149    11.00000    0.02471    0.02918 =
         0.02028    0.00415   -0.00294   -0.00566
O3    3    0.106854    0.866913    0.798042    11.00000    0.02053    0.01597 =
         0.03149    0.00435    0.00171    0.00154
C1    1    0.817410    1.026698    0.466408    11.00000    0.03122    0.03561 =
         0.02128    0.00411    0.00729   -0.00080
AFIX  43
H1    2    0.899447    1.053102    0.410692    11.00000   -1.20000
AFIX   0
C2    1    0.703812    0.916433    0.423454    11.00000    0.03701    0.03281 =
         0.01983   -0.00574    0.00732   -0.00374
AFIX  43
H16   2    0.707006    0.868099    0.337446    11.00000   -1.20000
AFIX   0
C3    1    0.585817    0.876951    0.506097    11.00000    0.02709    0.02460 =
         0.01938   -0.00455    0.00111   -0.00301
AFIX  43
H15   2    0.509332    0.800805    0.476900    11.00000   -1.20000
AFIX   0
C4    1    0.578653    0.947814    0.631057    11.00000    0.02219    0.01904 =
         0.01493    0.00144    0.00114    0.00261
C5    1    0.447859    0.907883    0.719374    11.00000    0.02132    0.01922 =
         0.01307   -0.00003   -0.00026   -0.00039
AFIX  13
H12   2    0.392524    0.815885    0.685753    11.00000   -1.20000
AFIX   0
C6    1    0.487957    0.803357    0.956933    11.00000    0.02091    0.01539 =
         0.01816    0.00088    0.00279    0.00125
C7    1    0.332734    0.715934    0.921057    11.00000    0.02162    0.01781 =
         0.01840    0.00191    0.00389    0.00015
AFIX  43
H11   2    0.350072    0.620019    0.950103    11.00000   -1.20000
AFIX   0
C8    1    0.171053    0.743300    0.855628    11.00000    0.02274    0.01671 =
         0.01632   -0.00019    0.00565    0.00141
C9    1    0.032776    0.634807    0.839437    11.00000    0.01829    0.02083 =
         0.01570   -0.00368    0.00588    0.00150
C10   1    0.065889    0.493375    0.876790    11.00000    0.02062    0.02174 =
         0.01786   -0.00044    0.00415    0.00223
AFIX  43
H10   2    0.178728    0.464942    0.917736    11.00000   -1.20000
AFIX   0
C11   1   -0.063990    0.394629    0.854689    11.00000    0.02742    0.01850 =
         0.01826    0.00073    0.00623    0.00120
AFIX  43
H9    2   -0.039790    0.298545    0.880243    11.00000   -1.20000
AFIX   0
C12   1   -0.230557    0.434310    0.795204    11.00000    0.02358    0.02468 =
         0.02410   -0.00463    0.00483   -0.00543
AFIX  43
H2    2   -0.319734    0.365909    0.779691    11.00000   -1.20000
AFIX   0
C13   1    0.200835    0.997247    0.825589    11.00000    0.02419    0.01292 =
         0.02998   -0.00006    0.00533    0.00134
AFIX  23
H3    2    0.273041    0.993412    0.920841    11.00000   -1.20000
H6    2    0.119698    1.077129    0.823747    11.00000   -1.20000
AFIX   0
C14   1    0.312543    1.021989    0.716980    11.00000    0.02281    0.01763 =
         0.02413    0.00262    0.00254    0.00007
AFIX  23
H5    2    0.369570    1.115206    0.734689    11.00000   -1.20000
H4    2    0.239725    1.024951    0.621949    11.00000   -1.20000
AFIX   0
C15   1   -0.264061    0.574417    0.759163    11.00000    0.01977    0.02480 =
         0.03526   -0.00147   -0.00026    0.00169
AFIX  43
H8    2   -0.377242    0.602476    0.718809    11.00000   -1.20000
AFIX   0
C16   1   -0.134549    0.674442    0.781186    11.00000    0.02322    0.01985 =
         0.02937    0.00057    0.00282    0.00107
AFIX  43
H7    2   -0.159615    0.770614    0.756536    11.00000   -1.20000
AFIX   0
C17   1    0.692228    1.058926    0.672918    11.00000    0.02889    0.01962 =
         0.01843    0.00046    0.00547   -0.00144
AFIX  43
H14   2    0.688439    1.108178    0.758321    11.00000   -1.20000
AFIX   0
C18   1    0.810168    1.097764    0.590931    11.00000    0.02678    0.02480 =
         0.02173    0.00293    0.00245   -0.00494
AFIX  43
H13   2    0.886868    1.173763    0.620159    11.00000   -1.20000
AFIX   0
HKLF 4 1 1 0 0 0 1 0 0 0 1

REM  150135LT_0m in P2(1)
REM R1 =  0.0380 for    2577 Fo > 4sig(Fo)  and  0.0446 for all    2853 data
REM    191 parameters refined using      1 restraints

END

WGHT      0.0667      0.0000

REM Highest difference peak  0.204,  deepest hole -0.267,  1-sigma level  0.074
Q1    1   0.4087  0.7381  0.5532  11.00000  0.05    0.20
Q2    1   0.5671  1.0795  0.5428  11.00000  0.05    0.20
Q3    1  -0.5277  0.6582  0.5800  11.00000  0.05    0.20
Q4    1   0.9042  0.8607  0.4277  11.00000  0.05    0.20
Q5    1   0.6181  0.9236  0.4523  11.00000  0.05    0.19
;
_shelx_res_checksum              86699
_shelx_hkl_file
;
   2   0   0 45.7000 2.10771   1
   2   0   0 48.5938 2.08337   1
   3   0   0 567.868 17.3067   1
   3   0   0 535.128 17.2600   1
   4   0   0 3.08970 1.00716   1
   4   0   0 2.55777 1.06753   1
   5   0   0 22.2796 2.69062   1
   5   0   0 26.2750 3.02571   1
   6   0   0 21.7610 3.21976   1
   6   0   0 21.2027 3.08315   1
   7   0   0 44.5627 4.85962   1
   8   0   0 418.846 17.4028   1
   9   0   0 1.27774 2.04065   1
   0  -1   0 -6.8124 0.20358   1
   0  -1   0 -6.7088 0.25744   1
   0  -1   0 -6.7125 0.25642   3
   0   1   0 -6.7355 0.24996   1
   0   1   0 -6.5836 0.31885   1
   0   1   0 -6.9637 0.14501   3
   1   1   0 146.573 6.16810   1
   2   1   0 2273.54 70.9033   1
   2   1   0 2502.65 71.0328   1
  -3  -1   0 651.962 20.8388   1
   3   1   0 665.250 21.9577   1
   3   1   0 657.872 22.0504   1
   4   1   0 602.702 21.1209   1
   4   1   0 604.966 21.0095   1
   5  -1   0 86.2171 3.68109   1
   5  -1   0 87.1047 3.71677   1
   5   1   0 86.0112 5.84759   1
   5   1   0 83.5246 5.70595   1
   6  -1   0 121.519 5.70363   1
   6  -1   0 120.410 5.56297   1
   6   1   0 124.237 7.61257   1
   6   1   0 122.346 7.59726   1
   7  -1   0 378.756 13.9991   1
   7  -1   0 363.760 14.0132   1
   7   1   0 389.479 16.6579   1
   8  -1   0 187.665 9.17678   1
   8   1   0 194.108 11.2479   1
   9  -1   0 59.1582 5.79388   1
   9   1   0 64.9564 7.74834   1
   0  -2   0 4530.05 133.181   1
   0  -2   0 4676.39 132.415   3
   0   2   0 4620.38 133.324   1
   0   2   0 4404.01 133.095   1
  -1  -2   0 3009.39 86.8841   1
   1  -2   0 2859.48 85.4693   1
   1  -2   0 2987.33 85.3377   1
  -1   2   0 2827.75 84.9254   1
   1   2   0 2938.29 86.7009   1
   1   2   0 2893.93 86.7993   1
   1   2   0 2842.11 85.6232   3
  -2  -2   0 4528.93 133.501   1
   2  -2   0 4554.05 130.733   1
   2  -2   0 4540.03 130.694   1
   2   2   0 4337.16 133.610   1
   2   2   0 4625.41 132.283   3
   2   2   0 4566.10 133.604   1
  -3  -2   0 545.145 20.8217   1
   3   2   0 616.576 21.8040   1
   3   2   0 623.797 21.8059   1
   3   2   0 630.117 20.1104   3
  -4  -2   0 380.325 14.3725   1
   4   2   0 369.539 15.5880   1
   4   2   0 384.433 13.8080   3
   4   2   0 376.750 15.5348   1
  -5  -2   0 36.6555 4.41828   1
   5   2   0 34.0994 4.62432   1
   5   2   0 25.7583 4.09446   1
   5   2   0 36.2429 3.77198   3
   6   2   0 581.761 20.8902   3
   6   2   0 599.183 25.1975   1
   6   2   0 610.722 23.6569   1
   7  -2   0 10.8439 1.60194   1
   7  -2   0 15.3899 1.79728   1
   7   2   0 4.69030 2.67799   1
   7   2   0 10.1933 2.57884   3
   8  -2   0 175.080 7.52723   1
   8   2   0 178.538 11.6557   1
   9  -2   0 46.3128 4.29719   1
   9   2   0 31.4037 6.03609   1
   0  -3   0 -0.1548 0.99250   1
   0  -3   0 -0.8293 1.17080   1
   0   3   0 -1.4114 0.76438   1
   0   3   0 1.08698 0.92289   3
   1  -3   0 107.948 5.80208   1
  -1  -3   0 93.0526 6.26624   1
   1  -3   0 97.3476 5.42641   1
   1   3   0 101.341 6.25169   1
   1   3   0 104.684 5.54933   3
   2  -3   0 2800.01 86.1031   1
   2  -3   0 2982.23 86.4916   1
  -2  -3   0 3036.58 89.0372   1
   2   3   0 2863.45 87.2122   3
   2   3   0 2886.99 88.7770   1
  -2   3   0 2912.08 84.4065   1
  -3  -3   0 475.858 19.5470   1
   3  -3   0 525.063 16.6138   1
   3  -3   0 502.168 16.6407   1
   3   3   0 510.465 18.4306   3
   3   3   0 516.606 20.1522   1
   4  -3   0 100.396 4.16162   1
  -4  -3   0 111.478 7.15125   1
   4  -3   0 104.355 4.23238   1
   4   3   0 99.1969 7.45833   1
   4   3   0 109.046 6.37398   3
  -5  -3   0 59.9489 6.01837   1
   5   3   0 63.6200 7.16358   1
   5   3   0 57.7270 5.61965   3
   6   3   0 189.393 11.6808   1
   6   3   0 187.121 9.83667   3
   7   3   0 50.4893 6.10350   3
   7   3   0 53.3036 7.27625   1
   8   3   0 15.2691 4.53093   1
   8   3   0 15.5457 3.73735   3
   9   3   0 13.3130 4.85398   1
   0  -4   0 347.791 15.0218   1
   0   4   0 330.139 14.3528   1
   0   4   0 359.397 13.1115   3
   1  -4   0 75.3161 5.51032   1
   1  -4   0 57.2431 5.53129   1
  -1  -4   0 61.3861 6.56294   1
   1   4   0 67.8034 4.81968   3
  -1   4   0 64.9473 4.67984   1
   1   4   0 63.2822 6.43292   1
   2  -4   0 1037.24 34.5886   1
  -2  -4   0 1057.98 36.7461   1
   2  -4   0 1011.85 34.1575   1
   2   4   0 1053.95 34.8048   3
   2   4   0 1115.64 36.9361   1
  -2   4   0 1040.39 32.8698   1
  -3  -4   0 0.76526 1.78097   1
   3  -4   0 0.58390 1.02505   1
   3  -4   0 0.37213 1.08852   1
   3   4   0 -0.1752 1.07081   3
   3   4   0 -0.0332 1.47727   1
   4  -4   0 20.5630 2.62145   1
  -4  -4   0 10.3215 2.99653   1
   4  -4   0 15.7446 2.32902   1
   4   4   0 16.0090 3.16504   3
   4   4   0 17.9276 3.96917   1
  -5  -4   0 98.5921 9.16897   1
   5  -4   0 91.9623 4.81725   1
   5  -4   0 100.779 5.12945   1
   5   4   0 97.0979 8.34643   3
   5   4   0 82.7896 8.76482   1
   6  -4   0 144.559 6.33188   1
   6  -4   0 150.856 6.42997   1
   6   4   0 154.159 11.3280   1
   6   4   0 171.230 9.83959   3
   7  -4   0 32.9819 3.22381   1
   7   4   0 32.0372 6.14494   1
   7   4   0 32.0858 5.36242   3
   8   4   0 26.7622 5.91128   1
   8   4   0 46.4270 6.70543   3
   9   4   0 75.0751 10.3581   1
   0  -5   0 -1.7083 1.31972   1
   0   5   0 -1.4589 1.06994   1
   0   5   0 -1.3544 0.78827   3
   1  -5   0 35.0125 5.04056   1
  -1  -5   0 32.6365 5.14323   1
  -1   5   0 32.6713 4.44409   1
   1   5   0 30.9635 4.15176   3
   1   5   0 32.2381 5.02723   1
   2  -5   0 73.4205 6.78450   1
   2  -5   0 58.1751 6.28810   1
  -2  -5   0 73.5741 8.12719   1
   2   5   0 55.4539 6.73396   1
   2   5   0 65.5395 6.35123   3
  -2   5   0 76.2256 4.98821   1
  -3  -5   0 429.273 19.9594   1
   3  -5   0 452.864 17.6795   1
   3  -5   0 417.016 17.1280   1
   3   5   0 424.679 18.0658   3
   3   5   0 452.501 20.2710   1
   4  -5   0 370.836 14.9537   1
   4  -5   0 346.276 14.4969   1
  -4  -5   0 359.617 17.7791   1
   4   5   0 365.194 18.3906   1
   4   5   0 355.123 16.2811   3
  -5  -5   0 127.048 11.3083   1
   5  -5   0 124.850 6.96064   1
   5  -5   0 126.185 7.20958   1
   5   5   0 124.659 8.88331   3
   5   5   0 118.547 11.4400   1
   6  -5   0 35.1492 4.04492   1
   6   5   0 43.8029 7.60389   1
   6   5   0 38.9727 6.11443   3
   7  -5   0 153.946 7.45930   1
   7   5   0 125.861 13.1954   1
   7   5   0 155.086 10.8595   3
   8  -5   0 8.88619 1.87828   1
   8   5   0 4.60465 3.21421   3
   8   5   0 4.66692 3.83968   1
   0  -6   0 483.017 21.9280   1
   0   6   0 494.094 21.0196   1
   0   6   0 494.218 18.5747   3
   1  -6   0 386.788 18.3829   1
  -1  -6   0 408.098 19.4405   1
   1   6   0 406.782 16.6932   3
   1   6   0 396.163 18.7300   1
  -1   6   0 391.400 17.2089   1
   2  -6   0 179.584 11.0925   1
  -2  -6   0 198.654 12.6364   1
   2   6   0 188.908 10.7206   3
   2   6   0 199.068 12.4005   1
   3  -6   0 8.42808 2.89694   1
   3  -6   0 6.39792 2.50952   1
  -3  -6   0 3.92832 2.63252   1
   3   6   0 7.76822 3.19785   1
   3   6   0 5.88019 2.46885   3
   4  -6   0 206.393 11.4054   1
  -4  -6   0 203.371 13.6638   1
   4   6   0 207.985 13.8501   1
   4   6   0 207.113 12.0575   3
   5  -6   0 372.241 16.6153   1
  -5  -6   0 411.526 20.3132   1
   5   6   0 403.595 21.1830   1
   5   6   0 365.287 18.1984   3
   6  -6   0 18.4209 3.75215   1
   6   6   0 11.2790 4.47120   1
   6   6   0 9.69484 3.60114   3
   7  -6   0 58.0422 5.94276   1
   7   6   0 56.9399 8.17576   3
   7   6   0 65.0062 10.3151   1
   8  -6   0 41.3973 4.65269   1
   8   6   0 64.9162 9.41932   3
   8   6   0 58.2981 9.97142   1
   0  -7   0 -1.9840 1.85342   1
   0   7   0 0.37772 1.74264   1
   0   7   0 0.82392 1.03614   3
   1  -7   0 337.312 17.8762   1
  -1  -7   0 339.649 18.4543   1
   1   7   0 341.767 15.4246   3
  -1   7   0 338.057 16.3744   1
   1   7   0 323.112 17.4214   1
   2  -7   0 243.546 14.2565   1
  -2  -7   0 256.245 15.7623   1
   2   7   0 249.527 15.2349   1
   2   7   0 234.534 12.8650   3
  -3  -7   0 94.2195 11.1124   1
   3  -7   0 90.6532 9.66630   1
   3   7   0 91.1930 10.7645   1
   3   7   0 71.0884 8.18417   3
   4  -7   0 9.99795 3.56883   1
  -4  -7   0 12.7812 4.62190   1
   4   7   0 3.46923 2.37078   3
   4   7   0 9.86282 4.20108   1
   5  -7   0 264.171 14.0658   1
  -5  -7   0 256.711 27.6932   1
   5   7   0 240.925 14.8732   3
   5   7   0 272.171 17.6999   1
   6  -7   0 77.7062 8.05806   1
   6   7   0 48.0766 8.89094   1
   6   7   0 60.8492 8.72154   3
   7  -7   0 6.61315 3.10244   1
   7   7   0 3.41376 3.17000   3
   7   7   0 9.46699 5.19657   1
   0  -8   0 321.308 18.7278   1
   0   8   0 320.907 17.4182   1
   0   8   0 317.923 14.3196   3
   1  -8   0 385.719 20.8057   1
  -1  -8   0 379.693 21.3029   1
  -1   8   0 398.579 19.0266   1
   1   8   0 382.409 20.3792   1
   1   8   0 384.858 17.6044   3
  -2  -8   0 192.131 14.5491   1
   2  -8   0 199.158 13.7327   1
   2   8   0 187.563 13.9467   1
   2   8   0 197.928 11.9418   3
  -3  -8   0 16.7938 5.44166   1
   3  -8   0 9.46867 3.85347   1
   3   8   0 24.0718 6.43717   1
   3   8   0 18.0573 4.68077   3
  -4  -8   0 80.8001 11.2674   1
   4  -8   0 66.5496 8.71300   1
   4   8   0 79.4743 11.1298   1
   4   8   0 65.2829 8.55325   3
   5  -8   0 34.4571 6.13048   1
   5   8   0 38.9023 7.12736   3
   5   8   0 52.7944 9.74700   1
   6  -8   0 1.19411 2.69235   1
   6   8   0 1.51240 2.73386   3
   6   8   0 1.23614 3.71921   1
   7  -8   0 65.6240 8.16363   1
   7   8   0 77.0227 10.8495   3
   7   8   0 48.1078 9.87729   1
   0  -9   0 -0.4305 2.59701   1
   0   9   0 1.11262 2.51785   1
   0   9   0 -0.0355 1.46909   3
  -1  -9   0 41.8869 8.14426   1
   1  -9   0 36.4746 7.30657   1
   1   9   0 64.7803 7.75092   3
   1   9   0 41.4851 7.76018   1
   2  -9   0 133.088 14.0024   1
  -2  -9   0 116.445 14.2401   1
   2   9   0 114.362 13.1409   1
   2   9   0 125.239 11.6268   3
  -3  -9   0 7.65886 4.12595   1
   3  -9   0 4.32967 3.67775   1
   3   9   0 3.25618 3.68372   1
   3   9   0 4.20919 3.11868   3
  -4  -9   0 26.9620 7.51341   1
   4  -9   0 10.1994 4.67821   1
   4   9   0 18.5833 4.90272   3
   4   9   0 25.3868 7.07638   1
   5  -9   0 3.61968 3.47078   1
   5   9   0 4.48428 3.28694   3
   5   9   0 2.46149 4.01478   1
   6  -9   0 2.90332 3.34369   1
   6   9   0 0.32362 2.73735   3
   6   9   0 -1.4515 3.86443   1
   0 -10   0 174.188 18.1279   1
  -1 -10   0 67.6429 11.1487   1
   1 -10   0 71.8542 11.2639   1
   1  10   0 72.8583 8.57894   3
   1  10   0 89.6870 12.1137   1
  -2 -10   0 87.2189 12.4818   1
   2 -10   0 62.3001 9.85205   1
   2  10   0 70.9106 8.83265   3
   2  10   0 86.7043 12.1385   1
   3 -10   0 71.2473 10.4205   1
  -3 -10   0 61.1652 11.2790   1
   3  10   0 59.0497 10.1837   1
   3  10   0 85.6574 10.4435   3
  -4 -10   0 69.4848 12.5199   1
   4 -10   0 102.346 12.5069   1
   4  10   0 107.674 14.1791   1
   4  10   0 87.4825 10.7546   3
   5 -10   0 18.1468 6.01880   1
   5  10   0 19.7573 5.99999   3
   5  10   0 15.1304 6.26979   1
   0 -11   0 -0.8491 3.88445   1
   1 -11   0 66.0345 11.9374   1
  -1 -11   0 67.1027 11.9572   1
   1  11   0 62.0644 7.70371   3
  -2 -11   0 63.4578 11.4887   1
   2 -11   0 91.6028 13.2493   1
   2  11   0 65.2650 8.74388   3
   3 -11   0 11.2611 5.11726   1
  -3 -11   0 6.28156 5.65686   1
   3  11   0 -1.4891 3.62060   1
   3  11   0 9.59193 4.59012   3
   9   0  -1 58.5857 6.58110   1
   8   0  -1 27.5060 4.28496   1
   7   0  -1 396.358 15.9744   1
   6   0  -1 15.1271 2.57798   1
   6   0  -1 13.0389 2.60067   1
   5   0  -1 1.68181 1.09167   1
   5   0  -1 2.09518 1.16926   1
   4   0  -1 14.9136 1.98177   1
   4   0  -1 15.8821 2.09593   1
   3   0  -1 678.109 21.0309   1
   3   0  -1 665.755 21.0690   1
  -2   0   1 1234.24 35.6444   1
  -2   0   1 1228.26 35.6460   1
   2   0  -1 1219.49 36.6498   1
   2   0  -1 1234.39 36.6796   1
  -1   0   1 13.8887 1.41929   1
  -1   0   1 13.3320 1.42610   1
   0   0   1 -2.9434 0.20132   1
   0   0   1 -2.4965 0.30510   1
   0   0  -1 -2.3193 0.35047   1
   0   0  -1 -2.8293 0.19565   1
  -2   0  -1 2574.67 72.6368   1
   2   0   1 2445.40 73.4578   1
   2   0   1 2490.58 73.3791   1
   2   0   1 2470.11 73.4998   1
   3   0   1 235.513 9.35236   1
   3   0   1 262.262 9.44660   1
   4   0   1 182.653 8.01031   1
   4   0   1 182.879 7.86136   1
   5   0   1 283.324 11.6739   1
   5   0   1 279.726 11.5192   1
   6   0   1 13.3735 2.70437   1
   6   0   1 16.0450 3.02945   1
   7   0   1 10.0588 2.61649   1
   8   0   1 1.89265 2.04443   1
   9   0   1 38.6778 5.97708   1
   9  -1  -1 25.0742 3.73084   1
   9   1  -1 19.3878 4.57143   1
   8  -1  -1 46.3310 4.59175   1
   8   1  -1 41.2941 5.67957   1
   7  -1  -1 118.486 6.03702   1
   7  -1  -1 108.391 5.92513   1
   7   1  -1 109.116 7.72220   1
   6  -1  -1 148.943 6.46618   1
   6  -1  -1 154.011 6.45594   1
   6   1  -1 145.771 8.44016   1
   6   1  -1 147.444 8.57516   1
   5  -1  -1 191.012 6.68318   1
   5  -1  -1 181.028 6.59883   1
   5   1  -1 183.581 9.12691   1
   5   1  -1 179.162 9.08415   1
   4   1  -1 600.508 20.4126   1
   4   1  -1 550.096 20.1527   1
  -3  -1   1 1469.27 44.9250   1
   3   1  -1 1479.51 45.9570   1
   3   1  -1 1519.74 46.1531   1
   2  -1  -1 555.600 16.4772   1
   2  -1  -1 556.256 16.4847   1
   2   1  -1 547.997 18.4889   1
   2   1  -1 537.735 18.4708   1
   1  -1  -1 222.585 7.46755   1
  -1  -1   1 193.321 8.03096   1
   1  -1   1 8425.59 243.002   1
  -1  -1  -1 8169.90 241.030   1
  -1  -1  -1 8179.43 240.880   1
  -1  -1  -1 8335.72 242.565   3
   1   1   1 8508.42 241.178   1
  -1   1  -1 8459.07 242.586   1
  -1   1  -1 8245.21 241.937   1
   2  -1   1 289.848 9.57847   1
   2  -1   1 289.752 9.52692   1
   2   1   1 271.435 10.9536   1
   2   1   1 277.951 9.75427   3
   2   1   1 291.095 10.9843   1
  -3  -1  -1 419.088 14.6001   1
  -3  -1  -1 427.286 14.6782   1
   3  -1   1 420.461 13.5392   1
   3  -1   1 432.041 13.6302   1
   3   1   1 396.057 15.4743   1
   3   1   1 430.373 15.5264   1
   3   1   1 422.500 13.7698   3
   4  -1   1 735.005 22.5262   1
   4  -1   1 698.134 22.2216   1
   4   1   1 703.568 22.1421   3
   4   1   1 732.798 24.6984   1
   4   1   1 681.487 24.5863   1
   5  -1   1 3.56497 1.25490   1
   5  -1   1 6.59819 1.42370   1
   5   1   1 5.74956 1.32323   3
   5   1   1 6.95872 2.23889   1
   5   1   1 9.20203 2.40010   1
   6  -1   1 41.0607 4.06885   1
   6  -1   1 35.2005 3.60592   1
   6   1   1 36.4751 5.01892   1
   6   1   1 42.6903 5.16978   1
   6   1   1 34.2603 3.29933   3
   7  -1   1 56.8651 5.19223   1
   7   1   1 53.3223 6.35666   1
   8  -1   1 187.092 9.83914   1
   8   1   1 210.091 12.1755   1
   9  -1   1 325.844 15.0588   1
   9   1   1 353.889 17.6669   1
   9  -2  -1 8.97900 1.94701   1
   9   2  -1 10.0108 3.99932   1
   8  -2  -1 69.3468 4.10397   1
   8   2  -1 71.1181 8.17733   1
   7   2  -1 135.801 9.50951   1
   6   2  -1 455.325 19.1605   1
   6   2  -1 428.732 18.7685   1
  -5  -2   1 65.4751 4.15754   1
   5   2  -1 62.5368 6.33898   1
   5   2  -1 62.9128 6.47515   1
  -4  -2   1 44.7602 4.42786   1
   4   2  -1 41.4934 4.87189   1
   4   2  -1 40.7212 4.72182   1
  -3  -2   1 607.415 21.4066   1
   3   2  -1 611.016 22.0889   1
   3   2  -1 616.042 22.0409   1
   2  -2  -1 207.909 7.88241   1
  -2  -2   1 224.045 9.73357   1
   2  -2  -1 228.553 8.00830   1
   2   2  -1 217.851 9.82572   1
   2   2  -1 214.964 9.77063   1
   2   2  -1 218.888 8.69960   3
  -1  -2   1 1698.00 51.3571   1
   1  -2  -1 1633.00 50.1586   1
   1  -2  -1 1646.89 50.2111   1
   1   2  -1 1687.58 51.2451   1
   1   2  -1 1682.72 50.0999   3
   1   2  -1 1619.75 51.2521   1
   0  -2   1 3230.40 94.1106   1
   0  -2   1 3039.88 94.0515   1
   0  -2  -1 3319.75 94.4166   1
   0  -2  -1 3204.45 94.0943   1
   0   2   1 3252.97 94.0881   1
   0   2  -1 3224.37 92.8753   3
   0   2   1 2932.98 92.9213   3
   0   2  -1 3197.41 94.0334   1
   1  -2   1 1560.31 45.2226   3
   1  -2   1 1553.20 46.6122   1
  -1  -2  -1 1508.46 47.7540   1
   1  -2   1 1532.99 46.6969   1
   1   2   1 1591.19 47.8049   1
   1   2   1 1539.11 46.6391   3
   1   2   1 1464.40 47.7280   1
  -2  -2  -1 891.277 28.5956   3
   2  -2   1 943.854 28.6599   1
  -2  -2  -1 918.889 30.5861   1
   2  -2   1 879.798 28.3916   1
   2   2   1 936.325 30.6952   1
   2   2   1 980.726 29.4457   3
   2   2   1 915.986 30.7693   1
   3  -2   1 857.337 25.7584   1
   3  -2   1 865.127 25.7796   1
  -3  -2  -1 848.391 28.3568   1
   3   2   1 787.596 28.7875   1
   3   2   1 840.636 28.8322   1
   3   2   1 816.664 27.0581   3
  -4  -2  -1 267.613 11.2716   1
   4  -2   1 261.679 9.14409   1
   4  -2   1 266.032 9.18858   1
   4   2   1 263.794 12.3785   1
   4   2   1 269.745 12.5831   1
   4   2   1 260.888 10.6396   3
   5  -2   1 275.889 9.97817   1
   5  -2   1 294.730 10.2026   1
  -5  -2  -1 284.441 11.1763   1
   5   2   1 297.281 13.7651   1
   5   2   1 290.005 11.6294   3
   5   2   1 261.342 13.4979   1
   6  -2   1 221.317 9.00489   1
   6  -2   1 236.943 9.04199   1
   6   2   1 222.061 12.4229   1
   6   2   1 236.823 10.4547   3
   7  -2   1 305.627 11.8343   1
   7   2   1 303.174 13.3352   3
   7   2   1 312.678 15.9003   1
   8  -2   1 2.39818 1.59797   1
   8   2   1 4.45271 2.68800   1
   9  -2   1 13.8812 2.73071   1
   9   2   1 10.4389 4.13983   1
   9   3  -1 -0.9261 2.74440   1
   8   3  -1 181.967 12.5747   1
   8   3  -1 175.826 10.4964   3
   7   3  -1 177.339 9.76447   3
   7   3  -1 151.622 11.0234   1
   6   3  -1 291.058 15.0837   1
   6   3  -1 273.832 12.7096   3
  -5  -3   1 158.751 9.24314   1
   5   3  -1 207.858 9.72768   3
   5   3  -1 210.587 11.5581   1
   4  -3  -1 295.465 10.1915   1
   4  -3  -1 302.393 10.2461   1
  -4  -3   1 291.134 13.4598   1
   4   3  -1 297.727 12.5323   3
   4   3  -1 307.970 14.4020   1
  -3  -3   1 110.448 7.17138   1
   3  -3  -1 108.324 5.20494   1
   3  -3  -1 113.640 5.29973   1
   3   3  -1 109.900 6.31026   3
   3   3  -1 112.999 7.42539   1
   2  -3  -1 1512.69 47.1834   1
  -2  -3   1 1508.65 49.4264   1
   2  -3  -1 1572.29 47.4445   1
  -2   3   1 1538.77 45.9343   1
   2   3  -1 1524.77 49.5125   1
   2   3  -1 1574.15 47.9707   3
  -1  -3   1 792.750 27.7793   1
   1  -3  -1 794.947 26.5242   1
   1  -3  -1 779.916 26.6484   1
   1   3  -1 782.420 27.4756   1
  -1   3   1 832.248 26.3406   1
   1   3  -1 804.336 26.1536   3
   0  -3  -1 409.296 15.8572   1
   0  -3   1 395.962 16.5650   1
   0  -3   1 405.125 15.8946   1
   0   3  -1 390.032 15.3478   1
   0   3   1 387.708 15.4101   1
   0   3  -1 422.379 14.2301   3
   0   3   1 427.230 14.4810   3
  -1  -3  -1 624.639 23.4148   1
   1  -3   1 654.511 22.2455   1
   1  -3   1 666.929 22.5314   1
   1   3   1 622.669 23.1021   1
   1   3   1 663.093 21.9868   3
   2  -3   1 3097.94 94.0296   1
  -2  -3  -1 3236.97 96.5677   1
   2  -3   1 3181.27 91.5573   3
   2  -3   1 3154.04 94.2544   1
   2   3   1 3191.89 96.4812   1
  -2   3  -1 3198.99 92.3236   1
   2   3   1 3114.29 94.8107   3
  -3  -3  -1 1019.80 34.1117   1
   3  -3   1 944.148 30.9527   1
   3  -3   1 973.325 30.9164   1
   3   3   1 964.883 34.1117   1
   3   3   1 1016.07 32.5570   3
  -4  -3  -1 160.991 9.21583   1
   4  -3   1 160.738 6.87248   1
   4  -3   1 158.916 6.94114   1
   4   3   1 174.199 10.1690   1
   4   3   1 173.689 8.70059   3
   5  -3   1 125.277 5.62313   1
   5  -3   1 119.088 5.58605   1
  -5  -3  -1 109.494 7.44692   1
   5   3   1 138.521 9.22136   1
   5   3   1 120.166 7.38035   3
   6  -3   1 281.031 10.4744   1
   6  -3   1 276.117 10.4382   1
   6   3   1 287.485 13.1058   3
   6   3   1 269.267 14.9112   1
   7  -3   1 469.010 16.6204   1
   7   3   1 487.902 22.7255   1
   7   3   1 508.931 20.2584   3
   8  -3   1 66.6350 4.50227   1
   8   3   1 69.2588 8.86938   1
   8   3   1 63.4210 7.35441   3
   9  -3   1 67.7268 4.89780   1
   9   3   1 68.7884 9.63572   1
   9   4  -1 22.6495 5.96070   1
   9   4  -1 19.3386 5.06447   3
   8   4  -1 37.0966 5.87627   3
   8   4  -1 43.6941 7.50698   1
   7   4  -1 274.641 14.2502   3
   7   4  -1 290.423 16.7562   1
   6  -4  -1 135.719 5.95802   1
   6  -4  -1 139.552 6.06561   1
   6   4  -1 145.175 9.12085   3
   6   4  -1 133.823 10.3710   1
  -5  -4   1 64.7468 7.19155   1
   5  -4  -1 65.3255 4.00203   1
   5  -4  -1 69.2848 4.17389   1
   5   4  -1 64.6442 6.82755   3
   5   4  -1 64.9484 7.96814   1
   4  -4  -1 194.056 8.57582   1
   4  -4  -1 186.648 8.41535   1
  -4  -4   1 196.750 11.3340   1
   4   4  -1 196.434 10.1595   3
   4   4  -1 207.788 11.9969   1
  -3  -4   1 501.411 20.2877   1
   3  -4  -1 462.029 17.2524   1
   3  -4  -1 478.640 17.5302   1
   3   4  -1 450.291 18.2549   3
   3   4  -1 490.544 20.4421   1
   2  -4  -1 191.780 9.35323   1
  -2  -4   1 197.732 10.9502   1
   2  -4  -1 210.657 9.86113   1
  -2   4   1 192.371 8.46181   1
   2   4  -1 188.390 9.47550   3
   2   4  -1 212.588 11.1586   1
   1  -4  -1 2078.56 63.2117   1
   1  -4  -1 1876.82 62.4650   1
  -1  -4   1 2041.54 64.2550   1
   1   4  -1 1993.77 61.8331   3
   1   4  -1 2053.39 63.7763   1
  -1   4   1 2017.32 62.2249   1
   0  -4   1 243.541 11.8984   1
   0  -4  -1 245.497 11.9296   1
   0   4   1 251.594 10.2614   3
   0   4  -1 239.144 10.0139   3
   0   4   1 244.728 11.5199   1
   0   4  -1 244.809 11.4766   1
   1  -4   1 718.090 25.0360   1
   1  -4   1 621.173 24.0816   1
  -1  -4  -1 710.766 26.0484   1
  -1   4  -1 660.289 23.6810   1
   1   4   1 671.105 23.6840   3
  -1   4  -1 695.338 20.9397   3
   1   4   1 697.672 25.5243   1
  -2  -4  -1 944.158 34.3933   1
   2  -4   1 942.958 32.0275   1
   2  -4   1 964.439 32.3454   1
  -2   4  -1 978.306 30.4340   1
   2   4   1 981.735 32.5964   3
   2   4   1 937.633 34.0821   1
   3  -4   1 356.782 11.2482   3
   3  -4   1 368.692 14.3385   1
  -3  -4  -1 343.230 16.4657   1
   3  -4   1 357.347 14.3413   1
   3   4   1 380.685 17.2290   1
   3   4   1 385.743 15.4905   3
   4  -4   1 269.807 11.0077   1
   4  -4   1 242.156 10.5989   1
  -4  -4  -1 254.847 13.4567   1
   4   4   1 250.702 12.2297   3
   4   4   1 278.666 14.4827   1
   5  -4   1 55.1749 4.12795   1
  -5  -4  -1 61.3273 7.19610   1
   5  -4   1 55.0168 4.14244   1
   5   4   1 62.5454 7.78333   1
   5   4   1 61.9365 6.76506   3
   6  -4   1 80.4104 5.01296   1
   6  -4   1 81.7164 5.06085   1
   6   4   1 89.7437 9.79216   1
   6   4   1 97.9894 8.96981   3
   7  -4   1 115.074 6.10810   1
   7   4   1 110.279 11.5491   1
   7   4   1 104.783 9.74929   3
   8  -4   1 35.7007 3.66439   1
   8   4   1 31.2192 5.76715   3
   8   4   1 31.9758 6.63530   1
   9   4   1 49.0853 8.52727   1
   8  -5  -1 27.7843 3.02511   1
   8   5  -1 20.6379 6.10813   1
   8   5  -1 28.8602 5.78509   3
   7  -5  -1 8.26672 1.90860   1
   7   5  -1 4.75296 3.23607   1
   7   5  -1 7.20903 3.32493   3
   6  -5  -1 18.8259 3.02600   1
   6   5  -1 17.3111 4.77002   1
   6   5  -1 18.5521 4.37581   3
   5  -5  -1 95.2568 6.02685   1
   5  -5  -1 85.4230 5.70401   1
  -5  -5   1 80.0405 9.03660   1
   5   5  -1 92.7581 10.2066   1
   5   5  -1 79.0437 8.06317   3
  -4  -5   1 4.17243 2.41092   1
   4  -5  -1 11.9092 2.68588   1
   4  -5  -1 12.3962 2.73925   1
   4   5  -1 6.65966 3.07582   1
   4   5  -1 10.8672 3.17161   3
   3  -5  -1 171.982 9.28523   1
   3  -5  -1 184.907 9.74365   1
  -3  -5   1 183.874 11.4526   1
   3   5  -1 156.903 9.59126   3
   3   5  -1 184.326 11.5367   1
   2  -5  -1 197.399 10.6083   1
   2  -5  -1 233.575 11.5743   1
  -2  -5   1 194.721 12.0976   1
   2   5  -1 220.203 10.8679   3
   2   5  -1 217.574 12.3317   1
  -1  -5   1 328.787 15.6700   1
   1  -5  -1 274.236 14.0218   1
   1   5  -1 310.187 13.2761   3
   1   5  -1 310.697 14.8308   1
  -1   5   1 306.365 13.7087   1
   0  -5   1 489.524 20.7963   1
   0  -5  -1 484.048 20.7023   1
   0   5   1 486.695 18.1313   3
   0   5  -1 484.323 17.7648   3
   0   5   1 493.008 20.0497   1
   0   5  -1 500.799 20.0942   1
  -1  -5  -1 983.339 35.5076   1
   1  -5   1 912.995 33.9447   1
   1   5   1 969.503 34.6964   1
  -1   5  -1 938.455 29.3955   3
  -1   5  -1 997.750 33.0416   1
   1   5   1 953.118 32.5529   3
  -2  -5  -1 771.514 30.7518   1
   2  -5   1 825.284 29.3058   1
   2  -5   1 768.669 28.5085   1
  -2   5  -1 763.195 26.7400   1
   2   5   1 849.599 31.0016   1
   2   5   1 808.910 28.5585   3
  -3  -5  -1 474.043 21.5605   1
   3  -5   1 483.255 19.1958   1
   3  -5   1 459.339 19.1440   1
   3   5   1 497.743 20.1622   3
   3   5   1 528.726 22.4379   1
   4  -5   1 477.848 18.9861   1
   4  -5   1 472.204 18.7218   1
  -4  -5  -1 528.255 22.6381   1
   4   5   1 464.945 20.2129   3
   4   5   1 505.950 22.8333   1
  -5  -5  -1 163.173 11.2252   1
   5  -5   1 151.670 8.45730   1
   5  -5   1 167.814 8.80576   1
   5   5   1 153.354 10.0711   3
   5   5   1 150.756 11.6531   1
   6  -5   1 21.9497 3.64664   1
   6   5   1 16.2416 4.28722   3
   6   5   1 18.2594 5.21940   1
   7  -5   1 96.7064 6.20578   1
   7   5   1 87.7772 9.80569   3
   7   5   1 72.0288 9.98448   1
   8  -5   1 43.1747 4.57381   1
   8   5   1 63.3374 9.82382   1
   8   5   1 54.1390 8.08859   3
   8  -6  -1 26.9333 3.69745   1
   8   6  -1 21.5706 5.84114   3
   8   6  -1 25.6578 6.78833   1
   7  -6  -1 9.38173 2.71203   1
   7   6  -1 5.51390 3.31261   3
   7   6  -1 3.39446 3.31661   1
   6  -6  -1 93.7812 6.95134   1
   6   6  -1 102.649 12.2428   1
   6   6  -1 84.5636 9.72104   3
  -5  -6   1 271.375 15.7549   1
   5  -6  -1 229.339 12.1676   1
   5   6  -1 250.261 13.9966   3
   5   6  -1 239.193 15.7639   1
   4  -6  -1 24.3809 4.35269   1
  -4  -6   1 20.7516 4.90307   1
   4  -6  -1 14.7148 4.88669   1
   4   6  -1 23.4027 5.54476   1
   4   6  -1 27.9577 5.11376   3
  -3  -6   1 66.4163 8.47618   1
   3  -6  -1 107.830 7.96079   1
   3  -6  -1 100.711 8.87549   1
   3   6  -1 86.5031 9.74693   1
   3   6  -1 104.265 9.03265   3
   2  -6  -1 107.826 8.16997   1
  -2  -6   1 96.3207 10.2063   1
   2   6  -1 69.6699 8.32481   1
   2   6  -1 85.9315 7.73424   3
  -1  -6   1 307.464 16.1754   1
   1  -6  -1 286.096 15.1176   1
   1   6  -1 280.483 15.1957   1
  -1   6   1 287.427 14.1070   1
   1   6  -1 303.517 13.6242   3
   0  -6   1 189.291 11.8299   1
   0  -6  -1 187.849 11.9068   1
   0   6  -1 208.843 11.5655   1
   0   6   1 170.397 9.15652   3
   0   6   1 166.245 10.7922   1
   0   6  -1 190.401 9.18262   3
  -1  -6  -1 518.361 23.2485   1
   1  -6   1 509.157 22.2829   1
  -1   6  -1 491.048 20.6040   1
  -1   6  -1 531.898 17.0247   3
   1   6   1 462.417 21.7645   1
   1   6   1 526.034 20.4377   3
  -2  -6  -1 1.18220 2.25104   1
   2  -6   1 -0.2403 1.61252   1
   2   6   1 3.01704 2.03949   3
   2   6   1 1.00913 1.84808   1
  -2   6  -1 0.41207 1.02293   1
  -3  -6  -1 16.8924 4.25857   1
   3  -6   1 18.6760 4.00044   1
   3  -6   1 17.3862 3.88358   1
   3   6   1 23.1353 5.44084   1
   3   6   1 12.2527 3.23481   3
   4  -6   1 103.765 7.87700   1
  -4  -6  -1 106.464 11.5995   1
   4   6   1 88.9635 10.5355   1
   4   6   1 102.887 9.75826   3
  -5  -6  -1 302.958 18.7261   1
   5  -6   1 323.606 15.1185   1
   5   6   1 307.012 16.3548   3
   5   6   1 335.819 19.1335   1
   6  -6   1 22.3195 4.20823   1
   6   6   1 6.43191 3.65845   1
   6   6   1 27.9690 5.58489   3
   7  -6   1 62.7368 6.57970   1
   7   6   1 59.9777 8.40578   3
   7   6   1 51.0847 9.10286   1
   8  -6   1 78.4368 7.06445   1
   8   6   1 73.1797 10.0173   3
   8   6   1 74.1613 11.4370   1
   7  -7  -1 25.7006 4.66886   1
   7   7  -1 37.7121 8.02308   1
   7   7  -1 28.7995 6.22599   3
   6  -7  -1 32.5145 5.35977   1
   6   7  -1 23.0055 6.21724   1
   6   7  -1 24.4057 5.34663   3
   5  -7  -1 109.913 9.85090   1
  -5  -7   1 97.3472 11.5351   1
   5   7  -1 97.2634 10.2840   3
   5   7  -1 121.447 13.5776   1
  -4  -7   1 198.775 14.4018   1
   4  -7  -1 213.195 12.6962   1
   4   7  -1 214.533 12.9056   3
   4   7  -1 215.442 15.1340   1
   3  -7  -1 10.7491 3.56375   1
  -3  -7   1 14.2489 4.44490   1
   3   7  -1 5.78865 2.75853   3
   3   7  -1 11.4497 4.18681   1
   2  -7  -1 540.143 24.3368   1
  -2  -7   1 534.018 25.7089   1
   2   7  -1 591.886 23.3524   3
   2   7  -1 581.310 25.8285   1
  -2   7   1 545.388 22.2572   1
   1  -7  -1 23.6800 5.30137   1
  -1  -7   1 28.2181 6.32798   1
  -1   7   1 26.6683 5.03950   1
   1   7  -1 19.5486 4.70659   1
   1   7  -1 17.1969 3.50761   3
   0  -7   1 229.735 14.3374   1
   0  -7  -1 202.978 13.6952   1
   0   7   1 214.103 13.0029   1
   0   7  -1 204.784 12.8182   1
   0   7  -1 230.709 10.8477   3
   0   7   1 221.930 10.8172   3
   1  -7   1 274.944 15.5575   1
  -1  -7  -1 262.878 16.0164   1
   1   7   1 250.488 12.9281   3
  -1   7  -1 237.426 13.3808   1
   1   7   1 268.418 15.3202   1
  -2  -7  -1 187.727 13.5641   1
   2  -7   1 182.829 12.3556   1
   2   7   1 188.981 13.1289   1
   2   7   1 203.996 11.6468   3
  -3  -7  -1 53.1519 8.30513   1
   3  -7   1 51.0909 7.17366   1
   3   7   1 41.9250 7.05900   1
   3   7   1 41.8033 6.20965   3
   4  -7   1 53.9877 7.05199   1
  -4  -7  -1 68.6965 9.46704   1
   4   7   1 66.1817 9.46439   1
   4   7   1 66.3325 8.55891   3
   5  -7   1 16.3926 4.20748   1
   5   7   1 14.5794 4.38626   3
   5   7   1 24.7404 6.63825   1
   6  -7   1 22.9626 4.70795   1
   6   7   1 14.1407 4.84123   3
   6   7   1 11.1612 4.80019   1
   7  -7   1 20.7275 4.52116   1
   7   7   1 13.4824 5.29391   1
   7   7   1 19.8723 5.56809   3
   7  -8  -1 5.15721 3.69297   1
   7   8  -1 6.21469 4.09110   3
   7   8  -1 3.35681 4.29980   1
   6  -8  -1 12.9971 4.01633   1
   6   8  -1 23.5753 6.94199   1
   6   8  -1 13.0657 4.57964   3
   5  -8  -1 4.41559 2.97736   1
   5   8  -1 1.98908 2.73345   3
   5   8  -1 3.34603 3.67039   1
   4  -8  -1 56.2669 8.25533   1
  -4  -8   1 49.4977 9.12529   1
   4   8  -1 46.1664 7.37598   3
   4   8  -1 44.6544 8.41675   1
   3  -8  -1 36.2160 6.44713   1
  -3  -8   1 31.6344 6.97836   1
   3   8  -1 29.7589 6.41347   1
   3   8  -1 34.8381 6.06806   3
   2  -8  -1 687.774 30.0948   1
  -2  -8   1 698.823 31.8110   1
   2   8  -1 719.337 27.8921   3
   2   8  -1 670.741 30.7311   1
   1  -8  -1 161.550 12.4957   1
  -1  -8   1 155.048 14.9222   1
   1   8  -1 160.449 12.2841   1
  -1   8   1 161.468 11.2964   1
   1   8  -1 166.422 10.1174   3
   0  -8   1 43.2425 7.62902   1
   0  -8  -1 42.2298 7.39190   1
   0   8   1 48.6108 7.71793   1
   0   8  -1 37.2926 4.91755   3
   0   8  -1 62.4141 8.43975   1
   0   8   1 57.3729 6.22430   3
   1  -8   1 926.251 38.7149   1
  -1  -8  -1 994.030 40.2315   1
   1   8   1 1004.53 38.9391   1
  -1   8  -1 930.498 36.1842   1
   1   8   1 968.543 35.0215   3
  -2  -8  -1 114.770 12.7703   1
   2  -8   1 102.693 11.4463   1
   2   8   1 88.2716 9.30378   3
   2   8   1 91.9896 11.0003   1
  -3  -8  -1 113.993 13.0311   1
   3  -8   1 106.342 11.1691   1
   3   8   1 107.446 12.6759   1
   3   8   1 107.201 10.5953   3
   4  -8   1 4.55942 2.93499   1
  -4  -8  -1 4.48297 3.71070   1
   4   8   1 11.9179 4.29759   3
   4   8   1 1.62770 2.95689   1
   5  -8   1 69.6804 8.89337   1
   5   8   1 91.9228 12.4519   1
   5   8   1 82.0425 10.0592   3
   6  -8   1 43.2261 7.07647   1
   6   8   1 23.8897 5.81566   3
   6   8   1 37.7964 8.49114   1
   7   8   1 6.95815 5.31987   1
   7   8   1 16.0770 5.30970   3
   6  -9  -1 38.1498 7.27474   1
   6   9  -1 32.8673 7.05501   3
   6   9  -1 26.7351 7.76856   1
   5  -9  -1 45.1685 7.59979   1
   5   9  -1 53.3637 9.84692   1
   5   9  -1 56.2079 8.86562   3
  -4  -9   1 106.142 14.2654   1
   4  -9  -1 79.5050 10.2504   1
   4   9  -1 82.4317 11.6883   1
   4   9  -1 110.538 12.2879   3
  -3  -9   1 325.093 20.9149   1
   3  -9  -1 313.137 18.9233   1
   3   9  -1 320.408 20.4311   1
   3   9  -1 340.007 17.7839   3
  -2  -9   1 3.93942 3.93507   1
   2  -9  -1 1.07087 3.07918   1
   2   9  -1 3.68043 3.59964   1
   2   9  -1 1.95262 2.50258   3
  -1  -9   1 239.763 16.9402   1
   1  -9  -1 236.132 16.3567   1
   1   9  -1 214.442 12.5060   3
   1   9  -1 220.932 15.4516   1
   0  -9   1 41.7729 8.30862   1
   0  -9  -1 34.7326 7.54037   1
   0   9   1 42.3686 7.66646   1
   0   9  -1 51.3680 7.89707   1
   0   9  -1 48.8986 5.75997   3
   1  -9   1 90.5650 11.7864   1
  -1  -9  -1 136.136 15.5971   1
   1   9   1 121.965 13.0089   1
   1   9   1 117.930 10.9208   3
  -2  -9  -1 163.044 16.6778   1
   2  -9   1 189.956 14.1706   1
   2   9   1 162.504 11.5079   3
   2   9   1 145.629 14.7418   1
  -3  -9  -1 162.858 16.9892   1
   3  -9   1 126.419 13.4486   1
   3   9   1 134.379 12.9282   3
   3   9   1 157.684 16.6023   1
   4  -9   1 34.0836 7.04039   1
  -4  -9  -1 49.8862 9.48133   1
   4   9   1 47.9038 9.54323   1
   4   9   1 40.7782 7.30494   3
   5  -9   1 42.4026 7.98352   1
   5   9   1 30.2148 8.30180   1
   5   9   1 33.0473 6.68927   3
   6  -9   1 10.1698 4.41565   1
   6   9   1 10.3694 4.64630   3
   6   9   1 12.5481 6.39573   1
   5 -10  -1 28.5004 7.10868   1
   5  10  -1 27.0224 8.65269   1
   5  10  -1 36.1338 7.66204   3
  -4 -10   1 21.8403 7.16180   1
   4 -10  -1 20.7106 6.26004   1
   4  10  -1 11.3959 4.85269   3
   4  10  -1 19.7630 7.32036   1
   3 -10  -1 21.1985 6.28747   1
  -3 -10   1 30.6816 8.90857   1
   3  10  -1 31.5221 6.49830   3
   3  10  -1 32.0546 8.32692   1
  -2 -10   1 378.055 23.5076   1
   2 -10  -1 341.373 21.4693   1
   2  10  -1 353.945 18.3981   3
   2  10  -1 335.874 21.4289   1
  -1 -10   1 244.161 18.6738   1
   1 -10  -1 256.652 18.6490   1
   1  10  -1 276.122 14.4629   3
   1  10  -1 270.911 18.1382   1
   0 -10  -1 94.7661 13.0240   1
   0 -10   1 99.8420 13.1583   1
   0  10  -1 97.5171 6.90020   3
   1 -10   1 35.2709 8.11423   1
  -1 -10  -1 44.5077 8.94141   1
   1  10   1 40.2012 8.45871   1
   1  10   1 42.7067 6.40347   3
  -2 -10  -1 24.9370 7.58416   1
   2 -10   1 19.7938 6.64433   1
   2  10   1 19.0741 5.03378   3
   2  10   1 23.5440 6.34490   1
  -3 -10  -1 10.6738 5.17289   1
   3 -10   1 3.16148 3.90138   1
   3  10   1 17.4466 5.31148   3
   3  10   1 7.95285 5.81655   1
  -4 -10  -1 20.8676 7.17153   1
   4 -10   1 30.5384 7.34230   1
   4  10   1 13.1509 4.95459   3
   4  10   1 21.0082 7.18919   1
   5  10   1 -1.8127 2.95266   3
  -3 -11   1 57.1870 11.4319   1
   3 -11  -1 64.5587 11.0247   1
   3  11  -1 69.6356 10.0083   3
   3  11  -1 53.9032 10.3862   1
   2 -11  -1 14.6146 5.60378   1
  -2 -11   1 13.0942 5.98284   1
   2  11  -1 13.6955 4.71076   3
  -1 -11   1 48.7014 10.4121   1
   1 -11  -1 46.3811 10.0153   1
   1  11  -1 48.1317 7.07303   3
   0 -11  -1 3.04881 4.28062   1
   0 -11   1 13.0194 6.39121   1
  -1 -11  -1 81.6237 13.2969   1
   1 -11   1 65.8078 11.5358   1
  -2 -11  -1 9.87071 6.03981   1
   2 -11   1 17.5746 5.78817   1
   2  11   1 17.6277 5.06964   3
   3 -11   1 16.8222 6.61452   1
  -3 -11  -1 6.80307 5.93382   1
   3  11   1 12.6861 5.84557   1
   3  11   1 0.84938 2.89741   3
   9   0  -2 4.96867 2.86503   1
   8   0  -2 105.220 7.52959   1
   7   0  -2 55.5173 5.74713   1
   6   0  -2 52.7176 5.12715   1
   6   0  -2 57.6912 5.38734   1
   5   0  -2 784.813 25.9982   1
   5   0  -2 753.684 25.7973   1
   4   0  -2 49.0393 3.69249   1
   4   0  -2 46.1495 3.61991   1
   3   0  -2 694.284 23.1144   1
  -3   0   2 700.322 21.6575   1
   3   0  -2 716.347 23.2896   1
   2   0  -2 174.026 7.40596   1
   2   0  -2 154.317 7.09621   1
  -1   0   2 5566.78 155.626   1
   1   0  -2 5093.80 155.519   1
   0   0  -2 1541.13 52.7289   1
   0   0  -2 1844.18 52.9476   1
   0   0   2 1838.19 52.9896   1
   1   0   2 5.07880 1.80877   1
   1   0   2 6.92068 1.56818   3
   1   0   2 6.72337 2.10301   1
  -1   0  -2 4.46154 1.71425   1
  -1   0  -2 7.50963 1.44822   3
   2   0   2 927.045 30.0620   1
   2   0   2 925.980 28.2730   3
   2   0   2 915.866 29.9788   1
   2   0   2 939.578 30.0158   1
  -3   0  -2 208.376 7.94444   1
   3   0   2 201.705 9.14789   1
   3   0   2 220.754 9.51433   1
   3   0   2 206.742 7.37555   3
   4   0   2 54.2274 4.95531   1
   4   0   2 42.0241 4.47831   1
   4   0   2 44.9737 2.41403   3
   5   0   2 46.7599 4.94693   1
   5   0   2 45.3901 2.57801   3
   5   0   2 46.2006 5.16336   1
   6   0   2 292.902 17.7673   1
   6   0   2 301.954 13.5789   1
   6   0   2 287.263 10.3800   3
   7   0   2 -0.6281 1.47898   1
   8   0   2 4.43944 2.69044   1
   9   0   2 289.730 15.4257   1
   9  -1  -2 119.181 7.67507   1
   9   1  -2 120.134 10.6856   1
   8  -1  -2 104.266 6.65626   1
   8   1  -2 97.8736 9.27005   1
   7  -1  -2 19.2225 3.10558   1
   7  -1  -2 16.4966 2.85071   1
   7   1  -2 16.9377 3.55722   1
   6  -1  -2 489.191 16.9529   1
   6  -1  -2 482.134 17.0233   1
   6   1  -2 457.348 18.9152   1
   6   1  -2 484.244 19.3191   1
   5  -1  -2 768.366 24.9509   1
   5  -1  -2 758.041 24.8253   1
   5   1  -2 800.930 27.3819   1
   5   1  -2 772.061 27.1481   1
   4  -1  -2 348.759 12.4503   1
  -4  -1   2 348.703 12.3336   1
   4  -1  -2 349.703 12.3508   1
   4   1  -2 353.226 14.2039   1
   4   1  -2 349.797 14.2250   1
   3  -1  -2 1572.09 46.2955   1
   3  -1  -2 1500.17 46.2004   1
   3   1  -2 1535.16 48.0136   1
   3   1  -2 1504.62 47.8151   1
   2  -1  -2 232.113 8.96662   1
   2  -1  -2 211.143 8.76926   1
  -2  -1   2 225.110 9.57022   1
  -2   1   2 223.799 8.31695   1
   2   1  -2 233.989 9.80764   1
   2   1  -2 236.028 9.87831   1
   1  -1  -2 7784.36 221.784   1
   1  -1  -2 7704.69 221.644   1
  -1  -1   2 7413.96 222.078   1
   1   1  -2 7656.64 222.178   1
   1   1  -2 7512.39 222.139   1
  -1   1   2 7745.14 221.687   1
   0  -1  -2 3292.06 96.8396   1
   0  -1  -2 3281.79 96.8890   1
   0  -1   2 3353.59 96.8955   1
   0  -1   2 3185.74 96.7411   1
   0   1  -2 3321.19 96.7672   1
   0   1   2 3153.80 96.8307   1
  -1  -1  -2 3007.85 89.1221   3
   1  -1   2 2930.96 87.3175   1
   1  -1   2 3066.47 87.6024   1
  -1  -1  -2 2948.83 87.8121   1
  -1   1  -2 2989.42 85.1894   3
   1   1   2 3006.77 87.9690   1
   1   1   2 2986.45 86.6855   3
  -1   1  -2 2782.53 86.9197   1
   1   1   2 2776.55 87.7779   1
  -1   1  -2 2878.89 85.1409   3
   2  -1   2 476.877 16.7253   1
  -2  -1  -2 460.781 17.2423   1
  -2  -1  -2 459.751 17.1904   1
   2  -1   2 484.215 14.8431   3
  -2  -1  -2 472.051 15.0220   3
   2  -1   2 491.787 16.8267   1
   2  -1   2 478.443 14.8264   3
   2   1   2 464.742 17.5814   1
  -2   1  -2 483.660 15.7954   1
   2   1   2 492.450 16.2016   3
   2   1   2 477.844 17.6230   1
   3  -1   2 493.333 16.6447   1
   3  -1   2 436.312 16.3244   1
   3   1   2 444.505 15.7466   3
   3   1   2 488.123 17.8487   1
   3   1   2 459.000 17.6568   1
   4  -1   2 70.7085 4.66507   1
  -4  -1  -2 74.0978 4.43032   1
   4  -1   2 68.6097 4.68127   1
   4   1   2 72.8767 6.56680   1
   4   1   2 68.9809 6.34662   1
   4   1   2 74.3048 4.28264   3
   5  -1   2 11.3438 2.42411   1
   5  -1   2 10.4906 2.38898   1
   5  -1   2 13.2157 2.62684   1
   5   1   2 15.6132 2.53123   3
   5   1   2 7.35726 2.45956   1
   5   1   2 16.8301 3.48166   1
   6  -1   2 362.571 15.2499   1
   6  -1   2 388.141 15.4218   1
   6   1   2 368.548 14.2948   3
   6   1   2 397.126 17.2145   1
   7  -1   2 32.3223 4.46468   1
   7   1   2 35.9609 5.73417   1
   8  -1   2 70.2269 7.23702   1
   8   1   2 56.8955 7.66554   1
   9  -1   2 35.9604 5.54600   1
   9   1   2 39.7514 6.66684   1
   9  -2  -2 38.1721 4.03265   1
   9   2  -2 31.3980 6.07477   1
   8  -2  -2 3.37763 1.67591   1
   8   2  -2 1.73880 2.61414   1
   7  -2  -2 768.962 24.9689   1
   7  -2  -2 757.775 25.0141   1
   7   2  -2 796.265 30.3459   1
   6  -2  -2 29.0319 2.77514   1
   6  -2  -2 29.3313 2.78085   1
   6   2  -2 21.9926 4.37473   1
   6   2  -2 20.9004 4.47769   1
   5  -2  -2 140.660 5.98865   1
  -5  -2   2 140.566 7.07133   1
   5  -2  -2 139.494 5.96335   1
   5   2  -2 123.972 8.48608   1
   5   2  -2 150.097 8.99136   1
   4  -2  -2 589.215 18.9219   1
   4  -2  -2 587.236 19.0013   1
   4   2  -2 587.866 22.2616   1
   4   2  -2 552.626 21.9821   1
   3  -2  -2 377.782 13.2727   1
   3  -2  -2 372.045 13.2739   1
  -3  -2   2 381.284 15.0411   1
   3   2  -2 374.936 15.5885   1
   3   2  -2 356.036 15.2446   1
  -2  -2   2 183.236 8.95992   1
   2  -2  -2 182.980 7.94509   1
   2  -2  -2 176.433 7.75930   1
   2   2  -2 177.378 9.02298   1
  -2   2   2 176.141 7.24139   1
   1  -2  -2 2532.94 77.1515   1
   1  -2  -2 2583.85 77.3103   1
  -1  -2   2 2650.48 78.1612   1
  -1   2   2 2549.09 76.9741   1
   1   2  -2 2512.40 77.8845   1
   0  -2   2 1258.63 41.9869   1
   0  -2  -2 1337.83 42.4517   1
   0  -2   2 1404.31 42.4838   1
   0   2  -2 1369.95 40.6334   3
   0   2   2 1326.65 42.1549   1
   0   2  -2 1286.09 41.9693   1
   1  -2   2 2305.64 70.0816   1
   1  -2   2 2230.57 70.0049   1
  -1  -2  -2 2347.50 71.0785   1
   1   2   2 2355.57 70.9781   1
  -1   2  -2 2283.01 69.5742   1
   1   2   2 2306.99 69.5360   3
  -1   2  -2 2360.64 67.2739   3
   2  -2   2 166.695 7.89615   1
   2  -2   2 166.779 7.97845   1
  -2  -2  -2 163.590 8.85532   1
   2  -2   2 158.248 6.10639   3
   2   2   2 186.474 9.29645   1
   2   2   2 183.577 8.05268   3
  -2   2  -2 184.500 7.08559   1
   3  -2   2 467.309 16.9915   1
  -3  -2  -2 464.950 18.2024   1
   3  -2   2 450.771 16.6982   1
   3   2   2 478.717 20.0847   1
   3   2   2 488.441 18.9629   1
   3   2   2 500.310 17.3706   3
   4  -2   2 68.5554 4.57021   1
   4  -2   2 63.5413 4.38599   1
   4   2   2 65.9011 6.73439   1
   4   2   2 68.3866 4.75262   3
   4   2   2 61.2557 6.56513   1
   5  -2   2 209.556 9.54516   1
   5  -2   2 216.296 9.58958   1
  -5  -2  -2 208.712 9.69966   1
   5   2   2 216.077 10.0058   3
   5   2   2 211.325 12.0754   1
   5   2   2 228.036 12.1491   1
   6  -2   2 77.7955 5.53642   1
   6  -2   2 90.7725 5.83804   1
   6   2   2 89.6773 6.23301   3
   6   2   2 85.4896 8.72531   1
   7  -2   2 53.4163 5.48432   1
   7   2   2 54.2247 7.41571   1
   7   2   2 63.4994 6.48289   3
   8  -2   2 40.2014 5.06827   1
   8   2   2 22.7294 5.46926   1
   9  -2   2 164.861 9.67910   1
   9   2   2 166.577 12.7651   1
   9  -3  -2 3.33504 1.46003   1
   9   3  -2 5.27954 3.16239   1
   8  -3  -2 28.3766 3.00061   1
   8   3  -2 30.4352 5.00479   3
   8   3  -2 27.4083 5.76044   1
   7  -3  -2 137.080 5.97975   1
   7  -3  -2 127.263 5.83970   1
   7   3  -2 115.921 11.2851   1
   7   3  -2 119.545 8.14887   3
   6  -3  -2 47.6610 3.30716   1
   6  -3  -2 50.7911 3.34906   1
   6   3  -2 48.5951 6.86970   1
   5  -3  -2 277.377 10.4747   1
   5  -3  -2 275.027 10.3686   1
   5   3  -2 269.389 14.2612   1
  -4  -3   2 7.13872 2.41059   1
   4  -3  -2 10.5889 1.89699   1
   4  -3  -2 10.7775 1.97446   1
   4   3  -2 8.12429 2.68963   1
  -3  -3   2 842.064 29.7987   1
   3  -3  -2 780.166 27.1070   1
   3  -3  -2 867.183 27.5802   1
   3   3  -2 821.313 28.0831   3
   3   3  -2 849.147 30.2351   1
   2  -3  -2 184.163 8.76674   1
   2  -3  -2 183.728 8.94996   1
  -2  -3   2 188.998 10.0491   1
   2   3  -2 188.600 10.0984   1
  -2   3   2 187.447 8.25186   1
   2   3  -2 198.912 9.02115   3
   1  -3  -2 629.911 23.0039   1
  -1  -3   2 624.999 23.7830   1
   1  -3  -2 648.736 22.9331   1
   1   3  -2 658.440 23.7089   1
   1   3  -2 651.323 22.0925   3
  -1   3   2 658.366 22.7012   1
   0  -3  -2 109.254 6.93589   1
   0  -3   2 112.794 6.93584   1
   0   3  -2 96.1066 5.24201   3
   0   3  -2 102.415 6.34930   1
   0   3   2 99.1097 6.41307   1
   1  -3   2 92.5953 6.09464   1
  -1  -3  -2 91.5897 6.57957   1
   1  -3   2 90.8482 5.96692   1
   1   3   2 95.3159 5.71993   3
  -1   3  -2 92.9405 5.67630   1
   1   3   2 95.6161 6.55478   1
  -1   3  -2 95.9456 3.92445   3
   2  -3   2 26.1370 3.51490   1
  -2  -3  -2 32.0154 4.68439   1
   2  -3   2 31.1302 3.78925   1
   2   3   2 19.2807 3.67921   1
  -2   3  -2 32.1734 3.09361   1
   2   3   2 18.3408 2.93643   3
   3  -3   2 822.244 27.3251   1
   3  -3   2 794.632 27.1030   1
  -3  -3  -2 830.121 29.5728   1
   3   3   2 800.047 27.9111   3
   3   3   2 784.932 29.6474   1
   4  -3   2 197.990 8.94902   1
   4  -3   2 178.890 8.74554   1
  -4  -3  -2 190.473 10.5139   1
   4   3   2 166.521 9.27998   3
   4   3   2 193.586 11.2321   1
   5  -3   2 378.931 14.6705   1
   5  -3   2 362.225 14.5494   1
   5   3   2 350.635 15.6018   3
   5   3   2 409.313 18.4687   1
   6  -3   2 179.297 8.70459   1
   6  -3   2 154.967 10.3623   1
   6   3   2 152.696 9.35726   3
   6   3   2 153.174 11.1140   1
   7  -3   2 165.922 8.97696   1
   7   3   2 170.736 12.3959   1
   7   3   2 188.562 10.7087   3
   8  -3   2 44.3623 5.13503   1
   8   3   2 42.4677 6.27721   3
   8   3   2 56.8358 8.49141   1
   9  -3   2 7.48803 2.67564   1
   9   3   2 12.6621 4.97290   1
   9   4  -2 54.7659 9.23324   1
   9   4  -2 42.1120 6.76141   3
   8  -4  -2 69.3170 4.20641   1
   8   4  -2 75.5663 8.49602   3
   8   4  -2 74.9927 9.67347   1
   7  -4  -2 87.0926 5.11303   1
   7   4  -2 101.007 11.0266   1
   7   4  -2 89.5894 9.09613   3
   6  -4  -2 43.0474 3.94086   1
   6  -4  -2 47.1252 4.18762   1
   6   4  -2 32.7578 6.17297   1
   6   4  -2 54.0994 6.60926   3
   5  -4  -2 327.324 12.5970   1
   5  -4  -2 300.157 12.2479   1
  -5  -4   2 308.424 15.3574   1
   5   4  -2 316.209 16.5990   1
   5   4  -2 312.291 14.3979   3
   4  -4  -2 47.1656 4.65905   1
   4  -4  -2 49.0087 4.79278   1
  -4  -4   2 48.0030 6.09114   1
   4   4  -2 43.4494 6.19392   1
   4   4  -2 41.6722 5.14205   3
   3  -4  -2 1225.55 39.9921   1
   3  -4  -2 1232.99 40.3076   1
  -3  -4   2 1258.86 42.8531   1
   3   4  -2 1198.81 40.7153   3
   3   4  -2 1259.98 43.4536   1
   2  -4  -2 1020.63 34.9918   1
   2  -4  -2 1005.54 34.6213   1
  -2  -4   2 1067.38 36.9823   1
   2   4  -2 1028.70 34.5112   3
   2   4  -2 1047.33 36.8529   1
  -1  -4   2 345.434 15.9493   1
   1  -4  -2 342.277 15.3867   1
  -1   4   2 360.683 14.8689   1
   1   4  -2 342.605 15.7082   1
   1   4  -2 370.046 14.2392   3
   0  -4   2 560.046 22.0404   1
   0  -4  -2 554.784 22.0450   1
   0   4   2 588.300 21.8187   1
   0   4  -2 563.657 19.4233   3
   0   4  -2 515.924 21.0560   1
  -1  -4  -2 750.455 28.2375   1
   1  -4   2 758.608 27.4132   1
   1   4   2 736.590 26.1264   3
  -1   4  -2 736.378 26.1910   1
   1   4   2 755.646 27.9661   1
  -1   4  -2 757.279 23.2859   3
  -2  -4  -2 374.165 17.3185   1
   2  -4   2 370.844 15.6254   1
   2  -4   2 386.696 15.9213   1
   2   4   2 373.236 17.0854   1
  -2   4  -2 360.774 14.0731   1
   2   4   2 391.364 15.7050   3
  -3  -4  -2 704.480 28.6774   1
   3  -4   2 755.137 26.6788   1
   3  -4   2 767.340 26.7228   1
   3   4   2 726.453 26.9607   3
   3   4   2 798.104 29.5978   1
   4  -4   2 104.727 6.75784   1
   4  -4   2 117.264 7.10373   1
  -4  -4  -2 111.837 8.62068   1
   4   4   2 102.941 9.86161   1
   4   4   2 127.018 8.09594   3
   5  -4   2 277.954 12.5530   1
   5  -4   2 301.437 12.8242   1
  -5  -4  -2 255.800 14.2979   1
   5   4   2 284.781 16.0392   1
   5   4   2 310.776 14.4976   3
   6  -4   2 75.0938 6.53411   1
   6   4   2 68.9541 7.77016   3
   6   4   2 68.1565 8.72266   1
   7  -4   2 38.9784 4.70557   1
   7   4   2 41.7453 7.46730   1
   7   4   2 34.7421 6.05239   3
   8  -4   2 0.10708 1.75058   1
   8   4   2 -0.9411 2.54320   1
   8   4   2 -0.9823 2.00015   3
   9   5  -2 48.4374 7.56821   3
   9   5  -2 46.0429 8.53427   1
   8  -5  -2 12.6746 2.48425   1
   8   5  -2 12.1115 5.12792   1
   8   5  -2 8.19860 3.49276   3
   7  -5  -2 171.919 8.69660   1
   7   5  -2 168.739 11.4992   3
   7   5  -2 201.515 14.3073   1
   6  -5  -2 141.050 7.82481   1
   6   5  -2 108.484 11.6563   1
   6   5  -2 144.332 9.86419   3
   5  -5  -2 515.285 19.9263   1
  -5  -5   2 543.916 23.6777   1
   5  -5  -2 547.691 20.3834   1
   5   5  -2 503.918 21.8598   3
   5   5  -2 554.163 24.9852   1
   4  -5  -2 106.534 7.25897   1
   4  -5  -2 109.224 7.10575   1
  -4  -5   2 100.303 9.88277   1
   4   5  -2 112.462 7.93922   3
   4   5  -2 118.935 11.3351   1
   3  -5  -2 215.910 11.2069   1
   3  -5  -2 215.918 11.4687   1
  -3  -5   2 235.011 13.5546   1
  -3   5   2 220.607 9.15882   1
   3   5  -2 250.247 12.0828   3
   3   5  -2 235.382 13.5439   1
   2  -5  -2 417.890 19.0382   1
  -2  -5   2 410.962 19.1731   1
   2  -5  -2 388.734 17.6266   1
   2   5  -2 423.541 17.1781   3
   2   5  -2 405.133 18.8431   1
   1  -5  -2 237.940 12.7038   1
  -1  -5   2 222.022 12.8889   1
   1   5  -2 229.242 12.6488   1
  -1   5   2 243.278 12.1070   1
   1   5  -2 240.057 11.1817   3
   0  -5   2 271.788 13.9203   1
   0  -5  -2 256.020 13.7740   1
   0   5  -2 257.906 11.1285   3
   0   5  -2 255.589 12.9033   1
   0   5   2 249.658 13.0673   1
  -1  -5  -2 297.086 15.3221   1
   1  -5   2 270.730 14.1235   1
  -1   5  -2 296.204 10.4262   3
   1   5   2 281.557 13.0082   3
  -1   5  -2 299.602 13.4061   1
   1   5   2 274.933 14.4853   1
   2  -5   2 494.167 21.2224   1
  -2  -5  -2 560.765 23.7767   1
   2  -5   2 527.504 21.7357   1
   2   5   2 561.364 21.3947   3
   2   5   2 549.979 23.2965   1
   3  -5   2 107.693 7.58222   1
  -3  -5  -2 99.0377 9.97862   1
   3  -5   2 110.516 7.80397   1
   3   5   2 107.131 7.72261   3
   3   5   2 108.915 10.3014   1
   4  -5   2 162.803 9.38593   1
  -4  -5  -2 162.149 11.3843   1
   4  -5   2 146.510 9.05610   1
   4   5   2 143.846 9.65333   3
   4   5   2 155.851 11.4782   1
   5  -5   2 36.3758 4.90070   1
   5   5   2 36.0823 5.64960   3
   5   5   2 37.0687 6.81075   1
   6  -5   2 163.607 9.48729   1
   6   5   2 157.421 11.0818   3
   6   5   2 173.583 15.7451   1
   7  -5   2 3.26870 2.24934   1
   7   5   2 2.77152 3.05977   3
   7   5   2 6.83631 3.90441   1
   8  -5   2 39.9844 5.08300   1
   8   5   2 33.4971 7.94130   1
   8   5   2 41.7984 7.32207   3
   8  -6  -2 72.9928 6.54887   1
   8   6  -2 43.3737 8.50147   1
   8   6  -2 67.8491 9.41138   3
   7  -6  -2 16.6389 3.38202   1
   7   6  -2 17.1687 5.66952   1
   7   6  -2 9.57355 3.92628   3
   6  -6  -2 42.9942 5.51491   1
   6   6  -2 35.2465 7.27652   1
   6   6  -2 36.8411 6.22322   3
  -5  -6   2 1237.22 45.9939   1
   5  -6  -2 1227.22 42.0091   1
   5   6  -2 1213.92 43.5885   3
   5   6  -2 1223.75 46.9094   1
   4  -6  -2 173.226 10.5384   1
  -4  -6   2 188.995 12.8408   1
   4   6  -2 160.525 10.5726   3
   4   6  -2 173.786 12.6480   1
   3  -6  -2 486.814 21.6023   1
   3  -6  -2 555.368 22.5596   1
  -3  -6   2 531.509 24.6069   1
  -3   6   2 519.385 19.1093   1
   3   6  -2 555.061 22.2719   3
   3   6  -2 536.545 24.3386   1
   2  -6  -2 119.430 9.01247   1
  -2  -6   2 116.057 11.5898   1
   2   6  -2 124.483 8.26864   3
  -2   6   2 113.268 7.69402   1
   2   6  -2 123.887 11.5805   1
   1  -6  -2 155.848 10.8204   1
  -1  -6   2 174.333 11.7918   1
  -1   6   2 172.551 10.3620   1
   1   6  -2 160.473 10.8456   1
   1   6  -2 168.063 9.36853   3
   0  -6  -2 177.994 11.8713   1
   0  -6   2 158.476 11.0481   1
   0   6  -2 167.726 10.5522   1
   0   6   2 161.707 10.6335   1
   0   6  -2 172.432 8.66755   3
   1  -6   2 74.0400 8.29494   1
  -1  -6  -2 65.8398 8.40089   1
  -1   6  -2 93.4830 8.36927   1
   1   6   2 84.3013 7.85397   3
  -1   6  -2 76.8857 4.19253   3
   1   6   2 64.5997 8.11225   1
   2  -6   2 28.6055 5.19768   1
  -2  -6  -2 33.5724 6.15866   1
   2   6   2 21.5515 4.97604   1
   2   6   2 16.9265 3.90490   3
  -3  -6  -2 106.937 11.2165   1
   3  -6   2 117.828 8.85631   1
   3   6   2 123.475 10.6667   3
   3   6   2 117.393 11.9214   1
  -4  -6  -2 416.241 21.8858   1
   4  -6   2 467.979 20.0311   1
   4   6   2 473.250 23.2080   1
   4   6   2 428.537 20.0376   3
   5  -6   2 289.795 14.7105   1
   5   6   2 281.828 17.8503   1
   5   6   2 304.987 16.1536   3
   6  -6   2 17.3755 4.00270   1
   6   6   2 16.0167 5.27453   1
   6   6   2 6.97809 3.58473   3
   7  -6   2 60.6053 7.04195   1
   7   6   2 65.7575 8.85783   3
   7   6   2 59.5606 9.73031   1
   8  -7  -2 31.5747 5.09451   1
   8   7  -2 26.8315 7.85123   1
   8   7  -2 27.9616 6.85599   3
   7  -7  -2 -1.2054 2.31941   1
   7   7  -2 3.96764 3.57668   1
   7   7  -2 1.54944 3.44619   3
   6  -7  -2 57.1887 7.18435   1
   6   7  -2 54.2492 9.15096   1
   6   7  -2 60.9684 8.44819   3
  -5  -7   2 340.224 19.8575   1
   5  -7  -2 366.739 17.6457   1
   5   7  -2 364.864 21.1717   1
   5   7  -2 342.034 18.2312   3
  -4  -7   2 50.5974 8.49513   1
   4  -7  -2 54.6202 7.49720   1
   4   7  -2 41.1387 7.77190   1
   4   7  -2 48.1119 7.07331   3
  -3  -7   2 494.857 24.7175   1
   3  -7  -2 487.526 22.5205   1
   3   7  -2 526.636 22.0102   3
   3   7  -2 477.976 24.1252   1
  -2  -7   2 342.583 19.4973   1
   2  -7  -2 375.318 19.0485   1
   2   7  -2 399.141 19.9559   1
   2   7  -2 369.667 17.0891   3
  -2   7   2 358.350 16.8302   1
   1  -7  -2 234.969 14.6776   1
  -1  -7   2 230.675 15.0377   1
   1   7  -2 232.581 12.2297   3
   1   7  -2 255.378 14.8691   1
  -1   7   2 243.874 13.6066   1
   0  -7  -2 466.859 22.6473   1
   0  -7   2 441.381 22.1388   1
   0   7   2 410.003 20.6264   1
   0   7  -2 445.356 20.8105   1
   0   7  -2 467.792 17.7995   3
   1  -7   2 117.494 11.5221   1
  -1  -7  -2 133.525 13.5056   1
  -1   7  -2 114.550 5.43922   3
   1   7   2 108.787 9.78299   3
  -1   7  -2 110.538 9.94081   1
   1   7   2 103.638 10.8637   1
  -2  -7  -2 20.9499 5.80280   1
   2  -7   2 23.7036 5.33713   1
   2   7   2 16.7964 3.99915   3
   2   7   2 21.7060 5.74674   1
   3  -7   2 3.42894 2.74746   1
  -3  -7  -2 3.13349 3.12743   1
   3   7   2 1.12684 2.85673   1
   3   7   2 6.16970 2.95697   3
   4  -7   2 18.8841 4.46329   1
  -4  -7  -2 30.5281 6.75614   1
   4   7   2 52.2424 7.72721   3
   4   7   2 21.4694 6.12743   1
   5  -7   2 60.9098 7.78279   1
   5   7   2 62.5838 8.58283   3
   5   7   2 54.2425 9.22476   1
   6  -7   2 49.0801 7.12107   1
   6   7   2 39.7907 7.33006   3
   6   7   2 39.1717 8.41106   1
   7  -7   2 50.7697 6.91549   1
   7   7   2 56.4267 10.1967   1
   7   7   2 39.4249 7.44896   3
   7  -8  -2 89.3791 9.83250   1
   7   8  -2 105.812 12.3540   3
   7   8  -2 87.3561 13.2462   1
   6  -8  -2 276.986 15.5512   1
   6   8  -2 258.799 19.2100   1
   6   8  -2 256.177 16.3042   3
   5  -8  -2 50.1533 7.72792   1
   5   8  -2 42.4411 7.24557   3
   5   8  -2 63.5206 10.4564   1
   4  -8  -2 3.53395 2.78056   1
  -4  -8   2 -0.8635 3.12240   1
   4   8  -2 -0.7673 1.67128   3
   4   8  -2 1.63694 2.89107   1
   3  -8  -2 54.7963 8.20924   1
  -3  -8   2 42.8059 8.17096   1
   3   8  -2 43.4748 6.62819   3
   3   8  -2 61.5256 9.25892   1
   2  -8  -2 735.079 31.4736   1
  -2  -8   2 675.721 32.1465   1
   2   8  -2 734.904 28.5543   3
   2   8  -2 686.011 31.3642   1
   1  -8  -2 319.949 18.5975   1
  -1  -8   2 327.499 19.3928   1
   1   8  -2 289.391 14.5968   3
   1   8  -2 318.059 17.9785   1
  -1   8   2 297.485 16.4833   1
   0  -8   2 2.01598 2.88119   1
   0  -8  -2 1.25524 2.62257   1
   0   8   2 9.33609 3.94980   1
   0   8  -2 6.01638 2.21097   3
   0   8  -2 10.0907 3.86913   1
  -1  -8  -2 233.033 16.5702   1
   1  -8   2 256.922 16.4131   1
   1   8   2 246.328 15.8066   1
   1   8   2 235.647 13.0761   3
  -1   8  -2 255.847 16.3139   1
  -2  -8  -2 95.7996 12.4190   1
   2  -8   2 116.974 12.5489   1
   2   8   2 133.224 13.6842   1
   2   8   2 93.8555 9.77261   3
   3  -8   2 30.4127 6.34151   1
  -3  -8  -2 38.7515 7.76755   1
   3   8   2 38.9639 6.45690   3
   3   8   2 36.8559 7.61207   1
   4  -8   2 1.47269 2.56380   1
  -4  -8  -2 3.97248 3.79515   1
   4   8   2 1.71848 2.51857   3
   4   8   2 7.14486 4.74042   1
   5  -8   2 1.81903 3.16775   1
   5   8   2 2.50353 2.82301   3
   5   8   2 -0.1099 3.35623   1
   6  -8   2 10.1894 4.63054   1
   6   8   2 2.26962 4.52075   1
   6   8   2 2.99542 3.53509   3
   6  -9  -2 5.43878 4.04478   1
   6   9  -2 10.5445 5.80845   1
   6   9  -2 15.1509 5.19425   3
   5  -9  -2 14.5620 4.80865   1
   5   9  -2 9.77772 5.05246   1
   5   9  -2 32.6571 6.91436   3
   4  -9  -2 21.8673 5.68658   1
  -4  -9   2 27.3317 7.39754   1
   4   9  -2 29.9787 7.55455   1
   4   9  -2 35.1248 6.56018   3
  -3  -9   2 159.305 16.6925   1
   3  -9  -2 153.593 15.0071   1
   3   9  -2 143.139 12.9277   3
   3   9  -2 165.975 16.5283   1
  -2  -9   2 49.5259 9.43098   1
   2  -9  -2 47.7505 8.60411   1
   2   9  -2 44.2464 6.74868   3
   2   9  -2 41.4833 8.23056   1
  -1  -9   2 234.531 17.1488   1
   1  -9  -2 222.969 16.2331   1
   1   9  -2 212.119 15.0718   1
   1   9  -2 222.325 12.4673   3
   0  -9   2 10.4198 5.18141   1
   0  -9  -2 30.7149 7.04333   1
   0   9  -2 11.8587 2.99813   3
   0   9  -2 20.1456 6.25096   1
   0   9   2 12.4187 4.56001   1
   1  -9   2 55.4264 9.18059   1
  -1  -9  -2 55.0008 10.0215   1
   1   9   2 39.0165 7.97148   1
   1   9   2 63.0383 7.64967   3
   2  -9   2 209.645 15.0477   1
  -2  -9  -2 162.042 16.4076   1
   2   9   2 162.222 15.9691   1
   2   9   2 139.932 12.7196   3
   3  -9   2 21.1435 5.95088   1
  -3  -9  -2 17.9702 6.79121   1
   3   9   2 12.3394 4.50771   3
   3   9   2 30.6200 7.19519   1
   4  -9   2 6.92722 4.03752   1
  -4  -9  -2 9.25740 5.39045   1
   4   9   2 7.08109 4.03166   3
   4   9   2 10.4651 4.91344   1
   5  -9   2 12.4326 4.61646   1
   5   9   2 14.2249 5.17148   3
   5   9   2 19.7520 7.12013   1
   5 -10  -2 56.3994 9.70503   1
   5  10  -2 64.2723 12.0649   1
   5  10  -2 64.9324 10.1741   3
   4 -10  -2 11.9127 4.87205   1
  -4 -10   2 11.7353 6.06660   1
   4  10  -2 6.37135 5.16204   1
   4  10  -2 5.01868 3.89822   3
   3 -10  -2 96.7840 12.5792   1
  -3 -10   2 80.2593 12.2613   1
   3  10  -2 56.3522 8.31184   3
   3  10  -2 59.8952 10.2421   1
  -2 -10   2 32.9403 8.55782   1
   2 -10  -2 24.2534 7.05875   1
   2  10  -2 29.5271 7.93133   1
   2  10  -2 25.3850 5.81483   3
  -1 -10   2 96.3090 13.5077   1
   1 -10  -2 100.001 13.4359   1
   1  10  -2 100.752 9.88348   3
   0 -10  -2 70.2050 11.0964   1
   0 -10   2 58.4365 10.3762   1
   0  10  -2 54.1198 5.94312   3
  -1 -10  -2 7.90171 4.75072   1
   1 -10   2 15.0993 6.06746   1
   1  10   2 19.6267 6.47672   1
  -2 -10  -2 18.0023 6.27670   1
   2 -10   2 25.1686 7.24110   1
   2  10   2 21.9276 5.56577   3
   2  10   2 13.2865 5.34393   1
  -3 -10  -2 25.7181 7.94353   1
   3 -10   2 29.6362 7.48980   1
   3  10   2 31.7351 6.60355   3
   3  10   2 43.9972 9.82869   1
   4 -10   2 11.5935 4.96314   1
   4  10   2 10.4590 6.17159   1
   4  10   2 7.29319 4.34539   3
   3 -11  -2 94.2524 13.5756   1
  -3 -11   2 89.0794 14.5635   1
   3  11  -2 89.5138 13.7480   1
   3  11  -2 80.5345 10.5418   3
   2 -11  -2 1.53767 4.35535   1
  -2 -11   2 20.0654 7.10059   1
   2  11  -2 14.6970 4.49147   3
  -1 -11   2 166.616 18.3282   1
   1 -11  -2 128.486 16.1913   1
   1  11  -2 131.807 9.60639   3
   0 -11  -2 30.3361 8.44108   1
   0 -11   2 29.0188 8.43611   1
   1 -11   2 121.232 15.8327   1
  -1 -11  -2 134.641 16.8410   1
   2 -11   2 0.30573 3.73997   1
  -2 -11  -2 0.51526 4.35618   1
   2  11   2 1.52861 2.74229   3
   9   0  -3 0.38621 2.31788   1
   8   0  -3 27.1046 4.82413   1
   7   0  -3 133.435 8.59242   1
   6   0  -3 17.2163 3.25724   1
   6   0  -3 13.7340 3.18473   1
   5   0  -3 60.2967 5.92477   1
   5   0  -3 67.6721 5.15590   1
   4   0  -3 102.128 6.31590   1
   4   0  -3 96.3155 6.07536   1
  -4   0   3 90.4914 4.44325   1
   3   0  -3 2486.10 75.4440   1
   3   0  -3 2451.87 75.2350   1
  -2   0   3 21.9405 3.15682   1
   2   0  -3 21.3207 3.24832   1
   2   0  -3 22.7183 3.34164   1
   1   0  -3 9851.30 288.929   1
  -1   0   3 9999.99 288.684   1
   0   0  -3 4190.21 123.469   1
   0   0   3 4094.85 123.404   1
  -1   0  -3 449.410 16.5111   1
   1   0   3 428.911 16.6002   1
   1   0   3 404.981 16.3641   1
   1   0   3 407.247 16.4133   1
  -2   0  -3 179.039 8.81030   1
   2   0   3 173.809 7.79598   3
   2   0   3 182.830 9.23397   1
  -2   0  -3 183.711 6.19625   3
   2   0   3 181.326 9.26802   1
   2   0   3 178.735 9.14142   1
   3   0   3 87.3533 6.12527   1
   3   0   3 72.4727 4.41920   3
  -3   0  -3 77.3608 5.04402   1
   3   0   3 77.5924 5.69523   1
  -4   0  -3 111.470 6.11021   1
   4   0   3 126.088 7.75625   1
   4   0   3 127.626 7.77249   1
   4   0   3 109.435 5.70100   3
   5   0   3 119.097 7.99634   1
   5   0   3 111.436 7.86844   1
   5   0   3 122.613 6.20731   3
   6   0   3 49.7511 4.74013   3
   6   0   3 51.8636 6.41295   1
   7   0   3 5.09319 2.75334   1
   8   0   3 70.0961 8.31978   1
   9   0   3 40.4528 6.97541   1
   9  -1  -3 27.6423 4.63919   1
   9   1  -3 15.8928 4.68503   1
   8  -1  -3 236.086 11.5623   1
   8   1  -3 202.076 12.5506   1
   7  -1  -3 244.575 11.6576   1
   7   1  -3 256.801 13.5362   1
   6  -1  -3 38.3893 4.38136   1
   6  -1  -3 36.2715 4.38603   1
   6   1  -3 42.3365 5.47506   1
   6   1  -3 36.8158 5.17004   1
   5  -1  -3 380.135 14.7719   1
   5  -1  -3 397.268 15.0958   1
   5   1  -3 361.263 15.9964   1
   5   1  -3 363.294 16.1625   1
   4  -1  -3 40.7163 4.31789   1
  -4  -1   3 39.1078 4.04746   1
   4  -1  -3 47.9483 4.59353   1
   4   1  -3 38.7280 4.81259   1
   4   1  -3 40.4984 4.89227   1
   3  -1  -3 107.582 6.26782   1
  -3  -1   3 110.194 6.49112   1
   3  -1  -3 111.975 6.47294   1
   3  -1  -3 108.648 6.41318   1
   3   1  -3 95.5066 6.60629   1
   3   1  -3 116.777 7.05419   1
  -3   1   3 112.396 5.41019   1
   2  -1  -3 1416.91 43.7931   1
   2  -1  -3 1329.15 43.5063   1
  -2  -1   3 1343.04 44.0440   1
   2  -1  -3 1395.76 43.7933   1
  -2   1   3 1376.42 43.1594   1
   2   1  -3 1386.59 44.4429   1
   2   1  -3 1365.07 45.6632   1
   1  -1  -3 1288.33 44.6614   1
   1  -1  -3 1357.56 43.9933   1
   1  -1  -3 1403.26 44.0748   1
  -1  -1   3 1450.72 44.5270   1
   1   1  -3 1383.95 44.3795   1
  -1   1   3 1383.15 44.0234   1
   0  -1  -3 655.905 22.9868   1
   0  -1   3 622.821 22.7658   1
   0  -1  -3 670.148 23.0038   1
   0   1  -3 613.318 22.5712   1
   0   1   3 622.515 22.7813   1
  -1  -1  -3 75.3705 6.61123   1
  -1  -1  -3 61.3853 6.02681   1
   1  -1   3 58.7571 5.62609   1
   1  -1   3 57.9427 5.59067   1
  -1   1  -3 49.9261 4.76163   1
   1   1   3 62.8275 5.98718   1
  -1   1  -3 52.1334 3.26750   3
   2  -1   3 563.910 20.6074   1
  -2  -1  -3 557.068 20.7867   1
  -2  -1  -3 536.120 19.5042   3
   2  -1   3 584.430 20.8614   1
   2   1   3 555.322 21.2019   1
   2   1   3 558.092 19.4868   3
   3  -1   3 850.334 28.2090   1
  -3  -1  -3 813.064 27.9852   1
   3  -1   3 799.241 27.8622   1
   3  -1   3 796.856 25.4603   3
   3   1   3 781.747 28.7602   1
   3   1   3 797.628 28.8409   1
  -3   1  -3 785.332 25.7417   1
   3   1   3 789.501 26.5802   3
   4  -1   3 499.230 20.1733   1
   4  -1   3 531.868 17.6639   3
  -4  -1  -3 550.580 19.7139   1
   4  -1   3 556.711 20.7318   1
   4   1   3 539.500 19.1840   3
   4   1   3 553.849 21.7850   1
   4   1   3 542.268 21.6031   1
   5  -1   3 44.2793 5.32877   1
   5  -1   3 42.4228 3.01701   3
   5  -1   3 39.6854 5.05984   1
   5   1   3 39.6700 5.84682   1
   5   1   3 46.3985 6.12411   1
   5   1   3 48.7783 4.90664   3
   6  -1   3 508.774 20.4775   1
   6   1   3 523.884 22.1174   1
   6   1   3 469.345 18.7571   3
   7  -1   3 198.914 11.3426   1
   7   1   3 177.628 9.85395   3
   7   1   3 188.761 12.2650   1
   8  -1   3 63.6268 7.72541   1
   8   1   3 63.9513 8.47618   1
   9  -2  -3 5.87241 2.30348   1
   9   2  -3 8.78247 3.68392   1
   8  -2  -3 2.95312 1.88149   1
   8   2  -3 1.80479 2.48099   1
   7  -2  -3 473.870 17.7547   1
   7   2  -3 442.078 20.8299   1
   6  -2  -3 4.87973 1.87797   1
   6  -2  -3 5.30293 1.87626   1
   6   2  -3 6.75343 2.69225   1
   5  -2  -3 430.140 16.0402   1
  -5  -2   3 435.710 16.6055   1
   5  -2  -3 439.851 16.1665   1
   5  -2  -3 414.122 15.9409   1
   5   2  -3 419.143 18.7067   1
   5   2  -3 400.511 18.2618   1
   4  -2  -3 719.453 24.0059   1
   4  -2  -3 679.864 23.8541   1
  -4  -2   3 682.695 24.9884   1
   4   2  -3 687.412 26.1586   1
   3  -2  -3 1722.42 53.3835   1
   3  -2  -3 1684.05 53.2639   1
  -3  -2   3 1679.75 54.5110   1
   3   2  -3 1767.11 55.4027   1
  -3   2   3 1688.87 51.3356   1
   2  -2  -3 883.183 29.7028   1
   2  -2  -3 857.914 29.2743   1
  -2  -2   3 880.546 30.4608   1
  -2   2   3 849.596 28.8381   1
   2   2  -3 885.667 30.6643   1
  -1  -2   3 120.228 7.37909   1
   1  -2  -3 113.229 7.05072   1
   1   2  -3 110.913 7.14003   1
  -1   2   3 110.026 6.69274   1
   0  -2  -3 772.999 26.5356   1
   0  -2   3 735.270 26.2485   1
   0   2  -3 711.621 25.8109   1
   0   2  -3 746.228 24.2069   3
   0   2   3 712.548 26.1219   1
   1  -2   3 230.794 10.7503   1
  -1  -2  -3 218.962 11.0273   1
   1  -2   3 190.513 10.1346   1
   1   2   3 218.069 9.68574   3
  -1   2  -3 218.654 8.25426   3
   1   2   3 236.322 11.2750   1
  -1   2  -3 228.875 10.2098   1
   2  -2   3 345.539 14.5908   1
   2  -2   3 358.418 14.8797   1
  -2  -2  -3 339.582 15.1924   1
   2   2   3 348.645 15.5330   1
   2   2   3 368.291 14.2110   3
   3  -2   3 418.633 16.8343   1
  -3  -2  -3 425.804 17.6626   1
  -3  -2  -3 409.014 14.1325   3
  -3  -2  -3 423.277 17.7001   1
   3  -2   3 445.692 17.2771   1
   3  -2   3 419.383 14.4756   3
  -3   2  -3 436.268 14.4295   1
   3   2   3 436.431 18.5673   1
   3   2   3 425.137 16.4395   3
   4  -2   3 29.7049 4.15881   1
   4  -2   3 33.3361 2.81585   3
   4  -2   3 30.9552 4.20971   1
   4   2   3 20.9139 4.20635   1
   4   2   3 24.9820 3.62379   3
   5  -2   3 15.0123 3.19759   1
   5  -2   3 19.6815 3.66379   1
   5  -2   3 19.9407 2.07175   3
   5   2   3 24.9072 3.88168   3
   5   2   3 13.6772 3.57303   1
   6  -2   3 383.236 16.3562   1
   6   2   3 392.269 19.0069   1
   6   2   3 349.788 15.9236   3
   7  -2   3 67.7517 7.13852   1
   7   2   3 49.1426 7.57904   1
   7   2   3 52.3537 6.51796   3
   8  -2   3 32.6477 5.27399   1
   8   2   3 32.5982 6.70410   1
   9  -3  -3 12.4379 2.83256   1
   9   3  -3 13.5214 4.78453   1
   8  -3  -3 14.4384 2.94931   1
   8   3  -3 17.7993 5.07584   1
   7  -3  -3 85.0322 5.74753   1
   7   3  -3 89.4799 9.85380   1
   6  -3  -3 535.873 19.9165   1
   6  -3  -3 552.841 19.9225   1
   6   3  -3 576.575 24.5839   1
  -5  -3   3 102.328 7.36682   1
   5  -3  -3 108.744 6.48472   1
   5  -3  -3 104.327 6.32328   1
   5   3  -3 111.389 10.3772   1
   4  -3  -3 447.138 17.1907   1
  -4  -3   3 438.600 18.9942   1
   4  -3  -3 466.692 17.6022   1
   4   3  -3 477.360 20.2794   1
  -3  -3   3 241.119 12.4477   1
   3  -3  -3 253.212 11.4680   1
   3  -3  -3 241.284 11.0765   1
   3   3  -3 242.761 12.8589   1
  -3   3   3 240.841 9.48588   1
  -2  -3   3 624.504 24.3404   1
   2  -3  -3 608.867 22.8046   1
   2  -3  -3 641.093 23.2994   1
  -2   3   3 618.642 22.3800   1
   2   3  -3 634.487 24.4163   1
  -1  -3   3 152.589 9.24994   1
   1  -3  -3 149.589 8.94142   1
   1   3  -3 162.860 8.04603   3
   1   3  -3 158.483 9.31803   1
  -1   3   3 171.536 9.03078   1
   0  -3  -3 223.265 11.5899   1
   0  -3   3 219.405 11.3880   1
   0   3  -3 224.183 9.53707   3
   0   3  -3 210.604 10.8676   1
   0   3   3 248.694 11.7688   1
  -1  -3  -3 306.280 14.6381   1
   1  -3   3 313.687 14.0629   1
   1   3   3 315.018 14.5674   1
  -1   3  -3 294.750 10.8626   3
   1   3   3 312.814 12.9926   3
  -1   3  -3 317.451 13.3816   1
   2  -3   3 1220.86 43.2112   1
  -2  -3  -3 1354.23 45.2554   1
   2  -3   3 1376.53 43.9398   1
   2   3   3 1332.87 43.0917   3
   2   3   3 1331.06 45.2895   1
  -3  -3  -3 22.6507 4.28561   1
   3  -3   3 26.5922 4.00991   1
   3  -3   3 24.6631 3.90837   1
   3   3   3 39.7321 5.83481   1
   3   3   3 30.4040 4.17539   3
  -4  -3  -3 378.068 16.9851   1
   4  -3   3 374.825 15.8535   1
   4  -3   3 352.556 15.4703   1
   4   3   3 360.004 17.7781   1
   4   3   3 367.137 15.7416   3
   5  -3   3 342.552 15.1050   1
   5  -3   3 327.828 14.8740   1
   5  -3   3 324.748 11.2612   3
   5   3   3 324.459 15.0355   3
   5   3   3 344.213 17.5489   1
   6  -3   3 52.7497 6.01423   1
   6   3   3 42.4680 5.99695   3
   6   3   3 45.9231 7.42684   1
   7  -3   3 84.9146 7.99496   1
   7   3   3 91.6113 10.9806   1
   7   3   3 80.6506 8.74521   3
   8  -3   3 10.0788 3.16921   1
   8   3   3 8.63547 3.51896   3
   8   3   3 2.55421 3.08202   1
   9  -4  -3 40.0740 4.43850   1
   9   4  -3 49.7250 7.37872   3
   9   4  -3 31.8737 7.09316   1
   8  -4  -3 90.8339 6.07702   1
   8   4  -3 85.3611 9.37570   3
   8   4  -3 74.7730 10.2139   1
   7  -4  -3 0.96475 1.65878   1
   7   4  -3 1.13605 2.06106   3
   7   4  -3 0.59534 2.53512   1
   6  -4  -3 183.075 9.61568   1
   6   4  -3 196.823 11.3332   3
   6   4  -3 210.845 13.6539   1
   5  -4  -3 957.181 32.0735   1
   5  -4  -3 909.864 31.5179   1
  -5  -4   3 938.427 34.5426   1
   5   4  -3 921.574 35.9838   1
   5   4  -3 926.754 33.2489   3
   4  -4  -3 608.905 23.7720   1
   4  -4  -3 690.631 24.5796   1
  -4  -4   3 695.774 26.8146   1
   4   4  -3 680.193 27.5659   1
   4   4  -3 646.876 24.8577   3
   3  -4  -3 218.490 11.2928   1
  -3  -4   3 224.659 13.0111   1
   3  -4  -3 240.566 11.8593   1
   3   4  -3 230.209 13.1855   1
   3   4  -3 245.176 11.7624   3
  -3   4   3 249.432 10.0714   1
  -2  -4   3 339.659 16.4575   1
   2  -4  -3 343.366 15.5306   1
   2   4  -3 345.735 16.4057   1
   2   4  -3 354.465 14.6884   3
  -2   4   3 328.948 14.4118   1
   1  -4  -3 583.191 23.2987   1
  -1  -4   3 593.505 23.9452   1
   1   4  -3 555.963 23.0946   1
   1   4  -3 583.523 21.3031   3
  -1   4   3 601.671 22.7674   1
   0  -4  -3 897.637 33.2784   1
   0  -4   3 884.415 32.9993   1
   0   4  -3 942.144 30.1333   3
   0   4   3 854.946 32.3928   1
   0   4  -3 954.959 32.6024   1
  -1  -4  -3 150.715 9.71128   1
   1  -4   3 114.749 8.14291   1
  -1   4  -3 118.743 5.56158   3
  -1   4  -3 125.064 7.83298   1
   1   4   3 119.276 8.56946   1
   1   4   3 125.083 7.47645   3
   2  -4   3 1318.77 44.7866   1
   2  -4   3 1286.59 44.4666   1
  -2  -4  -3 1366.11 46.6090   1
   2   4   3 1355.07 46.5668   1
   2   4   3 1320.40 44.0561   3
   3  -4   3 1148.13 39.3794   1
   3  -4   3 1093.29 38.9460   1
  -3  -4  -3 1179.16 41.6617   1
   3   4   3 1133.30 39.1164   3
   3   4   3 1163.29 41.7700   1
  -4  -4  -3 220.667 13.1677   1
   4  -4   3 217.087 11.5960   1
   4  -4   3 215.453 11.4738   1
   4   4   3 231.193 13.9121   1
   4   4   3 221.488 11.9281   3
   5  -4   3 99.1126 7.32519   1
   5   4   3 105.301 9.64888   3
   5   4   3 97.6749 10.9328   1
   6  -4   3 58.7288 6.59609   1
   6   4   3 30.8869 5.49480   3
   6   4   3 60.4120 8.73807   1
   7  -4   3 105.615 7.97659   1
   7   4   3 116.311 12.8720   1
   7   4   3 93.2885 9.68461   3
   8  -4   3 21.0684 4.44562   1
   8   4   3 12.3863 5.01449   1
   8   4   3 16.5536 4.75215   3
   8  -5  -3 75.9703 6.69362   1
   8   5  -3 62.2380 8.69132   3
   8   5  -3 59.7013 9.47679   1
   7  -5  -3 0.57397 1.97095   1
   7   5  -3 1.39091 2.26519   3
   7   5  -3 -3.2340 1.99248   1
   6  -5  -3 13.0518 3.19355   1
   6   5  -3 17.2516 4.25980   3
   6   5  -3 10.2544 4.16894   1
  -5  -5   3 238.407 14.4377   1
   5  -5  -3 264.509 12.8902   1
   5   5  -3 257.815 13.7759   3
   5   5  -3 259.046 16.0315   1
   4  -5  -3 519.965 21.5631   1
  -4  -5   3 539.924 24.3047   1
   4  -5  -3 545.512 22.0015   1
   4   5  -3 577.937 25.5411   1
   4   5  -3 584.519 22.8955   3
   3  -5  -3 62.2554 6.98516   1
   3  -5  -3 55.3038 6.51357   1
  -3  -5   3 61.6885 7.86219   1
   3   5  -3 55.4060 7.78303   1
   3   5  -3 62.1081 6.95493   3
  -3   5   3 53.7083 5.23330   1
  -2  -5   3 537.700 23.6337   1
   2  -5  -3 565.254 22.6693   1
   2   5  -3 534.128 21.0496   3
   2   5  -3 515.380 23.2217   1
  -2   5   3 524.999 21.0406   1
  -1  -5   3 116.350 10.8910   1
   1  -5  -3 80.7172 8.29652   1
  -1   5   3 96.7456 7.46560   1
   1   5  -3 95.4132 6.54635   3
   1   5  -3 99.3415 9.49529   1
   0  -5   3 505.827 21.9142   1
   0  -5  -3 493.974 21.9696   1
   0   5  -3 484.349 20.6468   1
   0   5  -3 486.221 18.1937   3
   0   5   3 473.605 21.0623   1
   1  -5   3 234.275 13.0913   1
  -1  -5  -3 233.618 13.7531   1
   1   5   3 229.102 13.4571   1
  -1   5  -3 221.631 11.7752   1
   1   5   3 219.087 11.3748   3
  -1   5  -3 245.241 9.11631   3
  -2  -5  -3 78.8111 9.26358   1
   2  -5   3 86.8987 8.67274   1
   2   5   3 72.2821 8.38085   1
   2   5   3 75.8648 7.43290   3
  -3  -5  -3 47.8265 7.30053   1
   3  -5   3 44.6639 6.09312   1
   3  -5   3 30.3846 5.23375   1
   3   5   3 36.3771 5.32277   3
   3   5   3 36.7615 6.53510   1
  -4  -5  -3 1196.33 44.2037   1
   4  -5   3 1186.34 41.3681   1
   4   5   3 1129.20 41.4226   3
   4   5   3 1197.70 44.8550   1
   5  -5   3 54.6620 6.70817   1
   5   5   3 50.3552 6.94293   3
   5   5   3 65.1991 9.68007   1
   6  -5   3 18.0044 4.20067   1
   6   5   3 19.4612 4.89897   3
   6   5   3 18.1679 5.59447   1
   7  -5   3 13.5798 3.89261   1
   7   5   3 13.4159 5.30627   1
   7   5   3 11.9555 4.55109   3
   8  -5   3 92.8588 8.95168   1
   8   5   3 86.5638 12.0387   1
   8   5   3 80.3035 10.3577   3
   8  -6  -3 38.1833 5.30941   1
   8   6  -3 27.6342 7.30214   1
   8   6  -3 36.2326 7.15291   3
   7  -6  -3 35.6694 5.41614   1
   7   6  -3 46.5105 7.48093   3
   7   6  -3 36.3728 7.90018   1
   6  -6  -3 8.22803 3.06547   1
   6   6  -3 7.71073 3.55444   3
   6   6  -3 0.72017 2.75301   1
   5  -6  -3 93.8514 9.04029   1
  -5  -6   3 139.043 13.2423   1
   5   6  -3 129.867 11.7761   3
   5   6  -3 100.832 11.5970   1
  -4  -6   3 326.221 18.4675   1
   4  -6  -3 330.935 16.3851   1
   4   6  -3 351.787 19.1937   1
   4   6  -3 316.742 16.2128   3
   3  -6  -3 1246.68 44.1690   1
  -3  -6   3 1302.32 46.8574   1
   3   6  -3 1234.95 46.3130   1
   3   6  -3 1234.92 43.0806   3
  -3   6   3 1200.82 41.3855   1
   2  -6  -3 274.264 15.2343   1
  -2  -6   3 286.753 16.7101   1
   2   6  -3 266.274 13.6714   3
  -2   6   3 292.100 14.1826   1
   2   6  -3 284.411 16.0003   1
   1  -6  -3 128.746 9.86613   1
  -1  -6   3 122.598 12.1359   1
   1   6  -3 113.236 10.7066   1
   1   6  -3 123.657 7.90845   3
  -1   6   3 118.675 8.91762   1
   0  -6   3 309.279 17.2297   1
   0  -6  -3 322.192 17.3543   1
   0   6  -3 315.159 16.1862   1
   0   6  -3 311.687 13.5692   3
   0   6   3 347.921 17.0496   1
   1  -6   3 181.346 12.2912   1
  -1  -6  -3 210.945 13.6717   1
  -1   6  -3 192.971 11.3018   1
   1   6   3 177.906 10.5259   3
  -1   6  -3 199.125 8.06924   3
   1   6   3 192.674 12.6743   1
  -2  -6  -3 158.540 12.1241   1
   2  -6   3 170.904 11.4297   1
   2   6   3 166.881 10.4208   3
   2   6   3 167.984 12.0773   1
  -3  -6  -3 242.925 15.5621   1
   3  -6   3 229.583 13.5921   1
   3   6   3 225.982 15.0203   1
   3   6   3 235.361 13.3863   3
   4  -6   3 165.837 11.2883   1
  -4  -6  -3 172.177 13.1648   1
   4   6   3 177.730 13.4616   1
   4   6   3 184.083 11.9289   3
   5  -6   3 110.147 10.4248   1
   5   6   3 103.574 12.5495   1
   5   6   3 102.376 10.6868   3
   6  -6   3 125.038 9.54668   1
   6   6   3 136.438 14.9506   1
   6   6   3 116.164 11.8238   3
   7  -6   3 24.1902 4.99679   1
   7   6   3 19.2066 5.33334   3
   7   6   3 6.42849 4.18432   1
   7  -7  -3 74.3290 8.32549   1
   7   7  -3 63.5324 8.88789   3
   7   7  -3 64.4587 11.1154   1
   6  -7  -3 74.4702 8.50536   1
   6   7  -3 62.0265 8.46946   3
   6   7  -3 66.3922 10.3017   1
  -5  -7   3 94.2928 11.7432   1
   5  -7  -3 132.054 9.99224   1
   5   7  -3 127.297 12.3327   3
   5   7  -3 152.568 14.9583   1
  -4  -7   3 333.022 19.3504   1
   4  -7  -3 334.055 17.1771   1
   4   7  -3 283.253 18.3991   1
   4   7  -3 308.713 16.5990   3
   3  -7  -3 86.2979 9.75924   1
  -3  -7   3 87.6406 10.8319   1
   3   7  -3 72.0415 8.33250   3
   3   7  -3 78.3344 9.98725   1
  -2  -7   3 186.550 13.7932   1
   2  -7  -3 215.965 13.6317   1
   2   7  -3 174.236 12.8352   1
   2   7  -3 175.824 10.8191   3
  -2   7   3 160.881 10.8763   1
  -1  -7   3 40.4271 7.37642   1
   1  -7  -3 27.6243 6.20551   1
  -1   7   3 46.1134 6.97315   1
   1   7  -3 42.0072 6.96571   1
   1   7  -3 40.2407 5.51051   3
   0  -7   3 79.8417 9.96481   1
   0  -7  -3 84.9302 10.1236   1
   0   7  -3 63.0902 8.23024   1
   0   7  -3 86.5724 7.18855   3
   0   7   3 77.9823 9.17382   1
   1  -7   3 248.555 15.3769   1
  -1  -7  -3 237.222 15.7146   1
   1   7   3 254.047 15.4686   1
  -1   7  -3 225.455 9.07330   3
   1   7   3 234.578 12.6896   3
  -1   7  -3 225.089 13.1874   1
   2  -7   3 513.561 24.1870   1
  -2  -7  -3 481.488 24.9206   1
   2   7   3 508.587 22.2120   3
   2   7   3 490.525 24.5135   1
  -3  -7  -3 37.9883 7.69435   1
   3  -7   3 15.2626 4.17396   1
   3   7   3 18.0296 4.49033   3
   3   7   3 24.4201 6.18505   1
  -4  -7  -3 198.508 14.9849   1
   4  -7   3 204.523 13.3551   1
   4   7   3 201.467 13.2832   3
   4   7   3 216.253 15.9075   1
   5  -7   3 16.4197 4.52084   1
   5   7   3 30.3712 7.62224   1
   5   7   3 34.7732 6.61350   3
   6  -7   3 8.79558 3.74864   1
   6   7   3 4.65580 3.80484   3
   6   7   3 4.18885 4.20780   1
   7  -7   3 8.09041 4.16095   1
   7   7   3 6.18813 4.09058   3
   7   7   3 6.97709 5.63738   1
   7  -8  -3 49.3414 7.64799   1
   7   8  -3 22.5265 7.39694   1
   7   8  -3 53.0547 9.18691   3
   6  -8  -3 48.5797 7.80756   1
   6   8  -3 42.3765 7.42152   3
   6   8  -3 66.5770 11.6383   1
   5  -8  -3 1.22948 2.69969   1
   5   8  -3 -1.2536 2.05009   3
   5   8  -3 -1.5999 3.63377   1
  -4  -8   3 71.3477 10.6116   1
   4  -8  -3 70.0811 9.28371   1
   4   8  -3 70.6576 9.10749   3
   4   8  -3 55.5887 9.39112   1
  -3  -8   3 4.25362 3.82993   1
   3  -8  -3 0.01195 2.55001   1
   3   8  -3 1.15753 1.80685   3
   3   8  -3 2.20779 3.29203   1
   2  -8  -3 249.424 15.9524   1
  -2  -8   3 241.880 16.9586   1
   2   8  -3 218.686 13.0873   3
   2   8  -3 220.675 15.6135   1
  -1  -8   3 102.099 12.4145   1
   1  -8  -3 125.279 13.2031   1
  -1   8   3 130.579 12.3784   1
   1   8  -3 135.083 13.6248   1
   1   8  -3 125.136 8.84072   3
   0  -8   3 754.824 33.1102   1
   0  -8  -3 728.284 32.6485   1
   0   8   3 695.385 30.8630   1
   0   8  -3 712.826 25.9725   3
   0   8  -3 706.125 30.4057   1
  -1  -8  -3 112.741 13.0427   1
   1  -8   3 94.0748 11.3002   1
   1   8   3 78.4097 10.4804   1
  -2  -8  -3 100.582 12.1903   1
   2  -8   3 83.8375 10.7038   1
   2   8   3 99.6704 12.1714   1
   2   8   3 89.8766 10.1131   3
  -3  -8  -3 37.0196 8.22990   1
   3  -8   3 39.6120 7.29323   1
   3   8   3 37.2980 8.10719   1
   3   8   3 44.2723 7.21271   3
  -4  -8  -3 80.0585 11.7863   1
   4  -8   3 94.5183 11.2472   1
   4   8   3 96.6620 10.7049   3
   4   8   3 80.7622 12.0889   1
   5  -8   3 51.8342 8.26566   1
   5   8   3 56.3881 10.7802   1
   5   8   3 53.1417 8.94644   3
   6  -8   3 54.3127 8.69535   1
   6   8   3 73.9342 12.4847   1
   6   8   3 52.7063 9.15517   3
   6  -9  -3 19.6096 5.52928   1
   6   9  -3 15.7051 6.13170   1
   6   9  -3 13.1472 4.86634   3
   5  -9  -3 50.7751 8.44722   1
   5   9  -3 54.5758 10.1091   1
   5   9  -3 67.1961 9.51771   3
   4  -9  -3 1.58097 2.94316   1
  -4  -9   3 1.67584 4.07258   1
   4   9  -3 -3.8067 1.74349   3
   4   9  -3 4.65535 4.42648   1
  -3  -9   3 1.70429 3.79791   1
   3  -9  -3 -1.0715 2.82610   1
   3   9  -3 1.11657 2.38207   3
   3   9  -3 4.87989 3.70288   1
   2  -9  -3 217.108 16.0050   1
  -2  -9   3 212.170 19.6702   1
   2   9  -3 224.104 16.2192   1
   2   9  -3 225.241 13.5635   3
   1  -9  -3 194.061 17.8662   1
  -1  -9   3 185.412 17.9436   1
   1   9  -3 191.897 11.3094   3
   1   9  -3 191.511 17.3662   1
   0  -9   3 308.576 20.3232   1
   0  -9  -3 326.116 20.7078   1
   0   9  -3 334.419 14.7693   3
   0   9   3 362.213 20.2404   1
  -1  -9  -3 59.7031 10.0807   1
   1  -9   3 101.658 13.1247   1
   1   9   3 64.8151 9.97928   1
   2  -9   3 70.5151 10.4661   1
  -2  -9  -3 59.4323 10.1644   1
   2   9   3 76.5945 9.61418   3
   2   9   3 72.2461 11.1144   1
   3  -9   3 74.4463 10.8263   1
  -3  -9  -3 68.9406 11.2838   1
   3   9   3 91.0286 12.5861   1
   3   9   3 75.3517 9.58294   3
   4  -9   3 46.5755 8.58012   1
   4   9   3 51.1531 8.90936   3
   4   9   3 59.5107 10.5779   1
   5  -9   3 3.51661 4.15072   1
   5   9   3 9.45773 4.36606   3
   5   9   3 10.5856 5.45809   1
   5 -10  -3 12.6761 5.21098   1
   5  10  -3 15.2366 5.29326   3
   5  10  -3 6.69694 5.47881   1
   4 -10  -3 37.2604 8.18013   1
  -4 -10   3 48.8457 10.0556   1
   4  10  -3 62.5067 9.54251   3
   4  10  -3 56.5705 10.6048   1
   3 -10  -3 82.2297 11.8652   1
  -3 -10   3 69.0724 11.7432   1
   3  10  -3 64.8883 10.7326   1
   3  10  -3 73.4348 9.46989   3
   2 -10  -3 31.9721 8.12027   1
  -2 -10   3 31.4888 8.55860   1
   2  10  -3 26.6438 5.79248   3
   2  10  -3 34.5095 7.74645   1
  -1 -10   3 20.9769 7.04102   1
   1 -10  -3 19.8113 6.71273   1
   1  10  -3 15.4395 4.16702   3
   0 -10  -3 41.4987 9.01149   1
   0 -10   3 42.3887 9.52069   1
  -1 -10  -3 3.60509 4.25613   1
   1 -10   3 8.58545 4.75605   1
   1  10   3 4.76391 4.83381   1
   2 -10   3 48.4849 9.54150   1
  -2 -10  -3 89.0280 13.2897   1
   2  10   3 62.8201 8.86293   3
   2  10   3 60.8986 10.6328   1
  -3 -10  -3 10.6829 5.85044   1
   3 -10   3 4.22014 4.02305   1
   3  10   3 5.04731 3.80038   3
   3  10   3 6.64472 5.58569   1
   4 -10   3 58.8815 10.0222   1
   4  10   3 28.2844 7.89512   1
   4  10   3 52.7916 9.11454   3
  -3 -11   3 27.6037 9.00836   1
   3 -11  -3 26.2014 7.58123   1
   3  11  -3 20.5046 7.73996   1
   3  11  -3 15.0452 5.02884   3
  -2 -11   3 108.454 15.1784   1
   2 -11  -3 106.393 14.6114   1
   2  11  -3 109.819 11.3670   3
   1 -11  -3 24.7149 8.01067   1
  -1 -11   3 21.8181 7.81323   1
   1  11  -3 30.3642 5.66897   3
   0 -11   3 28.7737 8.35756   1
   0 -11  -3 29.3230 8.80224   1
   1 -11   3 18.3666 7.23584   1
  -1 -11  -3 11.8896 6.59723   1
  -2 -11  -3 8.09786 5.89962   1
   2 -11   3 2.36839 4.63423   1
   9   0  -4 -0.8927 2.45652   1
   8   0  -4 450.519 20.2381   1
   7   0  -4 38.9600 5.77100   1
   6   0  -4 2.81948 2.53995   1
   6   0  -4 6.04477 2.63900   1
   5   0  -4 198.404 10.9586   1
   5   0  -4 199.190 10.8070   1
   4   0  -4 190.814 10.0832   1
   4   0  -4 149.730 9.15947   1
  -4   0   4 167.640 8.27048   1
  -3   0   4 198.312 9.71033   1
   3   0  -4 202.357 10.5188   1
   3   0  -4 174.473 9.86298   1
   2   0  -4 153.104 8.98786   1
  -2   0   4 155.245 8.71696   1
  -1   0   4 570.710 21.9235   1
   1   0  -4 569.456 22.0321   1
   0   0   4 424.729 17.4250   1
   0   0  -4 385.795 16.8287   1
  -1   0  -4 43.4364 5.23288   1
   1   0   4 52.5893 6.00376   1
  -2   0  -4 2370.28 73.8317   1
   2   0   4 2405.70 74.6558   1
  -2   0  -4 2317.89 70.3275   3
   3   0   4 57.7458 5.27957   3
   3   0   4 55.1539 6.56585   1
   4   0   4 268.075 13.6842   1
  -4   0  -4 267.179 11.2441   1
   4   0   4 227.120 12.7378   1
   4   0   4 252.853 11.2379   3
   5   0   4 12.1792 2.87226   3
   5   0   4 14.9497 4.04550   1
   6   0   4 16.7638 4.31560   1
   6   0   4 14.2238 3.13210   3
   7   0   4 25.8636 5.39371   1
   8   0   4 73.7411 9.16477   1
   9  -1  -4 0.71986 2.33832   1
   9   1  -4 0.54686 2.40115   1
   8  -1  -4 102.876 9.37956   1
   8   1  -4 104.164 10.4414   1
   7  -1  -4 290.973 14.2873   1
   7   1  -4 302.025 15.6310   1
   6  -1  -4 86.0546 7.88847   1
   6  -1  -4 94.4300 6.86997   1
   6   1  -4 92.7600 9.08796   1
   5  -1  -4 29.5094 4.49879   1
   5  -1  -4 34.3871 4.78385   1
  -5  -1   4 34.8554 4.01367   1
   5   1  -4 37.3704 5.53908   1
   5   1  -4 27.2635 4.70633   1
   4  -1  -4 370.783 15.4824   1
   4  -1  -4 336.166 14.9593   1
  -4   1   4 337.192 12.8530   1
   4   1  -4 365.246 16.0655   1
   4   1  -4 301.190 20.2441   1
   3  -1  -4 843.604 30.1583   1
   3  -1  -4 835.736 30.2122   1
  -3  -1   4 846.790 30.1294   1
   3   1  -4 900.779 31.3209   1
   2  -1  -4 1123.24 38.1086   1
  -2  -1   4 1116.06 38.1396   1
   2   1  -4 1150.17 38.6283   1
  -2   1   4 1093.20 37.3241   1
  -1  -1   4 1543.98 50.7067   1
   1  -1  -4 1594.90 50.9189   1
  -1   1   4 1528.04 50.6466   1
   1   1  -4 1537.14 50.8492   1
   0  -1  -4 667.367 25.5261   1
   0  -1   4 708.730 25.8797   1
   0   1  -4 683.459 25.4443   1
   0   1   4 682.324 25.7535   1
   1  -1   4 1121.69 38.8058   1
  -1  -1  -4 1099.72 38.5258   1
   1   1   4 1164.20 39.0296   1
  -1   1  -4 1117.93 38.0817   1
   2  -1   4 52.2423 6.17204   1
  -2  -1  -4 58.6127 6.46432   1
  -2   1  -4 55.3760 5.58837   1
  -2   1  -4 53.8724 2.64080   3
   2   1   4 48.4360 6.05503   1
  -2   1  -4 57.0507 2.70681   3
  -3  -1  -4 40.1371 5.50708   1
   3  -1   4 37.5398 5.24118   1
   3  -1   4 38.7740 5.39230   1
  -3   1  -4 35.9469 4.29248   1
   3   1   4 37.8296 5.33819   1
   3   1   4 33.3415 4.22328   3
   4  -1   4 378.386 17.6988   1
   4  -1   4 437.010 15.9070   3
   4  -1   4 375.550 17.6444   1
   4  -1   4 417.399 18.1873   1
   4   1   4 420.154 16.6288   3
   4   1   4 429.847 19.1604   1
   5  -1   4 557.096 20.2758   3
   5  -1   4 587.934 23.5101   1
   5   1   4 533.225 21.2793   3
   5   1   4 588.779 24.5317   1
   6  -1   4 359.254 17.7227   1
   6  -1   4 383.117 15.1997   3
   6   1   4 406.428 19.3635   1
   6   1   4 357.645 16.0183   3
   7  -1   4 81.8270 9.06300   1
   7   1   4 90.4432 8.53715   3
   7   1   4 78.5223 9.74244   1
   8  -1   4 50.2998 7.44631   1
   8   1   4 60.4237 8.90669   1
   9  -2  -4 19.5363 4.27036   1
   9   2  -4 23.2556 5.60694   1
   8  -2  -4 0.47941 1.90435   1
   8   2  -4 1.28793 2.43433   1
   7  -2  -4 153.837 9.36500   1
   7   2  -4 168.107 11.7196   1
   6  -2  -4 43.8367 6.18285   1
   6  -2  -4 47.7027 5.63385   1
   6   2  -4 54.6205 7.34157   1
   5  -2  -4 138.159 8.33831   1
   5  -2  -4 111.318 7.57883   1
   5   2  -4 134.481 9.47029   1
   4  -2  -4 70.0058 6.88721   1
   4  -2  -4 59.1110 6.23364   1
   4  -2  -4 61.0743 6.33183   1
  -4  -2   4 78.6143 7.60022   1
   4   2  -4 66.4102 7.46400   1
   3  -2  -4 211.075 10.7822   1
   3  -2  -4 192.478 10.3351   1
  -3  -2   4 211.380 11.3135   1
   3   2  -4 217.951 11.9155   1
  -2  -2   4 1322.35 45.2583   1
   2  -2  -4 1329.83 44.5786   1
   2   2  -4 1333.56 45.5245   1
  -2   2   4 1374.06 44.2314   1
  -1  -2   4 301.886 14.5231   1
   1  -2  -4 317.056 14.5426   1
  -1   2   4 317.127 14.5236   1
   1   2  -4 313.050 14.7231   1
   0  -2   4 66.6497 6.86820   1
   0  -2  -4 57.5489 6.40439   1
   0   2  -4 79.9181 7.58891   1
   0   2   4 70.8284 7.19864   1
  -1  -2  -4 298.785 14.1754   1
   1  -2   4 283.578 13.8017   1
  -1   2  -4 284.010 10.9572   3
  -1   2  -4 290.515 13.3017   1
   1   2   4 275.236 14.0597   1
  -2  -2  -4 281.317 14.0905   1
   2  -2   4 291.853 13.9621   1
  -2  -2  -4 289.169 14.2874   1
   2   2   4 282.813 12.6347   3
   2   2   4 275.113 14.2409   1
  -2   2  -4 274.910 12.5378   1
   3  -2   4 57.5626 6.61855   1
  -3  -2  -4 75.6943 7.92963   1
   3  -2   4 69.2105 7.30420   1
   3   2   4 73.1833 8.03939   1
   3   2   4 53.2768 5.70674   3
  -3   2  -4 58.9051 4.54983   1
   4  -2   4 160.963 9.86604   1
   4  -2   4 141.746 9.36080   1
  -4  -2  -4 128.523 9.09453   1
   4   2   4 165.010 10.8174   1
   4   2   4 139.179 8.58041   3
   5  -2   4 502.987 18.6463   3
   5  -2   4 529.844 22.2029   1
   5   2   4 533.932 23.8586   1
   5   2   4 519.675 20.8911   3
   6  -2   4 120.584 9.00606   1
   6   2   4 91.9796 10.2594   1
   6   2   4 114.720 8.20979   3
   7  -2   4 23.6521 5.16925   1
   7   2   4 19.3447 4.24110   3
   7   2   4 10.7216 4.17513   1
   8  -2   4 0.86501 2.90325   1
   8   2   4 0.57668 2.88079   1
   9  -3  -4 4.21401 2.52827   1
   9   3  -4 2.77392 3.55597   1
   8  -3  -4 87.4023 7.91202   1
   8   3  -4 82.8606 10.1306   1
   7  -3  -4 91.3270 7.02474   1
   7   3  -4 80.2271 9.94635   1
   6  -3  -4 352.291 15.6110   1
   6  -3  -4 359.386 15.7618   1
   6   3  -4 347.556 18.3680   1
   5  -3  -4 163.850 9.40050   1
   5  -3  -4 180.093 9.98100   1
  -5  -3   4 175.741 10.6056   1
   5   3  -4 185.443 12.0722   1
  -4  -3   4 280.687 14.3531   1
   4  -3  -4 271.798 12.9522   1
   4  -3  -4 289.405 13.5167   1
   4   3  -4 273.356 15.0204   1
   3  -3  -4 137.189 8.82053   1
   3  -3  -4 175.443 9.87302   1
  -3  -3   4 159.089 10.2712   1
   3   3  -4 169.046 10.5954   1
   2  -3  -4 591.943 23.7440   1
  -2  -3   4 654.086 25.0176   1
  -2   3   4 605.228 23.1616   1
   2   3  -4 572.785 24.1932   1
   1  -3  -4 183.250 10.9355   1
  -1  -3   4 185.987 11.1338   1
   1   3  -4 198.587 9.58125   3
   1   3  -4 201.217 11.1923   1
  -1   3   4 191.923 10.7140   1
   0  -3   4 244.624 12.7261   1
   0  -3  -4 233.003 12.5808   1
   0   3  -4 230.718 10.1885   3
   0   3   4 214.458 12.1428   1
   0   3  -4 228.684 11.9715   1
   1  -3   4 80.7376 8.06315   1
  -1  -3  -4 88.7118 8.67492   1
  -1   3  -4 86.5104 6.60347   1
   1   3   4 83.6697 8.53477   1
  -1   3  -4 91.5087 4.90977   3
  -2  -3  -4 2.56383 2.41191   1
   2  -3   4 4.57200 2.07693   1
   2   3   4 0.62456 1.63011   1
  -2   3  -4 2.45533 1.54885   1
   2   3   4 8.02030 2.57349   3
   3  -3   4 273.383 13.8937   1
   3  -3   4 283.432 14.1727   1
  -3  -3  -4 284.165 14.7162   1
   3   3   4 286.798 13.4298   3
  -3   3  -4 275.332 11.5181   1
   3   3   4 255.764 14.8537   1
   4  -3   4 637.739 25.2372   1
  -4  -3  -4 640.998 26.1379   1
   4  -3   4 578.992 24.6013   1
  -4  -3  -4 657.142 26.1558   1
   4   3   4 639.168 27.1575   1
   4   3   4 622.659 24.5152   3
   5  -3   4 285.953 14.5505   1
   5   3   4 247.381 13.4516   3
   5   3   4 260.447 15.8143   1
   6  -3   4 61.0709 7.46676   1
   6   3   4 49.7306 8.07813   1
   6   3   4 62.7985 7.53458   3
   7  -3   4 78.3209 8.74288   1
   7   3   4 67.4181 9.58695   1
   7   3   4 64.3448 8.03250   3
   8  -3   4 50.1104 7.37267   1
   8   3   4 59.1962 9.82328   1
   8   3   4 53.5712 7.82054   3
   9  -4  -4 7.27453 2.94909   1
   9   4  -4 6.75099 3.51814   3
   9   4  -4 3.79019 3.96286   1
   8  -4  -4 95.7148 7.33304   1
   8   4  -4 96.6953 11.7245   1
   8   4  -4 74.3098 8.96084   3
   7  -4  -4 15.9430 3.85599   1
   7   4  -4 5.56601 2.82391   3
   7   4  -4 16.0875 4.89666   1
   6  -4  -4 199.462 11.1973   1
   6   4  -4 230.506 14.8095   1
  -5  -4   4 123.046 11.1220   1
   5  -4  -4 99.5821 7.78038   1
   5   4  -4 119.775 11.9679   1
   4  -4  -4 166.634 10.1512   1
   4  -4  -4 194.104 11.0481   1
  -4  -4   4 182.194 11.8305   1
   4   4  -4 196.604 12.7473   1
   4   4  -4 188.136 10.6595   3
  -3  -4   4 100.968 10.2326   1
   3  -4  -4 81.2060 8.04677   1
   3  -4  -4 70.2595 7.94585   1
  -3   4   4 57.3803 5.92991   1
   3   4  -4 78.4157 7.69097   3
   3   4  -4 91.0509 9.68480   1
   2  -4  -4 420.982 18.7181   1
  -2  -4   4 425.403 19.6215   1
   2   4  -4 382.147 16.8341   3
  -2   4   4 412.827 17.7517   1
   2   4  -4 405.899 19.1094   1
  -1  -4   4 3.37298 2.08096   1
   1  -4  -4 1.11641 1.91996   1
  -1   4   4 3.92120 2.06739   1
   1   4  -4 4.26387 2.28120   1
   1   4  -4 3.39440 1.61695   3
   0  -4   4 362.635 17.4289   1
   0  -4  -4 355.622 17.5811   1
   0   4  -4 354.229 14.3881   3
   0   4  -4 346.533 16.6418   1
   0   4   4 384.348 17.5384   1
  -1  -4  -4 177.232 11.7149   1
   1  -4   4 182.653 11.2245   1
  -1   4  -4 172.414 7.68373   3
  -1   4  -4 172.028 10.1253   1
   1   4   4 199.962 11.9168   1
  -2  -4  -4 44.8136 6.56556   1
   2  -4   4 53.2224 6.85933   1
  -2   4  -4 52.5419 5.81650   1
   2   4   4 61.0529 6.51208   3
   2   4   4 52.5831 7.39303   1
  -3  -4  -4 107.495 10.8184   1
   3  -4   4 107.183 9.91014   1
   3  -4   4 94.7139 9.22729   1
   3   4   4 123.211 10.3560   3
   3   4   4 116.907 11.3981   1
  -3   4  -4 97.9576 6.09444   1
  -4  -4  -4 878.843 33.9417   1
   4  -4   4 816.058 32.1547   1
   4   4   4 896.340 35.5467   1
   4   4   4 851.606 32.1782   3
   5  -4   4 16.3559 4.12423   1
   5   4   4 21.7018 5.55836   1
   5   4   4 7.27398 3.15499   3
   6  -4   4 3.39712 2.64355   1
   6   4   4 -0.2623 2.07163   3
   6   4   4 -0.8704 2.15250   1
   7  -4   4 71.4162 8.49624   1
   7   4   4 49.0687 7.29485   3
   7   4   4 52.2037 8.97675   1
   8  -4   4 15.6197 4.57614   1
   8   4   4 19.2436 4.94397   3
   8   4   4 17.1542 5.88515   1
   8  -5  -4 197.207 11.5221   1
   8  -5  -4 198.192 11.4156   1
   8   5  -4 209.068 13.7473   3
   8   5  -4 194.871 18.5548   1
   7  -5  -4 47.1764 6.22348   1
   7   5  -4 48.4759 7.18107   3
   7   5  -4 36.4401 7.53323   1
   6  -5  -4 139.025 9.44829   1
   6   5  -4 132.326 13.4685   1
   6   5  -4 119.233 10.9184   3
  -5  -5   4 191.091 13.0287   1
   5  -5  -4 196.860 11.6887   1
   5   5  -4 202.218 13.9286   1
   5   5  -4 192.832 11.8865   3
  -4  -5   4 226.736 14.3416   1
   4  -5  -4 223.728 12.9260   1
   4   5  -4 234.036 12.7786   3
   4   5  -4 240.706 14.9661   1
  -3  -5   4 108.971 11.0253   1
   3  -5  -4 101.040 9.60502   1
   3   5  -4 114.401 11.5547   1
   3   5  -4 102.246 9.34920   3
  -2  -5   4 76.7387 9.30637   1
   2  -5  -4 51.5108 7.12153   1
  -2   5   4 58.0323 6.70160   1
   2   5  -4 65.7231 6.92976   3
   2   5  -4 68.2987 8.75133   1
   1  -5  -4 38.3755 6.23671   1
  -1  -5   4 35.3718 6.04631   1
  -1   5   4 45.4529 6.43909   1
   1   5  -4 39.5165 5.01219   3
   1   5  -4 43.4621 6.53522   1
   0  -5   4 111.162 10.9314   1
   0  -5  -4 120.433 11.7865   1
   0   5  -4 126.405 7.28581   3
   0   5  -4 123.115 9.08748   1
   0   5   4 104.917 9.99674   1
  -1  -5  -4 188.049 12.5754   1
   1  -5   4 154.824 11.0993   1
   1   5   4 186.359 12.0936   1
  -1   5  -4 172.146 7.64487   3
  -1   5  -4 162.292 10.3158   1
   2  -5   4 75.6494 8.68593   1
  -2  -5  -4 78.1612 9.63447   1
  -2   5  -4 72.0876 7.27389   1
   2   5   4 62.0073 7.26878   3
   2   5   4 74.6578 9.16490   1
  -3  -5  -4 561.725 26.7816   1
   3  -5   4 617.858 25.8303   1
   3   5   4 618.611 27.7324   1
   3   5   4 628.782 25.0999   3
  -4  -5  -4 265.806 16.0662   1
   4  -5   4 267.697 14.8408   1
   4   5   4 247.936 16.3932   1
   4   5   4 274.411 14.8291   3
   5  -5   4 65.5154 8.01517   1
   5   5   4 57.1788 7.73920   3
   5   5   4 79.3363 10.6896   1
   6  -5   4 123.390 11.2163   1
   6   5   4 102.737 11.2527   3
   6   5   4 102.702 13.1109   1
   7  -5   4 1.81494 2.82774   1
   7   5   4 5.31064 3.65317   3
   7   5   4 7.98772 5.20566   1
   8  -6  -4 85.7762 8.69990   1
   8   6  -4 117.851 14.8054   1
   8   6  -4 85.8326 10.6605   3
   7  -6  -4 10.9077 3.61202   1
   7   6  -4 16.6649 5.05184   3
   7   6  -4 19.5563 6.36293   1
   6  -6  -4 491.575 22.1118   1
   6   6  -4 555.268 27.1977   1
   6   6  -4 470.840 22.8793   3
   5  -6  -4 135.610 10.0724   1
  -5  -6   4 142.103 13.8601   1
   5   6  -4 108.005 12.3559   1
   5   6  -4 126.296 11.8170   3
  -4  -6   4 569.305 27.4407   1
   4  -6  -4 620.427 26.0673   1
   4   6  -4 628.691 28.8076   1
   4   6  -4 593.679 25.1736   3
   3  -6  -4 77.6032 9.20171   1
  -3  -6   4 71.0846 9.70906   1
   3   6  -4 60.4809 8.83868   1
   3   6  -4 70.1899 8.15589   3
  -2  -6   4 76.5362 10.0895   1
   2  -6  -4 71.1383 8.73479   1
   2   6  -4 91.9064 8.84993   3
  -2   6   4 65.4267 7.58144   1
   2   6  -4 67.8515 9.07245   1
   1  -6  -4 112.078 11.2529   1
  -1  -6   4 112.331 11.6451   1
   1   6  -4 113.032 11.1150   1
  -1   6   4 109.711 10.6508   1
   1   6  -4 125.362 8.16928   3
   0  -6  -4 121.649 12.2187   1
   0  -6   4 151.321 11.5512   1
   0   6  -4 128.695 9.94643   1
   0   6  -4 165.296 8.55202   3
   0   6   4 119.769 11.5899   1
   1  -6   4 32.6675 6.11461   1
  -1  -6  -4 45.6831 7.65532   1
  -1   6  -4 42.0962 3.80989   3
   1   6   4 47.0211 7.73582   1
  -1   6  -4 39.1244 5.99772   1
  -2  -6  -4 86.5537 10.2893   1
   2  -6   4 77.3112 9.15984   1
   2   6   4 72.2607 8.09327   3
   2   6   4 79.8795 10.0518   1
   3  -6   4 82.3024 9.71279   1
  -3  -6  -4 72.1863 10.1162   1
   3   6   4 66.1407 9.74564   1
   3   6   4 54.8257 7.26287   3
  -4  -6  -4 24.9747 6.18360   1
   4  -6   4 26.5843 5.37511   1
   4   6   4 21.5621 6.15635   1
   4   6   4 29.3866 5.88467   3
   5  -6   4 110.651 11.1659   1
   5   6   4 149.238 15.4796   1
   5   6   4 115.755 11.6198   3
   6  -6   4 19.8122 4.94957   1
   6   6   4 11.6675 4.50368   3
   6   6   4 6.85103 4.67153   1
   7  -6   4 214.004 13.7457   1
   7   6   4 180.741 19.0643   1
   7   6   4 185.533 16.4557   3
   7  -7  -4 28.1298 5.77296   1
   7   7  -4 24.8679 6.34223   3
   7   7  -4 26.6291 7.91435   1
   6  -7  -4 181.304 12.4463   1
   6   7  -4 176.198 12.8659   3
   6   7  -4 200.475 18.2864   1
   5  -7  -4 31.9820 6.17569   1
  -5  -7   4 27.8765 6.61233   1
   5   7  -4 27.5417 6.56212   1
   5   7  -4 24.9833 5.58074   3
  -4  -7   4 46.7863 8.44297   1
   4  -7  -4 45.2143 7.31130   1
   4   7  -4 48.1184 7.39671   3
   4   7  -4 46.9735 8.27960   1
   3  -7  -4 207.945 14.2029   1
  -3  -7   4 216.756 15.6522   1
   3   7  -4 225.393 13.2737   3
   3   7  -4 223.842 15.4313   1
   2  -7  -4 527.381 25.6747   1
  -2  -7   4 574.773 27.4096   1
   2   7  -4 529.420 22.9602   3
   2   7  -4 567.203 26.2469   1
  -2   7   4 540.861 25.7595   1
   1  -7  -4 130.936 13.4407   1
  -1  -7   4 173.314 15.9145   1
  -1   7   4 140.171 10.8127   1
   1   7  -4 141.229 9.13607   3
   1   7  -4 118.419 12.3129   1
   0  -7   4 130.071 13.2357   1
   0  -7  -4 175.761 15.7612   1
   0   7  -4 151.978 11.2604   1
   0   7   4 135.948 12.9608   1
   0   7  -4 135.763 8.28342   3
  -1  -7  -4 152.042 15.1754   1
   1  -7   4 143.421 13.7516   1
   1   7   4 115.710 12.6375   1
  -1   7  -4 127.307 9.69758   1
  -1   7  -4 108.666 5.66654   3
  -2  -7  -4 33.1026 7.20342   1
   2  -7   4 23.5319 5.71928   1
   2   7   4 31.2251 5.60764   3
   2   7   4 13.2462 4.56080   1
  -3  -7  -4 28.9486 7.05348   1
   3  -7   4 24.1647 5.82131   1
   3   7   4 38.6113 7.94618   1
   3   7   4 20.7913 4.99869   3
   4  -7   4 303.584 17.7127   1
  -4  -7  -4 286.052 19.0412   1
   4   7   4 328.252 20.5007   1
   4   7   4 272.550 16.5195   3
   5  -7   4 61.9688 9.04508   1
   5   7   4 50.9203 8.39064   3
   5   7   4 65.6738 10.7461   1
   6  -7   4 137.443 13.3476   1
   6   7   4 129.527 13.4943   3
   6   7   4 155.638 16.9267   1
   7  -8  -4 46.5220 7.96698   1
   7   8  -4 47.5538 10.3738   1
   7   8  -4 46.1092 8.66065   3
   6  -8  -4 105.886 11.6166   1
   6   8  -4 104.605 14.3489   1
   6   8  -4 93.4342 11.2444   3
   5  -8  -4 7.15451 3.86891   1
   5   8  -4 12.5768 5.62166   1
   5   8  -4 14.7861 4.54083   3
  -4  -8   4 332.588 20.7037   1
   4  -8  -4 299.231 17.9685   1
   4   8  -4 294.957 19.6143   1
   4   8  -4 257.957 16.1470   3
   3  -8  -4 323.649 19.3083   1
  -3  -8   4 311.240 20.5373   1
   3   8  -4 326.835 20.1607   1
   3   8  -4 321.299 17.2124   3
  -2  -8   4 124.007 14.2127   1
   2  -8  -4 143.407 14.4327   1
   2   8  -4 146.866 10.3329   3
   2   8  -4 152.854 15.4892   1
  -1  -8   4 8.28169 4.36739   1
   1  -8  -4 8.63161 4.54822   1
  -1   8   4 17.1595 4.86684   1
   1   8  -4 7.75344 3.97981   1
   1   8  -4 5.70270 2.53687   3
   0  -8  -4 101.642 12.2776   1
   0  -8   4 87.2896 11.5283   1
   0   8  -4 94.2860 6.75593   3
   0   8  -4 100.578 11.4163   1
   0   8   4 94.1750 11.2936   1
   1  -8   4 303.080 18.8831   1
  -1  -8  -4 260.393 18.4481   1
   1   8   4 282.936 18.1543   1
  -2  -8  -4 175.084 17.2555   1
   2  -8   4 191.296 14.4926   1
   2   8   4 150.393 15.6354   1
   2   8   4 160.621 11.5153   3
  -3  -8  -4 39.5047 8.35688   1
   3  -8   4 51.9518 8.97901   1
   3   8   4 44.4572 7.50722   3
   3   8   4 37.7967 8.35222   1
   4  -8   4 79.6746 10.9573   1
   4   8   4 81.7017 10.8103   3
   4   8   4 97.3219 13.2970   1
   5  -8   4 59.9608 9.38074   1
   5   8   4 74.4398 12.2704   1
   5   8   4 64.3258 9.65017   3
   6  -9  -4 23.5465 6.59980   1
   6   9  -4 12.6123 5.36092   3
   6   9  -4 33.7428 9.21919   1
   5  -9  -4 4.41198 3.55095   1
   5   9  -4 2.50477 3.21113   3
   5   9  -4 6.14783 5.13077   1
  -4  -9   4 3.25953 4.69516   1
   4  -9  -4 11.6604 4.83906   1
   4   9  -4 1.83247 4.25654   1
   4   9  -4 6.93027 3.88272   3
  -3  -9   4 4.91495 4.47671   1
   3  -9  -4 10.7468 4.51057   1
   3   9  -4 10.1460 4.13871   3
   3   9  -4 2.80982 3.52513   1
   2  -9  -4 129.421 14.7605   1
  -2  -9   4 139.104 15.4476   1
   2   9  -4 133.922 14.5312   1
   2   9  -4 139.266 12.7483   3
  -1  -9   4 11.0817 5.62787   1
   1  -9  -4 14.2311 5.72634   1
   1   9  -4 7.46185 4.03666   1
   1   9  -4 7.57882 3.04492   3
   0  -9   4 551.315 29.0116   1
   0  -9  -4 524.287 28.9168   1
   0   9   4 561.852 28.2910   1
   0   9  -4 551.733 21.2344   3
  -1  -9  -4 29.5223 7.48249   1
   1  -9   4 36.9771 8.16471   1
   1   9   4 35.6322 7.98910   1
  -2  -9  -4 71.3058 11.5714   1
   2  -9   4 69.7184 10.7149   1
   2   9   4 85.2658 12.4205   1
   3  -9   4 28.2403 7.44721   1
  -3  -9  -4 29.7850 8.12196   1
   3   9   4 27.7654 8.01682   1
   3   9   4 34.8666 7.07478   3
   4  -9   4 41.5857 8.06630   1
   4   9   4 40.1344 7.53869   3
   4   9   4 56.5751 11.6953   1
  -4 -10   4 8.98305 5.11594   1
   4 -10  -4 4.31873 3.91836   1
   4  10  -4 2.88283 4.70233   1
   4  10  -4 12.0816 5.07148   3
   3 -10  -4 110.364 14.2823   1
  -3 -10   4 92.1787 14.7158   1
   3  10  -4 108.090 11.9166   3
   3  10  -4 101.032 13.9180   1
  -2 -10   4 30.6974 8.67548   1
   2 -10  -4 13.4143 5.55205   1
   2  10  -4 11.8413 5.51075   1
   2  10  -4 14.8359 4.42806   3
  -1 -10   4 155.069 17.6228   1
   1 -10  -4 165.199 17.7493   1
   1  10  -4 128.943 9.45838   3
   0 -10  -4 11.7172 5.70406   1
   0 -10   4 9.13461 5.29894   1
  -1 -10  -4 3.86255 4.48067   1
   1 -10   4 0.35830 3.55485   1
   2 -10   4 8.00302 4.85197   1
  -2 -10  -4 -0.4687 4.81226   1
   2  10   4 7.72044 5.16645   1
   3 -10   4 102.839 14.1209   1
  -3 -10  -4 71.1951 12.6055   1
   3  10   4 81.6421 12.9836   1
  -2 -11   4 35.2395 10.4156   1
   2 -11  -4 40.3260 9.35833   1
   2  11  -4 31.5189 6.38422   3
  -1 -11   4 17.4576 7.52141   1
   1 -11  -4 10.0840 5.52605   1
   0 -11  -4 7.72100 5.78820   1
   0 -11   4 7.20329 5.66410   1
   9   0  -5 70.6582 8.84626   1
   8   0  -5 494.654 22.7512   1
   7   0  -5 144.268 10.4923   1
   6   0  -5 174.291 11.3344   1
   5   0  -5 87.0679 8.66162   1
  -5   0   5 83.9380 5.75990   1
   5   0  -5 89.6908 8.70046   1
   4   0  -5 45.5471 6.29364   1
  -4   0   5 50.6232 5.77751   1
  -3   0   5 1668.28 56.0034   1
   3   0  -5 1779.96 57.5717   1
  -2   0   5 367.293 16.3283   1
   2   0  -5 325.172 16.0667   1
   1   0  -5 740.811 28.0536   1
  -1   0   5 705.627 27.7129   1
   0   0   5 13.9230 3.60462   1
   0   0  -5 12.7895 3.42725   1
   1   0   5 1883.72 62.2235   1
  -1   0  -5 1872.31 61.5969   1
  -2   0  -5 2672.24 84.2082   1
   2   0   5 2668.65 85.2546   1
  -3   0  -5 3.49198 2.34072   1
   3   0   5 1.48616 1.95710   1
   4   0   5 5.56839 2.81419   1
   5   0   5 37.1611 6.37122   1
   5   0   5 44.3750 5.44966   3
   6   0   5 195.812 13.2077   1
   6   0   5 187.148 10.8982   3
   7   0   5 11.9095 4.34711   1
   8   0   5 33.5097 6.97628   1
   9  -1  -5 7.25313 3.78613   1
   9   1  -5 10.5989 4.55834   1
   8  -1  -5 47.1834 6.91766   1
   8   1  -5 46.1332 7.25480   1
   7  -1  -5 390.499 18.5283   1
   7   1  -5 386.961 19.5159   1
   6  -1  -5 25.4987 4.74950   1
   6   1  -5 23.6922 5.02110   1
   5  -1  -5 58.5278 6.92567   1
   5  -1  -5 52.1310 6.71304   1
  -5  -1   5 39.5982 5.25743   1
   5   1  -5 64.0467 7.62808   1
   4  -1  -5 93.6039 9.06212   1
  -4  -1   5 111.497 7.82686   1
   4   1  -5 118.505 8.84229   1
  -3  -1   5 435.342 18.6616   1
   3  -1  -5 425.542 18.9305   1
  -3   1   5 403.800 17.6164   1
   3   1  -5 429.095 19.2777   1
  -2  -1   5 1375.56 46.5179   1
   2  -1  -5 1391.37 46.8534   1
  -2   1   5 1326.31 45.7670   1
   2   1  -5 1340.47 46.8309   1
  -1  -1   5 1205.34 42.5016   1
   1  -1  -5 1236.04 42.7619   1
  -1   1   5 1223.09 42.6495   1
   1   1  -5 1211.26 42.6612   1
   0  -1   5 371.723 17.5524   1
   0  -1  -5 367.260 17.4004   1
   0   1  -5 390.555 17.5603   1
   0   1   5 369.682 17.5924   1
   1  -1   5 22.3400 4.48311   1
  -1  -1  -5 34.9916 5.32411   1
  -1   1  -5 30.6647 4.91853   1
   1   1   5 31.5753 5.20452   1
   2  -1   5 54.2873 7.11540   1
  -2  -1  -5 48.6233 6.57001   1
   2   1   5 46.1875 6.60386   1
  -2   1  -5 50.0739 3.33199   3
  -2   1  -5 57.4664 6.52807   1
  -3  -1  -5 62.9067 7.37052   1
   3  -1   5 69.1622 8.03269   1
  -3  -1  -5 69.7696 3.63948   3
  -3   1  -5 59.2501 6.52923   1
   3   1   5 63.3316 7.86927   1
  -4  -1  -5 92.1636 8.65327   1
   4  -1   5 84.0740 9.26829   1
   4   1   5 83.5281 7.92096   3
   4   1   5 72.7689 8.76344   1
   5  -1   5 405.823 19.5763   1
   5   1   5 401.639 20.3350   1
   5   1   5 377.772 17.3424   3
   6  -1   5 3.02172 2.62093   1
   6  -1   5 2.60860 1.99556   3
   6   1   5 -1.9176 2.26951   1
   6   1   5 8.16274 3.07006   3
   7  -1   5 3.61796 3.19616   1
   7   1   5 7.52881 3.99292   1
   7   1   5 -0.8466 2.18559   3
   8  -1   5 40.1652 7.41562   1
   8   1   5 42.0518 8.24054   1
   9  -2  -5 33.0182 5.80984   1
   9   2  -5 25.0808 6.25654   1
   8  -2  -5 26.7132 5.24887   1
   8   2  -5 20.0830 5.40781   1
   7  -2  -5 169.923 11.0335   1
   7   2  -5 185.747 12.9049   1
   6  -2  -5 50.8396 6.64304   1
   6   2  -5 48.6305 7.48191   1
   5  -2  -5 1641.07 56.1445   1
   5  -2  -5 1721.27 56.8804   1
  -5  -2   5 1671.30 56.0993   1
   5   2  -5 1796.98 59.0453   1
   4  -2  -5 64.2965 7.27016   1
   4  -2  -5 70.6007 7.65851   1
  -4  -2   5 49.5254 6.51405   1
   4   2  -5 57.1732 7.39550   1
  -4   2   5 63.4722 5.75998   1
   3  -2  -5 57.1000 7.02745   1
   3  -2  -5 68.0499 7.58825   1
  -3  -2   5 56.2053 6.81404   1
  -3   2   5 55.8619 6.07436   1
   3   2  -5 67.5787 8.08017   1
  -2  -2   5 507.389 21.6561   1
   2  -2  -5 470.694 21.1809   1
   2  -2  -5 512.249 21.5450   1
  -2   2   5 491.410 20.7904   1
   2   2  -5 517.812 22.0904   1
   1  -2  -5 263.974 14.1569   1
  -1  -2   5 275.705 14.4114   1
   1  -2  -5 279.524 14.5172   1
  -1   2   5 268.784 14.1222   1
   1   2  -5 268.986 14.2039   1
   0  -2  -5 93.8415 9.58905   1
   0  -2  -5 81.8567 9.02661   1
   0  -2   5 78.6969 8.33123   1
   0   2   5 66.6033 7.67299   1
   0   2  -5 85.8100 8.83898   1
  -1  -2  -5 504.545 22.2877   1
  -1  -2  -5 469.025 21.8527   1
   1  -2   5 515.117 22.1558   1
   1   2   5 503.597 22.2721   1
  -1   2  -5 526.590 18.4346   3
  -1   2  -5 528.648 21.5669   1
  -2  -2  -5 238.683 13.4345   1
   2  -2   5 229.340 13.1280   1
  -2   2  -5 235.757 8.10168   3
   2   2   5 235.328 13.6602   1
  -2   2  -5 216.514 7.99563   3
  -2   2  -5 230.075 11.9521   1
  -3  -2  -5 661.796 27.0668   1
   3  -2   5 642.838 27.1799   1
   3   2   5 645.267 27.8034   1
   3   2   5 686.267 25.2908   3
   4  -2   5 50.4766 7.07380   1
  -4  -2  -5 45.5982 6.74265   1
   4   2   5 56.8364 6.85559   3
   4   2   5 60.4120 8.18916   1
   5  -2   5 49.5176 7.07446   1
   5   2   5 30.7342 6.35194   1
   5   2   5 47.4697 6.51923   3
   6  -2   5 83.2532 9.83248   1
   6   2   5 74.0758 8.38363   3
   6   2   5 71.2534 9.67476   1
   7  -2   5 26.7916 6.13068   1
   7   2   5 29.2715 5.77646   3
   7   2   5 16.8149 5.46675   1
   9  -3  -5 32.9323 5.86642   1
   9   3  -5 42.4642 8.14752   1
   8  -3  -5 88.1013 9.04351   1
   8   3  -5 97.2547 11.6035   1
   7  -3  -5 110.636 10.0246   1
   7   3  -5 87.7376 10.8296   1
   6  -3  -5 93.4283 9.30075   1
   6   3  -5 98.2843 11.0199   1
  -5  -3   5 2.34566 2.26509   1
   5  -3  -5 3.87721 2.39489   1
   5  -3  -5 -0.8741 1.92521   1
   5   3  -5 -1.0336 2.25390   1
   4  -3  -5 194.165 11.2404   1
   4  -3  -5 159.505 10.3179   1
  -4  -3   5 179.925 11.5520   1
  -4   3   5 168.040 8.69525   1
   4   3  -5 165.487 11.5548   1
  -3  -3   5 66.4962 8.01662   1
   3  -3  -5 68.1515 7.61107   1
  -3   3   5 66.6052 6.82750   1
   3   3  -5 64.5142 7.87489   1
   2  -3  -5 185.655 11.7448   1
  -2  -3   5 207.820 12.6208   1
   2   3  -5 202.352 12.3758   1
  -2   3   5 196.859 11.4358   1
   1  -3  -5 649.864 26.7223   1
  -1  -3   5 655.307 26.9280   1
   1   3  -5 641.760 26.4544   1
  -1   3   5 654.021 26.3501   1
   0  -3   5 82.6518 9.06285   1
   0  -3  -5 87.8091 9.04818   1
   0   3  -5 86.8613 8.68568   1
   0   3  -5 86.0233 5.92102   3
   0   3   5 78.8339 8.40905   1
   1  -3   5 2.82509 2.25916   1
  -1  -3  -5 4.05193 2.74086   1
  -1   3  -5 5.65954 2.39811   1
   1   3   5 1.42418 1.92529   1
  -1   3  -5 4.36041 1.57252   3
   2  -3   5 444.830 20.1767   1
  -2  -3  -5 421.243 20.2567   1
  -2  -3  -5 440.824 20.6470   1
   2   3   5 445.964 20.9595   1
  -2   3  -5 404.821 18.1749   1
  -3  -3  -5 333.205 17.6863   1
   3  -3   5 348.094 17.4073   1
  -3  -3  -5 341.308 17.7527   1
   3   3   5 339.739 18.3158   1
   3   3   5 317.378 15.5587   3
  -3   3  -5 341.574 14.6627   1
   4  -3   5 74.6698 8.79289   1
  -4  -3  -5 67.5933 8.47386   1
   4   3   5 68.7050 7.67997   3
   4   3   5 66.2443 8.94519   1
   5  -3   5 178.159 11.9055   1
   5   3   5 138.363 13.6433   1
   5   3   5 164.676 10.8974   3
   6  -3   5 353.468 18.8825   1
   6   3   5 353.247 20.6907   1
   6   3   5 374.172 18.3520   3
   7  -3   5 3.69672 3.20551   1
   7   3   5 10.2831 4.68099   1
   7   3   5 10.9959 4.20203   3
   9  -4  -5 0.66881 2.66789   1
   9   4  -5 -0.2922 3.12404   1
   9   4  -5 -0.5228 2.66736   3
   8  -4  -5 27.9359 5.49694   1
   8   4  -5 39.8319 7.97142   1
   7  -4  -5 114.549 10.6015   1
   7  -4  -5 110.155 10.2842   1
   7   4  -5 103.567 12.1521   1
   6  -4  -5 42.4789 6.25126   1
   6   4  -5 43.8302 7.94889   1
  -5  -4   5 290.711 16.2900   1
   5  -4  -5 302.504 15.6445   1
   5   4  -5 298.375 17.5205   1
  -4  -4   5 15.3128 4.70320   1
   4  -4  -5 15.0050 3.82481   1
   4   4  -5 5.21331 3.08700   1
  -3  -4   5 38.8182 6.61044   1
   3  -4  -5 27.2052 5.12580   1
  -3   4   5 32.3932 4.98457   1
   3   4  -5 27.4884 5.57880   1
   2  -4  -5 406.923 19.5456   1
  -2  -4   5 422.611 20.3130   1
   2   4  -5 396.432 17.3922   3
  -2   4   5 388.018 18.4943   1
   2   4  -5 407.422 20.0243   1
   1  -4  -5 342.686 17.5642   1
  -1  -4   5 325.400 17.5781   1
   1   4  -5 335.106 17.4009   1
  -1   4   5 335.566 16.8974   1
   1   4  -5 344.167 15.0290   3
   0  -4  -5 419.869 20.3615   1
   0  -4   5 421.161 20.1833   1
   0   4  -5 384.009 18.8758   1
   0   4   5 434.811 20.2684   1
   0   4  -5 412.009 16.5891   3
  -1  -4  -5 339.028 18.1308   1
   1  -4   5 330.384 17.4704   1
  -1   4  -5 343.101 16.6142   1
   1   4   5 367.351 18.5591   1
  -1   4  -5 347.002 13.3856   3
  -2  -4  -5 160.534 11.7139   1
   2  -4   5 153.515 11.0843   1
  -2   4  -5 145.851 9.41672   1
   2   4   5 172.498 12.1080   1
  -3  -4  -5 101.841 11.0848   1
   3  -4   5 91.2205 9.93386   1
   3   4   5 80.0431 9.77889   1
   3   4   5 80.0740 8.20200   3
   4  -4   5 106.577 10.6595   1
  -4  -4  -5 97.6197 10.9114   1
  -4  -4  -5 76.0533 9.75775   1
   4   4   5 104.902 12.2291   1
   4   4   5 127.051 11.3366   3
   5  -4   5 86.9159 9.81809   1
   5   4   5 57.6992 7.69273   3
   5   4   5 86.6807 11.0493   1
   6  -4   5 17.2518 4.93616   1
   6   4   5 26.8133 6.84711   1
   6   4   5 22.7771 5.44317   3
   7  -4   5 12.7063 4.46837   1
   7   4   5 9.28773 4.04499   3
   7   4   5 23.6494 7.03108   1
   8  -5  -5 45.9016 7.22774   1
   8   5  -5 48.5122 9.63398   1
   8   5  -5 30.8106 6.39701   3
   7  -5  -5 78.8613 8.78773   1
   7   5  -5 89.2993 12.1891   1
   7   5  -5 89.8897 10.1923   3
   6  -5  -5 94.9463 9.68493   1
   6   5  -5 92.8259 11.7231   1
   6   5  -5 65.8140 8.26176   3
  -5  -5   5 274.114 16.5793   1
   5  -5  -5 283.369 15.5364   1
   5   5  -5 272.323 15.0977   3
   5   5  -5 276.025 17.4944   1
   4  -5  -5 60.8014 8.01195   1
  -4  -5   5 83.1381 10.0986   1
   4   5  -5 56.9045 7.11043   3
   4   5  -5 69.8978 9.47051   1
  -3  -5   5 0.33325 2.07580   1
   3  -5  -5 1.75284 2.59701   1
   3   5  -5 1.55498 2.42093   1
   3   5  -5 5.03706 2.51387   3
  -3   5   5 5.04515 2.51826   1
  -2  -5   5 51.1706 7.91223   1
   2  -5  -5 47.5148 7.21802   1
   2   5  -5 43.8135 7.10670   1
   2   5  -5 40.9402 5.68072   3
  -2   5   5 54.0540 7.07775   1
  -1  -5   5 23.3028 5.36042   1
   1  -5  -5 22.0723 5.46019   1
   1   5  -5 22.4167 5.26592   1
  -1   5   5 15.5006 4.12685   1
   1   5  -5 15.6161 3.49993   3
   0  -5  -5 7.74200 4.02989   1
   0  -5   5 7.44550 3.52655   1
   0   5  -5 9.67310 2.44398   3
   0   5  -5 6.34626 2.86802   1
   0   5   5 7.25051 3.39730   1
   1  -5   5 414.864 20.8414   1
  -1  -5  -5 449.472 22.2369   1
  -1   5  -5 403.248 15.3235   3
   1   5   5 405.562 20.9508   1
  -1   5  -5 438.156 19.5156   1
   2  -5   5 17.1704 4.45243   1
  -2  -5  -5 20.1708 5.63453   1
  -2   5  -5 27.2191 4.88354   1
   2   5   5 29.1613 6.25473   1
   3  -5   5 257.865 15.2182   1
  -3  -5  -5 246.765 15.8984   1
   3   5   5 248.004 16.1162   1
   3   5   5 233.164 13.6549   3
   4  -5   5 277.526 16.1936   1
  -4  -5  -5 249.223 16.4483   1
   4   5   5 284.717 15.7093   3
   4   5   5 261.591 17.4699   1
   5  -5   5 174.679 12.5199   1
   5   5   5 148.045 15.2963   1
   5   5   5 135.361 12.9008   3
   6  -5   5 2.70105 3.16281   1
   6   5   5 4.85486 3.67441   3
   6   5   5 8.38753 4.74437   1
   7  -5   5 46.5534 7.66814   1
   7   5   5 46.3510 8.27713   3
   7   5   5 42.3309 9.11475   1
   8  -6  -5 135.617 12.1362   1
   8   6  -5 144.378 16.6940   1
   8   6  -5 138.689 13.9507   3
   7  -6  -5 153.648 11.4682   1
   7   6  -5 164.623 17.1135   1
   7   6  -5 155.018 14.6492   3
   6  -6  -5 70.1337 9.07407   1
   6   6  -5 83.2989 11.5835   1
   6   6  -5 84.2151 10.0553   3
  -5  -6   5 83.9388 10.9458   1
   5  -6  -5 85.1312 9.70152   1
   5   6  -5 73.7965 10.5940   1
   5   6  -5 89.0390 10.2106   3
   4  -6  -5 324.327 17.7550   1
  -4  -6   5 307.517 18.7820   1
   4   6  -5 295.487 18.6257   1
   4   6  -5 327.420 16.8593   3
  -3  -6   5 32.0008 7.03319   1
   3  -6  -5 27.5400 5.71040   1
   3   6  -5 32.2338 6.53265   1
   3   6  -5 33.1776 5.55031   3
  -2  -6   5 23.1130 5.88258   1
   2  -6  -5 26.8621 5.86545   1
   2   6  -5 17.9462 5.18466   1
  -2   6   5 22.1316 4.80114   1
   2   6  -5 21.4899 4.46012   3
  -1  -6   5 38.2949 7.27400   1
   1  -6  -5 38.5439 7.11928   1
  -1   6   5 31.8830 6.05772   1
   1   6  -5 32.7670 6.16272   1
   1   6  -5 21.1491 4.11675   3
   0  -6  -5 129.339 13.3877   1
   0  -6   5 133.749 13.2559   1
   0   6  -5 153.664 8.77100   3
   0   6   5 170.157 12.2249   1
   0   6  -5 153.016 11.3799   1
   1  -6   5 281.363 16.9790   1
  -1  -6  -5 302.749 18.1082   1
   1   6   5 264.722 16.6104   1
  -1   6  -5 265.801 10.8619   3
  -1   6  -5 247.372 14.5333   1
  -2  -6  -5 250.444 16.8836   1
   2  -6   5 257.165 15.9433   1
   2   6   5 229.232 15.7631   1
   3  -6   5 304.586 17.7615   1
  -3  -6  -5 321.486 19.3924   1
   3   6   5 287.703 16.2699   3
   3   6   5 319.600 19.4185   1
   4  -6   5 82.2178 10.2839   1
   4   6   5 75.4895 9.78637   3
   4   6   5 60.2457 10.1137   1
   5  -6   5 70.2637 9.48058   1
   5   6   5 58.0335 10.2477   1
   5   6   5 66.5057 9.51890   3
   6  -6   5 13.2708 4.61785   1
   6   6   5 17.9060 5.18935   3
   6   6   5 22.2267 7.35665   1
   7  -7  -5 22.2979 5.65752   1
   7   7  -5 9.50301 4.40383   3
   7   7  -5 18.5973 6.54846   1
   6  -7  -5 183.611 13.4980   1
   6   7  -5 195.014 16.6664   3
   6   7  -5 193.258 19.2142   1
   5  -7  -5 11.1779 4.27204   1
   5   7  -5 9.09153 3.73058   3
   5   7  -5 5.17729 4.16786   1
  -4  -7   5 104.607 13.2100   1
   4  -7  -5 120.639 12.8129   1
   4   7  -5 105.670 13.3688   1
   4   7  -5 126.191 12.2495   3
  -3  -7   5 890.675 39.1933   1
   3  -7  -5 909.833 38.0217   1
   3   7  -5 891.044 38.8591   1
   3   7  -5 953.138 35.4574   3
   2  -7  -5 127.785 13.1671   1
  -2  -7   5 163.481 16.3302   1
   2   7  -5 130.878 13.5173   1
   2   7  -5 126.423 11.2568   3
  -1  -7   5 18.3091 5.45835   1
   1  -7  -5 19.5754 5.86385   1
   1   7  -5 15.8570 3.77885   3
  -1   7   5 19.7604 5.30181   1
   1   7  -5 22.4940 5.58207   1
   0  -7   5 260.087 16.9297   1
   0  -7  -5 213.419 15.7744   1
   0   7   5 214.609 14.8137   1
   0   7  -5 205.442 10.9463   3
   0   7  -5 209.914 14.0215   1
   1  -7   5 34.0493 7.39962   1
  -1  -7  -5 19.4982 5.93408   1
   1   7   5 19.2981 5.57752   1
  -1   7  -5 27.5286 3.13635   3
  -2  -7  -5 92.6084 12.1141   1
   2  -7   5 115.317 12.9659   1
   2   7   5 93.7491 12.4820   1
  -3  -7  -5 70.2881 10.8035   1
   3  -7   5 64.1277 9.65561   1
   3   7   5 66.2387 8.76587   3
   3   7   5 48.0118 9.04359   1
   4  -7   5 26.1250 6.45147   1
   4   7   5 24.7011 5.78114   3
   4   7   5 18.2180 6.14521   1
   5  -7   5 29.1830 6.73437   1
   5   7   5 43.9054 7.79931   3
   5   7   5 35.3153 8.58467   1
   6   7   5 113.794 13.5279   3
   6   7   5 127.972 16.3653   1
   6  -8  -5 101.840 12.1805   1
   6   8  -5 103.156 14.6535   1
   6   8  -5 115.362 13.1299   3
   5  -8  -5 102.103 12.4027   1
   5   8  -5 135.318 14.2078   3
   5   8  -5 116.820 14.6609   1
   4  -8  -5 26.0059 6.48578   1
  -4  -8   5 23.4291 7.05446   1
   4   8  -5 39.4287 7.00372   3
   4   8  -5 30.6674 7.67577   1
  -3  -8   5 33.1372 7.89005   1
   3  -8  -5 29.7605 6.93731   1
   3   8  -5 27.3777 7.11403   1
   3   8  -5 32.5907 6.23412   3
   2  -8  -5 8.43357 4.65964   1
  -2  -8   5 1.84660 3.63323   1
   2   8  -5 5.30221 2.83512   3
   2   8  -5 5.00961 3.80572   1
  -1  -8   5 123.145 14.6943   1
   1  -8  -5 109.143 13.2078   1
   1   8  -5 114.641 13.1437   1
   1   8  -5 125.037 8.94475   3
   0  -8   5 79.1201 11.3792   1
   0  -8  -5 68.9922 10.6584   1
   0   8   5 62.1772 9.35788   1
   0   8  -5 98.8268 6.83896   3
   1  -8   5 209.333 16.1967   1
  -1  -8  -5 229.631 20.6810   1
   1   8   5 221.729 19.6205   1
   2  -8   5 12.4595 5.05433   1
  -2  -8  -5 17.4569 6.28847   1
   2   8   5 6.40079 4.82942   1
   3  -8   5 86.2756 11.5524   1
  -3  -8  -5 58.6876 10.4061   1
   3   8   5 62.5115 10.5158   1
   4  -8   5 25.3579 6.51324   1
   4   8   5 18.3853 6.64200   1
   4   8   5 21.9890 5.82275   3
   5  -8   5 17.4361 5.81275   1
   5   8   5 11.5325 4.62762   3
   5   8   5 16.4579 7.12745   1
   5  -9  -5 9.54730 4.51986   1
   5   9  -5 19.6819 6.98397   1
   5   9  -5 13.3408 4.80250   3
   4  -9  -5 30.9889 7.56482   1
  -4  -9   5 26.5039 8.24964   1
   4   9  -5 30.7772 7.98744   1
   4   9  -5 32.0767 6.85629   3
  -3  -9   5 194.458 19.2971   1
   3  -9  -5 168.688 16.7629   1
   3   9  -5 158.053 16.5625   1
   3   9  -5 116.282 11.9409   3
  -2  -9   5 23.8988 7.37163   1
   2  -9  -5 31.6700 7.56163   1
   2   9  -5 21.4292 4.96269   3
   2   9  -5 27.5194 7.03488   1
   1  -9  -5 57.4015 10.4619   1
  -1  -9   5 65.3178 11.4440   1
   1   9  -5 49.9061 6.86441   3
   0  -9   5 111.059 14.4708   1
   0  -9  -5 104.072 13.6981   1
   0   9  -5 99.9118 7.09765   3
   1  -9   5 86.5394 12.6658   1
  -1  -9  -5 69.4196 11.8026   1
   1   9   5 74.5530 11.6141   1
   2  -9   5 29.7828 7.69204   1
  -2  -9  -5 19.6087 7.62585   1
   2   9   5 17.0985 6.28851   1
   3  -9   5 50.6385 10.0965   1
  -3  -9  -5 81.4803 13.4508   1
   3   9   5 69.7671 12.0635   1
   4  -9   5 145.830 16.0692   1
   4   9   5 155.890 15.6110   3
   4   9   5 200.602 21.5024   1
   4  10  -5 50.6787 11.5684   1
   4  10  -5 32.3409 6.95124   3
   3 -10  -5 105.311 14.3147   1
  -3 -10   5 115.994 16.2080   1
   3  10  -5 100.481 11.4658   3
   3  10  -5 103.802 14.2630   1
  -2 -10   5 70.0125 12.2420   1
   2 -10  -5 71.7505 12.2321   1
   2  10  -5 74.1755 9.12182   3
   1 -10  -5 80.4329 13.2639   1
  -1 -10   5 70.5230 12.4990   1
   1  10  -5 87.0243 8.96154   3
   0 -10   5 49.5346 10.8656   1
   0 -10  -5 57.2447 11.4891   1
   1 -10   5 23.4654 7.41566   1
  -1 -10  -5 30.4070 8.63473   1
   2 -10   5 98.4806 14.1390   1
  -2 -10  -5 88.6892 13.5851   1
   2  10   5 101.477 14.7096   1
   9   0  -6 33.9748 7.07569   1
   8   0  -6 36.1249 6.93748   1
   7   0  -6 -0.2389 2.03823   1
   6   0  -6 40.8134 6.81492   1
   5   0  -6 9.73281 3.66614   1
  -4   0   6 13.5168 3.59218   1
   4   0  -6 8.61641 3.56002   1
  -3   0   6 397.567 17.9962   1
   3   0  -6 338.639 18.0924   1
  -2   0   6 414.105 19.6017   1
   2   0  -6 425.812 20.2047   1
  -1   0   6 1138.65 41.4325   1
   1   0  -6 1114.94 41.3888   1
   0   0   6 -0.1664 1.45654   1
   0   0  -6 0.60737 1.91309   1
   1   0   6 11.8179 3.76434   1
  -1   0  -6 22.6512 4.84334   1
   2   0   6 65.6334 8.96286   1
  -2   0  -6 69.8004 8.36892   1
  -3   0  -6 24.3464 5.00873   1
   3   0   6 26.1372 5.77299   1
   4   0   6 34.9273 6.65934   1
   5   0   6 53.7426 8.07249   1
   6   0   6 13.9164 4.77655   1
   7   0   6 34.1985 7.19302   1
   9  -1  -6 192.146 13.4451   1
   9   1  -6 138.113 14.3337   1
   8  -1  -6 327.692 17.9518   1
   8   1  -6 321.579 18.7375   1
   7  -1  -6 86.4692 9.86922   1
   7   1  -6 106.767 11.7608   1
   6  -1  -6 20.6035 4.87794   1
   6   1  -6 10.6922 3.86689   1
   5  -1  -6 153.804 10.9217   1
  -5  -1   6 148.499 10.7100   1
   5   1  -6 147.223 11.0529   1
   4  -1  -6 122.206 11.2090   1
  -4  -1   6 101.054 9.62757   1
  -4   1   6 108.182 7.94207   1
   4   1  -6 107.428 10.7011   1
  -3  -1   6 108.228 10.5168   1
   3  -1  -6 73.9489 8.69031   1
  -3   1   6 112.239 9.98745   1
   3   1  -6 77.5530 8.92843   1
  -2  -1   6 605.845 25.5209   1
   2  -1  -6 599.226 25.9658   1
  -2   1   6 612.436 25.1771   1
   2   1  -6 582.949 25.6800   1
  -1  -1   6 853.595 33.2933   1
   1  -1  -6 854.303 33.6233   1
  -1   1   6 834.797 33.1919   1
   1   1  -6 873.247 33.6411   1
   0  -1   6 13.9869 3.89327   1
   0  -1  -6 29.2608 5.53930   1
   0   1  -6 24.6207 4.97248   1
   0   1   6 19.2844 4.49729   1
  -1  -1  -6 475.119 21.9108   1
   1  -1   6 457.645 21.7166   1
  -1   1  -6 457.011 21.0106   1
   1   1   6 455.432 21.9551   1
  -2  -1  -6 73.3324 9.02510   1
   2  -1   6 87.1796 9.96982   1
  -2   1  -6 82.3167 5.02690   3
   2   1   6 71.3652 9.05918   1
  -2   1  -6 95.0325 9.37883   1
  -3  -1  -6 1.78097 2.36190   1
   3  -1   6 1.25087 2.38775   1
   3   1   6 -1.4120 1.70305   1
  -3   1  -6 -2.2088 1.44384   1
   4  -1   6 74.8433 9.70298   1
   4   1   6 69.9160 9.20070   1
   5  -1   6 319.733 18.6079   1
   5   1   6 332.324 19.1991   1
   6  -1   6 67.6217 9.50510   1
   6   1   6 78.8195 10.5213   1
   6   1   6 82.3672 8.93252   3
   7  -1   6 41.7828 8.39053   1
   7   1   6 30.8588 5.84770   3
   7   1   6 34.2123 7.48728   1
   9  -2  -6 3.50024 3.59996   1
   9   2  -6 0.93148 2.95685   1
   8  -2  -6 31.1793 6.03355   1
   8   2  -6 30.7428 6.90263   1
   7  -2  -6 42.6026 7.04511   1
   7   2  -6 60.5050 8.95036   1
   6  -2  -6 1.86474 2.39073   1
   6   2  -6 0.44224 2.72084   1
  -5  -2   6 184.972 11.8128   1
   5  -2  -6 196.226 12.6919   1
   5   2  -6 199.009 13.6002   1
   4  -2  -6 51.7867 7.04008   1
  -4  -2   6 75.9984 8.64826   1
   4   2  -6 84.6809 9.74824   1
  -4   2   6 36.3537 5.42621   1
  -3  -2   6 630.391 26.8915   1
   3  -2  -6 648.368 26.9411   1
   3   2  -6 630.755 27.3748   1
  -3   2   6 627.356 25.5409   1
   2  -2  -6 362.466 18.3863   1
  -2  -2   6 354.179 18.2519   1
   2   2  -6 368.268 18.6180   1
  -2   2   6 369.616 18.0597   1
   1  -2  -6 113.550 11.3349   1
  -1  -2   6 115.177 11.2730   1
   1   2  -6 120.763 11.3579   1
  -1   2   6 124.359 11.5891   1
   0  -2  -6 178.424 12.1013   1
   0  -2   6 179.584 12.0698   1
   0   2   6 175.044 12.1403   1
   0   2  -6 182.461 11.8543   1
   1  -2   6 383.980 19.5577   1
  -1  -2  -6 407.136 19.8632   1
  -1   2  -6 415.243 19.2236   1
  -1   2  -6 377.763 15.4765   3
   1   2   6 385.038 19.7387   1
   2  -2   6 270.347 15.6383   1
  -2  -2  -6 251.899 15.0738   1
  -2   2  -6 251.921 9.76787   3
   2   2   6 250.311 15.3002   1
  -2   2  -6 249.977 13.8700   1
  -3  -2  -6 18.5982 4.88560   1
   3  -2   6 13.5690 4.22441   1
   3   2   6 24.7860 5.55136   1
   4  -2   6 25.8456 6.16010   1
   4   2   6 37.6474 7.18540   1
   5  -2   6 34.4396 6.75857   1
   5   2   6 25.5203 5.30132   3
   5   2   6 14.1189 4.98363   1
   6  -2   6 61.2986 9.24210   1
   6   2   6 77.5660 9.13918   3
   6   2   6 69.9061 10.6106   1
   7  -2   6 8.56540 4.60994   1
   7   2   6 6.69585 3.89409   1
   7   2   6 9.76405 3.82540   3
   9  -3  -6 20.0670 5.30537   1
   9   3  -6 16.9777 5.96471   1
   8  -3  -6 25.8898 5.98724   1
   8   3  -6 43.2114 7.91689   1
   7  -3  -6 60.8043 8.40038   1
   7   3  -6 62.2864 9.74524   1
   6  -3  -6 41.6921 6.77206   1
   6   3  -6 45.1753 8.02540   1
   5  -3  -6 266.091 15.4470   1
  -5  -3   6 263.476 15.0661   1
   5   3  -6 265.163 16.3629   1
   4  -3  -6 371.214 18.7455   1
  -4  -3   6 345.968 18.5583   1
   4  -3  -6 370.082 18.6322   1
   4   3  -6 335.148 18.8907   1
   3  -3  -6 21.5123 4.91120   1
   3  -3  -6 14.9417 4.32684   1
  -3  -3   6 14.8311 4.55557   1
   3   3  -6 8.25863 3.92677   1
  -3   3   6 23.2483 4.63459   1
   2  -3  -6 164.302 11.6785   1
  -2  -3   6 173.247 12.0666   1
   2  -3  -6 163.807 11.6999   1
  -2   3   6 156.339 11.0730   1
   2   3  -6 160.863 11.6429   1
   1  -3  -6 431.619 21.0223   1
  -1  -3   6 429.326 21.1495   1
   1  -3  -6 418.562 20.9156   1
  -1   3   6 408.672 20.5441   1
   1   3  -6 470.369 21.4718   1
   0  -3  -6 32.9919 6.29010   1
   0  -3   6 25.2552 5.55365   1
   0  -3  -6 33.1244 6.40154   1
   0   3  -6 20.8733 4.86363   1
   0   3   6 26.9951 5.60257   1
   0   3  -6 40.3384 4.99586   3
  -1  -3  -6 31.9338 6.61696   1
  -1  -3  -6 39.8875 6.93495   1
   1  -3   6 38.2553 6.81367   1
  -1   3  -6 41.2190 4.49083   3
  -1   3  -6 24.9851 5.14913   1
   1   3   6 25.9536 5.69400   1
   2  -3   6 52.4838 7.70073   1
  -2  -3  -6 48.2897 7.84946   1
  -2  -3  -6 70.4676 9.42676   1
   2   3   6 58.1848 8.61982   1
  -2   3  -6 48.3103 2.71735   3
  -2   3  -6 50.9466 6.87734   1
  -3  -3  -6 521.068 23.9461   1
   3  -3   6 469.662 23.2793   1
   3   3   6 478.323 24.3892   1
   4  -3   6 1345.19 50.7135   1
   4   3   6 1393.70 52.3733   1
   5  -3   6 62.1374 9.21624   1
   5   3   6 49.9121 8.81721   1
   5   3   6 48.5993 7.32271   3
   6  -3   6 66.7327 9.54439   1
   6   3   6 58.6446 9.89806   1
   6   3   6 57.6064 8.17422   3
   7  -3   6 12.2529 4.99587   1
   7   3   6 15.9805 6.31892   1
   7   3   6 16.9109 5.19345   3
   8  -4  -6 18.2804 5.43888   1
   8   4  -6 13.1165 4.93512   1
   7  -4  -6 41.1946 6.90228   1
   7   4  -6 26.2243 6.73033   1
   6  -4  -6 220.550 14.0806   1
   6  -4  -6 208.753 13.7690   1
   6   4  -6 212.566 15.4770   1
   5  -4  -6 263.517 15.5849   1
   5  -4  -6 263.746 15.5568   1
  -5  -4   6 266.458 16.1302   1
   5   4  -6 292.865 17.9893   1
   4  -4  -6 78.6104 9.41360   1
  -4  -4   6 74.8379 9.68771   1
   4   4  -6 52.9033 8.57842   1
  -3  -4   6 4.84475 3.28285   1
   3  -4  -6 2.66393 2.74042   1
  -3   4   6 4.37324 2.47536   1
   3   4  -6 2.02664 2.97752   1
   2  -4  -6 101.378 10.7263   1
  -2  -4   6 97.7156 10.7471   1
   2   4  -6 113.007 11.9249   1
   2   4  -6 102.467 9.06919   3
  -2   4   6 99.6622 10.3191   1
   1  -4  -6 274.123 16.5140   1
  -1  -4   6 289.343 16.6747   1
   1   4  -6 267.219 13.5527   3
  -1   4   6 276.409 15.9678   1
   1   4  -6 290.268 16.3543   1
   0  -4   6 55.9346 8.34630   1
   0  -4  -6 70.9418 9.41685   1
   0   4  -6 67.4088 8.59382   1
   0   4   6 51.7569 8.02832   1
   0   4  -6 77.5506 7.27167   3
  -1  -4  -6 92.4334 10.6867   1
   1  -4   6 81.9091 9.84102   1
  -1   4  -6 74.3059 5.29627   3
  -1   4  -6 91.5133 9.83179   1
   1   4   6 86.1070 10.7870   1
  -2  -4  -6 639.468 29.0207   1
   2  -4   6 657.371 28.8670   1
  -2  -4  -6 669.694 29.5248   1
   2   4   6 657.283 29.7364   1
  -2   4  -6 619.520 26.0854   1
   3  -4   6 616.256 28.6071   1
  -3  -4  -6 694.004 30.1518   1
  -3  -4  -6 642.779 29.3228   1
   3   4   6 643.319 30.0838   1
   4  -4   6 91.0975 10.6094   1
   4   4   6 103.843 12.4731   1
   5  -4   6 23.4165 5.72777   1
   5   4   6 11.3529 4.20366   3
   5   4   6 20.0974 6.50893   1
   6  -4   6 55.8107 8.82838   1
   6   4   6 50.2028 9.92898   1
   6   4   6 55.4232 8.14294   3
   8  -5  -6 5.56559 3.79812   1
   8   5  -6 4.33490 3.69915   1
   8   5  -6 7.15110 4.24710   3
   7  -5  -6 34.2878 6.65225   1
   7  -5  -6 32.3703 6.58163   1
   7   5  -6 20.7208 6.77681   1
   7   5  -6 30.4810 6.43562   3
   6  -5  -6 38.3205 6.92178   1
   6   5  -6 35.0015 7.70815   1
   6   5  -6 32.9653 6.30490   3
  -5  -5   6 61.9309 10.7785   1
   5  -5  -6 65.2679 8.95650   1
   5   5  -6 75.7421 9.21475   3
   5   5  -6 56.5799 9.44284   1
   4  -5  -6 26.4838 5.57651   1
  -4  -5   6 34.2347 7.31191   1
   4   5  -6 21.4787 4.66733   3
   4   5  -6 21.8533 6.19380   1
  -3  -5   6 71.3810 10.0274   1
   3  -5  -6 77.2572 9.88638   1
   3   5  -6 53.8131 7.06289   3
   3   5  -6 61.7413 9.23415   1
   2  -5  -6 31.9450 6.62309   1
  -2  -5   6 41.7256 8.01518   1
   2   5  -6 23.0944 5.95191   1
  -2   5   6 42.0941 7.04574   1
   2   5  -6 25.7182 5.04599   3
   1  -5  -6 48.9130 7.98346   1
  -1  -5   6 33.2750 6.82211   1
   1   5  -6 55.1053 8.13803   1
  -1   5   6 59.0614 8.65739   1
   1   5  -6 56.8432 6.61996   3
   0  -5  -6 142.949 13.9371   1
   0  -5   6 98.6000 11.3997   1
   0   5  -6 116.380 7.69229   3
   0   5   6 116.174 12.2186   1
   0   5  -6 113.170 11.2153   1
  -1  -5  -6 649.419 29.5528   1
   1  -5   6 614.568 28.7007   1
  -1   5  -6 653.053 27.1444   1
   1   5   6 651.203 29.4116   1
  -1   5  -6 604.436 21.9883   3
  -2  -5  -6 572.374 27.1454   1
   2  -5   6 552.599 26.3605   1
   2   5   6 515.414 26.5404   1
  -3  -5  -6 694.973 31.4208   1
   3  -5   6 711.956 31.1553   1
   3   5   6 647.952 31.6240   1
   4  -5   6 343.539 19.7439   1
   4   5   6 352.265 21.3223   1
   4   5   6 319.788 17.7519   3
   5  -5   6 19.8762 5.48273   1
   5   5   6 21.3809 6.63065   1
   5   5   6 23.9817 5.80061   3
   6  -5   6 8.92801 4.29821   1
   6   5   6 0.00929 3.61596   1
   6   5   6 1.88119 3.01994   3
   7  -6  -6 59.9169 8.75130   1
   7   6  -6 45.5044 7.92796   3
   7   6  -6 61.8878 10.9992   1
   6  -6  -6 48.0644 7.98275   1
   6   6  -6 55.5274 10.0385   1
   6   6  -6 37.3793 7.03378   3
   5  -6  -6 23.7010 5.96135   1
   5   6  -6 18.9759 4.85456   3
   5   6  -6 21.1635 6.44660   1
   4  -6  -6 278.358 17.3262   1
  -4  -6   6 277.108 18.2282   1
   4   6  -6 315.305 16.6624   3
   4   6  -6 268.147 18.1746   1
   3  -6  -6 323.025 19.1630   1
  -3  -6   6 303.707 19.3930   1
   3   6  -6 322.257 16.8520   3
   3   6  -6 334.886 19.8884   1
  -2  -6   6 17.7932 6.05837   1
   2  -6  -6 20.4576 5.64224   1
  -2   6   6 33.0383 6.55182   1
   2   6  -6 20.9151 4.79798   3
   2   6  -6 13.1052 4.62992   1
  -1  -6   6 81.4996 11.1111   1
   1  -6  -6 68.3256 9.76412   1
   1   6  -6 76.1841 10.3725   1
   1   6  -6 88.2143 8.79712   3
  -1   6   6 64.4496 8.95952   1
   0  -6  -6 93.3419 12.2176   1
   0  -6   6 95.0688 11.5654   1
   0   6  -6 100.295 8.46673   3
   0   6   6 97.4035 11.4998   1
   0   6  -6 100.433 11.1856   1
   1  -6   6 11.5219 4.54921   1
  -1  -6  -6 10.7810 4.93403   1
   1   6   6 9.19190 4.81541   1
  -1   6  -6 6.33173 1.95312   3
   2  -6   6 99.8220 11.6590   1
  -2  -6  -6 90.0059 11.7780   1
   2   6   6 104.558 12.6609   1
  -3  -6  -6 14.7815 5.59932   1
   3  -6   6 19.5512 5.51876   1
   3   6   6 31.1711 7.26200   1
   4  -6   6 25.0167 6.44167   1
   4   6   6 32.8766 7.87978   1
   5  -6   6 111.662 13.0166   1
   5   6   6 104.883 14.4015   1
   5   6   6 119.914 12.8912   3
   7  -7  -6 92.5344 11.2844   1
   7   7  -6 92.4039 13.9706   1
   7   7  -6 113.389 13.1077   3
   6  -7  -6 77.4239 10.3576   1
   6   7  -6 92.8132 13.7083   1
   6   7  -6 70.9129 9.91086   3
   5  -7  -6 0.20769 2.71704   1
   5   7  -6 4.99027 3.69685   3
   5   7  -6 -4.2693 3.33064   1
   4  -7  -6 47.2077 8.37506   1
  -4  -7   6 59.8201 10.6848   1
   4   7  -6 47.9013 9.17157   1
   4   7  -6 37.3571 6.87984   3
   3  -7  -6 111.444 13.0017   1
  -3  -7   6 101.773 13.6851   1
   3   7  -6 111.420 13.8359   1
   3   7  -6 119.677 11.4459   3
  -2  -7   6 18.8813 6.46905   1
   2  -7  -6 17.8655 5.47934   1
   2   7  -6 19.8063 4.69575   3
   2   7  -6 20.0451 5.89576   1
   1  -7  -6 91.1213 11.9951   1
  -1  -7   6 87.6446 12.3159   1
  -1   7   6 92.0278 11.2395   1
   1   7  -6 83.7038 11.1707   1
   1   7  -6 105.576 9.55206   3
   0  -7   6 276.595 18.5674   1
   0  -7  -6 255.294 18.4711   1
   0   7  -6 273.559 16.9266   1
   0   7   6 289.771 18.2039   1
   0   7  -6 267.665 13.0288   3
   1  -7   6 330.192 20.4814   1
  -1  -7  -6 330.835 21.1841   1
   1   7   6 312.426 19.8936   1
  -2  -7  -6 173.807 17.4061   1
   2  -7   6 168.677 16.6562   1
   2   7   6 193.963 18.4273   1
   3  -7   6 80.2383 11.2557   1
  -3  -7  -6 84.3639 12.2454   1
   3   7   6 104.468 14.0663   1
   4  -7   6 66.0034 10.3585   1
   4   7   6 75.0747 12.4876   1
   5  -7   6 9.36758 4.88638   1
   5   7   6 3.81542 3.22516   3
   5   7   6 1.14126 4.09255   1
   6  -8  -6 1.68709 3.47790   1
   6   8  -6 2.36884 3.05693   3
   6   8  -6 -1.0801 4.24397   1
   5  -8  -6 63.4395 10.1625   1
   5   8  -6 33.1791 8.57162   1
   5   8  -6 34.0978 7.20899   3
  -4  -8   6 38.7077 8.94621   1
   4  -8  -6 43.2196 8.61368   1
   4   8  -6 30.4036 6.37693   3
   4   8  -6 47.5145 9.97012   1
  -3  -8   6 69.4252 11.5656   1
   3  -8  -6 41.8293 8.25826   1
   3   8  -6 36.6611 6.56987   3
   3   8  -6 54.7595 10.3020   1
  -2  -8   6 7.63694 4.38565   1
   2  -8  -6 12.6030 5.59514   1
   2   8  -6 4.17679 3.00021   3
   2   8  -6 9.25529 5.15377   1
   1  -8  -6 66.9388 10.8801   1
  -1  -8   6 71.5434 11.0320   1
   1   8  -6 72.4537 8.22102   3
   1   8  -6 70.7076 10.6215   1
   0  -8   6 156.811 17.2712   1
   0  -8  -6 234.959 21.2037   1
   0   8   6 206.075 15.8571   1
   0   8  -6 216.053 11.1939   3
  -1  -8  -6 43.8652 9.21748   1
   1  -8   6 38.3950 8.55010   1
   1   8   6 28.8857 7.30485   1
  -2  -8  -6 14.6400 5.92404   1
   2  -8   6 14.4860 5.99429   1
   2   8   6 16.1865 6.25158   1
   3  -8   6 44.8210 9.03448   1
  -3  -8  -6 14.4587 6.47518   1
   3   8   6 15.3799 6.49836   1
   4  -8   6 18.6453 6.24309   1
   4   8   6 12.5839 6.03651   1
  -4  -9   6 18.8718 8.03801   1
   4  -9  -6 23.0897 6.95090   1
   4   9  -6 34.1685 8.89046   1
   4   9  -6 18.8419 5.35450   3
  -3  -9   6 38.0956 9.27814   1
   3  -9  -6 43.9946 9.37320   1
   3   9  -6 27.2487 5.96883   3
   3   9  -6 30.4144 8.35989   1
  -2  -9   6 105.402 14.5833   1
   2  -9  -6 77.4452 12.0985   1
   2   9  -6 68.2732 11.5299   1
   2   9  -6 89.3320 10.2774   3
   1  -9  -6 592.049 31.9254   1
  -1  -9   6 591.568 32.1034   1
   1   9  -6 583.081 24.6450   3
   0  -9  -6 28.1223 7.80729   1
   0  -9   6 17.1422 6.99543   1
  -1  -9  -6 17.5603 7.09947   1
   1  -9   6 25.2073 7.69281   1
   1   9   6 17.7032 6.74634   1
  -2  -9  -6 88.6555 14.3036   1
   2  -9   6 81.1954 12.5317   1
   2   9   6 69.9427 11.9919   1
   3  -9   6 12.5132 5.83105   1
   3   9   6 14.1273 6.95623   1
   2 -10  -6 12.2334 6.48378   1
  -2 -10   6 34.3215 10.4490   1
   2  10  -6 14.0902 4.31462   3
  -1 -10   6 151.314 18.4463   1
   1  10  -6 173.482 11.2467   3
   0 -10  -6 55.3948 11.4346   1
   0 -10   6 72.8834 12.8251   1
   9   0  -7 98.8602 12.5357   1
   8   0  -7 259.570 17.2099   1
   7   0  -7 58.4655 8.74562   1
   6   0  -7 59.0493 8.78075   1
   5   0  -7 29.7817 6.06042   1
  -4   0   7 971.817 36.6891   1
   4   0  -7 965.617 38.6866   1
   3   0  -7 0.36449 2.36913   1
  -3   0   7 -0.6201 1.83036   1
   2   0  -7 36.5524 6.89978   1
  -2   0   7 33.3275 6.10182   1
   1   0  -7 -0.2770 2.12511   1
  -1   0   7 2.32325 2.58544   1
   0   0  -7 -0.8339 2.20937   1
   0   0   7 3.98254 2.90823   1
   1   0   7 383.781 20.5924   1
  -1   0  -7 364.599 19.4715   1
  -2   0  -7 266.698 15.7432   1
   2   0   7 251.333 16.3081   1
   3   0   7 2.10494 2.65651   1
  -3   0  -7 5.31796 1.64882   3
   4   0   7 0.52572 2.67420   1
   5   0   7 5.58289 4.13918   1
   6   0   7 121.949 13.6272   1
   8  -1  -7 238.168 15.8897   1
   8   1  -7 231.828 16.4004   1
   7  -1  -7 9.68735 4.18148   1
   7   1  -7 12.2624 4.82989   1
   6  -1  -7 100.763 11.7012   1
   6   1  -7 115.198 12.7168   1
   5  -1  -7 221.795 14.9172   1
   5   1  -7 251.010 15.7743   1
  -4  -1   7 196.474 12.8644   1
   4  -1  -7 208.842 13.8964   1
   4   1  -7 181.088 13.4792   1
  -4   1   7 199.994 12.3868   1
  -3  -1   7 262.170 15.6312   1
   3  -1  -7 286.514 16.7275   1
   3   1  -7 266.312 16.3466   1
  -3   1   7 267.591 15.3438   1
  -2  -1   7 527.919 24.9511   1
   2  -1  -7 543.054 25.4878   1
  -2   1   7 570.843 25.0833   1
   2   1  -7 546.776 25.5727   1
  -1  -1   7 74.6889 9.24208   1
   1  -1  -7 73.1639 9.70344   1
  -1   1   7 77.9943 9.84825   1
   1   1  -7 96.7259 10.7330   1
   0  -1   7 47.2124 7.76283   1
   0  -1  -7 41.7044 7.19877   1
   0   1  -7 42.8005 7.01978   1
   0   1   7 41.9547 7.31733   1
  -1  -1  -7 36.7570 6.75738   1
   1  -1   7 24.3107 5.39624   1
  -1   1  -7 24.0413 5.34162   1
   1   1   7 40.1429 7.26835   1
   2  -1   7 176.366 13.2936   1
  -2  -1  -7 160.166 12.1210   1
   2   1   7 151.133 14.5596   1
  -2   1  -7 143.009 11.0381   1
  -2   1  -7 173.647 8.44108   3
   3  -1   7 237.773 15.9732   1
  -3  -1  -7 231.377 14.8724   1
   3   1   7 253.834 16.4526   1
   4  -1   7 213.260 15.2439   1
   4   1   7 198.823 14.9480   1
   5  -1   7 59.5052 9.67259   1
   5   1   7 55.5328 9.11091   1
   6  -1   7 5.53914 4.27703   1
   6   1   7 2.32938 3.77014   1
   8  -2  -7 38.9058 7.53878   1
   8   2  -7 25.2327 6.74365   1
   7  -2  -7 7.64364 3.72486   1
   7   2  -7 8.33707 4.32901   1
   6  -2  -7 170.739 12.6625   1
   6   2  -7 155.165 15.0506   1
   5  -2  -7 106.681 11.5523   1
   5   2  -7 140.709 13.9508   1
  -4  -2   7 65.4514 8.67354   1
   4  -2  -7 61.9258 8.93569   1
  -4   2   7 72.2133 9.47732   1
   4   2  -7 69.5440 9.31632   1
  -3  -2   7 217.936 14.0593   1
   3  -2  -7 188.391 13.7121   1
  -3   2   7 207.350 13.1624   1
   3   2  -7 231.569 14.9689   1
   2  -2  -7 86.7290 10.4023   1
  -2  -2   7 75.7281 9.88613   1
   2   2  -7 95.6816 11.2052   1
  -2   2   7 88.0654 10.5258   1
   1  -2  -7 128.789 12.8862   1
  -1  -2   7 121.909 12.4001   1
   1   2  -7 116.066 11.9424   1
  -1   2   7 105.376 11.3421   1
   0  -2   7 238.608 15.3033   1
   0  -2  -7 236.366 15.3847   1
   0   2  -7 214.942 14.2537   1
   0   2   7 244.171 15.5617   1
   1  -2   7 86.4458 10.4775   1
  -1  -2  -7 81.7030 10.2810   1
  -1   2  -7 77.8898 9.63789   1
   1   2   7 80.6874 10.5860   1
  -2  -2  -7 99.2779 11.5183   1
   2  -2   7 87.6071 11.0651   1
  -2   2  -7 80.3471 9.37432   1
   2   2   7 89.8342 11.0745   1
  -2   2  -7 72.4952 4.80870   3
  -3  -2  -7 25.3331 5.94861   1
   3  -2   7 23.6855 5.87448   1
   3   2   7 21.8862 5.67281   1
   4  -2   7 220.803 15.6748   1
   4   2   7 212.260 15.7856   1
   5  -2   7 311.133 19.3863   1
   5   2   7 295.152 19.5116   1
   6  -2   7 24.0183 6.39552   1
   6   2   7 18.9271 5.98901   1
   8  -3  -7 33.1200 6.83731   1
   8   3  -7 24.5567 7.13729   1
   7  -3  -7 11.9594 4.73197   1
   7   3  -7 4.06700 3.41198   1
   6  -3  -7 224.344 15.2010   1
   6   3  -7 230.552 16.2797   1
   5  -3  -7 114.060 12.0028   1
   5   3  -7 119.073 13.5314   1
  -4  -3   7 30.0525 6.38137   1
   4  -3  -7 39.9413 7.27288   1
   4   3  -7 23.2633 6.09598   1
   3  -3  -7 73.5881 9.78954   1
  -3  -3   7 72.7834 10.0593   1
   3   3  -7 89.1999 10.8785   1
  -3   3   7 84.7815 9.91493   1
   2  -3  -7 51.4362 8.30761   1
   2  -3  -7 58.1097 8.81839   1
  -2  -3   7 67.9620 9.40182   1
  -2   3   7 54.4683 8.00313   1
   2   3  -7 66.2006 9.33970   1
  -1  -3   7 121.303 12.8195   1
   1  -3  -7 141.843 13.9330   1
   1  -3  -7 149.952 14.5851   1
   1   3  -7 148.109 13.8900   1
  -1   3   7 109.551 12.0744   1
   0  -3  -7 9.27835 4.36499   1
   0  -3  -7 13.0881 4.61630   1
   0  -3   7 8.45445 3.80199   1
   0   3  -7 15.6161 3.61458   3
   0   3   7 11.5780 4.83358   1
   0   3  -7 8.71101 3.88172   1
   1  -3   7 269.985 16.7661   1
  -1  -3  -7 230.118 15.7819   1
  -1   3  -7 242.548 11.5978   3
   1   3   7 263.551 16.7072   1
  -1   3  -7 253.920 15.2758   1
   2  -3   7 83.5209 10.5220   1
  -2  -3  -7 92.6848 11.2909   1
   2   3   7 85.2047 11.1598   1
  -2   3  -7 101.273 10.4889   1
  -2   3  -7 85.3920 4.56824   3
  -3  -3  -7 98.0533 12.4481   1
   3  -3   7 85.5689 10.9796   1
   3   3   7 98.4586 12.1639   1
   4  -3   7 84.7621 11.2367   1
   4   3   7 68.8423 10.4880   1
   5  -3   7 55.0458 9.39409   1
   5   3   7 32.4657 7.73147   1
   6  -3   7 23.4067 6.88497   1
   6   3   7 23.6057 7.42562   1
   8  -4  -7 57.9032 9.34559   1
   8   4  -7 47.0040 9.48577   1
   7  -4  -7 4.26375 3.48728   1
   7   4  -7 5.37173 4.34271   1
   6  -4  -7 4.93671 3.44428   1
   6   4  -7 3.05213 3.57553   1
   5  -4  -7 6.87243 3.85106   1
   5  -4  -7 5.20094 3.48547   1
   5   4  -7 3.41447 3.32900   1
   4  -4  -7 9.74579 4.05545   1
  -4  -4   7 5.14963 4.14679   1
   4  -4  -7 6.96080 3.57220   1
   4   4  -7 1.78524 3.06845   1
   3  -4  -7 32.9025 7.01746   1
   3  -4  -7 26.2053 6.35672   1
  -3  -4   7 16.2471 4.99262   1
  -3   4   7 25.0454 5.14279   1
   3   4  -7 33.0281 6.91886   1
   2  -4  -7 295.837 17.9564   1
   2  -4  -7 278.896 17.5008   1
  -2  -4   7 288.738 18.0125   1
  -2   4   7 284.760 16.9941   1
   2   4  -7 301.990 15.3462   3
   2   4  -7 298.687 17.9237   1
   1  -4  -7 131.949 13.4823   1
   1  -4  -7 134.501 13.3995   1
  -1  -4   7 140.240 14.4737   1
   1   4  -7 147.766 13.7596   1
   1   4  -7 140.130 9.59364   3
  -1   4   7 174.222 12.7904   1
   0  -4   7 43.3288 7.77019   1
   0  -4  -7 47.7179 8.06909   1
   0  -4  -7 38.4616 7.11772   1
   0   4  -7 49.4526 6.17072   3
   0   4   7 38.3519 7.29287   1
   0   4  -7 43.9043 7.26334   1
   1  -4   7 189.563 14.1689   1
  -1  -4  -7 186.273 14.2614   1
  -1  -4  -7 172.454 16.1298   1
  -1   4  -7 188.910 9.50778   3
   1   4   7 196.977 14.3387   1
  -1   4  -7 182.204 12.8133   1
  -2  -4  -7 166.250 16.1455   1
  -2  -4  -7 157.507 15.4290   1
   2  -4   7 165.448 15.3554   1
   2   4   7 164.386 16.1300   1
   3  -4   7 67.8777 10.1364   1
  -3  -4  -7 75.0698 10.6579   1
   3   4   7 56.3224 9.72260   1
   4  -4   7 378.264 21.5329   1
   4   4   7 346.387 21.9855   1
   5  -4   7 61.7523 9.66548   1
   5   4   7 32.6265 8.05057   1
   6  -4   7 30.1021 6.86229   1
   6   4   7 25.4240 7.48497   1
   7  -5  -7 49.5046 8.61654   1
   7   5  -7 31.6409 6.67615   3
   7   5  -7 62.4902 11.0145   1
   6  -5  -7 -1.3736 2.52949   1
   6  -5  -7 0.23549 2.81245   1
   6   5  -7 -3.5773 1.94064   3
   6   5  -7 -2.5400 2.71716   1
   5  -5  -7 4.99262 3.32538   1
   5  -5  -7 6.95415 3.92693   1
   5   5  -7 7.61039 4.69028   1
   5   5  -7 8.49219 3.68726   3
   4  -5  -7 130.831 13.3331   1
  -4  -5   7 173.990 16.4054   1
   4   5  -7 140.137 12.5094   3
   4   5  -7 158.009 15.6593   1
   3  -5  -7 126.404 13.3390   1
  -3  -5   7 137.438 14.3919   1
   3   5  -7 153.814 10.8755   3
   3   5  -7 156.066 15.9615   1
   2  -5  -7 26.1071 6.55563   1
  -2  -5   7 27.7372 6.75289   1
  -2   5   7 18.7305 5.02183   1
   2   5  -7 20.8961 6.30525   1
   2   5  -7 17.7995 4.39090   3
  -1  -5   7 86.8924 11.4399   1
   1  -5  -7 52.1723 8.89444   1
  -1   5   7 74.6320 10.0417   1
   1   5  -7 75.1109 10.2131   1
   1   5  -7 75.6934 8.03982   3
   0  -5  -7 204.619 15.4650   1
   0  -5   7 189.933 14.8384   1
   0   5   7 235.890 15.9232   1
   0   5  -7 205.406 14.3104   1
   0   5  -7 222.781 11.5494   3
  -1  -5  -7 140.196 14.3313   1
   1  -5   7 167.294 16.4093   1
  -1   5  -7 128.301 7.49124   3
  -1   5  -7 123.654 12.6709   1
   1   5   7 135.797 14.4205   1
  -2  -5  -7 264.171 17.6821   1
  -2  -5  -7 247.832 17.3948   1
   2  -5   7 233.201 16.6178   1
   2   5   7 233.815 17.1077   1
  -3  -5  -7 101.314 12.9243   1
  -3  -5  -7 127.565 14.1743   1
   3  -5   7 114.393 13.2985   1
   3   5   7 122.322 15.1790   1
   4  -5   7 84.2612 11.7879   1
   4   5   7 72.8007 11.9290   1
   5  -5   7 19.5586 6.32448   1
   5   5   7 7.28465 5.38773   1
   7  -6  -7 125.316 13.9058   1
   7  -6  -7 112.358 13.6488   1
   7   6  -7 120.509 15.4423   1
   7   6  -7 129.315 13.6188   3
   6  -6  -7 37.9756 7.85781   1
   6   6  -7 53.1501 8.91254   3
   6   6  -7 36.2539 8.84400   1
   5  -6  -7 25.9185 6.58658   1
   5   6  -7 35.7964 8.45558   1
   5   6  -7 36.4726 7.44937   3
  -4  -6   7 88.4454 12.1126   1
   4  -6  -7 79.7493 10.7384   1
   4   6  -7 66.2683 10.7034   1
   4   6  -7 80.5164 9.95212   3
   3  -6  -7 246.131 16.8778   1
  -3  -6   7 244.405 17.5815   1
   3   6  -7 221.411 13.9931   3
   3   6  -7 194.109 18.4362   1
   2  -6  -7 22.4481 6.23885   1
  -2  -6   7 28.8888 7.17326   1
   2   6  -7 34.8012 7.83682   1
   2   6  -7 37.3968 6.24850   3
  -1  -6   7 131.060 15.1612   1
   1  -6  -7 93.6124 12.2261   1
   1   6  -7 122.976 13.6309   1
  -1   6   7 99.7874 12.0354   1
   1   6  -7 89.4134 9.06736   3
   0  -6   7 117.681 14.0635   1
   0  -6  -7 115.116 13.5959   1
   0   6   7 88.0696 11.8316   1
   0   6  -7 116.259 12.9320   1
   0   6  -7 111.748 7.92616   3
   1  -6   7 154.375 16.0386   1
  -1  -6  -7 162.750 16.4156   1
   1   6   7 146.885 15.3813   1
  -1   6  -7 163.886 8.46493   3
  -2  -6  -7 121.165 13.9163   1
   2  -6   7 138.200 15.2664   1
   2   6   7 131.327 15.1756   1
  -3  -6  -7 115.694 14.2623   1
  -3  -6  -7 91.4209 12.8443   1
   3  -6   7 108.143 13.3534   1
   3   6   7 100.032 13.5471   1
   4  -6   7 26.4574 7.10385   1
   4   6   7 7.77644 4.76087   1
   5  -6   7 -2.0404 3.46308   1
   5   6   7 -1.1143 3.87615   1
   6  -7  -7 51.8693 9.47417   1
   6   7  -7 61.7965 11.5428   1
   6   7  -7 49.4724 8.71736   3
   5  -7  -7 20.7637 6.10335   1
   5   7  -7 23.7301 6.14690   3
   5   7  -7 18.1873 6.16431   1
   4  -7  -7 51.6624 9.05609   1
  -4  -7   7 51.0885 10.1751   1
   4   7  -7 63.1144 11.0577   1
   4   7  -7 52.5687 8.35443   3
   3  -7  -7 461.520 25.9083   1
  -3  -7   7 480.685 27.0567   1
   3   7  -7 470.977 22.6065   3
   3   7  -7 470.933 26.0671   1
  -2  -7   7 5.80256 4.18526   1
   2  -7  -7 1.90974 3.54516   1
   2   7  -7 -0.2372 2.11675   3
   2   7  -7 3.96585 3.80335   1
   1  -7  -7 56.3989 9.98678   1
  -1  -7   7 42.3039 9.18230   1
   1   7  -7 55.7129 9.76296   1
   1   7  -7 61.4842 7.61677   3
   0  -7  -7 2.76556 4.04363   1
   0  -7   7 7.36410 4.99441   1
   0   7   7 5.43283 3.65166   1
   0   7  -7 0.27465 1.80678   3
  -1  -7  -7 7.51012 4.79142   1
   1  -7   7 13.1339 5.44261   1
   1   7   7 9.23059 4.75599   1
   2  -7   7 25.0806 7.10672   1
  -2  -7  -7 27.4624 7.29274   1
   2   7   7 45.4946 9.51302   1
   3  -7   7 98.7922 13.1244   1
   3   7   7 77.5925 12.6530   1
   4  -7   7 32.7873 7.71020   1
   4   7   7 35.5798 8.45368   1
   5  -8  -7 93.4587 12.8867   1
   5   8  -7 113.560 12.9597   3
   5   8  -7 106.928 15.5104   1
  -4  -8   7 10.9156 6.22621   1
   4  -8  -7 20.0492 6.67407   1
   4   8  -7 13.8256 4.86029   3
   4   8  -7 7.32999 5.14997   1
   3  -8  -7 18.8656 6.49657   1
  -3  -8   7 16.5801 6.27711   1
   3   8  -7 21.6638 6.82761   1
   3   8  -7 24.4905 5.53025   3
   2  -8  -7 7.29161 5.10320   1
  -2  -8   7 2.22880 4.86573   1
   2   8  -7 12.8531 5.26693   1
   2   8  -7 6.49653 3.45638   3
  -1  -8   7 22.8312 7.18475   1
   1  -8  -7 23.6727 7.55134   1
   1   8  -7 26.4677 5.07522   3
   0  -8  -7 301.087 21.5746   1
   0  -8   7 368.277 23.2567   1
   0   8  -7 312.390 15.0917   3
  -1  -8  -7 107.791 15.1597   1
   1  -8   7 89.0463 13.1140   1
   1   8   7 75.7417 12.2823   1
  -2  -8  -7 24.9329 7.92064   1
   2  -8   7 12.4073 5.81512   1
   2   8   7 23.4648 7.77214   1
   3  -8   7 110.550 14.4466   1
   3   8   7 134.971 17.1764   1
   3  -9  -7 3.24398 4.12892   1
  -3  -9   7 8.96494 6.13986   1
   3   9  -7 6.27330 4.99148   1
   3   9  -7 8.15555 3.87694   3
   2  -9  -7 15.3004 7.12554   1
  -2  -9   7 11.0817 6.22783   1
   2   9  -7 12.8517 4.52746   3
  -1  -9   7 53.6316 11.1563   1
   1  -9  -7 43.5254 10.1923   1
   1   9  -7 60.3474 7.64616   3
   0  -9  -7 59.8742 12.0587   1
   0  -9   7 82.1402 13.5820   1
   1  -9   7 45.0806 10.9453   1
  -1  -9  -7 27.0481 8.11441   1
   8   0  -8 87.1489 11.9019   1
   7   0  -8 0.57795 2.77620   1
   6   0  -8 5.91069 3.66688   1
   5   0  -8 4.44395 3.36911   1
  -4   0   8 7.26156 3.76265   1
   4   0  -8 9.76276 4.59983   1
   3   0  -8 5.53114 3.21480   1
  -3   0   8 0.74383 2.57325   1
  -2   0   8 440.854 22.4166   1
   2   0  -8 376.580 21.5462   1
  -1   0   8 91.5291 11.3024   1
   1   0  -8 84.9359 10.6616   1
   0   0  -8 8.64439 4.43315   1
   0   0   8 7.60962 4.29836   1
   1   0   8 68.3250 10.5295   1
  -1   0  -8 68.3496 10.0198   1
  -2   0  -8 53.3061 8.39775   1
   2   0   8 37.5789 7.70367   1
   3   0   8 45.4083 8.67662   1
   4   0   8 -1.9385 3.06246   1
   5   0   8 57.0275 10.3444   1
   6   0   8 124.603 15.5773   1
   8  -1  -8 15.3299 5.83936   1
   8   1  -8 30.8329 7.27599   1
   7  -1  -8 1.29996 2.58340   1
   7   1  -8 0.35825 2.79559   1
   6  -1  -8 27.8191 6.42829   1
   6   1  -8 43.5617 8.35841   1
   5  -1  -8 3.69224 3.20484   1
   5   1  -8 6.68560 3.84749   1
   4  -1  -8 330.181 19.8897   1
  -4  -1   8 332.951 18.7265   1
   4   1  -8 348.636 20.2949   1
   3  -1  -8 876.768 36.9866   1
  -3  -1   8 836.965 35.8047   1
   3   1  -8 939.897 37.9975   1
  -3   1   8 818.091 35.1474   1
   2  -1  -8 331.878 19.4596   1
  -2  -1   8 304.633 18.5048   1
   2   1  -8 334.846 19.4027   1
  -2   1   8 313.845 18.4826   1
   1  -1  -8 269.170 17.3797   1
  -1  -1   8 261.249 17.2074   1
   1   1  -8 289.852 17.7552   1
  -1   1   8 297.279 18.1822   1
   0  -1   8 169.373 15.8009   1
   0  -1  -8 190.331 14.0381   1
   0   1   8 158.114 15.4876   1
   0   1  -8 144.757 14.4832   1
   1  -1   8 47.3372 8.56782   1
  -1  -1  -8 44.6124 8.03601   1
   1   1   8 45.9937 8.64547   1
  -1   1  -8 41.4820 7.52759   1
   2  -1   8 65.3041 10.3649   1
  -2  -1  -8 53.3516 8.92858   1
  -2   1  -8 61.1683 9.19189   1
   2   1   8 71.6623 10.5842   1
  -2   1  -8 57.4142 5.92311   3
   3  -1   8 4.76820 4.00356   1
   3   1   8 11.2352 4.75070   1
   4  -1   8 117.526 13.8791   1
   4   1   8 122.734 14.8524   1
   5  -1   8 136.977 15.3644   1
   5   1   8 119.631 15.1714   1
   6  -1   8 40.9747 8.80558   1
   6   1   8 33.2699 8.51588   1
   8  -2  -8 45.1699 8.94222   1
   8   2  -8 25.2148 6.99008   1
   7  -2  -8 8.80610 4.15760   1
   7   2  -8 -2.1547 3.05536   1
   6  -2  -8 17.7481 5.59130   1
   6   2  -8 27.4820 6.99717   1
   5  -2  -8 75.6465 10.7429   1
   5   2  -8 80.9995 11.5538   1
  -4  -2   8 257.284 16.7761   1
   4  -2  -8 279.714 18.0186   1
   4   2  -8 283.945 18.2896   1
  -3  -2   8 185.651 13.9034   1
   3  -2  -8 191.366 14.8063   1
   3   2  -8 186.869 14.3076   1
  -3   2   8 194.332 13.5016   1
  -2  -2   8 1324.16 50.2925   1
   2  -2  -8 1281.62 50.7455   1
   2   2  -8 1315.08 50.3690   1
  -2   2   8 1322.64 49.8925   1
   1  -2  -8 261.356 17.1672   1
  -1  -2   8 232.057 16.1227   1
   1   2  -8 228.796 15.5758   1
  -1   2   8 226.433 15.7593   1
   0  -2   8 60.6601 9.26641   1
   0  -2  -8 66.7719 9.78822   1
   0   2  -8 78.2777 10.4019   1
   0   2   8 68.0649 10.0014   1
   1  -2   8 33.4346 7.35493   1
  -1  -2  -8 46.2018 8.61674   1
   1   2   8 40.5208 7.91204   1
  -1   2  -8 42.5018 7.82756   1
  -1   2  -8 48.5973 5.93181   3
  -2  -2  -8 6.40988 4.09363   1
   2  -2   8 9.60548 4.46009   1
  -2   2  -8 8.49307 2.18449   3
   2   2   8 0.96916 3.60256   1
   3  -2   8 59.9263 10.3710   1
   3   2   8 39.0886 8.36736   1
   4  -2   8 139.422 15.1166   1
   4   2   8 187.164 18.1707   1
   5  -2   8 9.06891 4.46596   1
   5   2   8 18.2557 6.45570   1
   8  -3  -8 38.8651 8.04568   1
   8   3  -8 22.8868 7.32057   1
   7  -3  -8 34.4045 7.59341   1
   7   3  -8 39.0018 8.77892   1
   6  -3  -8 76.3990 11.0496   1
   6   3  -8 69.6323 11.1660   1
   5  -3  -8 63.4810 9.62121   1
   5   3  -8 62.0093 10.0154   1
   4  -3  -8 293.722 18.9916   1
  -4  -3   8 313.824 18.9273   1
   4   3  -8 312.381 19.5778   1
  -3  -3   8 0.82686 2.52906   1
   3  -3  -8 7.36441 4.08667   1
   3   3  -8 3.95444 4.00987   1
  -3   3   8 3.04555 3.13691   1
   2  -3  -8 115.556 13.3964   1
  -2  -3   8 91.0890 11.5066   1
   2   3  -8 129.049 13.9235   1
  -2   3   8 87.6045 11.0887   1
  -1  -3   8 410.897 22.5821   1
   1  -3  -8 399.838 22.4993   1
  -1   3   8 378.324 21.6174   1
   1   3  -8 395.490 22.0921   1
   0  -3  -8 45.4890 8.41173   1
   0  -3   8 46.2746 8.36056   1
   0   3  -8 37.7596 5.85469   3
   0   3   8 46.0111 8.86709   1
   0   3  -8 53.8867 8.86040   1
  -1  -3  -8 212.201 15.7414   1
   1  -3   8 224.663 16.1387   1
  -1   3  -8 185.393 13.9241   1
   1   3   8 197.833 18.5889   1
  -1   3  -8 204.490 10.7730   3
  -2  -3  -8 23.7817 6.48787   1
   2  -3   8 7.21489 3.88366   1
   2   3   8 19.1211 5.91060   1
   3  -3   8 139.736 14.8088   1
   3   3   8 147.126 15.9062   1
   4  -3   8 54.0922 9.62162   1
   4   3   8 64.4229 10.8953   1
   5  -3   8 63.4377 10.1693   1
   5   3   8 49.7519 10.3066   1
   7  -4  -8 27.4368 7.07926   1
   7   4  -8 25.2124 7.53994   1
   6  -4  -8 13.9548 5.33170   1
   6   4  -8 14.8523 5.60738   1
   5  -4  -8 6.22770 4.20534   1
   5   4  -8 3.86493 4.09925   1
  -4  -4   8 64.0562 9.93772   1
   4  -4  -8 72.1012 10.6131   1
   4   4  -8 72.3468 10.6907   1
   3  -4  -8 62.5955 10.2489   1
   3  -4  -8 73.2472 11.1388   1
  -3  -4   8 71.0265 10.6677   1
   3   4  -8 51.6554 8.86977   1
  -2  -4   8 87.7442 11.3717   1
   2  -4  -8 114.294 13.6887   1
   2  -4  -8 84.0261 11.4372   1
   2   4  -8 121.749 13.9777   1
  -2   4   8 88.8054 11.2976   1
  -1  -4   8 264.830 17.8793   1
   1  -4  -8 257.087 18.0398   1
   1  -4  -8 239.557 17.4381   1
   1   4  -8 247.865 13.9870   3
  -1   4   8 272.579 17.7689   1
   1   4  -8 250.520 16.9237   1
   0  -4  -8 97.5241 12.9727   1
   0  -4   8 84.8659 12.1635   1
   0  -4  -8 102.753 13.4044   1
   0   4   8 95.0972 12.2363   1
   0   4  -8 86.2418 8.44568   3
   0   4  -8 82.5400 10.6856   1
  -1  -4  -8 280.000 19.2645   1
   1  -4   8 306.903 19.6640   1
   1   4   8 299.039 19.5487   1
  -1   4  -8 313.664 13.7080   3
   2  -4   8 337.458 21.1033   1
  -2  -4  -8 322.127 20.7340   1
   2   4   8 354.397 21.9687   1
   3  -4   8 1.30727 3.63982   1
   3   4   8 1.08746 3.23957   1
   4  -4   8 232.336 17.7481   1
   4   4   8 245.504 22.1640   1
   5  -4   8 53.3867 9.97812   1
   5   4   8 37.4531 9.41919   1
   7  -5  -8 15.0719 5.51128   1
   7   5  -8 29.8330 8.59823   1
   7   5  -8 15.0856 5.25249   3
   6  -5  -8 19.8918 6.20983   1
   6   5  -8 20.5401 7.40627   1
   6   5  -8 8.85163 4.21947   3
   5  -5  -8 70.1650 10.9812   1
   5  -5  -8 74.0372 11.6815   1
   5   5  -8 76.4109 11.7162   1
   5   5  -8 53.0244 8.17552   3
   4  -5  -8 184.424 18.2458   1
  -4  -5   8 256.062 18.0078   1
   4  -5  -8 206.735 19.1242   1
   4   5  -8 247.235 15.2018   3
   4   5  -8 236.703 21.2402   1
   3  -5  -8 238.969 17.0050   1
   3  -5  -8 211.475 16.2298   1
  -3  -5   8 187.418 18.3197   1
   3   5  -8 198.365 18.9175   1
   3   5  -8 215.501 13.8371   3
   2  -5  -8 80.8425 11.8001   1
  -2  -5   8 71.2837 11.2037   1
   2  -5  -8 70.4122 11.0691   1
  -2   5   8 94.2540 13.3329   1
   2   5  -8 81.4165 11.5465   1
   2   5  -8 106.610 11.1110   3
  -1  -5   8 4.04599 4.05936   1
   1  -5  -8 4.06293 3.89627   1
   1  -5  -8 9.90445 4.82966   1
  -1   5   8 14.3201 5.45290   1
   1   5  -8 4.60755 3.89213   1
   1   5  -8 6.16076 3.00263   3
   0  -5  -8 115.487 14.0076   1
   0  -5  -8 132.072 14.7230   1
   0  -5   8 124.367 14.5885   1
   0   5   8 122.353 14.0062   1
   0   5  -8 140.919 9.27059   3
   0   5  -8 133.854 14.0224   1
   1  -5   8 48.3592 9.11445   1
  -1  -5  -8 51.9005 10.1583   1
  -1  -5  -8 53.4971 9.65539   1
  -1   5  -8 58.4445 5.95134   3
   1   5   8 68.6829 11.2940   1
  -2  -5  -8 125.301 14.8579   1
  -2  -5  -8 102.956 13.7208   1
   2  -5   8 105.652 13.8792   1
   2   5   8 111.085 14.6674   1
   3  -5   8 145.932 15.9895   1
   3   5   8 156.841 17.8013   1
   4  -5   8 32.4487 8.30162   1
   4   5   8 31.5609 8.64560   1
   6  -6  -8 11.4033 5.43168   1
   6  -6  -8 20.3796 6.44715   1
   6   6  -8 21.0366 5.89728   3
   6   6  -8 20.7359 6.57748   1
   5  -6  -8 113.838 13.6605   1
   5  -6  -8 104.350 13.1990   1
   5   6  -8 115.570 13.1581   3
   5   6  -8 109.274 15.2220   1
  -4  -6   8 62.3401 10.8496   1
   4  -6  -8 60.0240 10.3348   1
   4   6  -8 72.0782 10.1694   3
   4   6  -8 76.2856 11.9021   1
  -3  -6   8 27.2824 7.37316   1
   3  -6  -8 20.3527 6.61479   1
   3   6  -8 34.9067 6.52441   3
   3   6  -8 23.3675 7.13726   1
  -2  -6   8 165.784 17.2560   1
   2  -6  -8 136.740 15.5110   1
   2   6  -8 151.387 13.3221   3
   2   6  -8 166.964 16.9328   1
  -1  -6   8 52.3829 10.0322   1
   1  -6  -8 34.7885 8.26257   1
  -1   6   8 43.8630 8.80223   1
   1   6  -8 52.0560 7.44018   3
   1   6  -8 38.5290 8.37594   1
   0  -6  -8 21.7068 6.47471   1
   0  -6   8 27.6123 7.62359   1
   0   6   8 26.8100 7.26115   1
   0   6  -8 32.1204 5.04662   3
  -1  -6  -8 44.5304 9.55275   1
   1  -6   8 58.2400 10.3554   1
  -1  -6  -8 57.0310 10.7274   1
   1   6   8 41.2796 8.89868   1
  -2  -6  -8 5.46024 4.90015   1
  -2  -6  -8 1.02356 3.58171   1
   2  -6   8 2.97313 4.27832   1
   2   6   8 4.09935 4.73063   1
   3  -6   8 148.644 16.6113   1
   3   6   8 163.110 17.8450   1
   4  -6   8 -1.4138 3.30940   1
   4   6   8 13.4397 6.26495   1
   5  -7  -8 3.62150 3.84362   1
   5   7  -8 6.84843 3.87479   3
   5   7  -8 -1.8527 3.00170   1
  -4  -7   8 53.9649 10.6169   1
   4  -7  -8 66.6465 11.3211   1
   4   7  -8 70.8382 11.8396   1
   4   7  -8 84.6683 10.8114   3
  -3  -7   8 31.5392 8.28360   1
   3  -7  -8 51.4859 10.1593   1
   3   7  -8 30.6191 6.34052   3
   3   7  -8 35.5381 8.95613   1
   2  -7  -8 25.3730 7.59587   1
  -2  -7   8 46.4995 10.1113   1
   2   7  -8 33.1292 6.62834   3
   2   7  -8 31.7705 8.03847   1
   1  -7  -8 73.1367 12.2541   1
  -1  -7   8 55.6996 10.7848   1
   1   7  -8 75.1284 8.78803   3
   0  -7   8 60.2043 11.3814   1
   0   7   8 44.5530 9.12144   1
   0   7  -8 64.8243 7.14047   3
  -1  -7  -8 133.114 16.6454   1
   1  -7   8 131.872 15.7310   1
   1   7   8 151.132 17.9281   1
  -2  -7  -8 78.3215 12.7642   1
   2  -7   8 82.6003 13.2249   1
   2   7   8 86.7036 13.3050   1
   3  -7   8 9.43514 6.01376   1
   3   7   8 28.3051 8.74555   1
   4  -8  -8 34.5968 8.81681   1
   4   8  -8 40.8808 10.1355   1
   4   8  -8 33.1790 7.44570   3
  -3  -8   8 4.81768 5.94927   1
   3  -8  -8 2.88461 4.50376   1
   3   8  -8 0.40401 3.46079   1
   3   8  -8 1.20301 2.66105   3
   2  -8  -8 42.0429 9.51391   1
  -2  -8   8 35.6836 9.51159   1
   2   8  -8 55.7258 12.4217   1
   2   8  -8 40.0228 7.26887   3
  -1  -8   8 9.25982 6.08816   1
   1  -8  -8 16.9452 6.81995   1
   1   8  -8 20.3980 4.62816   3
   0  -8   8 70.5970 12.5510   1
   0  -8  -8 46.4555 10.3300   1
   1  -8   8 62.9609 11.8192   1
  -1  -8  -8 81.3534 13.4393   1
   1   8   8 84.6703 13.7865   1
   7   0  -9 37.3291 8.36558   1
   6   0  -9 203.231 19.1137   1
   5   0  -9 6.76654 4.21220   1
   4   0  -9 4.69784 4.17688   1
   3   0  -9 246.410 17.7168   1
  -3   0   9 269.440 17.5711   1
   2   0  -9 828.632 36.8370   1
  -2   0   9 782.911 35.6644   1
   1   0  -9 284.010 18.7431   1
  -1   0   9 268.107 18.1768   1
   0   0   9 138.493 15.3339   1
   0   0  -9 120.041 14.2511   1
  -1   0  -9 32.6184 7.73325   1
   1   0   9 34.0886 7.91914   1
   2   0   9 33.6891 8.31041   1
   3   0   9 126.199 15.4534   1
   4   0   9 35.0159 8.72978   1
   5   0   9 263.647 20.1955   1
   7  -1  -9 6.10400 4.62191   1
   7   1  -9 7.04398 4.73122   1
   6  -1  -9 2.97686 3.63578   1
   6   1  -9 2.64542 3.99719   1
   5  -1  -9 50.7490 9.64980   1
   5   1  -9 51.7955 9.21431   1
   4  -1  -9 36.1552 8.47159   1
   4   1  -9 29.5824 7.50862   1
   3  -1  -9 110.719 14.1020   1
  -3  -1   9 100.181 12.5989   1
  -3   1   9 114.429 13.3592   1
   3   1  -9 87.4302 12.1229   1
   2  -1  -9 93.8935 12.3215   1
  -2  -1   9 94.7451 12.8916   1
  -2   1   9 110.517 13.3998   1
   2   1  -9 81.7343 11.8799   1
  -1  -1   9 575.479 29.7291   1
   1  -1  -9 621.164 30.4723   1
  -1   1   9 662.139 30.8804   1
   1   1  -9 571.403 29.4157   1
   0  -1  -9 148.495 15.5677   1
   0  -1   9 124.580 14.2737   1
   0   1   9 174.320 17.5299   1
   0   1  -9 140.166 14.9499   1
   1  -1   9 208.511 19.4323   1
  -1  -1  -9 211.720 18.9645   1
   1   1   9 208.368 19.5412   1
  -1   1  -9 209.074 15.3886   1
   2  -1   9 56.8600 10.6771   1
   2   1   9 67.3689 10.8173   1
  -2   1  -9 54.9649 6.12873   3
   3   1   9 91.6478 13.6767   1
   4  -1   9 84.7533 12.8998   1
   4   1   9 63.0807 11.1249   1
   5  -1   9 41.2329 9.27083   1
   5   1   9 29.0951 8.28225   1
   7  -2  -9 5.51508 4.38671   1
   7   2  -9 0.10290 3.41998   1
   6  -2  -9 31.9326 7.61121   1
   6   2  -9 38.9688 8.90774   1
   5  -2  -9 31.5303 7.89540   1
   5   2  -9 36.7417 8.49389   1
  -4  -2   9 0.77416 3.39941   1
   4  -2  -9 -2.9708 2.80070   1
   4   2  -9 3.25424 3.69646   1
  -3  -2   9 339.792 20.8068   1
   3  -2  -9 344.859 21.5954   1
   3   2  -9 338.752 21.2778   1
  -3   2   9 346.863 20.3912   1
   2  -2  -9 16.3627 6.03446   1
  -2  -2   9 15.5809 5.59074   1
  -2   2   9 13.9498 5.03860   1
   2   2  -9 12.2413 5.09765   1
   1  -2  -9 448.785 25.2514   1
  -1  -2   9 443.967 25.0562   1
   1   2  -9 442.900 24.6022   1
  -1   2   9 463.456 25.2398   1
   0  -2   9 47.9311 9.27806   1
   0  -2  -9 42.0520 8.40119   1
   0   2   9 63.4580 10.9149   1
   0   2  -9 50.7000 9.06816   1
   1  -2   9 6.73122 4.06131   1
  -1  -2  -9 0.99265 3.41245   1
   1   2   9 1.79244 3.11026   1
  -1   2  -9 2.16689 2.19330   3
  -1   2  -9 6.07835 3.89625   1
  -2  -2  -9 33.7567 8.10182   1
   2  -2   9 32.2254 7.63374   1
   2   2   9 24.9266 7.25322   1
   3  -2   9 92.0569 13.3085   1
   3   2   9 78.7251 12.5160   1
   4  -2   9 68.8961 11.7287   1
   4   2   9 41.4564 9.97542   1
   7  -3  -9 4.47600 4.05405   1
   7   3  -9 15.6074 6.24852   1
   6  -3  -9 38.4675 8.24358   1
   6   3  -9 36.3859 8.45523   1
   5  -3  -9 38.6771 8.25662   1
   5   3  -9 49.9896 10.0946   1
   4  -3  -9 77.0163 11.8051   1
  -4  -3   9 82.7132 11.7357   1
   4   3  -9 92.2272 12.4319   1
   3  -3  -9 15.5350 5.56746   1
  -3  -3   9 9.16305 4.26686   1
   3   3  -9 2.29831 3.74602   1
   2  -3  -9 131.532 15.3980   1
  -2  -3   9 147.382 15.7635   1
   2   3  -9 116.441 14.6571   1
  -2   3   9 120.462 13.7631   1
  -1  -3   9 56.1814 10.1441   1
   1  -3  -9 58.5847 10.3254   1
   1   3  -9 54.4407 9.88877   1
  -1   3   9 89.1236 12.3204   1
   0  -3  -9 210.344 19.6112   1
   0  -3   9 156.241 16.6146   1
   0   3   9 178.457 18.1654   1
   0   3  -9 173.116 16.5706   1
   0   3  -9 166.656 11.0267   3
   1  -3   9 498.343 27.3950   1
  -1  -3  -9 513.920 27.6921   1
  -1   3  -9 448.141 19.7083   3
   1   3   9 510.167 27.8486   1
  -2  -3  -9 62.7026 10.7849   1
   2  -3   9 51.2551 9.51438   1
   2   3   9 74.0790 12.3624   1
   3  -3   9 74.4653 11.8595   1
   3   3   9 56.5270 10.6891   1
   4  -3   9 28.8077 7.95635   1
   4   3   9 19.8163 7.61095   1
   6  -4  -9 8.36684 4.36670   1
   6   4  -9 0.01021 3.80140   1
   5  -4  -9 1.98133 3.61958   1
   5   4  -9 4.36253 4.28070   1
   4  -4  -9 4.58175 4.16345   1
  -4  -4   9 -0.3994 3.50235   1
   4   4  -9 2.77312 4.02901   1
  -3  -4   9 23.0223 7.35378   1
   3  -4  -9 23.7392 7.31887   1
   3   4  -9 18.1195 6.36316   1
   2  -4  -9 15.6716 6.11942   1
  -2  -4   9 17.1502 5.95187   1
   2   4  -9 17.7537 4.54754   3
   2   4  -9 22.8930 7.04180   1
  -2   4   9 13.8338 5.39734   1
   1  -4  -9 10.7893 5.01488   1
  -1  -4   9 14.9677 5.84896   1
   1   4  -9 23.4577 6.83962   1
   1   4  -9 16.1725 4.49170   3
  -1   4   9 17.9974 5.95318   1
   0  -4  -9 -2.9973 3.13422   1
   0  -4   9 -0.0546 3.59623   1
   0   4   9 2.17583 4.12801   1
   0   4  -9 3.25739 2.48973   3
   0   4  -9 5.33486 3.96492   1
   1  -4   9 57.6922 10.4868   1
  -1  -4  -9 65.3507 11.3411   1
   1   4   9 80.7006 12.5501   1
  -1   4  -9 68.2704 6.99037   3
   2  -4   9 251.874 19.0649   1
  -2  -4  -9 245.515 18.9322   1
   2   4   9 272.739 19.9810   1
   3  -4   9 143.921 16.7035   1
   3   4   9 99.1471 14.0620   1
   4  -4   9 -1.0747 3.72481   1
   4   4   9 3.80605 4.32333   1
   6  -5  -9 51.6579 10.1033   1
   6   5  -9 48.5261 10.3598   1
   6   5  -9 48.1677 8.85393   3
   5  -5  -9 18.3059 6.41744   1
   5   5  -9 2.20072 4.63914   1
   5   5  -9 2.36070 3.49065   3
  -4  -5   9 31.7690 9.05045   1
   4  -5  -9 19.1872 6.68441   1
   4   5  -9 21.1344 5.66914   3
   4   5  -9 24.3005 7.29485   1
  -3  -5   9 82.1564 12.2484   1
   3  -5  -9 65.9042 11.6649   1
   3  -5  -9 75.0576 12.0753   1
   3   5  -9 99.0088 13.9243   1
   3   5  -9 73.7616 9.62999   3
   2  -5  -9 91.5158 13.6279   1
  -2  -5   9 57.8702 10.6742   1
   2  -5  -9 80.4569 12.9324   1
   2   5  -9 70.6718 9.25115   3
   2   5  -9 62.3037 10.5974   1
   1  -5  -9 24.1262 7.55112   1
   1  -5  -9 51.8951 10.1443   1
  -1  -5   9 48.8126 9.87874   1
   1   5  -9 47.5967 7.17651   3
   1   5  -9 51.7485 9.68698   1
  -1   5   9 46.4656 9.65872   1
   0  -5  -9 152.762 17.3572   1
   0  -5   9 125.937 15.7213   1
   0   5  -9 155.115 10.2492   3
   0   5   9 153.004 16.6273   1
   1  -5   9 20.3958 6.88383   1
  -1  -5  -9 24.0170 7.13184   1
   1   5   9 13.9640 6.31712   1
   2  -5   9 87.6136 12.9499   1
  -2  -5  -9 63.6099 11.7442   1
   2   5   9 65.9015 12.0244   1
   3  -5   9 13.9505 6.78243   1
   3   5   9 12.6319 6.82588   1
   5  -6  -9 42.7022 9.77750   1
   5  -6  -9 53.6977 10.6389   1
   5   6  -9 24.8305 8.55541   1
   5   6  -9 35.3092 7.43173   3
   4  -6  -9 306.135 21.2956   1
   4  -6  -9 273.829 20.5582   1
   4   6  -9 254.794 16.8992   3
   4   6  -9 261.612 24.0244   1
   3  -6  -9 139.951 16.6301   1
  -3  -6   9 91.2782 13.4124   1
   3  -6  -9 123.295 15.7175   1
   3   6  -9 94.5110 11.1808   3
   3   6  -9 134.999 16.8339   1
   2  -6  -9 142.551 17.3637   1
   2  -6  -9 141.049 16.8495   1
  -2  -6   9 171.354 18.5996   1
   2   6  -9 173.685 14.9616   3
   2   6  -9 167.478 18.2115   1
   1  -6  -9 34.0178 9.07374   1
   1  -6  -9 34.1563 9.03065   1
  -1  -6   9 23.2081 7.41472   1
   1   6  -9 18.6576 4.72937   3
   1   6  -9 21.9309 7.81300   1
   0  -6  -9 27.3675 8.79580   1
   0  -6  -9 46.4773 10.4025   1
   0  -6   9 29.0040 8.30583   1
   0   6   9 23.4788 7.74154   1
   0   6  -9 40.3363 6.02826   3
  -1  -6  -9 9.69766 6.14297   1
  -1  -6  -9 17.9767 7.17021   1
   1  -6   9 12.7546 6.06738   1
   1   6   9 11.6156 5.86482   1
   2  -6   9 1.57212 4.47913   1
   2   6   9 7.82938 5.68526   1
   4  -7  -9 13.6762 6.65153   1
   4  -7  -9 14.8550 6.43117   1
   4   7  -9 6.52135 4.83261   1
   4   7  -9 7.45767 4.46259   3
   3  -7  -9 4.46650 5.57302   1
   3  -7  -9 2.88150 5.29753   1
  -3  -7   9 4.79399 4.71479   1
   3   7  -9 13.3452 6.26035   1
   3   7  -9 5.97649 3.72642   3
  -2  -7   9 6.87164 6.01706   1
   2  -7  -9 11.6333 5.70998   1
   2   7  -9 12.8692 6.10547   1
   2   7  -9 12.1625 4.27518   3
  -1  -7   9 10.1949 6.09356   1
   1  -7  -9 32.0212 9.19372   1
   1  -7  -9 22.7895 8.04968   1
   1   7  -9 27.6029 5.68526   3
   0  -7  -9 147.718 18.5027   1
   0  -7  -9 168.280 18.8466   1
   0  -7   9 152.740 18.0175   1
  -1  -7  -9 51.2134 11.1631   1
   1  -7   9 45.0858 10.4077   1
  -1  -7  -9 23.3941 8.40355   1
   1   7   9 33.2320 8.46021   1
   6   0 -10 44.4411 9.43800   1
   5   0 -10 0.76429 3.55933   1
   4   0 -10 171.664 18.1845   1
   3   0 -10 -0.2556 3.34141   1
  -3   0  10 -0.2612 3.53994   1
  -2   0  10 143.833 16.2481   1
   2   0 -10 137.787 16.2629   1
   1   0 -10 216.922 20.1528   1
  -1   0  10 237.289 18.0111   1
   0   0  10 19.1168 6.55795   1
   0   0 -10 12.1948 5.24693   1
   1   0  10 159.227 18.3654   1
  -1   0 -10 188.987 18.8652   1
   2   0  10 17.2422 6.98861   1
   3   0  10 4.94660 5.11657   1
   6  -1 -10 69.0685 11.9687   1
   6   1 -10 62.8594 11.3511   1
   5  -1 -10 8.45271 4.92597   1
   5   1 -10 4.72954 4.43436   1
   4  -1 -10 3.62391 3.92704   1
   4   1 -10 10.7585 5.54576   1
   3  -1 -10 155.605 17.5722   1
  -3  -1  10 165.093 17.5472   1
   3   1 -10 125.154 15.4663   1
   2  -1 -10 -3.8969 3.40453   1
  -2  -1  10 5.85069 4.34310   1
   2   1 -10 2.40645 3.96116   1
  -2   1  10 6.74045 4.12368   1
   1  -1 -10 4.93004 4.55541   1
  -1  -1  10 14.3234 5.67646   1
   1   1 -10 1.62852 4.00634   1
  -1   1  10 11.7216 5.07888   1
   0  -1 -10 90.0897 13.0832   1
   0  -1  10 62.1502 10.8055   1
   0   1 -10 45.2501 9.27792   1
   0   1  10 65.7022 11.5672   1
   1  -1  10 16.1241 6.48148   1
  -1  -1 -10 11.0170 5.28077   1
   1   1  10 30.5441 8.32075   1
   2  -1  10 36.1433 8.94531   1
   2   1  10 15.6331 6.93775   1
   3  -1  10 62.7848 12.0118   1
   3   1  10 37.7528 9.37283   1
   6  -2 -10 42.2193 9.23188   1
   6   2 -10 48.2575 10.0760   1
   5  -2 -10 79.8190 13.1585   1
   5   2 -10 85.2066 13.1186   1
   4  -2 -10 100.113 13.9117   1
   4   2 -10 85.4085 13.2330   1
  -3  -2  10 312.297 20.7343   1
   3  -2 -10 298.293 20.9694   1
   3   2 -10 283.128 20.5428   1
   2  -2 -10 39.1931 8.87631   1
  -2  -2  10 29.4685 7.96420   1
  -2   2  10 37.0666 8.08850   1
   2   2 -10 39.9388 8.76478   1
  -1  -2  10 28.7260 7.49153   1
   1  -2 -10 24.9834 7.16594   1
  -1   2  10 39.0079 9.38450   1
   1   2 -10 34.8145 8.22857   1
   0  -2 -10 15.6226 6.36482   1
   0  -2  10 17.0595 6.38332   1
   0   2 -10 31.5815 8.11571   1
   0   2  10 34.7317 8.56556   1
  -1  -2 -10 126.597 15.6357   1
   1  -2  10 135.048 16.3552   1
   1   2  10 151.839 17.9746   1
  -1   2 -10 143.897 9.84283   3
   2  -2  10 19.3170 7.09917   1
   2   2  10 31.7024 8.67650   1
   3  -2  10 33.7123 8.48360   1
   3   2  10 34.8617 8.65325   1
   6  -3 -10 15.4116 6.32402   1
   6   3 -10 16.2767 7.17309   1
   5  -3 -10 8.93517 5.20868   1
   5   3 -10 21.3364 7.68107   1
   4  -3 -10 163.882 18.2728   1
   4   3 -10 161.167 18.4587   1
   3  -3 -10 33.2038 9.03757   1
  -3  -3  10 53.8198 10.4205   1
   3   3 -10 46.6793 9.86375   1
   2  -3 -10 77.8890 12.9325   1
  -2  -3  10 87.6971 13.1207   1
   2   3 -10 100.574 14.3531   1
  -2   3  10 89.4842 14.2999   1
  -1  -3  10 94.6329 13.4373   1
   1  -3 -10 85.0327 13.5612   1
  -1   3  10 100.104 13.6496   1
   1   3 -10 96.0487 13.5476   1
   0  -3 -10 261.113 20.4463   1
   0  -3  10 324.163 22.0679   1
   0   3 -10 307.376 16.2584   3
   0   3 -10 293.459 22.2852   1
   0   3  10 309.130 21.6536   1
  -1  -3 -10 22.3010 7.17936   1
   1  -3  10 11.3941 6.09487   1
   1   3  10 26.4035 8.38681   1
  -1   3 -10 17.1298 4.07695   3
   2  -3  10 14.4691 6.84343   1
   2   3  10 12.3853 6.96101   1
   3  -3  10 28.6079 7.94962   1
   3   3  10 48.3716 10.9598   1
   5  -4 -10 197.113 20.2674   1
   5   4 -10 180.182 19.6104   1
   4  -4 -10 53.2395 10.6625   1
   4   4 -10 70.3673 12.1739   1
  -3  -4  10 3.65991 4.21452   1
   3  -4 -10 -1.9483 3.54495   1
   3   4 -10 3.21803 4.74644   1
  -2  -4  10 2.76703 4.48914   1
   2  -4 -10 10.3485 5.65446   1
   2   4 -10 2.71978 4.14148   1
   2   4 -10 5.15651 3.63019   3
   1  -4 -10 141.169 17.1334   1
  -1  -4  10 172.771 19.1957   1
  -1   4  10 139.710 16.8425   1
   1   4 -10 158.052 17.1558   1
   1   4 -10 156.879 13.7873   3
   0  -4 -10 37.9022 9.17452   1
   0  -4  10 41.6094 9.59759   1
   0   4 -10 32.7565 5.83512   3
   0   4  10 25.2385 7.82948   1
   1  -4  10 6.62310 5.67708   1
  -1  -4 -10 10.6776 5.45178   1
   1   4  10 16.8776 7.52284   1
   2  -4  10 105.775 15.5948   1
   2   4  10 126.046 17.0125   1
   5  -5 -10 89.6865 14.2341   1
   5   5 -10 80.2795 13.7440   1
   5   5 -10 85.0310 11.9438   3
   4  -5 -10 3.38944 4.47018   1
   4   5 -10 0.78928 4.41443   1
   4   5 -10 8.05945 4.20564   3
  -3  -5  10 4.00386 5.31986   1
   3  -5 -10 13.7437 5.71069   1
   3   5 -10 12.0243 5.83293   1
   3   5 -10 11.4196 4.51955   3
  -2  -5  10 20.1110 7.34457   1
   2  -5 -10 29.8500 9.01635   1
   2   5 -10 18.3653 5.59189   3
   2   5 -10 17.7101 6.70058   1
  -1  -5  10 37.2487 10.0004   1
   1  -5 -10 25.8096 8.17702   1
   1   5 -10 32.8763 6.34151   3
   0  -5 -10 50.0415 10.9167   1
   0  -5  10 49.4791 10.5317   1
   0   5  10 40.8467 9.98287   1
   0   5 -10 69.8602 8.32455   3
  -1  -5 -10 137.100 17.9988   1
   1  -5  10 151.415 18.3058   1
   1   5  10 147.813 18.3837   1
   2  -5  10 17.2511 6.83035   1
   2   5  10 28.3998 8.98707   1
   3  -6 -10 16.5280 7.38474   1
  -3  -6  10 26.5781 8.60960   1
   3   6 -10 28.2694 8.41616   1
   3   6 -10 20.8058 5.95706   3
  -2  -6  10 18.9972 7.25365   1
   2  -6 -10 16.9032 7.52807   1
   2   6 -10 25.5045 7.98174   1
   2   6 -10 11.2348 4.49951   3
   1  -6 -10 17.8689 7.74050   1
  -1  -6  10 12.2479 6.55193   1
   1   6 -10 13.0973 4.13912   3
   0  -6 -10 32.5690 9.81054   1
   0  -6  10 34.1996 9.21106   1
   5   0 -11 59.3466 12.2923   1
   4   0 -11 94.9720 14.3407   1
   3   0 -11 3.72522 4.52964   1
   2   0 -11 68.8048 12.1179   1
  -2   0  11 67.3814 12.4078   1
  -1   0  11 3.84647 4.08260   1
   1   0 -11 -0.8119 3.55973   1
   0   0 -11 89.2508 13.4529   1
   0   0  11 91.2225 14.2469   1
   1   0  11 15.3632 7.05586   1
   2   0  11 2.52793 5.08370   1
   5  -1 -11 4.35456 5.62689   1
   5   1 -11 1.79213 3.86601   1
   4  -1 -11 7.68685 5.98153   1
   4   1 -11 24.9441 8.20947   1
   3  -1 -11 15.2144 6.64665   1
   3   1 -11 29.4348 8.62046   1
  -2  -1  11 -1.8975 3.48300   1
   2  -1 -11 0.66024 4.90327   1
   2   1 -11 -1.5744 3.38377   1
  -2   1  11 -1.3396 4.13892   1
  -1  -1  11 27.2444 7.84041   1
   1  -1 -11 32.0991 9.09229   1
  -1   1  11 22.0074 7.57604   1
   1   1 -11 8.73722 5.53220   1
   0  -1  11 33.6698 8.87982   1
   0  -1 -11 34.6906 9.03081   1
   0   1 -11 35.2656 9.67717   1
   0   1  11 41.8604 9.83823   1
   1  -1  11 120.175 16.1012   1
   1   1  11 127.367 16.9201   1
   2  -1  11 130.864 17.3286   1
   2   1  11 126.300 17.2192   1
   5  -2 -11 80.8103 13.8375   1
   5   2 -11 63.5404 12.5272   1
   4  -2 -11 49.6788 11.6711   1
   4   2 -11 41.5213 9.62757   1
   3  -2 -11 351.610 24.8056   1
   3   2 -11 366.903 24.9238   1
  -2  -2  11 208.377 21.1788   1
   2  -2 -11 186.602 20.7701   1
   2   2 -11 184.006 19.9921   1
   1  -2 -11 117.129 16.2930   1
  -1  -2  11 122.581 16.2520   1
  -1   2  11 123.011 16.0266   1
   1   2 -11 125.372 16.1267   1
   0  -2 -11 28.5725 8.63144   1
   0  -2  11 53.3373 11.3184   1
   0   2  11 29.0080 9.04459   1
   1  -2  11 35.6510 9.83987   1
   1   2  11 13.7053 7.03220   1
  -1   2 -11 19.7160 4.73062   3
   4  -3 -11 241.056 23.2587   1
   4   3 -11 291.601 22.2246   1
   3  -3 -11 7.69869 5.83410   1
  -3  -3  11 17.1949 7.66661   1
   3   3 -11 8.02243 5.94417   1
   2  -3 -11 3.85014 4.53926   1
  -2  -3  11 -0.9402 4.26703   1
   2   3 -11 0.49534 3.73588   1
   1  -3 -11 8.22824 5.95162   1
  -1  -3  11 4.86809 5.53040   1
  -1   3  11 7.92009 5.89327   1
   1   3 -11 -2.2027 3.71996   1
   0  -3 -11 175.789 19.9485   1
   0  -3  11 158.793 19.0814   1
   0   3  11 173.751 19.5773   1
   0   3 -11 164.816 11.8307   3
   1  -3  11 26.8201 8.86055   1
   1   3  11 36.1256 9.54986   1
  -3  -4  11 55.5804 12.0834   1
   3  -4 -11 36.5777 10.0581   1
   3   4 -11 58.1887 11.7090   1
   2  -4 -11 8.81097 6.30629   1
  -2  -4  11 1.28483 4.98045   1
   2   4 -11 5.67848 4.14186   3
   2   4 -11 11.2741 5.73279   1
  -1  -4  11 3.62014 5.53563   1
   1  -4 -11 4.48444 6.08971   1
   1   4 -11 8.07891 4.04673   3
   0  -4  11 100.739 15.6080   1
   0  -4 -11 125.003 17.5538   1
   0   4 -11 100.077 10.3879   3
   0   4  11 123.645 17.0942   1
   2   0 -12 72.1633 13.2587   1
  -1   0  12 0.50609 4.77245   1
  -2  -1  12 41.5087 10.4206   1
   0   0   0    0.00    0.00   0

 _exptl_absorpt_process_details 'SADABS 2014/4'
 _exptl_absorpt_correction_type   multiscan
 _exptl_absorpt_correction_T_max  0.9485
 _exptl_absorpt_correction_T_min  0.8629
 _exptl_special_details
)
 The following wavelength and cell were deduced by SADABS from the
 direction cosines etc. They are given here for emergency use only:
 CELL 0.71073    7.958    9.448    9.638   90.012  100.500   89.956
)

;
_shelx_hkl_checksum              63898
loop_
_space_group_symop_operation_xyz
'x, y, z'
'-x, y+1/2, -z'
loop_
_atom_site_label
_atom_site_type_symbol
_atom_site_fract_x
_atom_site_fract_y
_atom_site_fract_z
_atom_site_U_iso_or_equiv
_atom_site_adp_type
_atom_site_occupancy
_atom_site_site_symmetry_order
_atom_site_calc_flag
_atom_site_refinement_flags_posn
_atom_site_refinement_flags_adp
O1 O 0.5400(2) 0.8933(2) 0.8638(2) 0.0196(5) Uani 1 1 d . .
O2 O 0.5810(2) 0.7922(2) 1.0711(2) 0.0256(5) Uani 1 1 d . .
O3 O 0.1069(2) 0.8669(2) 0.7980(2) 0.0230(5) Uani 1 1 d . .
C1 C 0.8174(4) 1.0267(4) 0.4664(3) 0.0291(7) Uani 1 1 d . .
H1 H 0.8994 1.0531 0.4107 0.035 Uiso 1 1 calc R U
C2 C 0.7038(4) 0.9164(3) 0.4235(3) 0.0296(8) Uani 1 1 d . .
H16 H 0.7070 0.8681 0.3374 0.036 Uiso 1 1 calc R U
C3 C 0.5858(4) 0.8770(4) 0.5061(3) 0.0241(7) Uani 1 1 d . .
H15 H 0.5093 0.8008 0.4769 0.029 Uiso 1 1 calc R U
C4 C 0.5787(3) 0.9478(3) 0.6311(3) 0.0190(6) Uani 1 1 d . .
C5 C 0.4479(3) 0.9079(3) 0.7194(3) 0.0183(6) Uani 1 1 d . .
H12 H 0.3925 0.8159 0.6858 0.022 Uiso 1 1 calc R U
C6 C 0.4880(4) 0.8034(3) 0.9569(3) 0.0183(6) Uani 1 1 d . .
C7 C 0.3327(3) 0.7159(3) 0.9211(3) 0.0192(6) Uani 1 1 d . .
H11 H 0.3501 0.6200 0.9501 0.023 Uiso 1 1 calc R U
C8 C 0.1711(4) 0.7433(3) 0.8556(3) 0.0183(6) Uani 1 1 d . .
C9 C 0.0328(3) 0.6348(3) 0.8394(3) 0.0179(6) Uani 1 1 d . .
C10 C 0.0659(4) 0.4934(3) 0.8768(3) 0.0200(6) Uani 1 1 d . .
H10 H 0.1787 0.4649 0.9177 0.024 Uiso 1 1 calc R U
C11 C -0.0640(4) 0.3946(3) 0.8547(3) 0.0211(6) Uani 1 1 d . .
H9 H -0.0398 0.2985 0.8802 0.025 Uiso 1 1 calc R U
C12 C -0.2306(4) 0.4343(3) 0.7952(3) 0.0241(7) Uani 1 1 d . .
H2 H -0.3197 0.3659 0.7797 0.029 Uiso 1 1 calc R U
C13 C 0.2008(4) 0.9972(3) 0.8256(3) 0.0223(7) Uani 1 1 d . .
H3 H 0.2730 0.9934 0.9208 0.027 Uiso 1 1 calc R U
H6 H 0.1197 1.0771 0.8237 0.027 Uiso 1 1 calc R U
C14 C 0.3125(4) 1.0220(3) 0.7170(3) 0.0217(6) Uani 1 1 d . .
H5 H 0.3696 1.1152 0.7347 0.026 Uiso 1 1 calc R U
H4 H 0.2397 1.0250 0.6219 0.026 Uiso 1 1 calc R U
C15 C -0.2641(4) 0.5744(4) 0.7592(4) 0.0273(8) Uani 1 1 d . .
H8 H -0.3772 0.6025 0.7188 0.033 Uiso 1 1 calc R U
C16 C -0.1345(4) 0.6744(3) 0.7812(3) 0.0244(7) Uani 1 1 d . .
H7 H -0.1596 0.7706 0.7565 0.029 Uiso 1 1 calc R U
C17 C 0.6922(4) 1.0589(3) 0.6729(3) 0.0222(7) Uani 1 1 d . .
H14 H 0.6884 1.1082 0.7583 0.027 Uiso 1 1 calc R U
C18 C 0.8102(4) 1.0978(3) 0.5909(4) 0.0247(7) Uani 1 1 d . .
H13 H 0.8869 1.1738 0.6202 0.030 Uiso 1 1 calc R U
loop_
_atom_site_aniso_label
_atom_site_aniso_U_11
_atom_site_aniso_U_22
_atom_site_aniso_U_33
_atom_site_aniso_U_23
_atom_site_aniso_U_13
_atom_site_aniso_U_12
O1 0.0210(9) 0.0212(11) 0.0156(10) 0.0015(8) 0.0011(8) -0.0024(8)
O2 0.0247(10) 0.0292(13) 0.0203(12) 0.0041(10) -0.0029(9) -0.0057(9)
O3 0.0205(9) 0.0160(10) 0.0315(12) 0.0044(9) 0.0017(8) 0.0015(8)
C1 0.0312(16) 0.036(2) 0.0213(16) 0.0041(14) 0.0073(14) -0.0008(14)
C2 0.0370(17) 0.0328(19) 0.0198(16) -0.0057(14) 0.0073(14) -0.0037(15)
C3 0.0271(13) 0.0246(16) 0.0194(15) -0.0046(13) 0.0011(12) -0.0030(13)
C4 0.0222(13) 0.0190(14) 0.0149(15) 0.0014(11) 0.0011(11) 0.0026(11)
C5 0.0213(12) 0.0192(15) 0.0131(13) 0.0000(11) -0.0003(10) -0.0004(11)
C6 0.0209(13) 0.0154(14) 0.0182(14) 0.0009(12) 0.0028(11) 0.0012(11)
C7 0.0216(14) 0.0178(15) 0.0184(16) 0.0019(12) 0.0039(12) 0.0002(11)
C8 0.0227(14) 0.0167(14) 0.0163(15) -0.0002(11) 0.0057(12) 0.0014(11)
C9 0.0183(13) 0.0208(14) 0.0157(14) -0.0037(12) 0.0059(11) 0.0015(11)
C10 0.0206(13) 0.0217(15) 0.0179(15) -0.0004(12) 0.0042(11) 0.0022(12)
C11 0.0274(13) 0.0185(15) 0.0183(14) 0.0007(12) 0.0062(11) 0.0012(12)
C12 0.0236(14) 0.0247(17) 0.0241(16) -0.0046(13) 0.0048(12) -0.0054(12)
C13 0.0242(14) 0.0129(14) 0.0300(18) -0.0001(12) 0.0053(13) 0.0013(12)
C14 0.0228(14) 0.0176(15) 0.0241(16) 0.0026(13) 0.0025(12) 0.0001(12)
C15 0.0198(14) 0.0248(17) 0.035(2) -0.0015(14) -0.0003(14) 0.0017(12)
C16 0.0232(14) 0.0199(16) 0.0294(18) 0.0006(13) 0.0028(13) 0.0011(12)
C17 0.0289(15) 0.0196(15) 0.0184(16) 0.0005(12) 0.0055(13) -0.0014(12)
C18 0.0268(15) 0.0248(16) 0.0217(17) 0.0029(12) 0.0025(13) -0.0049(12)
loop_
_atom_type_symbol
_atom_type_description
_atom_type_scat_dispersion_real
_atom_type_scat_dispersion_imag
_atom_type_scat_source
C C 0.0033 0.0016 'International Tables Vol C Tables 4.2.6.8 and 6.1.1.4'
H H 0.0000 0.0000 'International Tables Vol C Tables 4.2.6.8 and 6.1.1.4'
O O 0.0106 0.0060 'International Tables Vol C Tables 4.2.6.8 and 6.1.1.4'
loop_
_geom_angle_atom_site_label_1
_geom_angle_atom_site_label_2
_geom_angle_atom_site_label_3
_geom_angle
C6 O1 C5 122.1(2)
C8 O3 C13 121.2(2)
C18 C1 C2 119.5(3)
C18 C1 H1 120.2
C2 C1 H1 120.2
C3 C2 C1 120.0(3)
C3 C2 H16 120.0
C1 C2 H16 120.0
C2 C3 C4 120.5(3)
C2 C3 H15 119.8
C4 C3 H15 119.8
C3 C4 C17 119.1(3)
C3 C4 C5 120.7(3)
C17 C4 C5 120.1(3)
O1 C5 C4 106.5(2)
O1 C5 C14 108.2(2)
C4 C5 C14 111.9(2)
O1 C5 H12 110.0
C4 C5 H12 110.0
C14 C5 H12 110.0
O2 C6 O1 116.5(3)
O2 C6 C7 120.7(3)
O1 C6 C7 122.7(2)
C8 C7 C6 133.5(3)
C8 C7 H11 113.2
C6 C7 H11 113.2
C7 C8 O3 127.8(3)
C7 C8 C9 122.6(3)
O3 C8 C9 109.5(2)
C10 C9 C16 118.7(3)
C10 C9 C8 122.0(2)
C16 C9 C8 119.2(3)
C11 C10 C9 120.4(3)
C11 C10 H10 119.8
C9 C10 H10 119.8
C10 C11 C12 120.7(3)
C10 C11 H9 119.7
C12 C11 H9 119.7
C15 C12 C11 119.1(3)
C15 C12 H2 120.5
C11 C12 H2 120.5
O3 C13 C14 110.8(2)
O3 C13 H3 109.5
C14 C13 H3 109.5
O3 C13 H6 109.5
C14 C13 H6 109.5
H3 C13 H6 108.1
C13 C14 C5 112.6(2)
C13 C14 H5 109.1
C5 C14 H5 109.1
C13 C14 H4 109.1
C5 C14 H4 109.1
H5 C14 H4 107.8
C12 C15 C16 120.7(3)
C12 C15 H8 119.6
C16 C15 H8 119.6
C15 C16 C9 120.4(3)
C15 C16 H7 119.8
C9 C16 H7 119.8
C18 C17 C4 120.4(3)
C18 C17 H14 119.8
C4 C17 H14 119.8
C17 C18 C1 120.4(3)
C17 C18 H13 119.8
C1 C18 H13 119.8
loop_
_geom_bond_atom_site_label_1
_geom_bond_atom_site_label_2
_geom_bond_distance
O1 C6 1.353(4)
O1 C5 1.456(3)
O2 C6 1.213(3)
O3 C8 1.351(3)
O3 C13 1.438(4)
C1 C18 1.384(5)
C1 C2 1.390(5)
C1 H1 0.9500
C2 C3 1.387(4)
C2 H16 0.9500
C3 C4 1.387(4)
C3 H15 0.9500
C4 C17 1.394(4)
C4 C5 1.506(4)
C5 C14 1.519(4)
C5 H12 1.0000
C6 C7 1.472(4)
C7 C8 1.349(4)
C7 H11 0.9500
C8 C9 1.489(4)
C9 C10 1.395(4)
C9 C16 1.397(4)
C10 C11 1.378(4)
C10 H10 0.9500
C11 C12 1.394(4)
C11 H9 0.9500
C12 C15 1.381(5)
C12 H2 0.9500
C13 C14 1.508(4)
C13 H3 0.9900
C13 H6 0.9900
C14 H5 0.9900
C14 H4 0.9900
C15 C16 1.384(4)
C15 H8 0.9500
C16 H7 0.9500
C17 C18 1.381(4)
C17 H14 0.9500
C18 H13 0.9500
