#------------------------------------------------------------------------------
#$Date: 2015-08-10 12:57:30 +0300 (Mon, 10 Aug 2015) $
#$Revision: 153314 $
#$URL: svn://www.crystallography.net/cod/cif/1/52/93/1529384.cif $
#------------------------------------------------------------------------------
#
# This file is available in the Crystallography Open Database (COD),
# http://www.crystallography.net/
#
# All data on this site have been placed in the public domain by the
# contributors.
#
data_1529384
loop_
_publ_author_name
'A.M. Astakhov'
'A.D. Vasiliev'
'M.S. Molokeev'
'A.M. Sirotinin'
'L.A. Kruglyakova'
'R.S. Stepanov'
_publ_section_title
;
 Crystal and Molecular Structure of Nitramino Derivatives of Tetrazole and
 1,2,4-Triazole. II. 5-Nitraminotetrazole Diammonium Salt
;
_journal_issue                   1
_journal_name_full               'Journal of Structural Chemistry'
_journal_page_first              175
_journal_page_last               180
_journal_paper_doi               10.1023/B:JORY.0000041520.90323.fe
_journal_volume                  45
_journal_year                    2004
_chemical_formula_sum            'C H N8 O2'
_chemical_formula_weight         157.10
_space_group_crystal_system      monoclinic
_space_group_IT_number           13
_space_group_name_Hall           '-P 2yc'
_space_group_name_H-M_alt        'P 1 2/c 1'
_symmetry_space_group_name_Hall  '-P 2yc'
_symmetry_space_group_name_H-M   'P 1 2/c 1'
_atom_sites_solution_hydrogens   difmap
_audit_creation_method           SHELXL-2014/7
_cell_angle_alpha                90
_cell_angle_beta                 93.200(10)
_cell_angle_gamma                90
_cell_formula_units_Z            4
_cell_length_a                   7.2720(10)
_cell_length_b                   8.6430(10)
_cell_length_c                   10.4270(10)
_cell_measurement_temperature    293(2)
_cell_volume                     654.33(13)
_computing_structure_refinement  'SHELXL-2014/7 (Sheldrick, 2014)'
_diffrn_ambient_temperature      293(2)
_diffrn_measured_fraction_theta_full 1.000
_diffrn_measured_fraction_theta_max 0.990
_diffrn_radiation_wavelength     1.5406
_diffrn_reflns_av_R_equivalents  0.0197
_diffrn_reflns_av_unetI/netI     0.0186
_diffrn_reflns_laue_measured_fraction_full 1.000
_diffrn_reflns_laue_measured_fraction_max 0.990
_diffrn_reflns_limit_h_max       0
_diffrn_reflns_limit_h_min       -9
_diffrn_reflns_limit_k_max       7
_diffrn_reflns_limit_k_min       -11
_diffrn_reflns_limit_l_max       13
_diffrn_reflns_limit_l_min       -13
_diffrn_reflns_number            1541
_diffrn_reflns_point_group_measured_fraction_full 1.000
_diffrn_reflns_point_group_measured_fraction_max 0.990
_diffrn_reflns_theta_full        25.000
_diffrn_reflns_theta_max         80.298
_diffrn_reflns_theta_min         5.113
_exptl_absorpt_coefficient_mu    1.273
_exptl_crystal_density_diffrn    1.595
_exptl_crystal_F_000             316
_refine_diff_density_max         0.431
_refine_diff_density_min         -0.289
_refine_diff_density_rms         0.063
_refine_ls_extinction_coef       0.0023(7)
_refine_ls_extinction_expression Fc^*^=kFc[1+0.001xFc^2^\l^3^/sin(2\q)]^-1/4^
_refine_ls_extinction_method     'SHELXL-2014/7 (Sheldrick 2014'
_refine_ls_goodness_of_fit_ref   1.032
_refine_ls_hydrogen_treatment    refall
_refine_ls_matrix_type           full
_refine_ls_number_parameters     133
_refine_ls_number_reflns         1428
_refine_ls_number_restraints     0
_refine_ls_restrained_S_all      1.032
_refine_ls_R_factor_all          0.0456
_refine_ls_R_factor_gt           0.0379
_refine_ls_shift/su_max          0.024
_refine_ls_shift/su_mean         0.004
_refine_ls_structure_factor_coef Fsqd
_refine_ls_weighting_details
'w=1/[\s^2^(Fo^2^)+(0.0724P)^2^+0.1343P] where P=(Fo^2^+2Fc^2^)/3'
_refine_ls_weighting_scheme      calc
_refine_ls_wR_factor_gt          0.1006
_refine_ls_wR_factor_ref         0.1066
_reflns_Friedel_coverage         0.000
_reflns_friedel_fraction_full    .
_reflns_friedel_fraction_max     .
_reflns_number_gt                1211
_reflns_number_total             1428
_reflns_threshold_expression     'I > 2\s(I)'
_cod_data_source_file            CHN8O2.cif
_cod_data_source_block           a
_cod_database_code               1529384
_shelx_shelxl_version_number     2014/7
_shelx_space_group_comment
;
The symmetry employed for this shelxl refinement is uniquely defined
by the following loop, which should always be used as a source of
symmetry information in preference to the above space-group names.
They are only intended as comments.
;
_shelx_res_file
;

    DA9NATZ.res created by SHELXL-2014/7

TITL P2/c
CELL 1.5406   7.272  8.643   10.427  90.000  93.20  90.000
ZERR    4.00   0.001   0.001   0.001   0.000   0.01   0.000
LATT  1
SYMM X, -Y, 0.5+Z
SFAC C O N H
UNIT 4 8 32 4
HTAB
L.S. 4
BOND
FMAP 2
PLAN 20
ACTA 50
MPLA N1 N2 N3 N6 C
MPLA N5 N4 O1 O2 C
WGHT    0.072400    0.134300
EXTI    0.002297
FVAR       0.33469
MOLE   1
O1    2    0.747922    0.112697    0.253924    11.00000    0.03718    0.01824 =
         0.02887   -0.00481   -0.00150    0.00203
O2    2    0.753740   -0.052911    0.096808    11.00000    0.04935    0.02434 =
         0.01818   -0.00018    0.00128   -0.00408
N1    3    0.806998   -0.357125    0.158727    11.00000    0.02550    0.02086 =
         0.02042   -0.00086    0.00517    0.00031
N2    3    0.698459   -0.391697    0.350993    11.00000    0.02827    0.02281 =
         0.02176    0.00153    0.00620   -0.00004
N3    3    0.789002   -0.509357    0.182516    11.00000    0.02695    0.02139 =
         0.02501   -0.00043    0.00455    0.00064
N4    3    0.750231   -0.028821    0.216634    11.00000    0.01868    0.01897 =
         0.02090   -0.00145   -0.00063   -0.00040
N5    3    0.746651   -0.133413    0.303375    11.00000    0.03851    0.02067 =
         0.01857   -0.00099    0.00376    0.00192
N6    3    0.724080   -0.529213    0.296211    11.00000    0.02886    0.02238 =
         0.02627    0.00180    0.00575   -0.00118
C     1    0.749777   -0.288331    0.264472    11.00000    0.01987    0.02088 =
         0.01791    0.00048    0.00110    0.00073
MOLE   2
N7    3    0.992343    0.238253    0.052223    11.00000    0.02202    0.02554 =
         0.02334    0.00032    0.00376    0.00033
N8    3    0.503120    0.255383    0.442493    11.00000    0.02216    0.02475 =
         0.02369   -0.00009    0.00254   -0.00055
H1    4    0.573121    0.320544    0.396512    11.00000    0.03044
H2    4    0.444147    0.312438    0.497664    11.00000    0.03577
H3    4    0.563488    0.184822    0.481927    11.00000    0.03866
H4    4    0.426081    0.201505    0.387707    11.00000    0.04658
H5    4    0.932482    0.319590    0.087890    11.00000    0.03175
H6    4    1.052409    0.279869   -0.011093    11.00000    0.04001
H7    4    1.070917    0.194110    0.112329    11.00000    0.04042
H8    4    0.923394    0.162695    0.027109    11.00000    0.03872
HKLF 4

REM  P2/c
REM R1 =  0.0379 for    1211 Fo > 4sig(Fo)  and  0.0456 for all    1428 data
REM    133 parameters refined using      0 restraints

END

WGHT      0.0767      0.1138

REM Instructions for potential hydrogen bonds
EQIV $1 x, y+1, z
HTAB N8 N2_$1
HTAB N8 N6_$1
EQIV $2 -x+1, -y, -z+1
HTAB N8 N2_$2
EQIV $3 x, -y, z+1/2
HTAB N8 O2_$3
EQIV $4 -x+1, y, -z+1/2
HTAB N8 O1_$4
HTAB N8 O2_$4
HTAB N8 N4_$4
HTAB N7 N3_$1
EQIV $5 -x+2, -y, -z
HTAB N7 N1_$5
EQIV $6 -x+2, y, -z+1/2
HTAB N7 O1_$6
HTAB N7 O2
EQIV $7 x, -y, z-1/2
HTAB N7 N5_$7

REM Highest difference peak  0.431,  deepest hole -0.289,  1-sigma level  0.063
Q1    1   0.7261 -0.3364  0.3129  11.00000  0.05    0.43
Q2    1   0.7776 -0.3153  0.2057  11.00000  0.05    0.39
Q3    1   0.7589 -0.2053  0.2692  11.00000  0.05    0.33
Q4    1   0.6933 -0.6009  0.3355  11.00000  0.05    0.27
Q5    1   0.8317 -0.5726  0.1449  11.00000  0.05    0.27
Q6    1   0.6416 -0.3364  0.4069  11.00000  0.05    0.26
Q7    1   0.8554 -0.3034  0.1029  11.00000  0.05    0.24
Q8    1   0.7912  0.0449  0.0629  11.00000  0.05    0.22
Q9    1   0.7792 -0.1434  0.0700  11.00000  0.05    0.21
Q10   1   0.7630 -0.1595  0.1072  11.00000  0.05    0.21
Q11   1   0.7221 -0.0962  0.2540  11.00000  0.05    0.21
Q12   1   0.7064 -0.4638  0.3322  11.00000  0.05    0.20
Q13   1   0.7978  0.1770  0.1981  11.00000  0.05    0.19
Q14   1   0.7027 -0.0848  0.3679  11.00000  0.05    0.18
Q15   1   0.8098 -0.4374  0.1622  11.00000  0.05    0.18
Q16   1   0.6813  0.0473  0.2967  11.00000  0.05    0.15
Q17   1   0.7430  0.2725  0.2360  11.00000  0.05    0.15
Q18   1   0.7123 -0.3818  0.4400  11.00000  0.05    0.15
Q19   1   0.6594  0.1747  0.3187  11.00000  0.05    0.14
Q20   1   0.6123 -0.4437  0.4134  11.00000  0.05    0.14
;
_shelx_res_checksum              26031
_shelx_hkl_file
;
  -2  -1  13   11.10    0.24   1-0.08744-0.22991-0.28357 0.10471 0.94866 0.95321
  -1  -1  13    0.15    0.08   1 0.03428-0.13926-0.32901 0.15013 0.94423 0.96949
   0  -1  13    3.66    0.15   1 0.13707-0.02968-0.32907 0.15018 0.94058 0.98498
   0  -2  13    1.84    0.07   1 0.12658-0.01918-0.36409 0.00679 0.92844 0.99717
  -1  -2  13    4.86    0.17   1 0.02261-0.12758-0.36503 0.00775 0.93062 0.98314
  -4   0  12    2.63    0.12   1-0.29506-0.45531-0.25387 0.25347 0.90331 0.82672
  -3   0  12    0.27    0.10   1-0.15283-0.38516-0.35459 0.35418 0.91257 0.82930
  -2   0  12    3.36    0.14   1-0.02765-0.29797-0.40922 0.40880 0.90915 0.84456
  -1   0  12    4.59    0.17   1 0.08364-0.19689-0.43578 0.43535 0.89954 0.86602
   0   0  12    0.15    0.14   1 0.18236-0.08324-0.43900 0.43856 0.88870 0.88870
   0  -1  12    0.36    0.14   1 0.19782-0.09869-0.51093 0.33208 0.84641 0.93103
  -1  -1  12    0.69    0.05   1 0.09737-0.21061-0.50978 0.33094 0.85900 0.90659
  -2  -1  12    0.00    0.10   1-0.01647-0.30914-0.48513 0.30630 0.87213 0.88163
  -3  -1  12    0.10    0.10   1-0.14502-0.39296-0.43138 0.25256 0.88107 0.86085
  -4  -1  12    0.23    0.03   1-0.29245-0.45790-0.32806 0.14925 0.88062 0.84945
  -4  -2  12    0.81    0.03   1-0.30471-0.44563-0.36565 0.00843 0.86118 0.86893
  -3  -2  12    0.06    0.09   1-0.14800-0.38997-0.48384 0.12661 0.85307 0.88889
  -2  -2  12    3.47    0.14   1-0.01535-0.31025-0.53978 0.18254 0.83963 0.91417
  -1  -2  12    0.08    0.11   1 0.10116-0.21439-0.56350 0.20625 0.82441 0.94123
   0  -2  12    0.23    0.12   1 0.20329-0.10415-0.56244 0.20518 0.81169 0.96580
   0  -3  12    3.11    0.12   1 0.19557-0.09642-0.59319 0.05752 0.79079 0.98674
  -1  -3  12    0.10    0.11   1 0.09192-0.20514-0.59594 0.06028 0.80179 0.96390
  -2  -3  12    0.15    0.10   1-0.02777-0.29782-0.57075 0.03510 0.81797 0.93587
  -3  -3  12    1.19    0.05   1-0.16691-0.37105-0.50552-0.03011 0.83601 0.90599
  -2  -4  12    0.99    0.04   1-0.06152-0.26406-0.56702-0.14704 0.81683 0.93706
  -1  -4  12    3.11    0.12   1 0.06381-0.17702-0.60062-0.11345 0.79945 0.96628
   0  -4  12   10.71    0.28   1 0.16886-0.06970-0.59749-0.11659 0.79224 0.98533
  -5  -1  11    0.00    0.09   1-0.39284-0.57814-0.38197 0.20322 0.81340 0.75671
  -4  -1  11    9.84    0.36   1-0.23970-0.51891-0.49763 0.31886 0.81906 0.76289
  -3  -1  11    0.68    0.05   1-0.10099-0.44525-0.56498 0.38620 0.81213 0.78167
  -2  -1  11    2.48    0.11   1 0.02506-0.35893-0.60458 0.42579 0.79646 0.80918
  -1  -1  11    0.72    0.06   1 0.13753-0.25903-0.62373 0.44493 0.77608 0.84141
   0  -1  11    1.06    0.06   1 0.23628-0.14541-0.62524 0.44643 0.75599 0.87334
   0  -2  11   51.54    0.95   1 0.24940-0.15852-0.67689 0.31966 0.70556 0.92381
  -1  -2  11    2.53    0.09   1 0.14836-0.26985-0.67885 0.32163 0.72647 0.89106
  -2  -2  11   33.23    0.74   1 0.03326-0.36712-0.66269 0.30549 0.74901 0.85667
  -3  -2  11    2.48    0.10   1-0.09577-0.45046-0.62470 0.26752 0.76857 0.82527
  -4  -2  11    8.47    0.32   1-0.23833-0.52027-0.55607 0.19890 0.78183 0.80017
  -5  -2  11    0.51    0.03   1-0.39868-0.57229-0.43014 0.07298 0.78656 0.78359
  -5  -3  11    0.05    0.07   1-0.42421-0.54675-0.43195-0.10362 0.77110 0.79910
  -4  -3  11    0.96    0.04   1-0.24902-0.50957-0.58999 0.05441 0.75310 0.82894
  -3  -3  11    0.00    0.12   1-0.10165-0.44457-0.66451 0.12892 0.73367 0.86022
  -2  -3  11   13.77    0.45   1 0.03031-0.36416-0.70298 0.16737 0.71133 0.89440
  -1  -3  11    0.00    0.13   1 0.14773-0.26921-0.71728 0.18166 0.68831 0.92927
   0  -3  11    0.00    0.13   1 0.25070-0.15981-0.71235 0.17671 0.66868 0.96074
   0  -4  11    2.59    0.11   1 0.23807-0.14717-0.73249 0.01845 0.65027 0.97919
  -1  -4  11    0.66    0.05   1 0.13353-0.25500-0.73919 0.02516 0.66673 0.95088
  -2  -4  11    1.34    0.05   1 0.01379-0.34763-0.72447 0.01045 0.68905 0.91672
  -3  -4  11    0.41    0.04   1-0.12197-0.42424-0.68127-0.03273 0.71403 0.87990
  -4  -4  11    0.20    0.03   1-0.27835-0.48023-0.58918-0.12482 0.74198 0.84011
  -3  -5  11    8.79    0.24   1-0.16553-0.38067-0.66166-0.23076 0.72109 0.87288
  -2  -5  11    3.98    0.15   1-0.02135-0.31248-0.72121-0.17121 0.69029 0.91553
  -1  -5  11    2.23    0.08   1 0.10179-0.22325-0.74092-0.15152 0.66866 0.94900
   0  -5  11    2.14    0.08   1 0.20764-0.11673-0.73435-0.15811 0.65700 0.97250
   0  -6  11    0.80    0.04   1 0.14554-0.05462-0.69916-0.37170 0.70720 0.92235
  -1  -6  11    1.66    0.06   1 0.03819-0.15964-0.70214-0.36871 0.71221 0.90549
  -6   0  10   13.05    0.33   1-0.52182-0.66980-0.29887 0.29857 0.76871 0.64140
  -5   0  10    0.23    0.12   1-0.36874-0.61052-0.43891 0.43861 0.79764 0.62431
  -4   0  10    4.17    0.16   1-0.22544-0.54145-0.52415 0.52383 0.80752 0.62628
  -3   0  10    4.70    0.20   1-0.09066-0.46385-0.58042 0.58009 0.80308 0.64256
  -2   0  10   10.64    0.43   1 0.03281-0.37495-0.61679 0.61644 0.78720 0.67027
  -1   0  10    8.12    0.32   1 0.14195-0.27172-0.63732 0.63696 0.76432 0.70500
   0   0  10    2.84    0.12   1 0.23594-0.15334-0.64326 0.64289 0.74058 0.74058
   0  -1  10    9.45    0.37   1 0.26576-0.18315-0.71028 0.53150 0.66582 0.81539
  -1  -1  10   16.26    0.61   1 0.16835-0.29811-0.70882 0.53006 0.69351 0.77586
  -2  -1  10   13.93    0.56   1 0.05553-0.39767-0.69290 0.51414 0.72105 0.73648
  -3  -1  10    6.75    0.28   1-0.07158-0.48292-0.66036 0.48162 0.74253 0.70315
  -4  -1  10    6.89    0.28   1-0.21003-0.55684-0.60649 0.42776 0.75408 0.67976
  -5  -1  10    2.33    0.09   1-0.35744-0.62180-0.52158 0.34286 0.75369 0.66830
  -6  -1  10    2.42    0.10   1-0.51636-0.67525-0.37764 0.19893 0.73870 0.67145
  -6  -2  10    0.34    0.03   1-0.52100-0.67060-0.42508 0.06797 0.71005 0.70014
  -5  -2  10    0.34    0.04   1-0.35399-0.62525-0.58251 0.22539 0.71094 0.71110
  -4  -2  10   28.93    0.69   1-0.20258-0.56428-0.66951 0.31237 0.70239 0.73149
  -3  -2  10    0.17    0.05   1-0.06113-0.49336-0.72196 0.36481 0.68492 0.76081
  -2  -2  10    2.04    0.08   1 0.06879-0.41091-0.75105 0.39389 0.65965 0.79792
  -1  -2  10    0.00    0.14   1 0.18455-0.31430-0.76233 0.40516 0.62984 0.83957
   0  -2  10   62.03    1.17   1 0.28494-0.20232-0.75882 0.40163 0.60085 0.88041
   0  -3  10    8.60    0.35   1 0.29179-0.20916-0.79264 0.25704 0.55100 0.93030
  -1  -3  10    0.17    0.17   1 0.18901-0.31875-0.80048 0.26490 0.57864 0.89082
  -2  -3  10    8.95    0.33   1 0.07106-0.41317-0.79283 0.25726 0.60851 0.84911
  -3  -3  10    2.67    0.11   1-0.06096-0.49352-0.76582 0.23026 0.63595 0.80982
  -4  -3  10    0.27    0.14   1-0.20504-0.56182-0.71273 0.17718 0.65849 0.77544
  -5  -3  10    0.00    0.12   1-0.36114-0.61808-0.61923 0.08370 0.67614 0.74594
  -5  -4  10    0.07    0.09   1-0.38396-0.59525-0.62424-0.08971 0.65803 0.76410
  -4  -4  10    0.54    0.04   1-0.21990-0.54694-0.73453 0.02057 0.62886 0.80511
  -3  -4  10    0.25    0.12   1-0.07272-0.48175-0.79210 0.07813 0.60124 0.84458
  -2  -4  10   41.96    0.86   1 0.06112-0.40322-0.81947 0.10549 0.57258 0.88508
  -1  -4  10    0.09    0.14   1 0.18075-0.31048-0.82541 0.11142 0.54428 0.92522
   0  -4  10    4.42    0.19   1 0.28535-0.20271-0.81472 0.10071 0.52014 0.96120
   0  -5  10    2.58    0.10   1 0.26440-0.18174-0.82605-0.06637 0.51193 0.96946
  -1  -5  10   11.70    0.44   1 0.15842-0.28814-0.83759-0.05482 0.53107 0.93847
  -2  -5  10    0.04    0.12   1 0.03721-0.37930-0.83058-0.06181 0.55707 0.90063
  -3  -5  10    1.76    0.06   1-0.09913-0.45533-0.79871-0.09366 0.58722 0.85863
  -4  -5  10    0.29    0.11   1-0.25227-0.51456-0.72815-0.16421 0.62241 0.81161
  -3  -6  10    2.61    0.09   1-0.14788-0.40657-0.77495-0.29584 0.60546 0.84044
  -2  -6  10    0.87    0.04   1-0.00527-0.33681-0.82089-0.24991 0.57008 0.88766
  -1  -6  10    0.01    0.11   1 0.11852-0.24823-0.83349-0.23732 0.54566 0.92393
   0  -6  10   19.83    0.47   1 0.22559-0.14292-0.82352-0.24730 0.53250 0.94894
   0  -7  10    0.03    0.08   1 0.15515-0.07248-0.78957-0.45966 0.60165 0.87982
  -1  -7  10    0.25    0.09   1 0.04669-0.17639-0.79399-0.45523 0.60800 0.86164
  -2  -7  10    0.12    0.08   1-0.08790-0.25417-0.75896-0.49025 0.63945 0.81834
  -7  -1   9    0.03    0.08   1-0.65610-0.75615-0.30719 0.12853 0.65172 0.59847
  -6  -1   9    0.35    0.04   1-0.49128-0.70860-0.50847 0.32981 0.67879 0.58325
  -5  -1   9    0.32    0.05   1-0.33929-0.64821-0.61811 0.43943 0.68921 0.58467
  -4  -1   9    1.26    0.07   1-0.19205-0.58308-0.68902 0.51033 0.68719 0.59853
  -3  -1   9    0.20    0.16   1-0.05106-0.51170-0.73497 0.55626 0.67245 0.62511
  -2  -1   9    0.14    0.17   1 0.07921-0.42960-0.76256 0.58384 0.64566 0.66374
  -1  -1   9    1.47    0.07   1 0.19375-0.33177-0.77576 0.59703 0.61062 0.71063
   0  -1   9    0.44    0.17   1 0.29014-0.21579-0.77673 0.59798 0.57455 0.75854
   0  -2   9   91.02    1.42   1 0.31480-0.24044-0.82013 0.46298 0.49484 0.83829
  -1  -2   9    8.68    0.34   1 0.21460-0.35261-0.82605 0.46891 0.53252 0.78878
  -2  -2   9   98.23    1.47   1 0.09673-0.44711-0.81931 0.46218 0.56986 0.73960
  -3  -2   9    7.19    0.31   1-0.03631-0.52644-0.79674 0.43963 0.60046 0.69715
  -4  -2   9   61.64    1.11   1-0.17993-0.59519-0.75372 0.39662 0.62124 0.66453
  -5  -2   9    4.03    0.18   1-0.33030-0.65719-0.68307 0.32599 0.63210 0.64182
  -6  -2   9   20.83    0.49   1-0.48704-0.71283-0.56914 0.21206 0.63440 0.62768
  -6  -3   9    2.31    0.08   1-0.49289-0.70696-0.60327 0.06778 0.59866 0.66347
  -5  -3   9    3.62    0.15   1-0.33035-0.65713-0.72700 0.19150 0.58274 0.69122
  -4  -3   9    3.62    0.16   1-0.17726-0.59786-0.79940 0.26389 0.56346 0.72235
  -3  -3   9    6.78    0.25   1-0.03199-0.53075-0.84084 0.30531 0.53792 0.75973
  -2  -3   9    2.22    0.09   1 0.10259-0.45296-0.85967 0.32414 0.50560 0.80389
  -1  -3   9   20.46    0.68   1 0.22261-0.36060-0.86120 0.32565 0.46886 0.85248
   0  -3   9    7.10    0.27   1 0.32569-0.25132-0.84938 0.31382 0.43308 0.90011
   0  -4   9    5.39    0.22   1 0.32269-0.24831-0.86915 0.15518 0.39243 0.94080
  -1  -4   9    0.23    0.17   1 0.21753-0.35552-0.88483 0.17087 0.42376 0.89762
  -2  -4   9    6.29    0.25   1 0.09628-0.44664-0.88630 0.17235 0.45789 0.85165
  -3  -4   9    1.83    0.08   1-0.03907-0.52366-0.86900 0.15506 0.49054 0.80716
  -4  -4   9    2.77    0.11   1-0.18558-0.58952-0.82671 0.11279 0.52016 0.76569
  -5  -4   9    2.67    0.12   1-0.34188-0.64559-0.74858 0.03468 0.54831 0.72570
  -6  -4   9    0.68    0.03   1-0.51467-0.68517-0.60107-0.11283 0.58188 0.68028
  -5  -5   9    0.20    0.11   1-0.36948-0.61798-0.74206-0.15025 0.53799 0.73607
  -4  -5   9    0.17    0.04   1-0.20705-0.56804-0.83488-0.05745 0.49785 0.78805
  -3  -5   9    8.05    0.33   1-0.05869-0.50403-0.88212-0.01022 0.46357 0.83417
  -2  -5   9    0.08    0.13   1 0.07732-0.42767-0.90091 0.00855 0.43095 0.87864
  -1  -5   9   13.79    0.53   1 0.19935-0.33733-0.89916 0.00679 0.40034 0.92108
   0  -5   9    1.28    0.07   1 0.30595-0.23156-0.88211-0.01027 0.37493 0.95834
   0  -6   9    0.14    0.14   1 0.27473-0.20033-0.88815-0.18263 0.38339 0.94993
  -1  -6   9    2.91    0.11   1 0.16711-0.30508-0.90408-0.16669 0.40228 0.91919
  -2  -6   9    1.70    0.07   1 0.04419-0.39453-0.90291-0.16785 0.42958 0.88005
  -3  -6   9    2.97    0.12   1-0.09349-0.46922-0.87815-0.19261 0.46343 0.83435
  -4  -6   9    0.67    0.04   1-0.24689-0.52819-0.81734-0.25339 0.50617 0.77977
  -3  -7   9    5.52    0.21   1-0.15277-0.40993-0.84428-0.40488 0.50454 0.79329
  -2  -7   9    0.66    0.04   1-0.00868-0.34165-0.88563-0.36355 0.46333 0.84634
  -1  -7   9    6.39    0.27   1 0.11657-0.25453-0.89469-0.35450 0.43728 0.88423
   0  -7   9    1.19    0.05   1 0.22502-0.15060-0.88256-0.36663 0.42501 0.90835
   0  -8   9    0.73    0.03   1 0.13657-0.06214-0.84104-0.58657 0.53047 0.80293
  -1  -8   9    0.21    0.09   1 0.02637-0.16432-0.84396-0.58364 0.53661 0.78495
  -7   0   8    0.22    0.10   1-0.64425-0.77626-0.36751 0.36731 0.63382 0.46821
  -6   0   8   27.84    0.69   1-0.49753-0.71061-0.51199 0.51177 0.67150 0.44237
  -5   0   8    0.75    0.06   1-0.35221-0.64356-0.60508 0.60484 0.69340 0.43231
  -4   0   8    1.59    0.07   1-0.20732-0.57608-0.66930 0.66906 0.70096 0.43660
  -3   0   8    1.14    0.07   1-0.06621-0.50482-0.71379 0.71353 0.69262 0.45678
  -2   0   8   34.75    0.84   1 0.06444-0.42310-0.74383 0.74356 0.66800 0.49324
  -1   0   8    0.19    0.14   1 0.17670-0.32299-0.76263 0.76234 0.63132 0.54177
   0   0   8   25.20    0.69   1 0.26638-0.20030-0.77111 0.77081 0.59247 0.59247
   0  -1   8   16.16    0.57   1 0.31135-0.24526-0.82920 0.65049 0.48109 0.70388
  -1  -1   8   49.11    0.97   1 0.21554-0.36182-0.82937 0.65068 0.52688 0.64625
  -2  -1   8    3.89    0.16   1 0.09766-0.45631-0.81910 0.64042 0.57005 0.59124
  -3  -1   8   47.13    1.01   1-0.03774-0.53328-0.79576 0.61709 0.60158 0.54787
  -4  -1   8    0.65    0.06   1-0.18299-0.60041-0.75544 0.57679 0.61813 0.51947
  -5  -1   8   20.54    0.66   1-0.33186-0.66391-0.69289 0.51425 0.62078 0.50498
  -6  -1   8    0.80    0.05   1-0.48160-0.72654-0.59911 0.42048 0.61190 0.50202
  -7  -1   8    8.21    0.30   1-0.63426-0.78625-0.45058 0.27196 0.59199 0.51009
  -7  -2   8    1.87    0.08   1-0.63113-0.78936-0.50634 0.14931 0.55160 0.55052
  -6  -2   8   22.87    0.59   1-0.47174-0.73638-0.66398 0.30694 0.55308 0.56088
  -5  -2   8    3.51    0.13   1-0.31817-0.67758-0.75943 0.40238 0.54902 0.57679
  -4  -2   8    0.11    0.18   1-0.16658-0.61680-0.82049 0.46343 0.53689 0.60076
  -3  -2   8    9.28    0.37   1-0.01902-0.55200-0.85670 0.49962 0.51382 0.63567
  -2  -2   8   58.35    1.10   1 0.11904-0.47768-0.87339 0.51630 0.47838 0.68296
  -1  -2   8   16.46    0.59   1 0.24063-0.38690-0.87500 0.51789 0.43310 0.74008
   0  -2   8    0.00    0.13   1 0.34124-0.27514-0.86538 0.50827 0.38569 0.79933
   0  -3   8   24.29    0.72   1 0.35505-0.28894-0.88780 0.35227 0.31247 0.87260
  -1  -3   8   26.57    0.75   1 0.25104-0.39729-0.90514 0.36963 0.35681 0.81642
  -2  -3   8   30.92    0.83   1 0.12753-0.48616-0.91036 0.37486 0.40041 0.76097
  -3  -3   8   13.09    0.53   1-0.01139-0.55961-0.89881 0.36332 0.43710 0.71244
  -4  -3   8   35.87    0.88   1-0.15979-0.62358-0.86565 0.33017 0.46502 0.67267
  -5  -3   8   14.40    0.53   1-0.31312-0.68262-0.80503 0.26957 0.48579 0.64006
  -6  -3   8    9.63    0.36   1-0.47039-0.73772-0.70570 0.17025 0.50291 0.61110
  -7  -3   8    3.67    0.15   1-0.63926-0.78123-0.52817-0.00727 0.52250 0.57967
  -6  -4   8    0.11    0.11   1-0.48046-0.72764-0.72244 0.00859 0.46979 0.64426
  -5  -4   8    0.68    0.05   1-0.31850-0.67724-0.83067 0.11679 0.43838 0.68752
  -4  -4   8   53.65    1.03   1-0.16375-0.61961-0.89313 0.17925 0.40935 0.72839
  -3  -4   8    0.83    0.06   1-0.01539-0.55560-0.92529 0.21139 0.37773 0.77185
  -2  -4   8    1.65    0.08   1 0.12325-0.48187-0.93414 0.22023 0.34155 0.81988
  -1  -4   8    2.71    0.12   1 0.24742-0.39367-0.92501 0.21109 0.30197 0.87129
   0  -4   8   41.15    0.95   1 0.35370-0.28758-0.90295 0.18902 0.26373 0.92138
   0  -5   8    0.06    0.13   1 0.33861-0.27248-0.91458 0.02224 0.23995 0.94521
  -1  -5   8   18.45    0.65   1 0.23089-0.37712-0.93815 0.04582 0.27076 0.90255
  -2  -5   8    4.78    0.20   1 0.10672-0.46532-0.94805 0.05573 0.30542 0.85605
  -3  -5   8   24.78    0.71   1-0.03123-0.53975-0.93898 0.04667 0.34051 0.80912
  -4  -5   8    1.04    0.06   1-0.17953-0.60382-0.90482 0.01253 0.37568 0.76210
  -5  -5   8    4.80    0.19   1-0.33652-0.65920-0.83608-0.05620 0.41399 0.71195
  -6  -5   8    0.67    0.04   1-0.50765-0.70044-0.70570-0.18657 0.46530 0.64879
  -5  -6   8    0.21    0.11   1-0.37229-0.62342-0.81487-0.25582 0.42300 0.70299
  -4  -6   8    0.26    0.13   1-0.20926-0.57408-0.90003-0.17067 0.37024 0.76759
  -3  -6   8    2.29    0.09   1-0.05982-0.51115-0.94086-0.12986 0.32985 0.81982
  -2  -6   8   41.60    0.88   1 0.07783-0.43643-0.95355-0.11717 0.29514 0.86638
  -1  -6   8    8.70    0.34   1 0.20188-0.34811-0.94592-0.12482 0.26508 0.90828
   0  -6   8    2.14    0.09   1 0.31052-0.24438-0.92366-0.14709 0.24183 0.94337
   0  -7   8    3.10    0.13   1 0.26822-0.20207-0.92824-0.32092 0.27258 0.91267
  -1  -7   8    1.22    0.06   1 0.15898-0.30519-0.94672-0.30242 0.28876 0.88464
  -2  -7   8    0.00    0.11   1 0.03449-0.39308-0.94879-0.30035 0.31570 0.84586
  -3  -7   8    0.48    0.04   1-0.10463-0.46633-0.92743-0.32170 0.35289 0.79682
  -4  -7   8    0.20    0.09   1-0.25994-0.52339-0.86933-0.37978 0.40539 0.73248
  -3  -8   8    7.53    0.22   1-0.18128-0.38967-0.87712-0.55041 0.43414 0.71562
  -2  -8   8    3.36    0.13   1-0.03221-0.32637-0.92281-0.50473 0.38173 0.77987
  -1  -8   8    4.13    0.17   1 0.09528-0.24149-0.93246-0.49510 0.35350 0.81995
   0  -8   8   12.53    0.36   1 0.20515-0.13898-0.92056-0.50701 0.34358 0.84171
  -8  -1   7    6.12    0.19   1-0.78368-0.85745-0.31066 0.13209 0.49340 0.44871
  -7  -1   7    0.22    0.14   1-0.62851-0.80025-0.54180 0.36322 0.52223 0.43172
  -6  -1   7    0.72    0.06   1-0.48145-0.73494-0.66874 0.49015 0.53896 0.42684
  -5  -1   7    1.18    0.07   1-0.33305-0.67097-0.75348 0.57488 0.54757 0.43007
  -4  -1   7   21.67    0.68   1-0.18212-0.60953-0.81060 0.63198 0.54572 0.44377
  -3  -1   7    2.64    0.11   1-0.03146-0.54782-0.84654 0.66791 0.52902 0.47231
  -2  -1   7    5.43    0.21   1 0.11128-0.47819-0.86569 0.68704 0.49373 0.51944
  -1  -1   7    1.33    0.06   1 0.23477-0.38931-0.87225 0.69359 0.44170 0.58331
   0  -1   7    1.14    0.06   1 0.33069-0.27286-0.86989 0.69122 0.38412 0.65274
   0  -2   7    2.18    0.09   1 0.36561-0.30777-0.89624 0.53916 0.27146 0.76545
  -1  -2   7    0.00    0.15   1 0.26368-0.41821-0.91151 0.55444 0.33011 0.69495
  -2  -2   7   35.08    0.80   1 0.13630-0.50320-0.91637 0.55932 0.38367 0.62955
  -3  -2   7    0.31    0.18   1-0.00872-0.57055-0.90562 0.54858 0.42307 0.57830
  -4  -2   7   42.49    0.96   1-0.16132-0.63032-0.87484 0.51781 0.44726 0.54227
  -5  -2   7    1.67    0.08   1-0.31471-0.68930-0.82004 0.46303 0.45988 0.51781
  -6  -2   7   31.90    0.77   1-0.46663-0.74975-0.73495 0.37794 0.46539 0.50045
  -7  -2   7    0.66    0.05   1-0.61917-0.80958-0.60345 0.24646 0.46726 0.48675
  -7  -3   7    2.28    0.09   1-0.61858-0.81017-0.63833 0.10293 0.42305 0.53100
  -6  -3   7    7.76    0.31   1-0.45998-0.75639-0.77808 0.24267 0.40162 0.56427
  -5  -3   7    7.10    0.29   1-0.30521-0.69879-0.86423 0.32880 0.38248 0.59526
  -4  -3   7    0.24    0.18   1-0.15073-0.64090-0.91706 0.38162 0.36039 0.62919
  -3  -3   7   18.57    0.63   1 0.00181-0.58107-0.94360 0.40815 0.33089 0.67053
  -2  -3   7    5.57    0.25   1 0.14664-0.51353-0.94793 0.41246 0.29072 0.72254
  -1  -3   7   26.37    0.71   1 0.27532-0.42984-0.93460 0.39912 0.24052 0.78458
   0  -3   7   31.58    0.77   1 0.38113-0.32328-0.90953 0.37404 0.18717 0.84978
   0  -4   7    3.03    0.13   1 0.37975-0.32189-0.91845 0.20456 0.13201 0.90498
  -1  -4   7    1.75    0.07   1 0.27163-0.42614-0.94876 0.23487 0.17669 0.84846
  -2  -4   7    5.89    0.19   1 0.14326-0.51014-0.96649 0.25262 0.22093 0.79238
  -3  -4   7    0.24    0.15   1 0.00005-0.57930-0.96563 0.25177 0.25977 0.74169
  -4  -4   7    0.41    0.18   1-0.15126-0.64036-0.94136 0.22751 0.29292 0.69671
  -5  -4   7    0.05    0.15   1-0.30606-0.69793-0.88892 0.17509 0.32338 0.65440
  -6  -4   7    0.90    0.05   1-0.46369-0.75267-0.79922 0.08540 0.35611 0.60983
  -7  -4   7    1.65    0.06   1-0.63106-0.79767-0.64124-0.07257 0.40079 0.55330
  -6  -5   7    0.66    0.04   1-0.48053-0.73582-0.79753-0.09470 0.33752 0.62846
  -5  -5   7   13.93    0.49   1-0.31853-0.68545-0.89677 0.00453 0.28908 0.68874
  -4  -5   7   31.03    0.80   1-0.16325-0.62836-0.95182 0.05956 0.25028 0.73938
  -3  -5   7   30.95    0.82   1-0.01346-0.56578-0.97653 0.08426 0.21412 0.78739
  -2  -5   7   18.07    0.64   1 0.12765-0.49451-0.97712 0.08484 0.17727 0.83608
  -1  -5   7   44.25    0.99   1 0.25499-0.40949-0.95880 0.06651 0.13958 0.88562
   0  -5   7  113.19    1.57   1 0.36442-0.30655-0.92746 0.03515 0.10442 0.93262
   0  -6   7    3.13    0.11   1 0.33712-0.27924-0.93770-0.13301 0.10314 0.93394
  -1  -6   7   15.61    0.58   1 0.22698-0.38147-0.96690-0.10380 0.12939 0.89585
  -2  -6   7    4.63    0.16   1 0.10076-0.46762-0.98266-0.08803 0.16129 0.85211
  -3  -6   7    3.59    0.15   1-0.03853-0.54070-0.97924-0.09143 0.19676 0.80480
  -4  -6   7   11.40    0.45   1-0.18747-0.60413-0.95059-0.12008 0.23682 0.75289
  -5  -6   7    6.68    0.26   1-0.34484-0.65913-0.88742-0.18324 0.28636 0.69150
  -6  -6   7    5.02    0.19   1-0.51769-0.69866-0.76148-0.30916 0.36072 0.60530
  -5  -7   7    4.43    0.18   1-0.39260-0.61136-0.84963-0.39943 0.32984 0.64807
  -4  -7   7    2.71    0.11   1-0.22684-0.56475-0.93517-0.31390 0.25914 0.73062
  -3  -7   7    3.87    0.16   1-0.07652-0.50270-0.97341-0.27568 0.21152 0.79008
  -2  -7   7   37.51    0.82   1 0.06207-0.42892-0.98316-0.26594 0.17533 0.83811
  -1  -7   7    3.03    0.11   1 0.18754-0.34202-0.97265-0.27646 0.14759 0.87769
   0  -7   7   13.35    0.52   1 0.29804-0.24015-0.94793-0.30119 0.12906 0.90807
   0  -8   7    1.50    0.06   1 0.24419-0.18628-0.95393-0.47360 0.18798 0.84920
  -1  -8   7    0.38    0.13   1 0.13347-0.28794-0.97213-0.45539 0.20015 0.82518
  -2  -8   7    1.50    0.07   1 0.00753-0.37436-0.97401-0.45350 0.22670 0.78678
  -3  -8   7    2.64    0.11   1-0.13358-0.44563-0.95153-0.47597 0.26937 0.73227
  -4  -8   7    0.02    0.08   1-0.29446-0.49712-0.88654-0.54094 0.34005 0.64975
  -2  -9   7    1.26    0.05   1-0.08258-0.28425-0.93178-0.67414 0.34858 0.66495
  -1  -9   7    0.12    0.09   1 0.05043-0.20489-0.94974-0.65619 0.31153 0.71384
   0  -9   7    0.00    0.09   1 0.16194-0.10402-0.94169-0.66425 0.30377 0.73344
  -8   0   6   25.13    0.48   1-0.78682-0.86259-0.34161 0.34148 0.46940 0.32455
  -7   0   6    7.47    0.29   1-0.65075-0.78629-0.51997 0.51983 0.51626 0.28954
  -6   0   6    4.09    0.19   1-0.51382-0.71085-0.63259 0.63244 0.55007 0.26757
  -5   0   6   19.33    0.66   1-0.37201-0.64028-0.71116 0.71100 0.57501 0.25448
  -4   0   6   53.52    1.02   1-0.22407-0.57585-0.76637 0.76620 0.58879 0.25254
  -3   0   6   39.64    0.81   1-0.07226-0.51529-0.80406 0.80387 0.58539 0.26778
  -2   0   6    5.40    0.22   1 0.07426-0.44944-0.82909 0.82889 0.55765 0.30736
  -1   0   6   38.74    0.70   1 0.19817-0.36098-0.84615 0.84594 0.50524 0.37162
   0   0   6   17.04    0.46   1 0.28427-0.23471-0.85745 0.85723 0.44435 0.44435
   0  -1   6  226.97    1.68   1 0.34929-0.29972-0.89954 0.72091 0.28172 0.60703
  -1  -1   6    0.04    0.04   1 0.25198-0.41478-0.90589 0.72727 0.35419 0.52271
  -2  -1   6  159.83    1.50   1 0.11952-0.49469-0.90450 0.72589 0.41565 0.44941
  -3  -1   6    2.51    0.11   1-0.03297-0.55457-0.88977 0.71118 0.45288 0.40034
  -4  -1   6   59.10    1.07   1-0.18945-0.61046-0.85721 0.67863 0.46774 0.37363
  -5  -1   6    6.19    0.25   1-0.34175-0.67053-0.80349 0.62492 0.46780 0.36173
  -6  -1   6    7.62    0.30   1-0.48825-0.73640-0.72408 0.54552 0.45931 0.35838
  -7  -1   6    3.96    0.15   1-0.63086-0.80617-0.60875 0.43020 0.44526 0.36058
  -8  -1   6    0.57    0.04   1-0.77510-0.87429-0.42392 0.24539 0.42463 0.36937
  -8  -2   6    6.99    0.25   1-0.76974-0.87965-0.47490 0.11796 0.38306 0.41098
  -7  -2   6    0.00    0.16   1-0.61625-0.82077-0.67194 0.31499 0.37587 0.43001
  -6  -2   6    0.38    0.17   1-0.46841-0.75623-0.78957 0.43260 0.36985 0.44788
  -5  -2   6    0.57    0.06   1-0.31837-0.69390-0.86832 0.51134 0.36216 0.46741
  -4  -2   6   27.59    0.75   1-0.16373-0.63617-0.91899 0.56200 0.34919 0.49223
  -3  -2   6    1.73    0.07   1-0.00582-0.58171-0.94545 0.58844 0.32513 0.52813
  -2  -2   6    2.51    0.11   1 0.14811-0.52327-0.94992 0.59290 0.28326 0.58184
  -1  -2   6    5.36    0.21   1 0.28413-0.44692-0.93647 0.57944 0.22150 0.65545
   0  -2   6   13.43    0.44   1 0.38883-0.33925-0.91239 0.55535 0.14974 0.73905
   0  -3   6    6.25    0.25   1 0.40436-0.35477-0.91405 0.37860 0.05516 0.83367
  -1  -3   6   13.70    0.48   1 0.29553-0.45831-0.94999 0.41455 0.11766 0.75933
  -2  -3   6   34.77    0.78   1 0.15963-0.53478-0.97336 0.43793 0.17353 0.69162
  -3  -3   6   14.91    0.54   1 0.00753-0.59505-0.97649 0.44107 0.21578 0.63752
  -4  -3   6   30.94    0.82   1-0.14932-0.65057-0.95544 0.42004 0.24610 0.59536
  -5  -3   6    6.08    0.25   1-0.30458-0.70768-0.90817 0.37278 0.26989 0.55972
  -6  -3   6   34.05    0.82   1-0.45714-0.76749-0.83050 0.29512 0.29243 0.52535
  -7  -3   6    7.17    0.28   1-0.60998-0.82702-0.70952 0.17415 0.31839 0.48754
  -8  -3   6   13.60    0.28   1-0.77634-0.87303-0.48523-0.05012 0.35845 0.43564
  -7  -4   6    0.22    0.12   1-0.61501-0.82198-0.72158 0.00781 0.28324 0.52273
  -6  -4   6   28.85    0.72   1-0.45635-0.76827-0.85035 0.13657 0.23627 0.58155
  -5  -4   6    0.31    0.16   1-0.30178-0.71047-0.92832 0.21452 0.20014 0.62953
  -4  -4   6    0.95    0.07   1-0.14690-0.65298-0.97339 0.25959 0.16757 0.67393
  -3  -4   6    3.58    0.13   1 0.00752-0.59503-0.99110 0.27727 0.13340 0.71995
  -2  -4   6   13.03    0.51   1 0.15619-0.53133-0.98412 0.27029 0.09324 0.77195
  -1  -4   6    3.00    0.12   1 0.29014-0.45291-0.95655 0.24270 0.04579 0.83124
   0  -4   6   22.67    0.65   1 0.40104-0.35144-0.91569 0.20183-0.00425 0.89313
   0  -5   6   16.11    0.59   1 0.38379-0.33418-0.92182 0.02955-0.03301 0.92194
  -1  -5   6   45.82    0.98   1 0.27195-0.43471-0.96227 0.07001 0.00489 0.87219
  -2  -5   6    3.58    0.16   1 0.14049-0.51561-0.98944 0.09719 0.04404 0.82119
  -3  -5   6   33.25    0.87   1-0.00446-0.58304-0.99665 0.10442 0.08148 0.77192
  -4  -5   6    1.37    0.07   1-0.15613-0.64374-0.97952 0.08730 0.11840 0.72315
  -5  -5   6   30.04    0.77   1-0.31045-0.70179-0.93411 0.04190 0.15881 0.67090
  -6  -5   6    1.07    0.05   1-0.46758-0.75703-0.85206-0.04013 0.20894 0.60892
  -7  -5   6    7.66    0.25   1-0.63604-0.80094-0.70238-0.18980 0.28367 0.52235
  -6  -6   6    0.82    0.05   1-0.49381-0.73079-0.83367-0.23693 0.21945 0.59846
  -5  -6   6    2.47    0.09   1-0.33136-0.68087-0.92825-0.14237 0.15038 0.67937
  -4  -6   6   33.20    0.81   1-0.17672-0.62314-0.97800-0.09262 0.10093 0.74067
  -3  -6   6    5.13    0.21   1-0.02727-0.56021-0.99769-0.07295 0.06082 0.79262
  -2  -6   6    9.05    0.37   1 0.11442-0.48954-0.99326-0.07739 0.02537 0.83991
  -1  -6   6    0.00    0.18   1 0.24355-0.40630-0.96968-0.10099-0.00697 0.88409
   0  -6   6   37.19    0.92   1 0.35573-0.30611-0.93301-0.13767-0.03452 0.92348
   0  -7   6    9.61    0.36   1 0.31787-0.26824-0.94775-0.30134-0.00969 0.89870
  -1  -7   6    0.31    0.13   1 0.20569-0.36843-0.97863-0.27045 0.00959 0.86758
  -2  -7   6    8.61    0.35   1 0.07838-0.45348-0.99639-0.25267 0.03719 0.82814
  -3  -7   6    2.84    0.10   1-0.06109-0.52638-0.99524-0.25381 0.07256 0.78092
  -4  -7   6    1.19    0.06   1-0.20980-0.59004-0.96904-0.28000 0.11840 0.72324
  -5  -7   6    0.36    0.04   1-0.36779-0.64443-0.90741-0.34161 0.18262 0.64717
  -6  -7   6    0.13    0.09   1-0.54912-0.67548-0.76873-0.48028 0.29688 0.52107
  -5  -8   6    1.44    0.06   1-0.43766-0.57455-0.84199-0.58545 0.29069 0.53915
  -4  -8   6    0.00    0.10   1-0.26116-0.53868-0.94505-0.48240 0.18197 0.65971
  -3  -8   6    0.08    0.11   1-0.10903-0.47844-0.98570-0.44176 0.12238 0.73114
  -2  -8   6   19.07    0.54   1 0.03023-0.40533-0.99624-0.43124 0.08307 0.78230
  -1  -8   6    0.00    0.13   1 0.15665-0.31937-0.98647-0.44101 0.05748 0.81974
   0  -8   6    6.63    0.25   1 0.26867-0.21903-0.96280-0.46470 0.04455 0.84451
   0  -9   6    0.81    0.04   1 0.20119-0.15154-0.97092-0.63498 0.14106 0.74804
  -1  -9   6    0.70    0.04   1 0.08918-0.25189-0.98547-0.62043 0.14961 0.72765
  -2  -9   6    0.09    0.10   1-0.03894-0.33615-0.98267-0.62321 0.17899 0.68642
  -3  -9   6    2.79    0.12   1-0.18551-0.40195-0.95099-0.65488 0.23687 0.61670
  -8  -1   5    0.10    0.13   1-0.77542-0.88224-0.49553 0.31704 0.34759 0.29829
  -7  -1   5    2.42    0.08   1-0.63785-0.80744-0.65948 0.48097 0.36171 0.29602
  -6  -1   5   27.89    0.80   1-0.49981-0.73310-0.76807 0.58955 0.37195 0.29762
  -5  -1   5    6.51    0.25   1-0.35661-0.66393-0.84457 0.66604 0.37907 0.30234
  -4  -1   5   40.32    0.84   1-0.20493-0.60324-0.89667 0.71813 0.38057 0.31269
  -3  -1   5   14.21    0.45   1-0.04369-0.55211-0.92713 0.74857 0.36940 0.33570
  -2  -1   5   12.20    0.38   1 0.12069-0.50412-0.93733 0.75876 0.33334 0.38360
  -1  -1   5   21.19    0.47   1 0.26721-0.43827-0.93120 0.75262 0.26272 0.46606
   0  -1   5  235.87    1.50   1 0.36839-0.32708-0.91747 0.73888 0.17080 0.56982
   0  -2   5    2.41    0.10   1 0.41142-0.37010-0.91145 0.55445 0.01720 0.72348
  -1  -2   5   61.77    0.83   1 0.30153-0.47258-0.94950 0.59251 0.10393 0.62490
  -2  -2   5    4.66    0.18   1 0.15305-0.53647-0.97449 0.61752 0.17270 0.54429
  -3  -2   5   17.28    0.51   1-0.01120-0.58460-0.97645 0.61948 0.21475 0.49039
  -4  -2   5   11.52    0.45   1-0.17334-0.63482-0.95314 0.59619 0.23808 0.45522
  -5  -2   5    7.09    0.31   1-0.32747-0.69306-0.90509 0.54815 0.25273 0.42872
  -6  -2   5   12.01    0.51   1-0.47452-0.75838-0.83053 0.47360 0.26483 0.40478
  -7  -2   5    0.46    0.05   1-0.61802-0.82726-0.72157 0.36466 0.27722 0.38055
  -8  -2   5   12.85    0.38   1-0.76403-0.89361-0.55141 0.19450 0.29191 0.35402
  -8  -3   5    9.29    0.29   1-0.76260-0.89503-0.57552 0.04021 0.25239 0.39358
  -7  -3   5    0.29    0.17   1-0.60720-0.83807-0.75710 0.22178 0.20690 0.45091
  -6  -3   5   10.02    0.40   1-0.45905-0.77385-0.86580 0.33046 0.17337 0.49629
  -5  -3   5    0.98    0.07   1-0.30954-0.71098-0.93694 0.40159 0.14485 0.53665
  -4  -3   5    3.16    0.13   1-0.15500-0.65315-0.97980 0.44443 0.11772 0.57562
  -3  -3   5    0.95    0.06   1 0.00511-0.60090-0.99625 0.46088 0.08672 0.61847
  -2  -3   5  165.26    1.53   1 0.16516-0.54857-0.98566 0.45027 0.04430 0.67273
  -1  -3   5    0.15    0.04   1 0.31064-0.48168-0.94998 0.41458-0.01505 0.74393
   0  -3   5    8.05    0.32   1 0.42430-0.38297-0.89886 0.36345-0.08578 0.82650
   0  -4   5    6.18    0.24   1 0.41673-0.37539-0.89303 0.17921-0.14623 0.88699
  -1  -4   5    7.87    0.32   1 0.30179-0.47281-0.94699 0.23318-0.09309 0.82201
  -2  -4   5    0.14    0.15   1 0.16090-0.54430-0.98549 0.27169-0.04495 0.76203
  -3  -4   5   29.55    0.76   1 0.00650-0.60227-0.99996 0.28618-0.00520 0.71043
  -4  -4   5    3.96    0.15   1-0.15016-0.65798-0.98792 0.27415 0.02987 0.66352
  -5  -4   5    6.39    0.30   1-0.30395-0.71657-0.94907 0.23531 0.06594 0.61561
  -6  -4   5    0.14    0.14   1-0.45509-0.77780-0.88037 0.16663 0.10802 0.56168
  -7  -4   5    5.08    0.22   1-0.60781-0.83744-0.76954 0.05580 0.16174 0.49612
  -8  -4   5    0.20    0.10   1-0.77764-0.87999-0.55730-0.15642 0.24727 0.39875
  -7  -5   5    4.52    0.18   1-0.62215-0.82309-0.76018-0.13196 0.15228 0.50562
  -6  -5   5   29.76    0.71   1-0.46307-0.76980-0.88049-0.01166 0.07549 0.59426
  -5  -5   5   10.50    0.42   1-0.31017-0.71033-0.94991 0.05774 0.02081 0.66078
  -4  -5   5    2.46    0.09   1-0.15741-0.65072-0.98743 0.09524-0.02241 0.71584
  -3  -5   5    8.94    0.34   1-0.00441-0.59135-0.99819 0.10599-0.05990 0.76518
  -2  -5   5  136.48    1.63   1 0.14451-0.52790-0.98393 0.09173-0.09645 0.81357
  -1  -5   5    5.94    0.23   1 0.28091-0.45192-0.94782 0.05560-0.13476 0.86372
   0  -5   5    7.78    0.31   1 0.39604-0.35469-0.89719 0.00496-0.17293 0.91374
   0  -6   5    3.62    0.14   1 0.36624-0.32488-0.91038-0.16026-0.17170 0.91255
  -1  -6   5    0.01    0.16   1 0.25139-0.42240-0.95466-0.11596-0.14503 0.87403
  -2  -6   5    0.51    0.06   1 0.11878-0.50216-0.98551-0.08511-0.11409 0.83125
  -3  -6   5    3.24    0.14   1-0.02552-0.57023-0.99657-0.07403-0.07977 0.78509
  -4  -6   5    1.91    0.08   1-0.17541-0.63271-0.98402-0.08657-0.03959 0.73307
  -5  -6   5    0.28    0.14   1-0.32771-0.69278-0.94430-0.12628 0.01134 0.67029
  -6  -6   5    1.10    0.05   1-0.48390-0.74896-0.86835-0.20222 0.08150 0.58829
  -7  -6   5    1.44    0.06   1-0.65755-0.78768-0.71545-0.35510 0.19915 0.45880
  -6  -7   5    0.18    0.10   1-0.52301-0.70984-0.83530-0.41368 0.14015 0.52969
  -5  -7   5    0.00    0.14   1-0.35783-0.66265-0.93177-0.31722 0.04120 0.64048
  -4  -7   5   48.96    0.93   1-0.20417-0.60394-0.97887-0.27013-0.02154 0.71506
  -3  -7   5    0.05    0.16   1-0.05620-0.53953-0.99638-0.25263-0.06652 0.77188
  -2  -7   5    6.06    0.27   1 0.08465-0.46802-0.99079-0.25823-0.10058 0.81779
  -1  -7   5    0.54    0.18   1 0.21432-0.38531-0.96682-0.28222-0.12673 0.85578
   0  -7   5   77.21    1.30   1 0.32865-0.28728-0.93016-0.31889-0.14496 0.88585
   0  -8   5   12.38    0.50   1 0.28230-0.24092-0.95331-0.47415-0.09126 0.83220
  -1  -8   5    0.16    0.12   1 0.16857-0.33956-0.98169-0.44576-0.07903 0.80813
  -2  -8   5    3.53    0.14   1 0.04089-0.42425-0.99751-0.42993-0.05492 0.77217
  -3  -8   5    1.57    0.07   1-0.09817-0.49755-0.99508-0.43234-0.01778 0.72319
  -4  -8   5    3.07    0.13   1-0.24680-0.56130-0.96770-0.45971 0.03766 0.65591
  -5  -8   5    1.60    0.07   1-0.40820-0.61227-0.90046-0.52694 0.12722 0.55450
  -4  -9   5    2.52    0.09   1-0.31935-0.48874-0.92845-0.67737 0.17177 0.52184
  -3  -9   5    0.01    0.11   1-0.15912-0.43660-0.98313-0.62270 0.08136 0.62410
  -2  -9   5    2.03    0.09   1-0.01794-0.36541-0.99928-0.60656 0.03256 0.68474
  -1  -9   5    0.64    0.05   1 0.10944-0.28042-0.99400-0.61186 0.00620 0.72294
   0  -9   5   12.62    0.42   1 0.22262-0.18123-0.97481-0.63106-0.00215 0.74313
   0 -10   5    0.58    0.03   1 0.13068-0.08928-0.97965-0.80463 0.15971 0.58132
  -1 -10   5    1.76    0.06   1 0.01674-0.18771-0.98573-0.79854 0.16843 0.56076
  -2 -10   5    0.79    0.03   1-0.12129-0.26205-0.96619-0.81806 0.22061 0.49673
  -9   0   4    3.58    0.13   1-0.92897-0.94933-0.17141 0.17137 0.27578 0.21009
  -8   0   4    2.28    0.09   1-0.80183-0.86409-0.45835 0.45830 0.33813 0.15959
  -7   0   4   10.94    0.43   1-0.67852-0.77504-0.60663 0.60657 0.37587 0.13369
  -6   0   4    0.00    0.16   1-0.55255-0.68863-0.70886 0.70879 0.40704 0.11437
  -5   0   4   31.10    0.77   1-0.42050-0.60831-0.78266 0.78257 0.43492 0.09833
  -4   0   4    8.14    0.31   1-0.27820-0.53824-0.83483 0.83473 0.45897 0.08612
  -3   0   4   48.85    0.74   1-0.12123-0.48284-0.86874 0.86863 0.47290 0.08404
  -2   0   4   19.16    0.42   1 0.04876-0.44046-0.88786 0.88774 0.45975 0.10903
  -1   0   4   56.86    0.64   1 0.20526-0.38459-0.89983 0.89969 0.39603 0.18459
   0   0   4   31.31    0.47   1 0.29317-0.26013-0.91413 0.91398 0.29623 0.29623
   0  -1   4   69.94    0.71   1 0.38960-0.35655-0.92070 0.74214 0.04589 0.54662
  -1  -1   4   20.24    0.40   1 0.27937-0.45869-0.94869 0.77015 0.16382 0.41685
  -2  -1   4  151.67    1.17   1 0.11147-0.50316-0.96565 0.78712 0.24082 0.32800
  -3  -1   4    5.37    0.21   1-0.06493-0.53913-0.95915 0.78063 0.27151 0.28548
  -4  -1   4   97.13    1.21   1-0.22730-0.58914-0.92900 0.75050 0.27910 0.26604
  -5  -1   4    0.24    0.14   1-0.37518-0.65362-0.87700 0.69850 0.27895 0.25435
  -6  -1   4   28.45    0.79   1-0.51347-0.72770-0.80189 0.62340 0.27650 0.24496
  -7  -1   4    0.45    0.20   1-0.64674-0.80680-0.69733 0.51886 0.27249 0.23711
  -8  -1   4    4.87    0.18   1-0.77928-0.88664-0.54493 0.36648 0.26559 0.23218
  -8  -2   4    4.17    0.16   1-0.76255-0.90335-0.60113 0.24427 0.19622 0.30159
  -7  -2   4    0.00    0.15   1-0.62134-0.83220-0.75583 0.39895 0.17162 0.33803
  -6  -2   4   13.60    0.54   1-0.48205-0.75911-0.85821 0.50131 0.14930 0.37220
  -5  -2   4    0.36    0.17   1-0.33936-0.68943-0.92904 0.57213 0.12833 0.40501
  -4  -2   4   27.42    0.67   1-0.18862-0.62781-0.97489 0.61798 0.10779 0.43740
  -3  -2   4    0.36    0.14   1-0.02557-0.57848-0.99608 0.63915 0.08339 0.47364
  -2  -2   4   16.35    0.42   1 0.14841-0.54009-0.98831 0.63137 0.04350 0.52537
  -1  -2   4    0.05    0.13   1 0.31390-0.49321-0.94834 0.59138-0.02864 0.60935
   0  -2   4   17.04    0.39   1 0.43311-0.40005-0.88784 0.53087-0.13094 0.72349
   0  -3   4   48.87    0.71   1 0.43912-0.40605-0.85908 0.32370-0.23796 0.83056
  -1  -3   4   18.02    0.44   1 0.31803-0.49732-0.93072 0.39535-0.16247 0.74323
  -2  -3   4   13.86    0.42   1 0.16072-0.55239-0.98049 0.44514-0.10388 0.67279
  -3  -3   4   12.38    0.43   1-0.00629-0.59775-0.99798 0.46264-0.06321 0.62028
  -4  -3   4    0.13    0.14   1-0.16674-0.64967-0.98577 0.45044-0.02991 0.57513
  -5  -3   4    5.12    0.18   1-0.31790-0.71088-0.94785 0.41254 0.00437 0.52902
  -6  -3   4    5.21    0.23   1-0.46299-0.77816-0.88365 0.34835 0.04320 0.47834
  -7  -3   4    3.04    0.14   1-0.60671-0.84681-0.78545 0.25016 0.08829 0.42141
  -8  -3   4    8.81    0.32   1-0.75617-0.90972-0.62716 0.09188 0.14431 0.35355
  -8  -4   4    5.62    0.22   1-0.76431-0.90157-0.62235-0.09133 0.12594 0.37196
  -7  -4   4    0.61    0.05   1-0.60491-0.84860-0.79330 0.07960 0.03488 0.47487
  -6  -4   4    2.94    0.12   1-0.45748-0.78366-0.88918 0.17547-0.02965 0.55123
  -5  -4   4    2.46    0.12   1-0.31105-0.71772-0.94821 0.23449-0.08114 0.61457
  -4  -4   4    0.03    0.15   1-0.16062-0.65578-0.98031 0.26657-0.12333 0.66860
  -3  -4   4    9.22    0.37   1-0.00400-0.60003-0.98706 0.27331-0.16004 0.71715
  -2  -4   4    2.32    0.10   1 0.15522-0.54688-0.96601 0.25225-0.19756 0.76652
  -1  -4   4   27.72    0.62   1 0.30408-0.48337-0.91647 0.20270-0.24250 0.82330
   0  -4   4   20.51    0.53   1 0.42468-0.39160-0.84736 0.13358-0.29446 0.88710
   0  -5   4   62.44    1.01   1 0.39951-0.36642-0.85215-0.04004-0.31503 0.90772
  -1  -5   4   11.75    0.45   1 0.28001-0.45929-0.91308 0.02090-0.28019 0.86104
  -2  -5   4   39.54    0.84   1 0.13813-0.52978-0.95727 0.06510-0.24575 0.81476
  -3  -5   4   19.69    0.64   1-0.01414-0.58988-0.97729 0.08513-0.21167 0.76883
  -4  -5   4    7.50    0.29   1-0.16692-0.64947-0.97212 0.07997-0.17344 0.71876
  -5  -5   4   20.57    0.69   1-0.31649-0.71227-0.94234 0.05021-0.12581 0.65929
  -6  -5   4    0.18    0.17   1-0.46438-0.77675-0.88478-0.00734-0.06384 0.58547
  -7  -5   4   13.55    0.42   1-0.61648-0.83702-0.78542-0.10669 0.02061 0.48917
  -7  -6   4    2.02    0.09   1-0.64388-0.80961-0.75930-0.31121 0.05803 0.45180
  -6  -6   4    3.16    0.14   1-0.48271-0.75841-0.87523-0.19530-0.05693 0.57860
  -5  -6   4    1.00    0.06   1-0.33222-0.69653-0.93635-0.13419-0.13144 0.66495
  -4  -6   4    5.70    0.23   1-0.18306-0.63332-0.96731-0.10324-0.18512 0.73048
  -3  -6   4    1.38    0.06   1-0.03359-0.57042-0.97398-0.09658-0.22539 0.78260
  -2  -6   4    0.10    0.14   1 0.11300-0.50464-0.95778-0.11280-0.25743 0.82648
  -1  -6   4   11.12    0.42   1 0.24946-0.42873-0.92095-0.14964-0.28480 0.86569
   0  -6   4    0.25    0.13   1 0.36772-0.33462-0.86976-0.20085-0.30792 0.90065
   0  -7   4   34.93    0.89   1 0.33033-0.29722-0.89635-0.35266-0.27664 0.86942
  -1  -7   4    9.99    0.41   1 0.21331-0.39257-0.93781-0.31119-0.26137 0.84230
  -2  -7   4   49.96    1.06   1 0.08097-0.47260-0.96658-0.28240-0.23812 0.80721
  -3  -7   4    0.48    0.06   1-0.06126-0.54274-0.97722-0.27175-0.20603 0.76328
  -4  -7   4   35.97    0.85   1-0.20834-0.60803-0.96641-0.28255-0.16152 0.70693
  -5  -7   4    0.38    0.15   1-0.35825-0.67049-0.93030-0.31865-0.09807 0.63164
  -6  -7   4   14.96    0.39   1-0.51467-0.72644-0.85693-0.39201-0.00142 0.52314
  -5  -8   4    0.01    0.11   1-0.39896-0.62977-0.91693-0.51043-0.01598 0.54959
  -4  -8   4    0.36    0.13   1-0.24471-0.57165-0.96570-0.46168-0.09999 0.64544
  -3  -8   4    0.45    0.18   1-0.09825-0.50574-0.98402-0.44337-0.15348 0.71077
  -2  -8   4    0.41    0.17   1 0.04113-0.43275-0.98064-0.44676-0.18864 0.75777
  -1  -8   4    2.68    0.11   1 0.17049-0.34974-0.96036-0.46705-0.21048 0.79146
   0  -8   4    3.30    0.13   1 0.28631-0.25318-0.92833-0.49909-0.22062 0.81344
   0  -9   4   11.56    0.45   1 0.23206-0.19892-0.96156-0.64427-0.13351 0.72638
  -1  -9   4    0.03    0.11   1 0.11735-0.29659-0.98410-0.62172-0.12636 0.70739
  -2  -9   4   12.45    0.43   1-0.01044-0.38117-0.99471-0.61110-0.10235 0.67153
  -3  -9   4    0.99    0.05   1-0.14965-0.45433-0.98748-0.61831-0.05776 0.61510
  -4  -9   4    8.74    0.28   1-0.30115-0.51519-0.95286-0.65292 0.01974 0.52576
  -2 -10   4    4.67    0.20   1-0.08894-0.30266-0.99433-0.78989 0.05340 0.51583
  -1 -10   4    1.27    0.05   1 0.04190-0.22113-0.99904-0.78519 0.01570 0.56537
   0 -10   4    3.45    0.14   1 0.15611-0.12296-0.98775-0.79649 0.00849 0.58442
  -9  -1   3    0.11    0.10   1-0.92042-0.96612-0.31837 0.13996 0.17518 0.16263
  -8  -1   3    9.11    0.39   1-0.78399-0.89018-0.57837 0.39995 0.18144 0.16821
  -7  -1   3    1.28    0.07   1-0.65497-0.80683-0.72390 0.54546 0.17994 0.18155
  -6  -1   3   24.44    0.74   1-0.52587-0.72357-0.82575 0.64730 0.17441 0.19893
  -5  -1   3    1.87    0.08   1-0.39320-0.64386-0.89988 0.72142 0.16660 0.21858
  -4  -1   3    4.33    0.17   1-0.25236-0.57233-0.95221 0.77374 0.15787 0.23915
  -3  -1   3    3.19    0.13   1-0.09553-0.51679-0.98365 0.80516 0.14732 0.26154
  -2  -1   3  316.60    1.52   1 0.08709-0.48704-0.98913 0.81063 0.12344 0.29727
  -1  -1   3    4.82    0.19   1 0.28435-0.47193-0.95820 0.77969 0.04811 0.38444
   0  -1   3  124.59    0.82   1 0.41501-0.39022-0.90090 0.72238-0.10368 0.54807
   0  -2   3   15.05    0.33   1 0.45131-0.42651-0.83029 0.47336-0.30120 0.74564
  -1  -2   3    4.36    0.18   1 0.31597-0.50354-0.92607 0.56915-0.18821 0.62080
  -2  -2   3    0.50    0.04   1 0.13034-0.53028-0.98320 0.62630-0.12012 0.54087
  -3  -2   3   12.01    0.37   1-0.04786-0.56445-0.99571 0.63882-0.08147 0.49038
  -4  -2   3    7.31    0.28   1-0.20561-0.61907-0.97792 0.62104-0.04825 0.44531
  -5  -2   3    1.13    0.07   1-0.34973-0.68732-0.93681 0.57994-0.01300 0.39823
  -6  -2   3    0.09    0.18   1-0.48737-0.76205-0.87168 0.51483 0.02384 0.34954
  -7  -2   3    1.03    0.07   1-0.62330-0.83850-0.77609 0.41925 0.06082 0.30072
  -8  -2   3    1.30    0.06   1-0.76184-0.91232-0.63227 0.27544 0.09807 0.25163
  -9  -2   3    0.09    0.08   1-0.91754-0.96899-0.34545-0.01137 0.14544 0.19241
  -8  -3   3   13.85    0.43   1-0.75182-0.92234-0.65490 0.11966 0.03437 0.31537
  -7  -3   3    2.38    0.10   1-0.60567-0.85611-0.79567 0.26042-0.03632 0.39790
  -6  -3   3    0.95    0.07   1-0.46594-0.78347-0.88184 0.34657-0.09784 0.47126
  -5  -3   3    3.93    0.16   1-0.32664-0.71040-0.93538 0.40011-0.15315 0.53841
  -4  -3   3  186.35    1.76   1-0.18248-0.64219-0.96435 0.42906-0.20122 0.59833
  -3  -3   3    3.10    0.13   1-0.02716-0.58514-0.97019 0.43489-0.24172 0.65067
  -2  -3   3   32.54    0.59   1 0.14243-0.54236-0.94672 0.41140-0.28026 0.70106
  -1  -3   3    3.32    0.14   1 0.31226-0.49982-0.88340 0.34808-0.33129 0.76393
   0  -3   3  489.93    2.03   1 0.44433-0.41952-0.78671 0.25138-0.40296 0.84744
   0  -4   3    0.21    0.12   1 0.42109-0.39626-0.77426 0.06052-0.44807 0.89260
  -1  -4   3   10.95    0.38   1 0.29279-0.48034-0.85831 0.14458-0.40423 0.83692
  -2  -4   3    0.99    0.05   1 0.13582-0.53574-0.91662 0.20290-0.36761 0.78845
  -3  -4   3    6.77    0.27   1-0.02536-0.58693-0.94260 0.22889-0.33363 0.74263
  -4  -4   3    4.86    0.19   1-0.17785-0.64681-0.94218 0.22848-0.29322 0.69038
  -5  -4   3    1.37    0.07   1-0.32155-0.71548-0.92004 0.20636-0.24117 0.62649
  -6  -4   3    0.25    0.16   1-0.46147-0.78793-0.87421 0.16054-0.17611 0.54958
  -7  -4   3    0.37    0.16   1-0.60361-0.85817-0.79473 0.08107-0.09665 0.45827
  -8  -4   3    0.07    0.11   1-0.75725-0.91690-0.65121-0.06244 0.00731 0.34247
  -8  -5   3   12.61    0.27   1-0.78259-0.89154-0.61680-0.27526 0.04038 0.30945
  -7  -5   3    9.41    0.36   1-0.61544-0.84632-0.78428-0.10779-0.11199 0.47366
  -6  -5   3    0.11    0.15   1-0.47001-0.77939-0.86362-0.02846-0.20795 0.58146
  -5  -5   3   14.96    0.59   1-0.32872-0.70830-0.90731 0.01522-0.27979 0.66515
  -4  -5   3   49.07    1.02   1-0.18489-0.63976-0.92777 0.03567-0.33367 0.73086
  -3  -5   3   22.51    0.66   1-0.03496-0.57732-0.92754 0.03542-0.37323 0.78228
  -2  -5   3    8.50    0.34   1 0.11905-0.51896-0.90381 0.01168-0.40356 0.82445
  -1  -5   3   10.66    0.42   1 0.26651-0.45405-0.85418-0.03796-0.43074 0.86347
   0  -5   3    8.93    0.37   1 0.39164-0.36681-0.78476-0.10739-0.45763 0.90221
   0  -6   3    0.03    0.13   1 0.35875-0.33391-0.81084-0.25972-0.44153 0.88614
  -1  -6   3   25.65    0.70   1 0.23624-0.42377-0.86693-0.20363-0.42485 0.85762
  -2  -6   3   20.14    0.64   1 0.09581-0.49571-0.90734-0.16320-0.40315 0.82408
  -3  -6   3    2.85    0.10   1-0.05224-0.56002-0.92667-0.14386-0.37433 0.78342
  -4  -6   3   11.95    0.45   1-0.19979-0.62485-0.92493-0.14559-0.33379 0.73104
  -5  -6   3    6.68    0.25   1-0.34423-0.69278-0.90280-0.16770-0.27629 0.66169
  -6  -6   3   11.71    0.44   1-0.48824-0.76114-0.85626-0.21424-0.19527 0.56882
  -7  -6   3    0.03    0.11   1-0.64041-0.82135-0.76699-0.30349-0.07477 0.43649
  -6  -7   3   28.83    0.58   1-0.51649-0.73288-0.84954-0.39936-0.13555 0.50915
  -5  -7   3    3.57    0.14   1-0.36742-0.66958-0.90493-0.34398-0.23454 0.61999
  -4  -7   3    0.94    0.06   1-0.22179-0.60284-0.93148-0.31744-0.30001 0.69730
  -3  -7   3    8.05    0.34   1-0.07629-0.53597-0.93702-0.31192-0.34433 0.75346
  -2  -7   3   40.11    0.94   1 0.06697-0.46686-0.92319-0.32576-0.37393 0.79490
  -1  -7   3   26.40    0.78   1 0.20214-0.38966-0.89164-0.35733-0.39302 0.82584
   0  -7   3    2.01    0.08   1 0.32240-0.29755-0.84717-0.40181-0.40352 0.84818
   0  -8   3   21.10    0.69   1 0.28111-0.25625-0.88976-0.53763-0.34318 0.78788
  -1  -8   3   16.13    0.60   1 0.16283-0.35034-0.92395-0.50342-0.33631 0.76917
  -2  -8   3   20.98    0.67   1 0.03158-0.43146-0.94693-0.48043-0.31740 0.73842
  -3  -8   3    0.04    0.15   1-0.10816-0.50409-0.95422-0.47313-0.28421 0.69339
  -4  -8   3    5.64    0.22   1-0.25263-0.57199-0.94266-0.48468-0.23158 0.62891
  -5  -8   3    1.20    0.05   1-0.40147-0.63552-0.90703-0.52029-0.14873 0.53422
  -6  -8   3    4.04    0.16   1-0.56516-0.68420-0.82426-0.60305 0.00222 0.37142
  -5  -9   3    0.07    0.07   1-0.46369-0.57329-0.88424-0.72149 0.02969 0.35585
  -4  -9   3    2.90    0.11   1-0.29872-0.52589-0.94936-0.65639-0.11350 0.51088
  -3  -9   3    1.98    0.09   1-0.15181-0.46043-0.97222-0.63354-0.18606 0.59529
  -2  -9   3    7.53    0.29   1-0.01355-0.38632-0.97358-0.63219-0.22811 0.64918
  -1  -9   3    2.60    0.09   1 0.11513-0.30262-0.95956-0.64622-0.24985 0.68276
   0  -9   3    1.83    0.08   1 0.23164-0.20677-0.93501-0.67079-0.25501 0.69976
   0 -10   3    3.09    0.12   1 0.16558-0.14069-0.97755-0.80665-0.12069 0.56549
  -1 -10   3    0.66    0.04   1 0.05037-0.23785-0.99174-0.79245-0.11473 0.54769
  -2 -10   3    0.89    0.04   1-0.07870-0.32115-0.99383-0.79035-0.08208 0.50319
  -3 -10   3    1.95    0.08   1-0.22352-0.38870-0.97468-0.80949-0.00858 0.41784
  -9   0   2    0.32    0.04   1-0.93904-0.95577-0.27857 0.27861 0.14879 0.04085
  -8   0   2    1.07    0.06   1-0.82418-0.85827-0.51068 0.51071 0.19850 0.00299
  -7   0   2    0.47    0.06   1-0.71049-0.75959-0.64992 0.64993 0.22986-0.01653
  -6   0   2   11.83    0.46   1-0.59597-0.66173-0.74973 0.74973 0.25403-0.02886
  -5   0   2    1.01    0.06   1-0.47903-0.56630-0.82422 0.82421 0.27493-0.03791
  -4   0   2    0.45    0.04   1-0.35676-0.47620-0.87916 0.87914 0.29568-0.04682
  -3   0   2   11.45    0.33   1-0.22231-0.39828-0.91660 0.91656 0.31958-0.05887
  -2   0   2  998.55    6.76   1-0.05842-0.34980-0.93540 0.93535 0.34516-0.07261
  -1   0   2   39.48    0.39   1 0.15955-0.35541-0.93453 0.93447 0.32678-0.04239
   0   0   2  612.48    3.93   1 0.29472-0.27820-0.94649 0.94641 0.14812 0.14812
   0  -1   2    5.12    0.17   1 0.44556-0.42903-0.83386 0.65538-0.30032 0.59659
  -1  -1   2   34.88    0.40   1 0.26971-0.46555-0.95407 0.77559-0.11508 0.39951
  -2  -1   2   83.70    0.71   1 0.04631-0.45452-0.99744 0.81898-0.05164 0.32423
  -3  -1   2   22.29    0.45   1-0.12632-0.49426-0.99192 0.81348-0.01763 0.27837
  -4  -1   2  105.03    1.14   1-0.27110-0.56185-0.96205 0.78362 0.01566 0.23324
  -5  -1   2    7.08    0.26   1-0.40463-0.64069-0.91188 0.73346 0.04614 0.19092
  -6  -1   2   63.62    1.17   1-0.53344-0.72425-0.83980 0.66139 0.07093 0.15429
  -7  -1   2    3.50    0.12   1-0.66047-0.80960-0.74023 0.56184 0.08879 0.12459
  -8  -1   2   21.75    0.59   1-0.78801-0.89442-0.59877 0.42038 0.09900 0.10253
  -9  -1   2    1.23    0.05   1-0.92166-0.97315-0.35737 0.17900 0.09944 0.09025
  -9  -2   2    0.17    0.10   1-0.91304-0.98175-0.39296 0.03618 0.05809 0.13164
  -8  -2   2    0.10    0.15   1-0.75988-0.92254-0.64858 0.29179 0.00088 0.20070
  -7  -2   2    3.26    0.14   1-0.62131-0.84875-0.78335 0.42655-0.05127 0.26469
  -6  -2   2   16.04    0.60   1-0.48645-0.77123-0.86991 0.51309-0.10783 0.33309
  -5  -2   2    8.69    0.35   1-0.35258-0.69273-0.92362 0.56679-0.16943 0.40654
  -4  -2   2   22.04    0.55   1-0.21686-0.61608-0.95066 0.59382-0.23329 0.48224
  -3  -2   2   32.31    0.57   1-0.07256-0.54802-0.95439 0.59753-0.29297 0.55376
  -2  -2   2   31.14    0.48   1 0.09532-0.50352-0.93240 0.57554-0.34255 0.61518
  -1  -2   2   61.12    0.59   1 0.29524-0.49107-0.86063 0.50375-0.39762 0.68210
   0  -2   2  402.98    4.09   1 0.45640-0.43986-0.71697 0.36008-0.50051 0.79683
   0  -3   2   32.59    0.49   1 0.43095-0.41440-0.67020 0.13490-0.57914 0.87550
  -1  -3   2   95.79    0.85   1 0.28362-0.47944-0.78961 0.25432-0.52729 0.81181
  -2  -3   2   66.68    0.78   1 0.10481-0.51300-0.86045 0.32517-0.49182 0.76450
  -3  -3   2   26.34    0.56   1-0.05747-0.56309-0.89113 0.35586-0.45237 0.71321
  -4  -3   2    9.63    0.39   1-0.19926-0.63367-0.90066 0.36541-0.39640 0.64539
  -5  -3   2   14.30    0.55   1-0.33220-0.71310-0.89146 0.35622-0.32590 0.56305
  -6  -3   2    1.18    0.07   1-0.46483-0.79284-0.85716 0.32193-0.24708 0.47239
  -7  -3   2    2.05    0.08   1-0.60165-0.86840-0.78793 0.25271-0.16405 0.37752
  -8  -3   2    0.89    0.05   1-0.74702-0.93539-0.66391 0.12871-0.07504 0.27667
  -8  -4   2    1.29    0.05   1-0.75240-0.93001-0.65524-0.05837-0.10879 0.31046
  -7  -4   2    1.61    0.07   1-0.60210-0.86793-0.77362 0.06000-0.23037 0.44387
  -6  -4   2   14.93    0.58   1-0.46553-0.79214-0.83149 0.11785-0.32838 0.55373
  -5  -4   2   10.31    0.41   1-0.33442-0.71088-0.85661 0.14296-0.41070 0.64789
  -4  -4   2    2.08    0.08   1-0.20194-0.63098-0.86152 0.14786-0.47613 0.72517
  -3  -4   2   26.51    0.62   1-0.05962-0.56093-0.85178 0.13810-0.52280 0.78368
  -2  -4   2   56.61    0.82   1 0.09826-0.50644-0.82295 0.10927-0.55300 0.82573
  -1  -4   2   50.21    0.72   1 0.26190-0.45771-0.76221 0.04851-0.57629 0.86086
   0  -4   2   76.41    0.86   1 0.40026-0.38370-0.66874-0.04497-0.60313 0.89954
   0  -5   2   92.98    1.11   1 0.36933-0.35276-0.69350-0.19862-0.59688 0.89334
  -1  -5   2    9.59    0.37   1 0.23710-0.43290-0.76652-0.12559-0.58253 0.86715
  -2  -5   2   60.04    0.95   1 0.08452-0.49269-0.81649-0.07560-0.56534 0.83811
  -3  -5   2    0.08    0.15   1-0.06867-0.55187-0.84104-0.05105-0.53938 0.80031
  -4  -5   2   44.96    0.96   1-0.21217-0.62074-0.84725-0.04482-0.49783 0.74691
  -5  -5   2    0.01    0.17   1-0.34694-0.69834-0.83954-0.05252-0.43655 0.67379
  -6  -5   2    8.16    0.33   1-0.47934-0.77831-0.81430-0.07774-0.35329 0.57868
  -7  -5   2    3.88    0.17   1-0.61748-0.85254-0.75815-0.13388-0.24336 0.45692
  -8  -5   2    1.21    0.05   1-0.77676-0.90563-0.62869-0.26333-0.07968 0.28139
  -7  -6   2    0.27    0.11   1-0.64343-0.82658-0.74745-0.32299-0.20055 0.41414
  -6  -6   2    5.62    0.25   1-0.49982-0.75782-0.81136-0.25909-0.33023 0.55567
  -5  -6   2    0.38    0.18   1-0.36380-0.68147-0.84152-0.22895-0.41879 0.65607
  -4  -6   2    9.62    0.37   1-0.22612-0.60678-0.85376-0.21672-0.48065 0.72977
  -3  -6   2    8.76    0.34   1-0.08246-0.53807-0.85132-0.21918-0.52171 0.78268
  -2  -6   2    2.38    0.09   1 0.06583-0.47399-0.83146-0.23905-0.54694 0.81976
  -1  -6   2   15.30    0.53   1 0.21015-0.40594-0.79117-0.27935-0.56157 0.84623
   0  -6   2   52.12    0.95   1 0.33783-0.32125-0.73387-0.33666-0.56941 0.86592
   0  -7   2    8.22    0.35   1 0.30435-0.28776-0.78378-0.46516-0.52336 0.81991
  -1  -7   2   29.25    0.79   1 0.18027-0.37604-0.82862-0.42031-0.51893 0.80363
  -2  -7   2   20.91    0.69   1 0.04224-0.45039-0.86030-0.38861-0.50468 0.77754
  -3  -7   2   37.58    0.92   1-0.10146-0.51906-0.87523-0.37367-0.47765 0.73866
  -4  -7   2   41.94    0.95   1-0.24437-0.58851-0.87379-0.37510-0.43317 0.68235
  -5  -7   2    4.17    0.16   1-0.38470-0.66056-0.85642-0.39245-0.36495 0.60228
  -6  -7   2   24.91    0.56   1-0.52620-0.73144-0.81789-0.43097-0.26143 0.48691
  -7  -7   2    1.52    0.07   1-0.68478-0.78522-0.72769-0.52116-0.07650 0.29014
  -6  -8   2    0.93    0.04   1-0.56577-0.69185-0.81921-0.60807-0.12473 0.35026
  -5  -8   2    0.19    0.12   1-0.41309-0.63216-0.87605-0.55124-0.27115 0.50852
  -4  -8   2    1.35    0.06   1-0.26943-0.56345-0.90070-0.52660-0.35504 0.60426
  -3  -8   2    1.40    0.07   1-0.12727-0.49324-0.90703-0.52028-0.40761 0.66867
  -2  -8   2   28.63    0.79   1 0.01263-0.42076-0.89759-0.52973-0.43904 0.71194
  -1  -8   2    2.37    0.10   1 0.14584-0.34160-0.87386-0.55347-0.45473 0.73948
   0  -8   2   12.33    0.51   1 0.26694-0.25034-0.83943-0.58792-0.45759 0.75418
   0  -9   2    0.15    0.05   1 0.22252-0.20591-0.89789-0.70787-0.36666 0.66329
  -1  -9   2    5.04    0.18   1 0.10397-0.29972-0.92298-0.68276-0.36394 0.64873
  -2  -9   2    4.45    0.18   1-0.02578-0.38235-0.93873-0.66700-0.34435 0.61729
  -3  -9   2    0.41    0.16   1-0.16338-0.45712-0.94128-0.66444-0.30385 0.56496
  -4  -9   2    5.06    0.19   1-0.30685-0.52602-0.92681-0.67890-0.23298 0.48224
  -5  -9   2    5.58    0.20   1-0.46103-0.58421-0.88412-0.72157-0.10107 0.33849
  -3 -10   2    1.68    0.06   1-0.22137-0.39911-0.96760-0.81653-0.13322 0.39437
  -2 -10   2    0.32    0.11   1-0.08083-0.32729-0.97727-0.80687-0.19993 0.47292
  -1 -10   2    6.89    0.27   1 0.04777-0.24352-0.97125-0.81291-0.22998 0.51481
   0 -10   2   12.82    0.41   1 0.16426-0.14763-0.95567-0.82850-0.23462 0.53130
  -9  -1   1    0.24    0.11   1-0.92461-0.97845-0.37274 0.19441 0.02658 0.01499
  -8  -1   1    2.83    0.11   1-0.79115-0.89955-0.60781 0.42947 0.02368 0.02973
  -7  -1   1    0.04    0.18   1-0.66269-0.81564-0.74757 0.56921 0.00716 0.05810
  -6  -1   1    2.24    0.10   1-0.53421-0.73174-0.84529 0.66692-0.02255 0.09966
  -5  -1   1    0.09    0.16   1-0.40397-0.64961-0.91360 0.73522-0.06805 0.15699
  -4  -1   1    4.42    0.18   1-0.27080-0.57041-0.95524 0.77684-0.13363 0.23442
  -3  -1   1    3.26    0.13   1-0.13367-0.49518-0.96704 0.78863-0.22355 0.33618
  -2  -1   1  233.44    1.11   1 0.01228-0.42876-0.94234 0.76392-0.33300 0.45748
  -1  -1   1    3.04    0.11   1 0.20898-0.41308-0.87243 0.69399-0.42928 0.56560
   0  -1   1   77.23    0.44   1 0.46172-0.45345-0.63911 0.46066-0.58827 0.73643
   0  -2   1   56.60    0.49   1 0.42112-0.41284-0.51020 0.15334-0.72514 0.87335
  -1  -2   1    3.16    0.13   1 0.22596-0.43005-0.68409 0.32724-0.67968 0.81605
  -2  -2   1    0.16    0.11   1 0.04169-0.45815-0.76639 0.40956-0.63751 0.76203
  -3  -2   1    2.82    0.12   1-0.08949-0.53934-0.83219 0.47537-0.55114 0.66382
  -4  -2   1   10.94    0.39   1-0.21255-0.62865-0.87757 0.52077-0.44069 0.54153
  -5  -2   1    0.34    0.05   1-0.34159-0.71198-0.88588 0.52909-0.33218 0.42117
  -6  -2   1   14.25    0.56   1-0.47593-0.79001-0.85370 0.49692-0.23728 0.31443
  -7  -2   1    0.22    0.17   1-0.61380-0.86451-0.77965 0.42288-0.15768 0.22298
  -8  -2   1    3.56    0.13   1-0.75588-0.93481-0.65288 0.29613-0.09019 0.14365
  -9  -2   1    0.00    0.10   1-0.91176-0.99129-0.40975 0.05301-0.02348 0.06510
  -6  -3   1   23.69    0.74   1-0.45738-0.80855-0.80669 0.27150-0.39891 0.47610
  -5  -3   1    3.95    0.17   1-0.33212-0.72144-0.80638 0.27117-0.50687 0.59590
  -4  -3   1    0.46    0.05   1-0.21574-0.62545-0.77434 0.23912-0.60576 0.70664
  -3  -3   1    6.72    0.27   1-0.09925-0.52957-0.72819 0.19296-0.68245 0.79517
  -2  -3   1   26.15    0.48   1 0.03974-0.45618-0.68259 0.14735-0.72620 0.85076
  -1  -3   1    7.15    0.25   1 0.21777-0.42185-0.61859 0.08334-0.74147 0.87788
   0  -3   1   47.10    0.55   1 0.38483-0.37654-0.49706-0.03820-0.75493 0.90318
   0  -4   1  129.70    1.08   1 0.35594-0.34764-0.52788-0.18579-0.74997 0.89826
  -1  -4   1   75.02    0.85   1 0.20486-0.40893-0.61732-0.09634-0.74682 0.88327
  -2  -4   1   62.93    0.84   1 0.03729-0.45373-0.66921-0.04444-0.73874 0.86335
  -3  -4   1   34.01    0.69   1-0.11045-0.51836-0.69838-0.01525-0.71203 0.82479
  -4  -4   1   26.06    0.68   1-0.23511-0.60607-0.72493 0.01130-0.65937 0.76029
  -5  -4   1   11.93    0.46   1-0.35053-0.70302-0.74886 0.03525-0.58089 0.66997
  -6  -4   1    5.75    0.21   1-0.46951-0.79641-0.75642 0.04282-0.48065 0.55788
  -7  -4   1    0.20    0.16   1-0.59972-0.87857-0.72920 0.01562-0.36222 0.42761
  -7  -5   1    5.73    0.21   1-0.62249-0.85580-0.70715-0.18484-0.36927 0.43471
  -6  -5   1   27.50    0.77   1-0.49316-0.77275-0.73404-0.15797-0.49343 0.57071
  -5  -5   1    6.22    0.24   1-0.37265-0.68089-0.73434-0.15768-0.58703 0.67616
  -4  -5   1    2.27    0.10   1-0.25076-0.59041-0.72480-0.16724-0.65450 0.75546
  -3  -5   1    7.17    0.29   1-0.11747-0.51133-0.71188-0.18016-0.69769 0.81050
  -2  -5   1    6.29    0.24   1 0.03214-0.44857-0.69032-0.20174-0.71970 0.84436
  -1  -5   1   16.53    0.48   1 0.18911-0.39316-0.64731-0.24476-0.72655 0.86304
   0  -5   1   22.09    0.53   1 0.32997-0.32166-0.57890-0.31319-0.72596 0.87430
   0  -6   1  100.68    1.28   1 0.30405-0.29572-0.64056-0.42993-0.68695 0.83534
  -1  -6   1    9.99    0.40   1 0.17030-0.37434-0.69402-0.37646-0.68878 0.82532
  -2  -6   1   42.84    0.89   1 0.02230-0.43871-0.72956-0.34091-0.68107 0.80577
  -3  -6   1   10.34    0.38   1-0.12503-0.50376-0.74690-0.32355-0.65884 0.77169
  -4  -6   1    1.75    0.08   1-0.26295-0.57821-0.75269-0.31775-0.61710 0.71812
  -5  -6   1    1.08    0.07   1-0.39173-0.66180-0.75164-0.31879-0.55145 0.64062
  -6  -6   1    0.25    0.16   1-0.51784-0.74806-0.74068-0.32974-0.45604 0.53336
  -7  -6   1    1.17    0.05   1-0.65207-0.82620-0.70438-0.36603-0.31610 0.38159
  -7  -7   1    1.97    0.08   1-0.69019-0.78807-0.70850-0.54032-0.18508 0.25061
  -6  -7   1    5.35    0.22   1-0.54302-0.72287-0.76525-0.48358-0.37520 0.45257
  -5  -7   1    9.29    0.36   1-0.40994-0.64358-0.78643-0.46241-0.48394 0.57315
  -4  -7   1   21.75    0.71   1-0.27603-0.56512-0.79457-0.45428-0.55513 0.65618
  -3  -7   1   20.32    0.69   1-0.13666-0.49211-0.79298-0.45588-0.60021 0.71311
  -2  -7   1    1.66    0.08   1 0.00688-0.42329-0.77914-0.46973-0.62526 0.75000
  -1  -7   1   19.84    0.65   1 0.14769-0.35173-0.75031-0.49858-0.63496 0.77154
   0  -7   1    4.93    0.20   1 0.27612-0.26779-0.70833-0.54057-0.63306 0.78149
   0  -8   1   79.67    1.32   1 0.24423-0.23589-0.77967-0.64764-0.56191 0.71038
  -1  -8   1    2.00    0.08   1 0.12001-0.32404-0.81221-0.61509-0.56311 0.69974
  -2  -8   1   58.85    1.13   1-0.01512-0.40128-0.83468-0.59260-0.55030 0.67509
  -3  -8   1    9.73    0.36   1-0.15485-0.47391-0.84467-0.58260-0.52001 0.63295
  -4  -8   1   37.92    0.82   1-0.29426-0.54688-0.84249-0.58477-0.46672 0.56782
  -5  -8   1    1.47    0.06   1-0.43240-0.62111-0.82794-0.59931-0.38044 0.46970
  -6  -8   1   13.17    0.32   1-0.57582-0.69006-0.79267-0.63456-0.23171 0.30913
  -5  -9   1    1.61    0.08   1-0.46966-0.58384-0.86386-0.74180-0.20768 0.29699
  -4  -9   1    0.32    0.04   1-0.32311-0.51802-0.89026-0.71541-0.33824 0.43939
  -3  -9   1    3.16    0.13   1-0.18284-0.44592-0.89802-0.70766-0.40949 0.52248
  -2  -9   1    2.64    0.10   1-0.04594-0.37045-0.89298-0.71272-0.44939 0.57422
  -1  -9   1    3.17    0.12   1 0.08489-0.28891-0.87698-0.72873-0.46729 0.60396
   0  -9   1    0.00    0.14   1 0.20563-0.19728-0.85284-0.75288-0.46757 0.61609
   0 -10   1    1.51    0.07   1 0.15452-0.14616-0.92604-0.85809-0.33498 0.48354
  -1 -10   1    0.55    0.04   1 0.03666-0.24067-0.94176-0.84236-0.33149 0.46821
  -2 -10   1    3.11    0.12   1-0.09188-0.32450-0.95005-0.83405-0.30267 0.42754
  -3 -10   1    0.04    0.10   1-0.22983-0.39892-0.94668-0.83741-0.23794 0.35097
   0 -11   1    0.00    0.08   1 0.06367-0.05530-0.99361-0.96892-0.08925 0.23786
  -9   0   0    0.10    0.13   1-0.95567-0.95567-0.28544 0.28555 0.01873-0.12531
  -8   0   0   33.27    0.76   1-0.84948-0.84948-0.51152 0.51162 0.08168-0.17642
  -7   0   0    0.00    0.20   1-0.74330-0.74330-0.64857 0.64866 0.12217-0.20508
  -6   0   0   44.39    0.97   1-0.63711-0.63711-0.74729 0.74737 0.15300-0.22406
  -5   0   0    0.28    0.17   1-0.53093-0.53093-0.82162 0.82168 0.17767-0.23688
  -4   0   0 1272.23   10.89   1-0.42474-0.42474-0.87776 0.87781 0.19775-0.24512
  -3   0   0    2.00    0.07   1-0.31856-0.31856-0.91906 0.91910 0.21409-0.24962
  -2   0   0 1793.53    8.21   1-0.21237-0.21237-0.94746 0.94749 0.22717-0.25086
  -1   0   0    0.83    0.04   1-0.10619-0.10619-0.96410 0.96411 0.23729-0.24913
   0  -1   0    0.62    0.03   1 0.30409-0.30408-0.08920-0.08920-0.93000 0.93005
  -1  -1   0    0.61    0.03   1 0.06052-0.27288-0.28763 0.10923-0.95090 0.93910
  -2  -1   0   11.62    0.27   1 0.04835-0.47308-0.70989 0.53150-0.69869 0.67505
  -3  -1   0    1.53    0.07   1-0.08926-0.54784-0.90800 0.72963-0.41345 0.37797
  -4  -1   0   51.38    0.78   1-0.24567-0.60380-0.94177 0.76342-0.24263 0.19530
  -5  -1   0    0.18    0.16   1-0.39277-0.66907-0.91140 0.73306-0.14409 0.08492
  -6  -1   0   45.80    0.99   1-0.53124-0.74298-0.84530 0.66696-0.08594 0.01493
  -6  -2   0   51.22    1.06   1-0.45491-0.81929-0.82899 0.47225-0.34991 0.27894
  -5  -2   0    0.00    0.16   1-0.31303-0.74880-0.82678 0.47002-0.48388 0.42475
  -4  -2   0    4.01    0.14   1-0.18693-0.66253-0.74451 0.38775-0.65013 0.60285
  -3  -2   0    0.23    0.12   1-0.09949-0.53760-0.56952 0.21274-0.82007 0.78463
  -2  -2   0  985.80    7.17   1-0.05064-0.37408-0.37090 0.01411-0.92858 0.90498
  -1  -2   0    0.12    0.11   1 0.06717-0.27952-0.28158-0.07523-0.95188 0.94013
   0  -2   0   14.06    0.25   1 0.30041-0.30039-0.17841-0.17841-0.91872 0.91881
   0  -3   0    0.28    0.11   1 0.29418-0.29415-0.26761-0.26761-0.89962 0.89976
  -1  -3   0    2.40    0.10   1 0.10257-0.31491-0.35043-0.18478-0.92370 0.91199
  -2  -3   0    0.00    0.11   1-0.06606-0.35865-0.38369-0.15151-0.92325 0.89970
  -3  -3   0    5.58    0.23   1-0.16547-0.47161-0.44980-0.08539-0.88541 0.85002
  -4  -3   0    1.46    0.07   1-0.23957-0.60988-0.56146 0.02628-0.80404 0.75681
  -5  -3   0    0.00    0.17   1-0.32861-0.73321-0.66894 0.13377-0.68384 0.62476
  -6  -3   0    0.48    0.20   1-0.44343-0.83076-0.72863 0.19348-0.54568 0.47475
  -5  -4   0    1.31    0.07   1-0.37541-0.68640-0.58816-0.12542-0.73600 0.67696
  -4  -4   0   38.72    0.82   1-0.28467-0.56477-0.52351-0.19008-0.81754 0.77035
  -3  -4   0    1.94    0.07   1-0.18440-0.45267-0.47655-0.23705-0.86841 0.83306
  -2  -4   0  117.26    1.14   1-0.05114-0.37356-0.45275-0.26086-0.89152 0.86801
  -1  -4   0    0.14    0.11   1 0.11886-0.33119-0.42378-0.28985-0.88981 0.87814
   0  -4   0   25.39    0.48   1 0.28523-0.28518-0.35682-0.35682-0.87219 0.87237
   0  -5   0   72.00    0.94   1 0.27328-0.27322-0.44602-0.44602-0.83561 0.83584
  -1  -5   0    0.18    0.11   1 0.12244-0.33476-0.50044-0.39159-0.84879 0.83717
  -2  -5   0   74.07    1.03   1-0.03860-0.38609-0.52874-0.36328-0.84861 0.82514
  -3  -5   0   17.19    0.56   1-0.18327-0.45379-0.54261-0.34940-0.82855 0.79325
  -4  -5   0   33.56    0.83   1-0.30399-0.54544-0.56097-0.33103-0.78561 0.73846
  -5  -5   0    1.45    0.08   1-0.40961-0.65219-0.59037-0.30161-0.71707 0.65807
  -6  -6   0    8.73    0.35   1-0.54371-0.73045-0.64633-0.42405-0.56467 0.49388
  -5  -6   0    8.10    0.32   1-0.42944-0.63235-0.63584-0.43455-0.66409 0.60514
  -4  -6   0    7.20    0.29   1-0.31105-0.53837-0.62540-0.44501-0.73169 0.68459
  -3  -6   0    9.33    0.39   1-0.17988-0.45716-0.61772-0.45269-0.77422 0.73896
  -2  -6   0   46.63    0.92   1-0.03413-0.39054-0.60592-0.46451-0.79531 0.77189
  -1  -6   0    2.88    0.11   1 0.11742-0.32973-0.57958-0.49087-0.79847 0.78690
   0  -6   0    2.14    0.08   1 0.25792-0.25786-0.53523-0.53523-0.78861 0.78888
   0  -7   0    5.82    0.22   1 0.23850-0.23843-0.62443-0.62443-0.72918 0.72949
  -1  -7   0    7.76    0.31   1 0.10539-0.31769-0.66040-0.58845-0.73629 0.72476
  -2  -7   0    0.08    0.16   1-0.03807-0.38659-0.68369-0.56515-0.72960 0.70623
  -3  -7   0    2.40    0.09   1-0.18107-0.45597-0.69453-0.55429-0.70513 0.66992
  -4  -7   0    1.11    0.07   1-0.31631-0.53310-0.69814-0.55068-0.65875 0.61169
  -5  -7   0   13.86    0.53   1-0.44301-0.61877-0.69912-0.54968-0.58485 0.52595
  -6  -7   0    9.09    0.36   1-0.56674-0.70741-0.69616-0.55263-0.47134 0.40059
  -7  -7   0    0.55    0.03   1-0.70285-0.78368-0.67250-0.57628-0.27040 0.18781
  -6  -8   0    3.03    0.12   1-0.59258-0.68156-0.75332-0.67388-0.31756 0.24686
  -5  -8   0    0.15    0.13   1-0.45820-0.60357-0.76768-0.65953-0.47264 0.41378
  -4  -8   0   25.32    0.68   1-0.32598-0.52342-0.77237-0.65485-0.56226 0.51524
  -3  -8   0    0.64    0.06   1-0.18973-0.44729-0.77110-0.65613-0.61721 0.58204
  -2  -8   0    3.77    0.16   1-0.05048-0.37418-0.76179-0.66546-0.64747 0.62414
  -1  -8   0    0.00    0.15   1 0.08643-0.29872-0.74229-0.68498-0.65845 0.64697
   0  -8   0   73.78    1.28   1 0.21391-0.21383-0.71364-0.71364-0.65393 0.65428
   0  -9   0    6.11    0.22   1 0.18207-0.18197-0.80284-0.80284-0.55649 0.55689
  -1  -9   0    2.18    0.09   1 0.05912-0.27140-0.82469-0.78098-0.55811 0.54667
  -2  -9   0    8.38    0.32   1-0.07266-0.35199-0.83977-0.76588-0.54105 0.51777
  -3  -9   0    0.63    0.05   1-0.20866-0.42836-0.84641-0.75924-0.50059 0.46547
  -4  -9   0    0.89    0.05   1-0.34562-0.50377-0.84465-0.76098-0.42718 0.38021
  -5  -9   0    1.26    0.05   1-0.48539-0.57637-0.83289-0.77273-0.29223 0.23341
  -3 -10   0    1.91    0.08   1-0.24552-0.39149-0.91809-0.86596-0.32411 0.28903
  -2 -10   0    4.73    0.19   1-0.10969-0.31495-0.91647-0.86760-0.39006 0.36682
  -1 -10   0    0.02    0.11   1 0.01884-0.23110-0.90692-0.87716-0.41896 0.40757
   0 -10   0    3.03    0.12   1 0.13803-0.13793-0.89205-0.89205-0.42178 0.42223
   0 -11   0    5.40    0.17   1 0.05890-0.05878-0.98125-0.98125-0.17972 0.18021
  -6  -1  -1    9.50    0.40   1-0.53855-0.74392-0.84055 0.66226-0.08784-0.13129
  -5  -1  -1    1.31    0.07   1-0.39418-0.67592-0.91368 0.73537-0.12041-0.08688
  -4  -1  -1   37.87    0.69   1-0.23100-0.62673-0.95714 0.77881-0.18703-0.00842
  -3  -1  -1    0.12    0.11   1-0.02575-0.61961-0.93785 0.75951-0.34675 0.16315
  -2  -1  -1  405.37    4.28   1-0.06666-0.36633 0.27983-0.45818-0.96003 0.78827
  -1  -1  -1    0.09    0.11   1-0.47283 0.25221 0.71959-0.89795-0.53435 0.37443
   0  -1  -1   86.56    0.46   1-0.06205 0.05380 0.54527-0.72365-0.83825 0.69018
   0  -2  -1   61.34    0.51   1 0.10628-0.11452 0.19274-0.54952-0.96808 0.82005
  -1  -2  -1   14.01    0.28   1-0.18016-0.04045 0.23053-0.58730-0.96486 0.80499
  -2  -2  -1   61.67    0.65   1-0.27590-0.15708 0.24800-0.60476-0.94265 0.77093
  -3  -2  -1    5.27    0.20   1-0.18415-0.46120-0.05278-0.30397-0.99021 0.80665
  -4  -2  -1    7.68    0.29   1-0.15168-0.70604-0.52940 0.17267-0.84172 0.64632
  -5  -2  -1    2.40    0.09   1-0.26860-0.80149-0.76620 0.40948-0.59764 0.39039
  -6  -2  -1    0.24    0.18   1-0.42769-0.85477-0.81191 0.45520-0.42033 0.20124
  -6  -3  -1    1.39    0.08   1-0.42676-0.85569-0.62000 0.08488-0.68099 0.46195
  -5  -3  -1    4.83    0.18   1-0.33665-0.73343-0.45722-0.07790-0.84054 0.63334
  -4  -3  -1    7.17    0.30   1-0.30334-0.55437-0.23392-0.30122-0.93914 0.74379
  -3  -3  -1    9.33    0.34   1-0.28925-0.35609-0.06440-0.47075-0.96971 0.78620
  -2  -3  -1    0.20    0.10   1-0.22182-0.21115-0.01429-0.52088-0.98583 0.81416
  -1  -3  -1   16.12    0.35   1-0.05125-0.16935-0.03659-0.49859-0.99931 0.83949
   0  -3  -1   50.04    0.57   1 0.16799-0.17622-0.01833-0.51686-0.97471 0.82673
   0  -4  -1  138.63    1.12   1 0.19373-0.20195-0.17434-0.53926-0.95309 0.80515
  -1  -4  -1   26.95    0.52   1 0.01106-0.23164-0.20689-0.50669-0.97611 0.81633
  -2  -4  -1   94.48    1.04   1-0.16407-0.26889-0.20390-0.50968-0.97274 0.80112
  -3  -4  -1    7.77    0.31   1-0.28772-0.35761-0.21007-0.50349-0.94893 0.76546
  -4  -4  -1   39.71    0.85   1-0.36429-0.49341-0.26466-0.44889-0.91174 0.71643
  -5  -4  -1    0.25    0.19   1-0.42311-0.64696-0.36839-0.34515-0.85002 0.64286
  -6  -4  -1   12.68    0.51   1-0.49491-0.78753-0.48572-0.22781-0.74685 0.52785
  -5  -5  -1    7.79    0.31   1-0.46369-0.60637-0.41395-0.47800-0.80787 0.60076
  -4  -5  -1    4.29    0.18   1-0.37514-0.48255-0.36889-0.52307-0.86990 0.67463
  -3  -5  -1   20.23    0.60   1-0.26545-0.37986-0.35074-0.54123-0.91137 0.72795
  -2  -5  -1    0.80    0.05   1-0.12395-0.30900-0.34918-0.54281-0.93420 0.76262
  -1  -5  -1   21.65    0.54   1 0.04172-0.26230-0.34010-0.55189-0.93559 0.77585
   0  -5  -1   24.31    0.56   1 0.20291-0.21111-0.30597-0.58604-0.91733 0.76944
   0  -6  -1   99.60    1.28   1 0.20202-0.21022-0.42512-0.64530-0.86957 0.72172
  -1  -6  -1   18.11    0.57   1 0.05465-0.27522-0.45674-0.61366-0.88338 0.72369
  -2  -6  -1  103.84    1.39   1-0.10042-0.33252-0.47130-0.59910-0.88036 0.70882
  -3  -6  -1    6.53    0.27   1-0.24503-0.40028-0.47548-0.59490-0.85714 0.67376
  -4  -6  -1   39.36    0.94   1-0.37012-0.48756-0.48280-0.58757-0.81294 0.61772
  -5  -6  -1    5.29    0.20   1-0.47818-0.59187-0.50273-0.56763-0.74554 0.53848
  -6  -7  -1    0.92    0.05   1-0.59693-0.68548-0.61802-0.63073-0.54388 0.32502
  -5  -7  -1    0.00    0.12   1-0.48320-0.58684-0.60230-0.64646-0.66120 0.45418
  -4  -7  -1    2.49    0.11   1-0.36379-0.49388-0.59273-0.65605-0.73756 0.54239
  -3  -7  -1    1.05    0.07   1-0.23261-0.41269-0.58794-0.66085-0.78635 0.60302
  -2  -7  -1    0.51    0.06   1-0.09025-0.34268-0.58114-0.66766-0.81241 0.64092
  -1  -7  -1   10.66    0.42   1 0.05565-0.27621-0.56499-0.68382-0.81870 0.65905
   0  -7  -1    5.10    0.21   1 0.19342-0.20161-0.53726-0.71157-0.80875 0.66095
   0  -8  -1   79.25    1.32   1 0.17754-0.18571-0.64535-0.78189-0.73177 0.58401
  -1  -8  -1    0.00    0.18   1 0.04691-0.26745-0.66868-0.75854-0.73814 0.57853
  -2  -8  -1   61.77    1.16   1-0.09151-0.34141-0.68421-0.74300-0.72733 0.55588
  -3  -8  -1    5.07    0.21   1-0.23000-0.41529-0.69228-0.73492-0.69557 0.51228
  -4  -8  -1   41.67    0.85   1-0.36285-0.49480-0.69680-0.73039-0.63779 0.44266
  -5  -8  -1    5.74    0.22   1-0.48886-0.58117-0.70223-0.72495-0.54383 0.33685
  -6  -8  -1   23.37    0.40   1-0.61378-0.66862-0.71015-0.71701-0.37835 0.15953
  -5  -9  -1    1.19    0.06   1-0.50531-0.56471-0.79949-0.80609-0.35218 0.14525
  -4  -9  -1    0.00    0.11   1-0.37233-0.48532-0.79581-0.80979-0.49735 0.30226
  -3  -9  -1    0.01    0.12   1-0.23898-0.40630-0.79142-0.81418-0.57485 0.39161
  -2  -9  -1    2.83    0.12   1-0.10420-0.32871-0.78347-0.82215-0.61729 0.44589
  -1  -9  -1    0.01    0.17   1 0.02824-0.24877-0.76994-0.83569-0.63473 0.47517
   0  -9  -1    0.25    0.15   1 0.15322-0.16139-0.75132-0.85433-0.63219 0.48447
   0 -10  -1    1.39    0.05   1 0.11630-0.12446-0.85712-0.92694-0.49436 0.34669
  -1 -10  -1    0.08    0.12   1-0.00402-0.21651-0.87049-0.91355-0.49141 0.33189
  -2 -10  -1    1.28    0.05   1-0.13232-0.30058-0.88089-0.90314-0.46088 0.28952
  -3 -10  -1    0.00    0.09   1-0.26600-0.37927-0.88742-0.89660-0.39046 0.20726
   0 -11  -1    0.02    0.08   1 0.04459-0.05274-0.96857-0.99390-0.24163 0.09400
  -6   0  -2  292.08    2.50   1-0.73328-0.55746-0.63776 0.63791 0.19450-0.56179
  -5   0  -2    1.84    0.08   1-0.67221-0.40616-0.65920 0.65933 0.29910-0.65455
  -4   0  -2  465.30    2.41   1-0.64222-0.22378-0.60967 0.60979 0.42817-0.77177
  -3   0  -2    7.43    0.28   1-0.66950 0.01587-0.42483 0.42494 0.57113-0.90289
  -2   0  -2 2873.90   11.82   1-0.75739 0.31613-0.00833 0.00842 0.60965-0.92957
  -1   0  -2   43.32    0.43   1-0.75100 0.52211 0.56313-0.56304 0.30231-0.61039
   0   0  -2  629.56    3.97   1-0.41129 0.39477 0.90290-0.90282-0.14812-0.14812
   0  -1  -2    5.38    0.17   1-0.23802 0.22151 0.73667-0.91501-0.64546 0.34928
  -1  -1  -2   77.71    0.59   1-0.63987 0.41099 0.73138-0.90970-0.27151-0.03652
  -2  -1  -2   71.85    0.68   1-0.79018 0.34893 0.50929-0.68760 0.29628-0.61615
  -3  -1  -2   35.41    0.58   1-0.64707-0.00655-0.31336 0.13507 0.65795-0.98967
  -4  -1  -2   22.51    0.56   1-0.43592-0.43007-0.84296 0.66467 0.29061-0.63417
  -5  -1  -2   15.02    0.54   1-0.48390-0.59446-0.86689 0.68862 0.09256-0.44796
  -6  -1  -2    1.93    0.09   1-0.58931-0.70142-0.80687 0.62861 0.00752-0.37476
  -7  -1  -2    3.39    0.13   1-0.70612-0.79699-0.70803 0.52978-0.04482-0.33428
  -7  -2  -2    4.61    0.18   1-0.59064-0.91245-0.76423 0.40758-0.29126-0.08778
  -6  -2  -2    0.01    0.19   1-0.41529-0.87543-0.83594 0.47927-0.38115 0.01395
  -5  -2  -2   11.78    0.45   1-0.22029-0.85806-0.78618 0.42950-0.58858 0.23322
  -4  -2  -2  150.52    1.45   1-0.29835-0.56764 0.15325-0.50995-0.95729 0.61377
  -3  -2  -2   44.40    0.68   1-0.59870-0.05491 0.61885-0.97555-0.54130 0.20963
  -2  -2  -2    0.37    0.12   1-0.56857 0.12733 0.59789-0.95461-0.59604 0.27621
  -1  -2  -2   53.70    0.56   1-0.37771 0.14884 0.50915-0.86588-0.79337 0.48538
   0  -2  -2  413.28    4.13   1-0.06498 0.04848 0.44299-0.79973-0.89651 0.60037
   0  -3  -2   33.41    0.50   1 0.03857-0.05506 0.19130-0.72646-0.97714 0.68104
  -1  -3  -2   35.21    0.53   1-0.20042-0.02844 0.21567-0.75081-0.96542 0.65748
  -2  -3  -2    7.03    0.28   1-0.39408-0.04715 0.27791-0.81304-0.89674 0.57695
  -3  -3  -2   27.81    0.59   1-0.48246-0.17114 0.29639-0.83150-0.84996 0.51833
  -4  -3  -2    4.38    0.16   1-0.47771-0.38826 0.19635-0.73146-0.88166 0.53818
  -5  -3  -2    2.86    0.11   1-0.41675-0.66159-0.09639-0.43870-0.92570 0.57039
  -6  -3  -2    0.82    0.07   1-0.42099-0.86973-0.45758-0.07749-0.80532 0.43816
  -7  -3  -2    1.98    0.08   1-0.54363-0.95945-0.62145 0.08639-0.59339 0.21439
  -6  -4  -2    6.66    0.25   1-0.54682-0.74388-0.26741-0.44608-0.82258 0.45547
  -5  -4  -2    5.20    0.21   1-0.51691-0.56142-0.09925-0.61425-0.87774 0.52247
  -4  -4  -2   42.59    0.89   1-0.48355-0.38241 0.00612-0.71964-0.90090 0.55748
  -3  -4  -2   13.59    0.46   1-0.41325-0.24034 0.03825-0.75177-0.93146 0.59987
  -2  -4  -2    4.62    0.19   1-0.28478-0.15644 0.01887-0.73241-0.97280 0.65306
  -1  -4  -2   46.66    0.70   1-0.10044-0.12840-0.01018-0.70337-0.99894 0.69104
   0  -4  -2   76.36    0.86   1 0.09555-0.11203-0.00789-0.70567-0.98851 0.69246
   0  -5  -2   92.65    1.11   1 0.12624-0.14271-0.17365-0.71832-0.96808 0.67207
  -1  -5  -2    0.04    0.13   1-0.04390-0.18494-0.18774-0.70422-0.98211 0.67426
  -2  -5  -2   51.37    0.90   1-0.21472-0.22649-0.17959-0.71236-0.97046 0.65076
  -3  -5  -2    0.01    0.15   1-0.35736-0.29622-0.16795-0.72398-0.93719 0.60565
  -4  -5  -2   20.26    0.66   1-0.46267-0.40328-0.17820-0.71372-0.89284 0.54945
  -5  -5  -2    7.00    0.26   1-0.53932-0.53901-0.22580-0.66611-0.84002 0.48479
  -5  -6  -2    3.16    0.14   1-0.53711-0.54120-0.36842-0.70190-0.78747 0.43229
  -4  -6  -2   33.75    0.87   1-0.43702-0.42892-0.34300-0.72733-0.85447 0.51113
  -3  -6  -2    0.00    0.16   1-0.31560-0.33796-0.33785-0.73250-0.90284 0.57134
  -2  -6  -2    0.46    0.17   1-0.17098-0.27022-0.34108-0.72928-0.93236 0.61271
  -1  -6  -2    5.01    0.20   1-0.01268-0.21614-0.33774-0.73263-0.94031 0.63250
   0  -6  -2   53.75    0.96   1 0.14076-0.15722-0.31941-0.75097-0.92772 0.63175
   0  -7  -2    8.24    0.30   1 0.14381-0.16026-0.45305-0.79574-0.87031 0.57439
  -1  -7  -2   41.22    0.94   1 0.00193-0.23075-0.47193-0.77685-0.88004 0.57228
  -2  -7  -2    0.23    0.15   1-0.14595-0.29524-0.48104-0.76772-0.87113 0.55153
  -3  -7  -2    2.47    0.11   1-0.28774-0.36582-0.48413-0.76463-0.84097 0.50952
  -4  -7  -2    0.29    0.16   1-0.41551-0.45042-0.49001-0.75874-0.78816 0.44487
  -5  -7  -2    1.38    0.07   1-0.52831-0.54999-0.50754-0.74119-0.70890 0.35377
  -6  -7  -2    0.07    0.13   1-0.63193-0.65874-0.54205-0.70666-0.58815 0.22117
  -6  -8  -2   22.57    0.36   1-0.63617-0.65449-0.67510-0.75203-0.40820 0.04127
  -5  -8  -2    3.69    0.13   1-0.52183-0.55646-0.64055-0.78658-0.59140 0.23631
  -4  -8  -2   11.13    0.44   1-0.40226-0.46366-0.62402-0.80313-0.69113 0.34788
  -3  -8  -2    4.84    0.18   1-0.27293-0.38062-0.61570-0.81146-0.75311 0.42170
  -2  -8  -2   72.56    1.24   1-0.13552-0.30566-0.60850-0.81868-0.78808 0.46852
  -1  -8  -2    4.25    0.16   1 0.00391-0.23271-0.59695-0.83023-0.80065 0.49293
   0  -8  -2   11.93    0.48   1 0.13725-0.15369-0.57944-0.84776-0.79433 0.49846
   0  -9  -2    0.23    0.15   1 0.12081-0.13724-0.70210-0.90351-0.69376 0.39793
  -1  -9  -2    0.14    0.15   1-0.00581-0.22298-0.71714-0.88845-0.69596 0.38829
  -2  -9  -2    0.01    0.13   1-0.13842-0.30275-0.72916-0.87642-0.67669 0.35717
  -3  -9  -2    4.87    0.19   1-0.27148-0.38206-0.73895-0.86663-0.63063 0.29927
  -4  -9  -2    1.50    0.06   1-0.40073-0.46518-0.75064-0.85492-0.54663 0.20342
  -5  -9  -2    0.09    0.09   1-0.52614-0.55214-0.77377-0.83177-0.38131 0.02626
  -3 -10  -2    2.02    0.09   1-0.28891-0.36462-0.86098-0.92300-0.43384 0.10252
  -2 -10  -2    0.20    0.11   1-0.15776-0.28340-0.84823-0.93576-0.51336 0.19389
  -1 -10  -2    4.63    0.19   1-0.03014-0.19865-0.83666-0.94734-0.54751 0.23988
   0 -10  -2   12.98    0.40   1 0.09091-0.10732-0.82496-0.95906-0.55170 0.25591
  -6  -1  -3    0.00    0.22   1-0.71747-0.58153-0.66462 0.48640 0.16830-0.68367
  -5  -1  -3    1.86    0.09   1-0.71481-0.37182-0.57742 0.39918 0.35411-0.85764
  -4  -1  -3   94.92    1.18   1-0.79336-0.08089-0.26181 0.08357 0.50452-0.99620
  -3  -1  -3    8.60    0.34   1-0.86545 0.20357 0.19909-0.37735 0.41074-0.89057
  -2  -1  -3   50.45    0.64   1-0.82715 0.37764 0.54600-0.72428 0.08680-0.55479
  -1  -1  -3    3.16    0.13   1-0.63020 0.39306 0.72581-0.90410-0.31076-0.14539
   0  -1  -3  133.34    0.84   1-0.30389 0.27912 0.77572-0.95401-0.56940 0.12510
   0  -2  -3   15.08    0.33   1-0.17329 0.14853 0.56246-0.91917-0.81701 0.37275
  -1  -2  -3    9.82    0.28   1-0.46605 0.22892 0.59322-0.94992-0.68155 0.22545
  -2  -2  -3   74.90    0.82   1-0.69223 0.24273 0.61154-0.96822-0.42140-0.04654
  -3  -2  -3    0.37    0.17   1-0.81570 0.15383 0.56979-0.92646-0.14558-0.33421
  -4  -2  -3   85.58    1.17   1-0.88990 0.01566 0.41210-0.76875 0.14566-0.63730
  -5  -2  -3    0.00    0.22   1-0.78302-0.30359-0.35724 0.00059 0.46477-0.96825
  -6  -2  -3   19.58    0.68   1-0.56302-0.73596-0.82518 0.46855 0.01381-0.52913
  -7  -2  -3    0.64    0.22   1-0.65410-0.85725-0.74840 0.39178-0.14561-0.38155
  -6  -3  -3    0.82    0.07   1-0.54495-0.75402-0.01008-0.52496-0.86749 0.35221
  -5  -3  -3    0.10    0.20   1-0.71586-0.37074 0.38302-0.91807-0.62295 0.11952
  -4  -3  -3   64.69    1.07   1-0.71757-0.15666 0.44854-0.98361-0.57216 0.08057
  -3  -3  -3    0.07    0.14   1-0.65313-0.00873 0.45126-0.98634-0.64372 0.16397
  -2  -3  -3    1.08    0.05   1-0.52008 0.07059 0.41539-0.95049-0.77426 0.30636
  -1  -3  -3    0.00    0.11   1-0.30842 0.07130 0.36201-0.89711-0.89560 0.43954
   0  -3  -3  492.59    2.03   1-0.06705 0.04230 0.33133-0.86645-0.94349 0.49927
   0  -4  -3    0.25    0.12   1 0.00545-0.03019 0.12183-0.83536-0.99072 0.54655
  -1  -4  -3   49.41    0.77   1-0.19675-0.04036 0.13512-0.84863-0.98059 0.52458
  -2  -4  -3    0.57    0.04   1-0.38894-0.06054 0.17157-0.88507-0.92547 0.45762
  -3  -4  -3    5.94    0.26   1-0.53196-0.12989 0.20297-0.91646-0.85053 0.37083
  -4  -4  -3    5.17    0.21   1-0.61938-0.25484 0.20062-0.91410-0.79244 0.30090
  -5  -4  -3    4.68    0.19   1-0.66132-0.42527 0.14294-0.85640-0.77214 0.26875
  -6  -4  -3    2.02    0.09   1-0.66921-0.62975 0.00329-0.71674-0.77923 0.26400
  -5  -5  -3    7.46    0.30   1-0.63035-0.45623-0.06545-0.82643-0.80748 0.30414
  -4  -5  -3    1.57    0.08   1-0.55477-0.31944-0.02733-0.86456-0.86119 0.36969
  -3  -5  -3    7.93    0.32   1-0.44588-0.21596-0.02594-0.86596-0.91818 0.43853
  -2  -5  -3   80.80    1.17   1-0.29884-0.15063-0.04479-0.84712-0.96842 0.50061
  -1  -5  -3   13.09    0.46   1-0.12403-0.11307-0.06225-0.82967-0.99568 0.53971
   0  -5  -3    9.03    0.35   1 0.05172-0.07645-0.06231-0.82962-0.99227 0.54814
   0  -6  -3    0.07    0.13   1 0.07935-0.10406-0.22690-0.84345-0.96469 0.52061
  -1  -6  -3    7.21    0.29   1-0.07836-0.15873-0.23438-0.83596-0.97179 0.51586
  -2  -6  -3    7.19    0.32   1-0.23884-0.21062-0.23015-0.84017-0.95518 0.48741
  -3  -6  -3   18.46    0.65   1-0.38429-0.27754-0.22273-0.84758-0.91592 0.43631
  -4  -6  -3   13.55    0.53   1-0.50478-0.36942-0.22654-0.84375-0.85978 0.36833
  -5  -7  -3    2.56    0.11   1-0.57400-0.51256-0.42853-0.82016-0.72857 0.22532
  -4  -7  -3   11.83    0.46   1-0.46680-0.40739-0.40263-0.84608-0.81209 0.32068
  -3  -7  -3   13.87    0.56   1-0.34176-0.32006-0.39435-0.85436-0.87067 0.39110
  -2  -7  -3    5.70    0.22   1-0.20068-0.24877-0.39302-0.85571-0.90706 0.43934
  -1  -7  -3   21.76    0.69   1-0.05172-0.18536-0.38911-0.85963-0.92110 0.46521
   0  -7  -3    2.05    0.08   1 0.09315-0.11786-0.37803-0.87072-0.91437 0.47034
   0  -8  -3   20.84    0.68   1 0.09555-0.12024-0.52068-0.90649-0.84162 0.39762
  -1  -8  -3    3.01    0.12   1-0.03971-0.19736-0.53287-0.89428-0.84603 0.39020
  -2  -8  -3   27.20    0.76   1-0.17935-0.27009-0.54149-0.88565-0.82994 0.36226
  -3  -8  -3    5.84    0.22   1-0.31515-0.34666-0.54923-0.87789-0.79019 0.31067
  -4  -8  -3   17.05    0.53   1-0.44068-0.43350-0.56297-0.86414-0.72252 0.23115
  -5  -8  -3    0.53    0.04   1-0.55328-0.53327-0.59306-0.83404-0.61471 0.11150
  -4  -9  -3    2.16    0.08   1-0.42765-0.44651-0.71714-0.88838-0.57307 0.08175
  -3  -9  -3    0.49    0.04   1-0.30345-0.35835-0.69538-0.91015-0.66715 0.18768
  -2  -9  -3    4.51    0.17   1-0.17284-0.27658-0.68231-0.92323-0.71869 0.25105
  -1  -9  -3    4.12    0.17   1-0.04081-0.19624-0.67098-0.93458-0.74131 0.28552
   0  -9  -3    1.75    0.07   1 0.08679-0.11147-0.65922-0.94635-0.74077 0.29682
   0 -10  -3    2.96    0.11   1 0.06346-0.08813-0.79975-0.98423-0.59231 0.14841
  -1 -10  -3    1.01    0.05   1-0.05766-0.17938-0.81017-0.97380-0.58546 0.12971
  -2 -10  -3    0.61    0.04   1-0.18388-0.26554-0.82426-0.95970-0.54473 0.07714
  -3 -10  -3    0.73    0.04   1-0.31173-0.35006-0.84734-0.93661-0.44641-0.03303
  -6   0  -4   86.75    1.39   1-0.90937-0.39789-0.31698 0.31720 0.21826-0.88179
  -5   0  -4   10.63    0.47   1-0.90658-0.18831-0.20493 0.20514 0.31782-0.96951
  -4   0  -4  301.02    2.20   1-0.91297 0.03045-0.00726 0.00746 0.35642-0.99626
  -3   0  -4   10.09    0.38   1-0.90253 0.23238 0.25485-0.25467 0.29622-0.92421
  -2   0  -4   83.15    0.88   1-0.82985 0.37207 0.53168-0.53151 0.12276-0.73891
  -1   0  -4   57.45    0.66   1-0.65221 0.40680 0.75426-0.75410-0.11235-0.49196
   0   0  -4   32.01    0.48   1-0.40575 0.37271 0.87203-0.87188-0.29623-0.29623
   0  -1  -4   70.91    0.72   1-0.33209 0.29906 0.77451-0.95277-0.55628-0.03614
  -1  -1  -4   23.93    0.44   1-0.60276 0.35736 0.72148-0.89973-0.37415-0.23011
  -2  -1  -4    0.19    0.13   1-0.80994 0.35217 0.58450-0.76274-0.09434-0.52177
  -3  -1  -4    4.18    0.16   1-0.90779 0.23765 0.35822-0.53644 0.16720-0.79515
  -4  -1  -4   21.25    0.62   1-0.92383 0.04132 0.06905-0.24727 0.32440-0.96419
  -5  -1  -4    0.15    0.25   1-0.89580-0.19909-0.21737 0.03917 0.33715-0.98879
  -6  -1  -4   17.35    0.66   1-0.86950-0.43775-0.40852 0.23034 0.22873-0.89221
  -6  -2  -4   11.59    0.49   1-0.88573-0.42152-0.34080-0.01580 0.26534-0.92877
  -5  -2  -4    3.53    0.14   1-0.94947-0.14540 0.05190-0.40851 0.25611-0.90770
  -4  -2  -4    0.00    0.20   1-0.93267 0.05017 0.33804-0.69466 0.07376-0.71351
  -3  -2  -4    0.02    0.15   1-0.85798 0.18784 0.50115-0.85778-0.16085-0.46706
  -2  -2  -4   14.68    0.41   1-0.71769 0.25993 0.58503-0.94168-0.41734-0.19872
  -1  -2  -4    3.42    0.16   1-0.49544 0.25005 0.61125-0.96791-0.64403 0.03981
   0  -2  -4   18.08    0.40   1-0.23540 0.20238 0.60841-0.96508-0.77001 0.17764
   0  -3  -4   47.38    0.70   1-0.14250 0.10949 0.40947-0.94455-0.90777 0.31544
  -1  -3  -4   20.22    0.48   1-0.37289 0.12751 0.42952-0.96458-0.84211 0.23794
  -2  -3  -4   25.51    0.58   1-0.58501 0.12726 0.45352-0.98858-0.70408 0.08806
  -3  -3  -4    8.48    0.34   1-0.73903 0.06891 0.45783-0.99287-0.53479-0.09307
  -4  -3  -4    4.62    0.21   1-0.83961-0.04288 0.42980-0.96483-0.37862-0.26108
  -5  -3  -4    3.80    0.16   1-0.90929-0.18557 0.36568-0.90070-0.24925-0.40230
  -6  -3  -4    0.13    0.26   1-0.96730-0.33993 0.24493-0.77994-0.11998-0.54341
  -7  -3  -4    0.36    0.20   1-0.92787-0.59173-0.32301-0.21198 0.13426-0.80949
  -6  -4  -4    2.70    0.11   1-0.83118-0.47604 0.16391-0.87733-0.57688-0.08647
  -5  -4  -4    5.96    0.24   1-0.79238-0.30247 0.23923-0.95266-0.60455-0.04695
  -4  -4  -4    1.27    0.08   1-0.72346-0.15902 0.27291-0.98635-0.67357 0.03391
  -3  -4  -4   21.08    0.63   1-0.61623-0.05388 0.27425-0.98770-0.77157 0.14375
  -2  -4  -4    0.00    0.12   1-0.46218 0.00444 0.25253-0.96599-0.87459 0.25862
  -1  -4  -4   20.49    0.53   1-0.26877 0.02340 0.22481-0.93829-0.95019 0.34606
   0  -4  -4   19.63    0.51   1-0.06817 0.03517 0.20920-0.92269-0.97783 0.38554
   0  -5  -4   62.86    1.01   1-0.01418-0.01881 0.02083-0.91273-0.99892 0.40668
  -1  -5  -4    0.86    0.05   1-0.19121-0.05415 0.02749-0.91938-0.99031 0.38622
  -2  -5  -4   38.15    0.85   1-0.36682-0.09091 0.04499-0.93686-0.94823 0.33230
  -3  -5  -4    0.51    0.06   1-0.51763-0.15247 0.06111-0.95297-0.88098 0.25320
  -4  -5  -4   16.87    0.63   1-0.63307-0.24940 0.05961-0.95146-0.80592 0.16630
  -4  -6  -4    2.34    0.09   1-0.56425-0.31821-0.14829-0.92197-0.84234 0.20277
  -3  -6  -4   11.92    0.48   1-0.44348-0.22661-0.14157-0.92870-0.90835 0.28062
  -2  -6  -4    7.94    0.32   1-0.29777-0.15995-0.14789-0.92239-0.95821 0.34233
  -1  -6  -4   30.38    0.79   1-0.13703-0.10832-0.15456-0.91574-0.98451 0.38047
   0  -6  -4    0.30    0.14   1 0.02241-0.05539-0.15386-0.91645-0.98501 0.39282
   0  -7  -4   34.84    0.88   1 0.04479-0.07776-0.31736-0.93135-0.94320 0.35104
  -1  -7  -4   13.14    0.53   1-0.10146-0.14388-0.32287-0.92584-0.94510 0.34111
  -2  -7  -4   10.94    0.42   1-0.25012-0.20759-0.32454-0.92416-0.92465 0.30881
  -3  -7  -4   11.37    0.46   1-0.38975-0.28033-0.32732-0.92136-0.88109 0.25341
  -4  -7  -4    0.45    0.18   1-0.51205-0.37040-0.34091-0.90775-0.81564 0.17611
  -5  -7  -4    1.35    0.06   1-0.61387-0.48095-0.37784-0.87082-0.72615 0.07478
  -5  -8  -4    0.26    0.10   1-0.57785-0.51696-0.57113-0.85594-0.61416-0.03717
  -4  -8  -4   17.52    0.49   1-0.47395-0.40849-0.52195-0.90513-0.73436 0.09488
  -3  -8  -4    0.65    0.05   1-0.35306-0.31701-0.49986-0.92722-0.80920 0.18156
  -2  -8  -4    6.23    0.23   1-0.21980-0.23790-0.48921-0.93789-0.85483 0.23904
  -1  -8  -4    0.95    0.06   1-0.08105-0.16427-0.48160-0.94551-0.87567 0.27172
   0  -8  -4    3.53    0.15   1 0.05496-0.08792-0.47342-0.95371-0.87457 0.28246
   0  -9  -4    9.72    0.39   1 0.05316-0.08610-0.62674-0.97879-0.77308 0.18102
  -1  -9  -4    0.25    0.14   1-0.07448-0.17084-0.63615-0.96937-0.77076 0.16685
  -2  -9  -4    2.85    0.13   1-0.20489-0.25280-0.64843-0.95708-0.74330 0.12755
  -3  -9  -4    1.69    0.06   1-0.33183-0.33823-0.66745-0.93805-0.68391 0.05632
  -4  -9  -4    0.51    0.03   1-0.44901-0.43342-0.70535-0.90014-0.57250-0.06694
  -2 -10  -4    6.92    0.22   1-0.20837-0.24931-0.81701-0.96691-0.54822-0.06749
  -1 -10  -4    0.24    0.10   1-0.08469-0.16062-0.79695-0.98699-0.60167-0.00219
   0 -10  -4    3.58    0.14   1 0.03556-0.06850-0.78661-0.99734-0.61330 0.02128
  -6  -1  -5   23.44    0.75   1-0.96376-0.35176-0.18023 0.00208 0.14265-0.95425
  -5  -1  -5    5.14    0.21   1-0.97202-0.13112 0.00507-0.18323 0.18028-0.98003
  -4  -1  -5   32.85    0.81   1-0.95895 0.06817 0.22446-0.40263 0.11959-0.90750
  -3  -1  -5    8.73    0.35   1-0.90099 0.22259 0.43344-0.61163-0.03062-0.74545
  -2  -1  -5   16.17    0.46   1-0.77549 0.30946 0.60083-0.77902-0.23719-0.52703
  -1  -1  -5   14.82    0.41   1-0.57628 0.32262 0.70831-0.88653-0.43941-0.31297
   0  -1  -5  252.77    1.56   1-0.34390 0.30261 0.75701-0.93524-0.57410-0.16643
   0  -2  -5    2.87    0.11   1-0.27018 0.22891 0.61683-0.97346-0.75335 0.01286
  -1  -2  -5   40.02    0.69   1-0.50045 0.24680 0.60499-0.96161-0.64643-0.10591
  -2  -2  -5    0.27    0.16   1-0.70843 0.24241 0.56193-0.91853-0.46607-0.29811
  -3  -2  -5   29.94    0.71   1-0.85599 0.17760 0.47268-0.82928-0.25707-0.51895
  -4  -2  -5    3.47    0.13   1-0.94320 0.05244 0.33189-0.68848-0.06872-0.71914
  -5  -2  -5    2.35    0.10   1-0.98291-0.12022 0.13901-0.49558 0.06573-0.86544
  -6  -2  -5   10.87    0.40   1-0.98202-0.33348-0.09127-0.26529 0.11022-0.92178
  -6  -3  -5   26.55    0.74   1-0.99116-0.32434 0.11995-0.65492-0.11210-0.69940
  -5  -3  -5    2.22    0.10   1-0.94803-0.15509 0.27054-0.80552-0.22021-0.57945
  -4  -3  -5    0.00    0.20   1-0.87599-0.01476 0.36856-0.90355-0.35966-0.42816
  -3  -3  -5    3.85    0.16   1-0.76678 0.08840 0.42662-0.96162-0.52179-0.25419
  -2  -3  -5  194.47    1.72   1-0.60894 0.14293 0.45091-0.98593-0.68567-0.07846
  -1  -3  -5    2.58    0.10   1-0.40680 0.15316 0.45167-0.98670-0.81562 0.06333
   0  -3  -5    8.02    0.33   1-0.19272 0.15145 0.44409-0.97913-0.88451 0.14406
   0  -4  -5    6.16    0.25   1-0.12363 0.08237 0.25890-0.97235-0.96343 0.22303
  -1  -4  -5    9.95    0.41   1-0.31706 0.06344 0.27001-0.98345-0.92549 0.17325
  -2  -4  -5   10.31    0.41   1-0.50509 0.03909 0.28292-0.99635-0.84236 0.07827
  -3  -4  -5    0.67    0.06   1-0.66176-0.01661 0.28538-0.99880-0.72919-0.04675
  -4  -4  -5    5.25    0.20   1-0.77819-0.11255 0.26554-0.97894-0.61173-0.17605
  -5  -4  -5    0.46    0.20   1-0.85938-0.24373 0.21631-0.92970-0.51060-0.28902
  -4  -5  -5    5.28    0.21   1-0.68516-0.20557 0.08668-0.97850-0.76033-0.02740
  -3  -5  -5    0.04    0.16   1-0.56601-0.11234 0.09869-0.99051-0.84879 0.07290
  -2  -5  -5   57.72    1.10   1-0.41499-0.05100 0.09303-0.98486-0.92682 0.16277
  -1  -5  -5    0.07    0.15   1-0.24246-0.01116 0.08192-0.97377-0.97873 0.22653
   0  -5  -5    5.28    0.21   1-0.06814 0.02690 0.07459-0.96645-0.99715 0.25679
   0  -6  -5    3.48    0.14   1-0.02683-0.01441-0.10340-0.96687-0.99420 0.25389
  -1  -6  -5    7.13    0.27   1-0.18532-0.06829-0.10140-0.96886-0.98622 0.23406
  -2  -6  -5    0.00    0.14   1-0.34385-0.12213-0.09700-0.97325-0.95170 0.18770
  -3  -6  -5    0.14    0.17   1-0.48791-0.19044-0.09693-0.97330-0.89333 0.11748
  -4  -6  -5    4.07    0.16   1-0.60776-0.28296-0.11224-0.95798-0.81879 0.03110
  -5  -7  -5    3.67    0.15   1-0.64073-0.46235-0.36423-0.88439-0.71044-0.08904
  -4  -7  -5   14.64    0.51   1-0.54597-0.34474-0.31075-0.93788-0.80719 0.01955
  -3  -7  -5    4.39    0.17   1-0.42762-0.25072-0.28775-0.96089-0.87937 0.10357
  -2  -7  -5    0.76    0.06   1-0.29089-0.17507-0.27987-0.96878-0.92963 0.16567
  -1  -7  -5    3.62    0.16   1-0.14430-0.10930-0.27720-0.97146-0.95641 0.20430
   0  -7  -5   78.09    1.32   1 0.00146-0.04269-0.27460-0.97408-0.95991 0.21964
   0  -8  -5   12.19    0.50   1 0.01777-0.05899-0.44137-0.98572-0.89465 0.15443
  -1  -8  -5   14.99    0.55   1-0.11760-0.13599-0.44736-0.97971-0.89165 0.13958
  -2  -8  -5    8.41    0.35   1-0.25400-0.21196-0.45639-0.97067-0.86547 0.10156
  -3  -8  -5    2.87    0.12   1-0.38324-0.29509-0.47312-0.95394-0.81328 0.03753
  -4  -8  -5    9.72    0.34   1-0.49759-0.39311-0.50830-0.91874-0.72939-0.05821
  -5  -8  -5    6.10    0.20   1-0.58736-0.51571-0.59080-0.83623-0.58485-0.21459
  -3  -9  -5    3.14    0.12   1-0.35313-0.32519-0.66318-0.94228-0.67840-0.09731
  -2  -9  -5    0.51    0.04   1-0.23189-0.23406-0.63326-0.97221-0.74999-0.01387
  -1  -9  -5    1.31    0.06   1-0.10456-0.14901-0.61748-0.98801-0.78407 0.03205
   0  -9  -5   11.66    0.42   1 0.02187-0.06308-0.60893-0.99657-0.79032 0.05014
   0 -10  -5    0.54    0.03   1 0.00859-0.04979-0.79382-0.99008-0.60647-0.13367
  -1 -10  -5    1.10    0.05   1-0.10936-0.14420-0.80730-0.97660-0.58491-0.16707
  -5   0  -6    0.03    0.23   1-0.98681-0.12460 0.13010-0.12982 0.04115-0.98906
  -4   0  -6   44.30    0.98   1-0.95228 0.05324 0.29810-0.29783 0.01254-0.94861
  -3   0  -6    8.60    0.37   1-0.87975 0.19308 0.47463-0.47437-0.07755-0.84667
  -2   0  -6    0.16    0.14   1-0.75585 0.28155 0.63333-0.63309-0.20829-0.70410
  -1   0  -6   10.95    0.40   1-0.58288 0.32095 0.75110-0.75087-0.34228-0.55827
   0   0  -6   18.09    0.48   1-0.38986 0.34030 0.81796-0.81774-0.44435-0.44435
   0  -1  -6  249.60    1.77   1-0.34640 0.29685 0.72930-0.90749-0.60862-0.28003
  -1  -1  -6    2.49    0.10   1-0.55150 0.28958 0.68569-0.86386-0.50529-0.39521
  -2  -1  -6  143.81    1.48   1-0.73729 0.26300 0.59805-0.77622-0.35508-0.55726
  -3  -1  -6    1.54    0.07   1-0.87266 0.18600 0.46619-0.64434-0.19408-0.73010
  -4  -1  -6   25.39    0.75   1-0.95315 0.05412 0.30231-0.48045-0.06517-0.87085
  -5  -1  -6    0.16    0.24   1-0.99028-0.12112 0.12680-0.30492 0.00198-0.94985
  -5  -2  -6    1.08    0.09   1-0.98330-0.12809 0.17505-0.53158-0.10486-0.84297
  -4  -2  -6    0.77    0.08   1-0.93067 0.03165 0.32905-0.68560-0.21175-0.72423
  -3  -2  -6    8.92    0.36   1-0.83390 0.14725 0.45171-0.80826-0.36332-0.56082
  -2  -2  -6   11.32    0.45   1-0.68609 0.21181 0.53682-0.89339-0.52870-0.38359
  -1  -2  -6    2.76    0.11   1-0.49438 0.23247 0.58487-0.94145-0.66979-0.23066
   0  -2  -6   13.26    0.44   1-0.28835 0.23881 0.60373-0.96033-0.75830-0.13031
   0  -3  -6    6.43    0.26   1-0.22422 0.17469 0.44937-0.98438-0.87603-0.01254
  -1  -3  -6   18.79    0.56   1-0.42145 0.15955 0.44729-0.98228-0.81127-0.08914
  -2  -3  -6    0.27    0.16   1-0.60991 0.13564 0.43059-0.96557-0.69839-0.21386
  -3  -3  -6    9.76    0.40   1-0.76408 0.07744 0.38960-0.92456-0.55614-0.36796
  -4  -3  -6    0.00    0.21   1-0.87511-0.02390 0.31758-0.85253-0.41350-0.52244
  -3  -4  -6    4.22    0.18   1-0.67761-0.00902 0.26603-0.97941-0.72242-0.20163
  -2  -4  -6    3.71    0.15   1-0.52469 0.05043 0.28180-0.99519-0.83139-0.08082
  -1  -4  -6    9.41    0.40   1-0.34610 0.08421 0.28302-0.99643-0.91248 0.01211
   0  -4  -6   23.38    0.65   1-0.16270 0.11319 0.27840-0.99181-0.95426 0.06574
   0  -5  -6   14.17    0.55   1-0.10940 0.05990 0.10121-0.99303-0.99342 0.10494
  -1  -5  -6   14.29    0.57   1-0.27806 0.01619 0.10578-0.99760-0.96877 0.06845
  -2  -5  -6   19.12    0.66   1-0.44425-0.03000 0.10775-0.99955-0.91282 0.00066
  -3  -5  -6    7.00    0.30   1-0.59148-0.09514 0.09985-0.99163-0.83188-0.09212
  -4  -5  -6   19.20    0.66   1-0.70949-0.18950 0.07226-0.96403-0.73950-0.19635
  -4  -6  -6    2.72    0.09   1-0.63151-0.26747-0.11419-0.95600-0.80090-0.13490
  -3  -6  -6    9.80    0.39   1-0.51545-0.17116-0.08557-0.98462-0.88003-0.04393
  -2  -6  -6    1.25    0.07   1-0.37565-0.09859-0.07575-0.99446-0.94315 0.03103
  -1  -6  -6    1.07    0.07   1-0.22179-0.04008-0.07464-0.99558-0.98307 0.08280
   0  -6  -6   36.32    0.90   1-0.06665 0.01715-0.07618-0.99405-0.99701 0.10858
   0  -7  -6    9.26    0.37   1-0.03489-0.01460-0.25194-0.99670-0.96749 0.07911
  -1  -7  -6    1.42    0.07   1-0.17828-0.08358-0.25414-0.99449-0.95899 0.05876
  -2  -7  -6    5.04    0.21   1-0.32085-0.15338-0.26073-0.98789-0.92694 0.01487
  -3  -7  -6    8.58    0.33   1-0.45258-0.23402-0.27720-0.97140-0.87139-0.05253
  -4  -7  -6    0.77    0.05   1-0.56441-0.33456-0.31444-0.93415-0.79346-0.14230
  -5  -7  -6    3.68    0.14   1-0.64703-0.46431-0.39467-0.85391-0.68732-0.26028
  -4  -8  -6    0.21    0.03   1-0.50613-0.39283-0.53122-0.89578-0.70645-0.22926
  -3  -8  -6    0.63    0.04   1-0.40248-0.28411-0.47391-0.95310-0.80431-0.11956
  -2  -8  -6   14.29    0.48   1-0.27950-0.19472-0.44690-0.98013-0.86395-0.04808
  -1  -8  -6    2.06    0.11   1-0.14724-0.11461-0.43364-0.99340-0.89569-0.00449
   0  -8  -6    6.36    0.22   1-0.01410-0.03538-0.42781-0.99924-0.90303 0.01469
   0  -9  -6    0.83    0.04   1-0.00518-0.04429-0.61104-0.99442-0.79049-0.09781
  -1  -9  -6    1.46    0.05   1-0.12881-0.13302-0.62093-0.98451-0.77903-0.12111
  -2  -9  -6    0.33    0.11   1-0.25084-0.22336-0.64484-0.96060-0.73468-0.17731
  -3  -9  -6    0.15    0.03   1-0.36170-0.32488-0.69927-0.90616-0.63562-0.28821
  -5  -1  -7    0.38    0.23   1-0.97539-0.14428 0.18772-0.36581-0.17003-0.92596
  -4  -1  -7    0.56    0.22   1-0.92525 0.01796 0.33542-0.51352-0.22872-0.85543
  -3  -1  -7    0.09    0.15   1-0.83419 0.13927 0.47083-0.64894-0.33340-0.73890
  -2  -1  -7   54.14    1.01   1-0.69862 0.21607 0.57966-0.75778-0.45794-0.60251
  -1  -1  -7    2.41    0.08   1-0.52694 0.25676 0.65372-0.83186-0.57186-0.47675
   0  -1  -7    1.30    0.06   1-0.34227 0.28446 0.69287-0.87102-0.65294-0.38383
   0  -2  -7    2.51    0.10   1-0.29533 0.23753 0.57575-0.93231-0.77786-0.25886
  -1  -2  -7    1.46    0.07   1-0.48184 0.21167 0.55366-0.91021-0.70515-0.34341
  -2  -2  -7    0.44    0.19   1-0.65784 0.17530 0.50504-0.86157-0.59471-0.46570
  -3  -2  -7    0.45    0.07   1-0.80099 0.10608 0.42556-0.78209-0.46524-0.60702
  -4  -2  -7    0.47    0.20   1-0.90164-0.00564 0.31609-0.67260-0.34512-0.73898
  -4  -3  -7   46.89    1.03   1-0.85362-0.05365 0.27063-0.80554-0.49208-0.59197
  -3  -3  -7   10.79    0.41   1-0.74448 0.04958 0.34859-0.88352-0.61016-0.46205
  -2  -3  -7    1.28    0.07   1-0.59385 0.11235 0.40087-0.93504-0.72961-0.32921
  -1  -3  -7   33.14    0.81   1-0.41957 0.15007 0.42673-0.96089-0.82335-0.22371
   0  -3  -7   31.97    0.78   1-0.23805 0.18053 0.43536-0.96951-0.88022-0.15506
   0  -4  -7    3.14    0.09   1-0.18391 0.12638 0.27555-0.98785-0.95237-0.08286
  -1  -4  -7    0.46    0.17   1-0.35596 0.08644 0.27399-0.98631-0.91190-0.13510
  -2  -4  -7    7.56    0.26   1-0.52316 0.04166 0.26165-0.97398-0.83895-0.21982
  -3  -4  -7    0.00    0.14   1-0.66870-0.02479 0.23219-0.94452-0.74245-0.32809
  -4  -4  -7    6.56    0.22   1-0.78215-0.12332 0.17866-0.89100-0.63948-0.44283
  -4  -5  -7   49.73    0.97   1-0.70566-0.19982 0.03348-0.92399-0.74586-0.33640
  -3  -5  -7   12.17    0.42   1-0.59289-0.10061 0.07695-0.96744-0.83331-0.23718
  -2  -5  -7   24.94    0.75   1-0.45266-0.02885 0.09814-0.98863-0.91006-0.14865
  -1  -5  -7   24.49    0.74   1-0.29523 0.02571 0.10563-0.99611-0.96453-0.08242
   0  -5  -7  109.35    1.54   1-0.13444 0.07690 0.10539-0.99585-0.99128-0.04389
   0  -6  -7    2.96    0.09   1-0.09251 0.03496-0.07006-0.99856-0.99683-0.03829
  -1  -6  -7    7.98    0.29   1-0.24202-0.02752-0.07120-0.99743-0.97958-0.06731
  -2  -6  -7    0.15    0.14   1-0.38888-0.09264-0.07972-0.98892-0.93799-0.12067
  -3  -6  -7   18.43    0.60   1-0.52177-0.17174-0.10137-0.96728-0.87468-0.19575
  -4  -6  -7    0.53    0.05   1-0.63070-0.27479-0.14634-0.92232-0.79591-0.28629
  -5  -6  -7    4.86    0.18   1-0.70575-0.41172-0.23364-0.83503-0.70692-0.38705
  -5  -7  -7    5.26    0.17   1-0.61723-0.50025-0.48760-0.75923-0.65066-0.44325
  -4  -7  -7    4.35    0.15   1-0.56063-0.34486-0.35229-0.89453-0.77926-0.30288
  -3  -7  -7    3.76    0.15   1-0.45906-0.23445-0.29457-0.95224-0.86226-0.20812
  -2  -7  -7   43.90    0.87   1-0.33479-0.14674-0.26619-0.98061-0.92103-0.13757
  -1  -7  -7    4.39    0.15   1-0.19840-0.07114-0.25312-0.99367-0.95635-0.09048
   0  -7  -7   12.23    0.39   1-0.05948 0.00193-0.24904-0.99774-0.96840-0.06666
   0  -8  -7    1.26    0.06   1-0.03610-0.02146-0.43415-0.99079-0.90060-0.13441
  -1  -8  -7    2.25    0.06   1-0.16504-0.10451-0.44213-0.98281-0.88930-0.15748
  -2  -8  -7    4.21    0.16   1-0.29092-0.19062-0.46319-0.96177-0.85188-0.20667
  -3  -8  -7    0.68    0.04   1-0.40428-0.28924-0.50741-0.91756-0.78211-0.28821
  -2  -9  -7    6.97    0.19   1-0.25469-0.22685-0.70145-0.90166-0.67857-0.37993
  -1  -9  -7    0.57    0.03   1-0.14238-0.12718-0.65513-0.94797-0.74854-0.29818
   0  -9  -7    0.05    0.09   1-0.02397-0.03360-0.63956-0.96353-0.76831-0.26664
  -7   0  -8    3.46    0.12   1-0.91007-0.63954 0.02998-0.02968-0.46326-0.80251
  -6   0  -8    2.42    0.07   1-0.95533-0.38230 0.12801-0.12770-0.31905-0.93495
  -5   0  -8    2.82    0.09   1-0.94012-0.18552 0.25036-0.25004-0.28317-0.95906
  -4   0  -8   31.93    0.84   1-0.88777-0.02588 0.38153-0.38121-0.30644-0.92402
  -3   0  -8    6.00    0.20   1-0.79855 0.09689 0.50678-0.50644-0.36873-0.84995
  -2   0  -8    0.36    0.05   1-0.67365 0.18397 0.61294-0.61259-0.44982-0.75709
  -1   0  -8    0.17    0.17   1-0.52177 0.24407 0.69077-0.69041-0.52898-0.66617
   0   0  -8   24.49    0.69   1-0.35940 0.29369 0.73701-0.73664-0.59169-0.59169
   0  -1  -8   17.83    0.59   1-0.33001 0.26429 0.64918-0.82697-0.70278-0.48054
  -1  -1  -8   38.99    0.89   1-0.49886 0.22115 0.61376-0.79156-0.63884-0.55625
  -2  -1  -8   24.84    0.73   1-0.65754 0.16785 0.54919-0.72700-0.55164-0.65522
  -3  -1  -8   14.11    0.45   1-0.78863 0.08696 0.45571-0.63353-0.45603-0.76260
  -4  -1  -8   16.99    0.57   1-0.88263-0.03103 0.33875-0.51658-0.37448-0.85592
  -5  -1  -8    5.53    0.20   1-0.93764-0.18801 0.20812-0.38596-0.33009-0.91208
  -5  -2  -8   14.93    0.53   1-0.91895-0.20671 0.16936-0.52535-0.40668-0.83544
  -4  -2  -8    0.80    0.24   1-0.85880-0.05486 0.29138-0.64736-0.46847-0.76188
  -3  -2  -8   18.01    0.59   1-0.75903 0.05734 0.39173-0.74770-0.56147-0.65711
  -2  -2  -8   41.44    0.94   1-0.62314 0.13344 0.46610-0.82207-0.66180-0.54500
  -1  -2  -8   28.32    0.77   1-0.46137 0.18366 0.51370-0.86966-0.74801-0.44703
   0  -2  -8    0.27    0.13   1-0.29078 0.22505 0.53706-0.89300-0.80693-0.37633
   0  -3  -8   25.26    0.74   1-0.24531 0.17957 0.40285-0.93695-0.89416-0.28904
  -1  -3  -8   15.49    0.53   1-0.41289 0.13517 0.38964-0.92375-0.84500-0.34998
  -2  -3  -8    5.30    0.20   1-0.57337 0.08366 0.35774-0.89186-0.76787-0.43888
  -3  -3  -8   16.42    0.52   1-0.71104 0.00934 0.30294-0.83707-0.67313-0.54539
  -4  -3  -8    0.13    0.16   1-0.81535-0.09833 0.22209-0.75623-0.57919-0.65111
  -4  -4  -8    1.17    0.07   1-0.75561-0.15807 0.11637-0.82867-0.68559-0.54465
  -3  -4  -8    2.55    0.09   1-0.65001-0.05169 0.18233-0.89462-0.77273-0.44573
  -2  -4  -8    7.77    0.27   1-0.51424 0.02452 0.22288-0.93516-0.85552-0.35117
  -1  -4  -8    1.13    0.07   1-0.35895 0.08122 0.24409-0.95636-0.91949-0.27543
   0  -4  -8   39.38    0.93   1-0.19798 0.13223 0.25093-0.96319-0.95715-0.22600
   0  -5  -8    0.00    0.15   1-0.15274 0.08699 0.08611-0.97652-0.99150-0.19160
  -1  -5  -8   31.05    0.82   1-0.30504 0.02730 0.08173-0.97216-0.96433-0.23054
  -2  -5  -8    1.82    0.08   1-0.45253-0.03719 0.06520-0.95564-0.91314-0.29350
  -3  -5  -8    7.63    0.27   1-0.58320-0.11851 0.03107-0.92152-0.84288-0.37553
  -4  -5  -8    4.90    0.17   1-0.68626-0.22744-0.02937-0.86108-0.76374-0.46644
  -5  -5  -8    6.70    0.23   1-0.74985-0.37583-0.13264-0.75783-0.68878-0.55317
  -5  -6  -8    0.76    0.03   1-0.65932-0.46637-0.35028-0.71834-0.70077-0.54113
  -4  -6  -8    0.15    0.13   1-0.61285-0.30086-0.21263-0.85598-0.79385-0.43627
  -3  -6  -8    0.77    0.05   1-0.51659-0.18513-0.14577-0.92284-0.87107-0.34728
  -2  -6  -8   34.99    0.79   1-0.39349-0.09624-0.11023-0.95837-0.93311-0.27348
  -1  -6  -8    3.14    0.09   1-0.25522-0.02252-0.09316-0.97543-0.97504-0.21977
   0  -6  -8    1.91    0.08   1-0.11242 0.04666-0.08826-0.98032-0.99442-0.18862
   0  -7  -8    2.79    0.08   1-0.07872 0.01295-0.27187-0.97486-0.96192-0.22107
  -1  -7  -8    1.89    0.07   1-0.21179-0.06596-0.27947-0.96727-0.94673-0.24802
  -2  -7  -8    3.50    0.10   1-0.33988-0.14986-0.30177-0.94498-0.90815-0.29838
  -3  -7  -8    0.62    0.04   1-0.45264-0.24909-0.34786-0.89890-0.84481-0.37349
  -4  -7  -8    3.46    0.11   1-0.53249-0.38122-0.44610-0.80067-0.74767-0.48240
  -2  -8  -8    0.30    0.03   1-0.29099-0.19876-0.52121-0.90370-0.81706-0.38941
  -1  -8  -8    2.92    0.09   1-0.17538-0.10238-0.48459-0.94031-0.86525-0.32945
   0  -8  -8   11.90    0.35   1-0.05266-0.01312-0.47142-0.95347-0.88175-0.30118
  -6  -1  -9    2.56    0.09   1-0.87706-0.46878 0.05516-0.23296-0.52518-0.87669
  -5  -1  -9    0.44    0.05   1-0.88011-0.25375 0.19054-0.36833-0.48310-0.90699
  -4  -1  -9   10.81    0.37   1-0.82935-0.09252 0.31293-0.49071-0.50828-0.87005
  -3  -1  -9    0.50    0.22   1-0.73922 0.02933 0.41890-0.59668-0.56766-0.79889
  -2  -1  -9    2.29    0.08   1-0.61628 0.11837 0.50276-0.68052-0.63959-0.71520
  -1  -1  -9    0.00    0.14   1-0.47032 0.18440 0.56112-0.73887-0.70636-0.63665
   0  -1  -9    0.33    0.05   1-0.31491 0.24098 0.59377-0.77151-0.75697-0.57427
   0  -2  -9   89.90    0.23   1-0.28206 0.20812 0.48416-0.84006-0.84280-0.48838
  -1  -2  -9    6.31    0.25   1-0.43895 0.15303 0.46006-0.81597-0.79511-0.54785
  -2  -2  -9   32.17    0.84   1-0.58714 0.08923 0.41302-0.76893-0.72783-0.62689
  -3  -2  -9    1.61    0.08   1-0.71308 0.00318 0.34129-0.69722-0.65114-0.71535
  -4  -2  -9    8.98    0.30   1-0.80637-0.11551 0.24494-0.60088-0.58231-0.79596
  -5  -2  -9    0.13    0.14   1-0.85882-0.27505 0.12505-0.48100-0.54374-0.84630
  -5  -3  -9    7.51    0.23   1-0.81887-0.31501 0.03893-0.57303-0.61726-0.77273
  -4  -3  -9   13.43    0.48   1-0.76651-0.15539 0.15649-0.69058-0.66452-0.71369
  -3  -3  -9   23.97    0.69   1-0.67168-0.03822 0.24226-0.77635-0.73639-0.63005
  -2  -3  -9   17.03    0.58   1-0.54525 0.04733 0.30163-0.83571-0.81128-0.54339
  -1  -3  -9   17.37    0.57   1-0.39813 0.11220 0.33795-0.87201-0.87370-0.46920
   0  -3  -9    7.22    0.24   1-0.24322 0.16927 0.35450-0.88856-0.91509-0.41604
   0  -4  -9    5.11    0.18   1-0.20159 0.12763 0.20722-0.91943-0.96708-0.36399
  -1  -4  -9    0.02    0.13   1-0.35157 0.06563 0.19578-0.90800-0.93363-0.40922
  -2  -4  -9    6.03    0.21   1-0.49450-0.00343 0.16706-0.87929-0.87916-0.47545
  -3  -4  -9    0.00    0.17   1-0.61839-0.09153 0.11653-0.82877-0.81036-0.55603
  -4  -4  -9    1.48    0.06   1-0.71167-0.21023 0.03727-0.74953-0.73997-0.63819
  -5  -4  -9    0.11    0.10   1-0.75862-0.37527-0.08604-0.62622-0.68694-0.70299
  -5  -5  -9    5.43    0.17   1-0.66987-0.46403-0.27931-0.61111-0.72400-0.66587
  -4  -5  -9    3.20    0.11   1-0.64473-0.27718-0.12012-0.77029-0.78952-0.58858
  -3  -5  -9    9.40    0.28   1-0.55764-0.15228-0.03788-0.85253-0.85889-0.50744
  -2  -5  -9    4.83    0.20   1-0.43943-0.05851 0.01006-0.90045-0.92124-0.43332
  -1  -5  -9   23.77    0.68   1-0.30322 0.01727 0.03567-0.92606-0.96763-0.37516
   0  -5  -9    1.25    0.06   1-0.16024 0.08628 0.04492-0.93529-0.99345-0.33757
   0  -6  -9    0.17    0.13   1-0.12159 0.04761-0.13128-0.93725-0.98905-0.34191
  -1  -6  -9    4.52    0.16   1-0.25620-0.02976-0.14118-0.92736-0.96897-0.37377
  -2  -6  -9    0.12    0.04   1-0.38363-0.11432-0.16887-0.89968-0.92777-0.42673
  -3  -6  -9    4.59    0.16   1-0.49252-0.21742-0.22325-0.84531-0.86717-0.49910
  -4  -6  -9    1.99    0.07   1-0.56327-0.35864-0.33097-0.73760-0.78711-0.59094
  -3  -7  -9    2.04    0.07   1-0.41783-0.29211-0.46225-0.78447-0.80400-0.56222
  -2  -7  -9    1.33    0.05   1-0.32779-0.17016-0.37675-0.86996-0.88313-0.47132
  -1  -7  -9    1.55    0.06   1-0.21201-0.07396-0.33877-0.90792-0.92693-0.41575
   0  -7  -9    1.03    0.05   1-0.08705 0.01306-0.32491-0.92177-0.94501-0.38590
   0  -8  -9    0.63    0.03   1-0.05595-0.01805-0.56088-0.86396-0.82766-0.50319
  -1  -8  -9    0.93    0.03   1-0.16665-0.11933-0.59229-0.83256-0.79616-0.54646
  -5   0 -10    0.29    0.11   1-0.80339-0.33867 0.20584-0.20543-0.60254-0.93553
  -4   0 -10    0.76    0.05   1-0.77012-0.15996 0.32941-0.32899-0.58827-0.93803
  -3   0 -10    3.32    0.09   1-0.69235-0.02574 0.43419-0.43376-0.61397-0.90056
  -2   0 -10   27.68    0.77   1-0.58347 0.07736 0.51847-0.51803-0.65668-0.84608
  -1   0 -10   10.78    0.32   1-0.45364 0.15952 0.57926-0.57881-0.70156-0.78943
   0   0 -10    2.82    0.10   1-0.31369 0.23155 0.61538-0.61492-0.73961-0.73961
   0  -1 -10    9.62    0.30   1-0.29355 0.21141 0.52576-0.70345-0.81360-0.66556
  -1  -1 -10   12.01    0.42   1-0.43709 0.14295 0.49498-0.67269-0.77422-0.71671
  -2  -1 -10    2.83    0.10   1-0.57062 0.06450 0.44013-0.61785-0.72404-0.77866
  -3  -1 -10    7.69    0.24   1-0.68279-0.03531 0.36099-0.53871-0.67223-0.84224
  -4  -1 -10    0.08    0.13   1-0.76279-0.16730 0.25842-0.43616-0.63427-0.89197
  -5  -1 -10    2.03    0.07   1-0.79603-0.34605 0.13090-0.30864-0.63426-0.90375
  -5  -2 -10    2.26    0.07   1-0.76938-0.37270 0.03975-0.39565-0.67930-0.85866
  -4  -2 -10   38.00    0.71   1-0.73969-0.19041 0.17350-0.52939-0.69032-0.83587
  -3  -2 -10    1.57    0.07   1-0.65893-0.05918 0.27235-0.62823-0.73675-0.77767
  -2  -2 -10    4.27    0.13   1-0.54523 0.03911 0.34449-0.70036-0.79342-0.70922
  -1  -2 -10    1.09    0.07   1-0.41030 0.11616 0.39204-0.74790-0.84501-0.64587
   0  -2 -10   59.49    1.13   1-0.26570 0.18354 0.41684-0.77269-0.88282-0.59629
   0  -3 -10    7.85    0.28   1-0.23201 0.14985 0.28886-0.82287-0.94037-0.53868
  -1  -3 -10    1.46    0.07   1-0.37498 0.08083 0.26939-0.80341-0.90656-0.58426
  -2  -3 -10    5.82    0.19   1-0.50864 0.00250 0.22858-0.76261-0.85711-0.64548
  -3  -3 -10    0.00    0.14   1-0.62142-0.09670 0.16290-0.69694-0.79973-0.71464
  -4  -3 -10    0.25    0.14   1-0.70025-0.22986 0.06616-0.60021-0.74863-0.77750
  -5  -3 -10    0.71    0.03   1-0.71806-0.42403-0.08427-0.44979-0.72965-0.80826
  -4  -4 -10    0.00    0.09   1-0.64379-0.28632-0.07484-0.63737-0.79609-0.72999
  -3  -4 -10    0.29    0.12   1-0.57198-0.14615 0.02729-0.73949-0.85032-0.66399
  -2  -4 -10   36.63    0.76   1-0.46326-0.04289 0.09016-0.80235-0.90601-0.59652
  -1  -4 -10    0.02    0.14   1-0.33366 0.03950 0.12675-0.83893-0.95126-0.53951
   0  -4 -10    4.80    0.16   1-0.19480 0.11263 0.14266-0.85483-0.97977-0.49922
   0  -5 -10    2.29    0.09   1-0.15633 0.07415-0.02146-0.86886-0.99462-0.48432
  -1  -5 -10    5.87    0.23   1-0.28892-0.00524-0.03635-0.85399-0.97122-0.51949
  -2  -5 -10    0.49    0.04   1-0.41166-0.09450-0.07312-0.81722-0.92984-0.57264
  -3  -5 -10   12.75    0.36   1-0.51188-0.20626-0.14128-0.74908-0.87444-0.63982
  -4  -5 -10    0.04    0.08   1-0.56250-0.36762-0.27485-0.61552-0.80973-0.71629
  -3  -6 -10    0.68    0.03   1-0.43441-0.28374-0.36799-0.70053-0.84486-0.66933
  -2  -6 -10    0.13    0.09   1-0.35432-0.15184-0.26916-0.79935-0.91376-0.58866
  -1  -6 -10    0.53    0.04   1-0.24232-0.05185-0.22392-0.84457-0.95593-0.53472
   0  -6 -10   15.90    0.44   1-0.11810 0.03591-0.20649-0.86200-0.97629-0.50259
   0  -7 -10    0.00    0.08   1-0.07915-0.00304-0.43047-0.81617-0.90200-0.57683
  -1  -7 -10    4.80    0.16   1-0.19024-0.10394-0.46137-0.78528-0.87566-0.61494
  -4  -1 -11    2.06    0.06   1-0.67228-0.26603 0.16176-0.33945-0.75867-0.91550
  -3  -1 -11    0.65    0.05   1-0.61398-0.11234 0.27477-0.45245-0.77298-0.88942
  -2  -1 -11    2.80    0.09   1-0.51667 0.00234 0.35573-0.53340-0.80637-0.84425
  -1  -1 -11    3.00    0.10   1-0.39638 0.09403 0.41036-0.58802-0.84214-0.79672
   0  -1 -11    1.19    0.06   1-0.26419 0.17383 0.44047-0.61812-0.87149-0.75559
   0  -2 -11   48.02    0.92   1-0.24023 0.14986 0.33034-0.68615-0.92481-0.70222
  -1  -2 -11    3.18    0.09   1-0.37290 0.07055 0.30410-0.65992-0.89606-0.74273
  -2  -2 -11   40.56    0.78   1-0.49362-0.02072 0.25343-0.60926-0.85813-0.79244
  -3  -2 -11    1.64    0.07   1-0.59063-0.13569 0.17459-0.53042-0.81946-0.84288
  -4  -2 -11   18.09    0.38   1-0.64505-0.29326 0.05643-0.41228-0.79671-0.87740
  -4  -3 -11    0.26    0.09   1-0.59425-0.34407-0.08548-0.44852-0.83146-0.84259
  -3  -3 -11    0.39    0.11   1-0.55297-0.17337 0.05013-0.58413-0.86113-0.80116
  -2  -3 -11    5.57    0.19   1-0.45963-0.05472 0.12967-0.66366-0.90280-0.74771
  -1  -3 -11    0.90    0.05   1-0.34109 0.03872 0.17761-0.71159-0.94067-0.69807
   0  -3 -11    0.32    0.13   1-0.21023 0.11985 0.20067-0.73463-0.96710-0.65988
   0  -4 -11    2.38    0.09   1-0.17569 0.08530 0.05027-0.76239-0.99142-0.63550
  -1  -4 -11    4.31    0.16   1-0.30231-0.00006 0.02856-0.74069-0.96811-0.67058
  -2  -4 -11    2.34    0.07   1-0.41543-0.09893-0.02028-0.69186-0.93106-0.71940
  -3  -4 -11    3.91    0.13   1-0.49907-0.22727-0.10957-0.60258-0.88596-0.77627
  -2  -5 -11    1.49    0.05   1-0.35930-0.15507-0.20859-0.68171-0.92810-0.72230
  -1  -5 -11    0.96    0.04   1-0.25708-0.04530-0.14914-0.74115-0.96757-0.67106
   0  -5 -11    1.83    0.06   1-0.13755 0.04716-0.12508-0.76520-0.98865-0.63821
   0  -6 -11    0.77    0.03   1-0.09339 0.00298-0.34544-0.72300-0.93742-0.68938
  -1  -6 -11    0.73    0.03   1-0.19875-0.10364-0.38645-0.68199-0.91017-0.72841
  -3   0 -12   10.71    0.29   1-0.52487-0.20966 0.22547-0.22495-0.84872-0.96165
  -2   0 -12    8.34    0.30   1-0.45573-0.06681 0.32483-0.32429-0.85285-0.94575
  -1   0 -12    5.50    0.19   1-0.35408 0.04353 0.38739-0.38684-0.86967-0.91716
   0   0 -12    0.03    0.12   1-0.23591 0.13735 0.42140-0.42084-0.88753-0.88753
   0  -1 -12    0.33    0.13   1-0.22258 0.12401 0.32754-0.50514-0.92929-0.84572
  -1  -1 -12    3.39    0.11   1-0.34231 0.03175 0.29551-0.47313-0.90962-0.87715
  -2  -1 -12    0.09    0.11   1-0.44532-0.07723 0.23401-0.41163-0.88772-0.91083
  -3  -1 -12    2.92    0.10   1-0.51429-0.22024 0.13215-0.30979-0.87466-0.93565
  -3  -2 -12    0.01    0.08   1-0.48380-0.25074 0.00782-0.36361-0.90066-0.90960
  -2  -2 -12    8.58    0.29   1-0.42187-0.10068 0.12021-0.47599-0.92073-0.87776
  -1  -2 -12    1.17    0.05   1-0.32044 0.00987 0.18239-0.53816-0.94596-0.84076
   0  -2 -12    0.01    0.11   1-0.20121 0.10263 0.21285-0.56861-0.96591-0.80904
   0  -3 -12    2.52    0.09   1-0.17248 0.07389 0.07454-0.60846-0.99027-0.78462
  -1  -3 -12    0.82    0.04   1-0.28859-0.02199 0.04388-0.57781-0.97101-0.81565
  -2  -3 -12    4.15    0.14   1-0.38384-0.13872-0.02448-0.50946-0.94296-0.85548
  -1  -4 -12    0.70    0.03   1-0.24459-0.06600-0.13172-0.58037-0.97270-0.81391
   0  -4 -12    8.62    0.26   1-0.13586 0.03726-0.09520-0.61688-0.99214-0.78270
  -1  -1 -13    0.00    0.08   1-0.25172-0.06705 0.10244-0.28001-0.97489-0.95981
   0  -1 -13    3.38    0.13   1-0.15357 0.04678 0.15068-0.32824-0.98365-0.93928
   0  -2 -13    1.92    0.06   1-0.12918 0.02238 0.01493-0.37064-0.99716-0.92571
  -7   7   3    0.49    0.03   1-0.76261-0.69658 0.53366 0.71324 0.32242 0.03855
  -8   3   1    0.25    0.15   1-0.92805-0.75960-0.07899 0.61333 0.31193-0.25835
  -7   3   1    1.43    0.08   1-0.85749-0.61817-0.17640 0.71076 0.43502-0.36966
  -8   4   1    2.70    0.09   1-0.93014-0.75750 0.09351 0.61899 0.30286-0.24933
  -8   5   1    2.28    0.08   1-0.91406-0.77357 0.27507 0.61559 0.24671-0.19323
  -7   1   0    0.00    0.21   1-0.81297-0.67092-0.50257 0.68065 0.24874-0.33119
  -8   1   0   27.60    0.69   1-0.89749-0.79839-0.38261 0.56069 0.16940-0.26363
  -9   1   0    0.14    0.12   1-0.97833-0.92954-0.17221 0.35027 0.06062-0.16662
  -9   2   0    0.10    0.10   1-0.99142-0.91643-0.02267 0.37889 0.07347-0.17952
  -8   2   0    2.65    0.09   1-0.93292-0.76295-0.22637 0.58261 0.22790-0.32218
  -7   2   0    0.06    0.20   1-0.86334-0.62054-0.32746 0.68371 0.33555-0.41805
  -7   3   0    0.62    0.24   1-0.89069-0.59318-0.14581 0.68021 0.38052-0.46309
  -8   3   0    0.28    0.16   1-0.95072-0.74514-0.05895 0.59334 0.25117-0.34551
  -8   4   0   14.11    0.42   1-0.95015-0.74570 0.11301 0.59954 0.23734-0.33173
  -7   4   0    1.00    0.07   1-0.89777-0.58609 0.03178 0.68078 0.38877-0.47139
  -6   4   0    2.58    0.10   1-0.83262-0.43926 0.00525 0.70732 0.50673-0.57758
  -6   5   0   20.39    0.67   1-0.82444-0.44743 0.17621 0.71452 0.49115-0.56205
  -7   5   0    3.29    0.10   1-0.88819-0.59567 0.20171 0.68901 0.36279-0.44547
  -8   5   0    4.86    0.16   1-0.92910-0.76675 0.29081 0.59989 0.17640-0.27085
  -7   6   0    1.52    0.06   1-0.86337-0.62047 0.36584 0.70303 0.29885-0.38158
  -9   1  -1    0.14    0.13   1-0.98878-0.92730-0.14218 0.32029-0.00896-0.24496
  -8   1  -1    0.00    0.20   1-0.91961-0.78448-0.35313 0.53125 0.12096-0.36311
  -7   1  -1    0.00    0.24   1-0.84552-0.64659-0.46503 0.64316 0.21525-0.44563
  -7   2  -1    0.61    0.22   1-0.89721-0.59488-0.28402 0.64031 0.28793-0.51837
  -8   2  -1    2.41    0.09   1-0.95546-0.74862-0.19337 0.54965 0.16966-0.41186
  -9   2  -1    0.10    0.10   1-0.99875-0.91731 0.01005 0.34621-0.00665-0.24732
  -8   3  -1    0.90    0.06   1-0.97096-0.73312-0.02578 0.56021 0.18360-0.42586
  -7   3  -1    0.28    0.22   1-0.92235-0.56974-0.10152 0.63597 0.32104-0.55152
  -7   4  -1    0.00    0.16   1-0.92523-0.56685 0.07357 0.63903 0.32022-0.55076
  -8   4  -1    3.34    0.13   1-0.96593-0.73813 0.14383 0.56876 0.16110-0.40342
  -8   5  -1    3.12    0.10   1-0.93745-0.76660 0.31776 0.57299 0.08969-0.33206
  -7   5  -1    2.99    0.11   1-0.91022-0.58185 0.23872 0.65204 0.28723-0.51783
  -6   5  -1    2.92    0.11   1-0.85530-0.42479 0.22563 0.66514 0.41812-0.63695
  -6   6  -1    5.61    0.19   1-0.82886-0.45122 0.37581 0.69312 0.36762-0.58651
  -7   6  -1    2.08    0.07   1-0.87869-0.61337 0.39627 0.67265 0.21684-0.44749
  -7   7  -1    0.34    0.10   1-0.82124-0.67081 0.55695 0.69012 0.07781-0.30852
  -8   1  -2    0.53    0.20   1-0.94427-0.76803-0.30425 0.48241 0.07323-0.46330
  -9   1  -2    0.92    0.04   1-0.99555-0.92874-0.08701 0.26517-0.09154-0.31030
  -8   2  -2   12.86    0.45   1-0.97645-0.73585-0.14471 0.50103 0.10567-0.49579
  -8   3  -2    0.17    0.15   1-0.98674-0.72555 0.01957 0.51492 0.10608-0.49626
  -8   4  -2    1.67    0.06   1-0.97481-0.73747 0.18441 0.52823 0.07103-0.46126
  -7   4  -2    0.45    0.20   1-0.94758-0.55271 0.12396 0.58869 0.24135-0.61982
  -6   5  -2    8.97    0.29   1-0.88026-0.40804 0.27994 0.61087 0.33352-0.70027
  -7   5  -2    1.43    0.06   1-0.92602-0.57426 0.28153 0.60928 0.19950-0.57802
  -8   5  -2    5.30    0.19   1-0.93440-0.77787 0.35471 0.53609-0.01959-0.37070
  -7   6  -2    3.58    0.13   1-0.88636-0.61392 0.43089 0.63807 0.11969-0.49826
  -6   6  -2    0.57    0.06   1-0.84701-0.44128 0.42062 0.64836 0.27733-0.64413
  -8   1  -3    9.77    0.33   1-0.96929-0.75123-0.23543 0.41364 0.01738-0.55537
  -7   1  -3    2.37    0.10   1-0.92710-0.58143-0.31404 0.49227 0.15297-0.67919
  -8   2  -3    3.21    0.11   1-0.99303-0.72748-0.08186 0.43823 0.02959-0.56764
  -8   3  -3    6.84    0.20   1-0.99479-0.72571 0.07501 0.45952 0.01356-0.55167
  -7   3  -3    0.59    0.07   1-0.97324-0.53527 0.02250 0.51204 0.17428-0.70061
  -7   4  -3    0.24    0.15   1-0.96240-0.54611 0.18000 0.53270 0.14961-0.67600
  -8   4  -3    1.26    0.05   1-0.97237-0.74812 0.23288 0.47980-0.03883-0.49932
  -7   5  -3    3.51    0.13   1-0.93301-0.57549 0.32728 0.56358 0.09737-0.62381
  -6   5  -3   25.33    0.72   1-0.89720-0.39931 0.33588 0.55498 0.23630-0.75097
  -5   6  -3    2.36    0.09   1-0.80115-0.28337 0.49999 0.56905 0.28370-0.78665
  -6   6  -3    9.02    0.33   1-0.85694-0.43956 0.46518 0.60384 0.17378-0.68851
  -7   6  -3    4.54    0.15   1-0.88269-0.62580 0.46694 0.60207 0.00351-0.53001
  -6   7  -3    0.36    0.14   1-0.80246-0.49403 0.58453 0.66265 0.07483-0.58961
  -7   1  -4    0.13    0.25   1-0.96680-0.54994-0.20659 0.38486 0.09661-0.77075
  -7   2  -4    0.16    0.21   1-0.98703-0.52970-0.05565 0.41208 0.09554-0.76974
  -8   2  -4    0.00    0.14   1-0.99989-0.72883-0.00887 0.36529-0.06718-0.61878
  -8   3  -4    0.40    0.13   1-0.98940-0.73931 0.13732 0.39726-0.10202-0.58400
  -8   4  -4    0.74    0.03   1-0.94840-0.78030 0.28861 0.42412-0.18374-0.50234
  -7   4  -4    4.45    0.17   1-0.96662-0.55010 0.23752 0.47522 0.04201-0.71632
  -5   5  -4    0.21    0.06   1-0.85413-0.23861 0.44370 0.44722 0.22324-0.87406
  -6   5  -4    8.75    0.29   1-0.90400-0.40073 0.38956 0.50135 0.12548-0.78807
  -7   5  -4    1.97    0.07   1-0.92761-0.58910 0.37238 0.51852-0.02271-0.65165
  -7   6  -4    0.11    0.09   1-0.86009-0.65661 0.50131 0.56774-0.14207-0.53235
  -6   6  -4    9.79    0.32   1-0.85624-0.44847 0.50607 0.56299 0.05554-0.71819
  -5   6  -4    6.15    0.22   1-0.80826-0.28447 0.54844 0.52064 0.16882-0.81970
  -6   7  -4    0.33    0.11   1-0.79001-0.51470 0.61290 0.63433-0.05803-0.60468
  -8   1  -2    0.62    0.07   1-0.94427-0.76803-0.30425 0.48241 0.07323-0.46330
  -9   1  -2    0.95    0.04   1-0.99555-0.92874-0.08701 0.26517-0.09154-0.31030
  -8   2  -2   13.88    0.46   1-0.97645-0.73585-0.14471 0.50103 0.10567-0.49579
  -7   1  -5    2.14    0.09   1-0.99345-0.53151-0.09526 0.27357 0.00795-0.83001
  -7   2  -5    0.68    0.21   1-0.99832-0.52663 0.03288 0.32359-0.00790-0.81422
  -8   2  -5    6.23    0.21   1-0.98743-0.74950 0.06831 0.28816-0.19712-0.63677
  -8   3  -5    1.67    0.06   1-0.95669-0.78024 0.20427 0.33035-0.26023-0.57372
  -7   3  -5    0.54    0.19   1-0.98629-0.53865 0.16395 0.37069-0.03672-0.78545
  -6   4  -5    5.88    0.18   1-0.94036-0.37258 0.32382 0.38898 0.05159-0.86204
  -7   4  -5    0.31    0.14   1-0.95606-0.56888 0.29135 0.42144-0.08538-0.73685
  -7   5  -5    0.45    0.04   1-0.90325-0.62168 0.41242 0.47853-0.16849-0.65380
  -6   5  -5    4.56    0.14   1-0.89824-0.41470 0.43661 0.45434-0.00016-0.81036
  -5   5  -5    0.00    0.18   1-0.85523-0.24572 0.49688 0.39409 0.09927-0.89801
  -5   6  -5    4.85    0.18   1-0.80415-0.29680 0.58807 0.48105 0.04148-0.84028
  -6   6  -5    8.53    0.29   1-0.84145-0.47148 0.53925 0.52986-0.08038-0.73019
  -6   7  -5    2.16    0.08   1-0.75378-0.55914 0.63075 0.61652-0.22595-0.58467
  -6   1  -6    0.30    0.25   1-0.99638-0.32480 0.06639 0.11198-0.00246-0.95575
  -7   1  -6    0.18    0.18   1-0.99821-0.53496 0.00323 0.17514-0.11498-0.85501
  -7   2  -6    3.26    0.13   1-0.99034-0.54282 0.11100 0.24552-0.13791-0.83213
  -6   2  -6    7.15    0.27   1-0.98567-0.33550 0.16470 0.19183-0.01870-0.93956
  -5   3  -6    6.71    0.23   1-0.92986-0.17933 0.35867 0.17602 0.02988-0.97643
  -6   3  -6    0.01    0.16   1-0.96259-0.35858 0.27074 0.26394-0.04431-0.91402
  -7   3  -6    1.43    0.06   1-0.96681-0.56634 0.22398 0.31070-0.17637-0.79372
  -5   4  -6    9.79    0.30   1-0.89082-0.21836 0.45110 0.26175 0.00426-0.95086
  -4   4  -6   17.42    0.60   1-0.82998-0.06721 0.54906 0.16380 0.05163-0.98647
  -7   4  -6    1.88    0.06   1-0.92280-0.61035 0.33523 0.37760-0.24089-0.72926
  -6   4  -6    0.33    0.18   1-0.92651-0.39465 0.37489 0.33795-0.08326-0.87512
  -5   5  -6    0.61    0.21   1-0.84333-0.26584 0.53725 0.35376-0.03642-0.91025
  -6   5  -6    8.26    0.30   1-0.87645-0.44471 0.47209 0.41891-0.14317-0.81527
  -6   6  -6    0.90    0.04   1-0.80516-0.51599 0.55896 0.51020-0.24268-0.71581
  -5   6  -6    6.09    0.23   1-0.78650-0.32265 0.61503 0.45414-0.09950-0.84722
  -7   1  -7    0.05    0.14   1-0.97314-0.56825 0.07560 0.10281-0.27117-0.84673
  -5   2  -7    0.85    0.07   1-0.94192-0.17548 0.33209 0.02450-0.10201-0.99241
  -6   2  -7    0.00    0.19   1-0.96672-0.36267 0.23070 0.12588-0.16406-0.94213
  -7   2  -7    0.06    0.11   1-0.95440-0.58698 0.16848 0.18808-0.29908-0.81888
  -7   3  -7    0.61    0.04   1-0.91567-0.62570 0.26548 0.26924-0.35220-0.76581
  -6   3  -7    0.16    0.15   1-0.93702-0.39236 0.32020 0.21454-0.19133-0.91491
  -5   3  -7    6.43    0.23   1-0.90979-0.20761 0.41012 0.12462-0.11416-0.98031
  -6   1  -7   11.32    0.39   1-0.98433-0.34507 0.14800 0.03042-0.15033-0.95581
  -5   4  -7    3.62    0.14   1-0.86842-0.24932 0.48714 0.22540-0.14020-0.95429
  -6   4  -7    5.26    0.18   1-0.89379-0.43598 0.40756 0.30496-0.23658-0.86973
  -6   5  -7    0.64    0.04   1-0.83105-0.49870 0.48844 0.40221-0.31188-0.79445
  -5   5  -7    2.21    0.07   1-0.81671-0.30101 0.55989 0.33077-0.18467-0.90984
  -6   1  -8    3.42    0.11   1-0.94593-0.39215 0.19179-0.01364-0.31389-0.94023
  -7   1  -8    1.61    0.05   1-0.89803-0.65207 0.10812 0.07000-0.47584-0.79011
  -6   2  -8    7.49    0.27   1-0.92378-0.41427 0.26562 0.09066-0.32683-0.92733
  -5   3  -8    5.58    0.19   1-0.87325-0.25276 0.43522 0.09921-0.26732-0.97504
  -6   3  -8    0.37    0.13   1-0.88703-0.45100 0.34229 0.19212-0.35877-0.89541
  -6   4  -8   10.39    0.28   1-0.83004-0.50797 0.41427 0.29826-0.41903-0.83518
  -5   4  -8    0.61    0.05   1-0.82819-0.29780 0.50131 0.21125-0.29624-0.94614
  -6   2  -9    1.49    0.06   1-0.84325-0.50305 0.26062 0.09568-0.51638-0.88567
  -6   3  -9   16.55    0.28   1-0.78569-0.56059 0.32061 0.21382-0.57204-0.83004
   0   0   0      0.      0.   0 0.00000 0.00000 0.00000 0.00000 0.00000 0.00000
;
_shelx_hkl_checksum              32565
loop_
_space_group_symop_operation_xyz
'x, y, z'
'x, -y, z+1/2'
'-x, -y, -z'
'-x, y, -z-1/2'
loop_
_atom_site_label
_atom_site_type_symbol
_atom_site_fract_x
_atom_site_fract_y
_atom_site_fract_z
_atom_site_U_iso_or_equiv
_atom_site_adp_type
_atom_site_occupancy
_atom_site_site_symmetry_order
_atom_site_calc_flag
_atom_site_refinement_flags_posn
_atom_site_refinement_flags_adp
_atom_site_refinement_flags_occupancy
_atom_site_disorder_assembly
_atom_site_disorder_group
O1 O 0.74792(12) 0.11270(11) 0.25392(9) 0.0282(3) Uani 1 1 d . . . . .
O2 O 0.75374(15) -0.05291(11) 0.09681(9) 0.0306(3) Uani 1 1 d . . . . .
N1 N 0.80700(14) -0.35713(12) 0.15873(10) 0.0221(3) Uani 1 1 d . . . . .
N2 N 0.69846(15) -0.39170(13) 0.35099(10) 0.0241(3) Uani 1 1 d . . . . .
N3 N 0.78900(15) -0.50936(13) 0.18252(11) 0.0243(3) Uani 1 1 d . . . . .
N4 N 0.75023(14) -0.02882(12) 0.21663(10) 0.0196(3) Uani 1 1 d . . . . .
N5 N 0.74665(16) -0.13341(13) 0.30338(10) 0.0258(3) Uani 1 1 d . . . . .
N6 N 0.72408(16) -0.52921(13) 0.29621(11) 0.0257(3) Uani 1 1 d . . . . .
C C 0.74978(16) -0.28833(14) 0.26447(11) 0.0195(3) Uani 1 1 d . . . . .
N7 N 0.99234(15) 0.23825(13) 0.05222(11) 0.0235(3) Uani 1 1 d . . . . .
N8 N 0.50312(16) 0.25538(13) 0.44249(11) 0.0235(3) Uani 1 1 d . . . . .
H1 H 0.573(2) 0.321(2) 0.3965(18) 0.030(4) Uiso 1 1 d . . . . .
H2 H 0.444(3) 0.312(2) 0.4977(18) 0.036(5) Uiso 1 1 d . . . . .
H3 H 0.563(3) 0.185(2) 0.482(2) 0.039(5) Uiso 1 1 d . . . . .
H4 H 0.426(3) 0.202(2) 0.388(2) 0.047(5) Uiso 1 1 d . . . . .
H5 H 0.932(2) 0.320(2) 0.0879(18) 0.032(4) Uiso 1 1 d . . . . .
H6 H 1.052(3) 0.280(2) -0.011(2) 0.040(5) Uiso 1 1 d . . . . .
H7 H 1.071(3) 0.194(2) 0.112(2) 0.040(5) Uiso 1 1 d . . . . .
H8 H 0.923(3) 0.163(2) 0.027(2) 0.039(5) Uiso 1 1 d . . . . .
loop_
_atom_site_aniso_label
_atom_site_aniso_U_11
_atom_site_aniso_U_22
_atom_site_aniso_U_33
_atom_site_aniso_U_23
_atom_site_aniso_U_13
_atom_site_aniso_U_12
O1 0.0372(6) 0.0182(5) 0.0289(5) -0.0048(3) -0.0015(4) 0.0020(3)
O2 0.0493(6) 0.0243(5) 0.0182(4) -0.0002(3) 0.0013(4) -0.0041(4)
N1 0.0255(5) 0.0209(5) 0.0204(5) -0.0009(4) 0.0052(4) 0.0003(4)
N2 0.0283(6) 0.0228(6) 0.0218(5) 0.0015(4) 0.0062(4) 0.0000(4)
N3 0.0270(6) 0.0214(5) 0.0250(5) -0.0004(4) 0.0046(4) 0.0006(4)
N4 0.0187(5) 0.0190(5) 0.0209(5) -0.0015(4) -0.0006(4) -0.0004(3)
N5 0.0385(6) 0.0207(5) 0.0186(5) -0.0010(4) 0.0038(4) 0.0019(4)
N6 0.0289(6) 0.0224(6) 0.0263(6) 0.0018(4) 0.0058(4) -0.0012(4)
C 0.0199(6) 0.0209(6) 0.0179(5) 0.0005(4) 0.0011(4) 0.0007(4)
N7 0.0220(5) 0.0255(6) 0.0233(5) 0.0003(4) 0.0038(4) 0.0003(4)
N8 0.0222(5) 0.0247(5) 0.0237(5) -0.0001(4) 0.0025(4) -0.0005(4)
loop_
_atom_type_symbol
_atom_type_description
_atom_type_scat_dispersion_real
_atom_type_scat_dispersion_imag
_atom_type_scat_source
C C 0.0181 0.0091 'International Tables Vol C Tables 4.2.6.8 and 6.1.1.4'
O O 0.0492 0.0322 'International Tables Vol C Tables 4.2.6.8 and 6.1.1.4'
N N 0.0311 0.0180 'International Tables Vol C Tables 4.2.6.8 and 6.1.1.4'
H H 0.0000 0.0000 'International Tables Vol C Tables 4.2.6.8 and 6.1.1.4'
loop_
_geom_angle_atom_site_label_1
_geom_angle_atom_site_label_2
_geom_angle_atom_site_label_3
_geom_angle
_geom_angle_site_symmetry_1
_geom_angle_site_symmetry_3
C N1 N3 104.14(10) . .
N6 N2 C 104.77(10) . .
N6 N3 N1 109.75(10) . .
O2 N4 N5 125.62(11) . .
O2 N4 O1 117.13(10) . .
N5 N4 O1 117.24(10) . .
N4 N5 C 118.00(10) . .
N3 N6 N2 109.62(10) . .
N1 C N2 111.71(11) . .
N1 C N5 132.39(11) . .
N2 C N5 115.71(10) . .
loop_
_geom_bond_atom_site_label_1
_geom_bond_atom_site_label_2
_geom_bond_distance
_geom_bond_site_symmetry_2
O1 N4 1.2838(14) .
O2 N4 1.2683(14) .
N1 C 1.3393(15) .
N1 N3 1.3466(15) .
N2 N6 1.3362(16) .
N2 C 1.3375(15) .
N3 N6 1.3116(17) .
N4 N5 1.2800(15) .
N5 C 1.3996(16) .

_cod_database_fobs_code 1529384
