#------------------------------------------------------------------------------
#$Date: 2016-02-05 00:03:03 +0200 (Fri, 05 Feb 2016) $
#$Revision: 175927 $
#$URL: svn://www.crystallography.net/cod/cif/1/53/24/1532488.cif $
#------------------------------------------------------------------------------
#
# This file is available in the Crystallography Open Database (COD),
# http://www.crystallography.net/
#
# All data on this site have been placed in the public domain by the
# contributors.
#
data_1532488
loop_
_publ_author_name
'Vincent-Rocan, Jean-Fran\,cois'
'Ivanovich, Ryan A.'
'Clavette, Christian'
'Leckett, Kyle'
'Bejjani, Julien'
'Beauchemin, Andr\'e M.'
_publ_section_title
;
 Cascade reactions of nitrogen-substituted isocyanates: a new tool in
 heterocyclic chemistry
;
_journal_issue                   1
_journal_name_full               'Chem. Sci.'
_journal_page_first              315
_journal_paper_doi               10.1039/C5SC03197D
_journal_volume                  7
_journal_year                    2016
_chemical_formula_sum            'C15 H10 Br N3 O2'
_chemical_formula_weight         344.17
_chemical_name_systematic
; 
 ? 
;
_space_group_crystal_system      triclinic
_space_group_IT_number           2
_space_group_name_Hall           '-P 1'
_space_group_name_H-M_alt        'P -1'
_symmetry_space_group_name_Hall  '-P 1'
_symmetry_space_group_name_H-M   'P -1'
_atom_sites_solution_hydrogens   geom
_audit_creation_method           SHELXL-2013
_audit_update_record
;
2015-08-25 deposited with the CCDC.
2015-09-22 downloaded from the CCDC.
;
_cell_angle_alpha                97.556(10)
_cell_angle_beta                 93.106(12)
_cell_angle_gamma                95.573(10)
_cell_formula_units_Z            2
_cell_length_a                   5.2396(12)
_cell_length_b                   10.766(2)
_cell_length_c                   12.305(2)
_cell_measurement_reflns_used    3366
_cell_measurement_temperature    200(2)
_cell_measurement_theta_max      28.14
_cell_measurement_theta_min      2.71
_cell_volume                     683.3(2)
_computing_cell_refinement       'APEX II, Bruker (2009)'
_computing_data_collection       'APEX II, Bruker (2009)'
_computing_data_reduction        'XPREP, Bruker (2009)'
_computing_molecular_graphics    'SHELXTL, Bruker (2004)'
_computing_publication_material  'SHELXTL, Bruker (2004)'
_computing_structure_refinement  'SHELXL-2013 (Sheldrick, 2013)'
_computing_structure_solution    'SHELXS-03 (Sheldrick, 2003)'
_diffrn_ambient_temperature      200(2)
_diffrn_measured_fraction_theta_full 0.983
_diffrn_measured_fraction_theta_max 0.968
_diffrn_measurement_device_type  'Bruker APEX-II CCD'
_diffrn_measurement_method       '\f and \w scans'
_diffrn_radiation_type           MoK\a
_diffrn_radiation_wavelength     0.71073
_diffrn_reflns_av_R_equivalents  0.0162
_diffrn_reflns_av_unetI/netI     0.0252
_diffrn_reflns_laue_measured_fraction_full 0.983
_diffrn_reflns_laue_measured_fraction_max 0.968
_diffrn_reflns_limit_h_max       6
_diffrn_reflns_limit_h_min       -5
_diffrn_reflns_limit_k_max       14
_diffrn_reflns_limit_k_min       -14
_diffrn_reflns_limit_l_max       16
_diffrn_reflns_limit_l_min       -15
_diffrn_reflns_number            5941
_diffrn_reflns_point_group_measured_fraction_full 0.983
_diffrn_reflns_point_group_measured_fraction_max 0.968
_diffrn_reflns_theta_full        25.242
_diffrn_reflns_theta_max         28.224
_diffrn_reflns_theta_min         1.919
_exptl_absorpt_coefficient_mu    3.016
_exptl_absorpt_correction_T_max  0.7457
_exptl_absorpt_correction_T_min  0.5426
_exptl_absorpt_correction_type   multi-scan
_exptl_absorpt_process_details   'SADABS, Bruker (2003)'
_exptl_crystal_colour            colourless
_exptl_crystal_density_diffrn    1.673
_exptl_crystal_density_meas      ?
_exptl_crystal_description       needle
_exptl_crystal_F_000             344
_exptl_crystal_size_max          0.350
_exptl_crystal_size_mid          0.100
_exptl_crystal_size_min          0.080
_refine_diff_density_max         0.373
_refine_diff_density_min         -0.662
_refine_diff_density_rms         0.060
_refine_ls_extinction_method     none
_refine_ls_goodness_of_fit_ref   1.031
_refine_ls_hydrogen_treatment    constr
_refine_ls_matrix_type           full
_refine_ls_number_parameters     186
_refine_ls_number_reflns         3252
_refine_ls_number_restraints     30
_refine_ls_restrained_S_all      1.032
_refine_ls_R_factor_all          0.0419
_refine_ls_R_factor_gt           0.0334
_refine_ls_shift/su_max          0.000
_refine_ls_shift/su_mean         0.000
_refine_ls_structure_factor_coef Fsqd
_refine_ls_weighting_details
'w=1/[\s^2^(Fo^2^)+(0.0498P)^2^+0.2395P] where P=(Fo^2^+2Fc^2^)/3'
_refine_ls_weighting_scheme      calc
_refine_ls_wR_factor_gt          0.0846
_refine_ls_wR_factor_ref         0.0891
_reflns_Friedel_coverage         0.000
_reflns_number_gt                2734
_reflns_number_total             3252
_reflns_threshold_expression     'I > 2\s(I)'
_cod_data_source_file            c5sc03197d2.cif
_cod_data_source_block           ab021
_cod_depositor_comments
;
The following automatic conversions were performed:

'_exptl_crystal_density_meas' value 'n/a' was changed to '?' - the
value is perceived as not measured.

Automatic conversion script
Id: cif_fix_values 3271 2015-04-21 07:52:19Z andrius 

 Adding full bibliography for 1532488--1532489.cif.
;
_cod_database_code               1532488
_shelx_space_group_comment
; 
The symmetry employed for this shelxl refinement is uniquely defined 
by the following loop, which should always be used as a source of 
symmetry information in preference to the above space-group names. 
They are only intended as comments. 
;
_shelx_estimated_absorpt_t_min   0.418
_shelx_estimated_absorpt_t_max   0.794
_shelxl_version_number           2013-4
_shelx_res_file
; 
TITL ab021 in P-1 
CELL 0.71073   5.23960  10.76570  12.30540  97.5559  93.1061  95.5732 
ZERR    2.00   0.00120   0.00200   0.00230   0.0095   0.0115   0.0100 
LATT  1 
SFAC C H N O BR 
UNIT 30 20 6 4 2 
TEMP -73.150 
SIZE 0.08 0.10 0.35 
  
L.S. 80 
ACTA 
CONF 
LIST 0 
BOND 
FMAP 2 
PLAN 5 
  
SADI C12 C13 C12 C13' C12 C17 C12 C17' 
SADI C15 C14 C15 C14' C15 C16 C15 C16' 
SADI C13 C14 C13' C14' C16 C17 C16' C17' 
SADI C13 C15 C13' C15 C17 C15 C17' C15 
SADI C12 C14 C12 C14' C16 C12 C16' C12 
OMIT     1   0   6 
OMIT     0  -5   4 
OMIT     0   3   5 
OMIT    -1   1   5 
OMIT     3   0   6 
OMIT     2  -1   3 
OMIT    -3   3  14 
OMIT     1  -3   7 
OMIT    -5   4   7 
OMIT     2   4   0 
OMIT     0  -5  12 
OMIT     4   0   9 
OMIT    -1 -11  10 
OMIT     5  -5   4 
OMIT     1   5   1 
OMIT     0  -7  10 
OMIT    -3  -2   1 
OMIT    -2  -3   2 
OMIT     5   4   8 
OMIT     2   3   1 
OMIT     1  -7  10 
OMIT     5   7   2 
OMIT    -1  -7  10 
OMIT    -2  -8   4 
OMIT     1   4  11 
OMIT    -2   0   5 
OMIT    -2   4   3 
OMIT     4  -5   3 
OMIT     3  -1  10 
OMIT    -1  -3   5 
OMIT     1  -2   3 
OMIT     5   3   9 
OMIT     2   0   5 
OMIT     3   1   8 
OMIT     0 -10  12 
OMIT    -3  -3   4 
OMIT     3  -2  11 
OMIT     3   3   7 
OMIT     1   3   5 
  
WGHT    0.049800    0.239500 
FVAR       0.24630 
BR1   5   -0.009753   -0.328212    0.546238    11.00000    0.08634    0.03875 = 
         0.04437    0.02042   -0.00261    0.01431 
O1    4   -0.379160   -0.076724    0.107251    11.00000    0.03408    0.03611 = 
         0.02924    0.00893   -0.01123   -0.01030 
O2    4    0.360973    0.132200    0.279072    11.00000    0.03181    0.02926 = 
         0.05331    0.01347   -0.01978   -0.00323 
N1    3   -0.023323    0.032397    0.204351    11.00000    0.02438    0.02678 = 
         0.02533    0.00686   -0.00571   -0.00058 
N2    3   -0.212411    0.107089    0.054924    11.00000    0.03146    0.03570 = 
         0.02670    0.01065   -0.01067   -0.00662 
AFIX  43 
H2A   2   -0.323474    0.094596   -0.002692    11.00000   -1.20000 
AFIX   0 
N3    3   -0.052557    0.216099    0.068897    11.00000    0.02911    0.03092 = 
         0.02782    0.00830   -0.00576   -0.00337 
C3    1   -0.217418    0.015473    0.121298    11.00000    0.02472    0.03205 = 
         0.02227    0.00414   -0.00466   -0.00037 
C4    1    0.132941    0.231442    0.145310    11.00000    0.02449    0.02723 = 
         0.02655    0.00611   -0.00308    0.00158 
C5    1    0.175905    0.132180    0.215665    11.00000    0.02408    0.02401 = 
         0.02885    0.00299   -0.00503    0.00134 
C6    1   -0.024456   -0.056937    0.282710    11.00000    0.02428    0.02405 = 
         0.02535    0.00503   -0.00756   -0.00288 
C7    1    0.152304   -0.144535    0.279295    11.00000    0.03080    0.03312 = 
         0.04706    0.01394    0.00604    0.00592 
AFIX  43 
H7A   2    0.271363   -0.148768    0.223718    11.00000   -1.20000 
AFIX   0 
C8    1    0.154572   -0.226413    0.357803    11.00000    0.03404    0.03205 = 
         0.05689    0.01642    0.00173    0.00958 
AFIX  43 
H8A   2    0.275363   -0.286849    0.356518    11.00000   -1.20000 
AFIX   0 
C9    1   -0.020095   -0.218858    0.437311    11.00000    0.03829    0.02360 = 
         0.02923    0.00824   -0.00950   -0.00142 
C10   1   -0.200511   -0.132625    0.440591    11.00000    0.03759    0.03509 = 
         0.02630    0.00559   -0.00119    0.00484 
AFIX  43 
H10A  2   -0.321247   -0.129338    0.495507    11.00000   -1.20000 
AFIX   0 
C11   1   -0.201202   -0.050683    0.361540    11.00000    0.03236    0.03199 = 
         0.02838    0.00570   -0.00324    0.00862 
AFIX  43 
H11A  2   -0.323169    0.009146    0.362160    11.00000   -1.20000 
AFIX   0 
C12   1    0.292547    0.355650    0.161304    11.00000    0.02652    0.02633 = 
         0.02904    0.00423   -0.00208    0.00086 
PART   1 
C13   1    0.263519    0.439971    0.082942    10.50000    0.03500 
AFIX  43 
H13A  2    0.146774    0.415066    0.020326    10.50000   -1.20000 
AFIX   0 
C14   1    0.402248    0.557801    0.096139    10.50000    0.03690 
AFIX  43 
H14A  2    0.379678    0.612933    0.042925    10.50000   -1.20000 
AFIX   0 
C16'  1    0.614442    0.512446    0.259579    10.50000    0.03513 
AFIX  43 
H16A  2    0.739374    0.537086    0.319344    10.50000   -1.20000 
AFIX   0 
C17'  1    0.477920    0.393836    0.248195    10.50000    0.03099 
AFIX  43 
H17A  2    0.510857    0.338186    0.299931    10.50000   -1.20000 
AFIX   0 
PART   2 
C13'  1    0.182427    0.457536    0.122259    10.50000    0.03026 
AFIX  43 
H13B  2    0.013607    0.445174    0.087697    10.50000   -1.20000 
AFIX   0 
C14'  1    0.320333    0.574920    0.134392    10.50000    0.03424 
AFIX  43 
H14B  2    0.245530    0.643083    0.107982    10.50000   -1.20000 
AFIX   0 
C16   1    0.671026    0.496502    0.228872    10.50000    0.03289 
AFIX  43 
H16B  2    0.836165    0.510046    0.266892    10.50000   -1.20000 
AFIX   0 
C17   1    0.533361    0.377261    0.217768    10.50000    0.02764 
AFIX  43 
H17B  2    0.604235    0.310871    0.248799    10.50000   -1.20000 
AFIX   0 
PART   0 
C15   1    0.571767    0.594954    0.185689    11.00000    0.04187    0.02694 = 
         0.04672    0.00408    0.00108   -0.00386 
PART 1 
AFIX  43 
H15A  2    0.659792    0.677487    0.196838    10.50000   -1.20000 
AFIX  43 
PART 2 
H15B  2    0.670259    0.674582    0.190305    10.50000   -1.20000 
PART 0 
AFIX   0 
HKLF 4 
  
REM  ab021 in P-1 
REM R1 =  0.0334 for    2734 Fo > 4sig(Fo)  and  0.0419 for all    3252 data 
REM    186 parameters refined using     30 restraints 
  
END 
  
WGHT      0.0444      0.3118 
  
REM Highest difference peak  0.373,  deepest hole -0.662,  1-sigma level  0.060 
Q1    1  -0.1231 -0.3563  0.4990  11.00000  0.05    0.37 
Q2    1   0.1126 -0.3373  0.5004  11.00000  0.05    0.36 
Q3    1   0.6159  0.5397  0.2143  11.00000  0.05    0.36 
Q4    1   0.1200 -0.2806  0.5361  11.00000  0.05    0.31 
Q5    1   0.0500 -0.4157  0.5350  11.00000  0.05    0.30 
;
_shelx_res_checksum              19543
_shelx_hkl_file
; 
   1   0   0  390.74    7.81 
   1   0   0  376.63    7.99 
   1   0   0  394.14    7.60 
   2   0   0   49.40    1.05 
   2   0   0   49.01    1.07 
   2   0   0   48.68    1.01 
   3   0   0   52.06    1.10 
   3   0   0   51.59    1.16 
   3   0   0   52.45    1.15 
   4   0   0   12.27    0.38 
   4   0   0   12.38    0.41 
   4   0   0   11.51    0.36 
   5   0   0   30.20    0.76 
   5   0   0   30.84    0.80 
   5   0   0   29.54    0.80 
   6   0   0    7.08    0.39 
   6   0   0    7.04    0.36 
   6   0   0    6.41    0.35 
   6  -1   0    1.11    0.20 
   6  -1   0    1.23    0.22 
   5  -1   0    5.22    0.28 
   5  -1   0    5.38    0.30 
   5  -1   0    5.57    0.28 
   4  -1   0    0.60    0.12 
   4  -1   0    0.63    0.14 
   4  -1   0    0.58    0.13 
   3  -1   0    4.04    0.18 
   3  -1   0    3.74    0.17 
   3  -1   0    3.82    0.19 
   2  -1   0   97.38    2.07 
   2  -1   0   97.57    2.00 
   2  -1   0   97.74    1.94 
   1  -1   0  130.59    2.51 
   1  -1   0  126.53    2.68 
   0   1   0   27.99    0.57 
   1   1   0    0.39    0.05 
   1   1   0    0.35    0.04 
   1   1   0    0.36    0.07 
   2   1   0   12.93    0.32 
   2   1   0   12.69    0.34 
   2   1   0   12.63    0.31 
   3   1   0   19.33    0.49 
   3   1   0   19.56    0.51 
   3   1   0   19.34    0.48 
   4   1   0    3.11    0.20 
   4   1   0    3.11    0.25 
   4   1   0    3.34    0.19 
   5   1   0    9.47    0.35 
   5   1   0    8.42    0.38 
   5   1   0    8.50    0.35 
   6   1   0    0.31    0.20 
   6   1   0    0.16    0.16 
   6  -2   0   -0.05    0.18 
   5  -2   0    0.95    0.17 
   4  -2   0    2.57    0.20 
   4  -2   0    2.99    0.18 
   3  -2   0    0.85    0.11 
   3  -2   0    0.82    0.10 
   2  -2   0  158.08    3.31 
   1  -2   0  167.35    3.47 
   0   2   0    1.85    0.09 
   1   2   0  179.07    3.46 
   1   2   0  175.53    3.58 
   2   2   0    5.57    0.21 
   2   2   0    5.82    0.18 
   2   2   0    5.61    0.17 
   3   2   0    5.51    0.21 
   3   2   0    5.46    0.20 
   3   2   0    5.88    0.26 
   4   2   0    0.36    0.13 
   4   2   0    0.08    0.15 
   4   2   0    0.30    0.11 
   5   2   0   10.16    0.38 
   5   2   0   10.13    0.43 
   6   2   0    2.54    0.29 
   6   2   0    2.47    0.25 
   6  -3   0    1.32    0.23 
   5  -3   0    1.44    0.19 
   4  -3   0   41.84    1.01 
   3  -3   0   93.22    2.02 
   2  -3   0   99.05    2.11 
   1  -3   0  290.10    5.99 
   0   3   0   58.27    1.20 
   1   3   0   19.27    0.47 
   1   3   0   19.84    0.44 
   2   3   0  187.51    3.82 
   2   3   0  183.33    3.63 
   2   3   0  181.43    3.76 
   3   3   0   23.43    0.56 
   3   3   0   23.02    0.57 
   3   3   0   24.35    0.62 
   4   3   0   41.44    1.02 
   5   3   0    0.68    0.15 
   5   3   0    1.09    0.20 
   6   3   0    1.08    0.21 
   6   3   0    1.08    0.24 
   6  -4   0    0.08    0.19 
   5  -4   0    0.46    0.16 
   4  -4   0    0.99    0.15 
   3  -4   0    2.80    0.18 
   2  -4   0    0.18    0.07 
   1  -4   0   37.23    0.82 
  -1   4   0   37.53    0.80 
   0  -4   0   74.13    1.58 
   0   4   0   77.90    1.56 
   1   4   0    4.68    0.19 
   1   4   0    4.99    0.18 
   2   4   0    1.44    0.08 
   2   4   0    1.61    0.12 
   2   4   0    1.75    0.16 
   3   4   0    5.89    0.24 
   3   4   0    5.24    0.28 
   4   4   0    3.54    0.28 
   4   4   0    3.68    0.23 
   5   4   0    0.05    0.14 
   5   4   0    0.40    0.19 
   6   4   0    0.74    0.20 
   6   4   0    1.05    0.26 
   6  -5   0    1.61    0.25 
   5  -5   0    5.38    0.31 
   4  -5   0    6.11    0.29 
   3  -5   0   19.46    0.53 
   2  -5   0    0.69    0.09 
   1  -5   0   24.04    0.56 
  -1   5   0   24.62    0.57 
   0  -5   0   24.27    0.54 
   0   5   0   25.20    0.60 
   1   5   0    1.37    0.13 
   2   5   0    0.58    0.10 
   2   5   0    0.85    0.15 
   3   5   0    9.16    0.37 
   3   5   0    9.65    0.33 
   4   5   0    3.57    0.29 
   4   5   0    3.31    0.23 
   5   5   0    2.02    0.27 
   5   5   0    1.52    0.21 
   6   5   0    0.20    0.25 
   6   5   0    0.15    0.17 
   6  -6   0    0.13    0.18 
   5  -6   0    2.60    0.26 
   4  -6   0   15.11    0.48 
   3  -6   0   26.23    0.68 
   2  -6   0   20.79    0.53 
   1  -6   0   65.91    1.43 
  -1   6   0   67.37    1.42 
   0  -6   0   32.97    0.73 
   0   6   0   35.21    0.80 
   1   6   0   83.36    1.79 
   1   6   0   82.40    1.74 
   2   6   0   19.01    0.51 
   2   6   0   19.72    0.55 
   3   6   0   16.93    0.50 
   3   6   0   17.17    0.54 
   4   6   0    5.78    0.30 
   4   6   0    5.82    0.35 
   5   6   0    0.54    0.23 
   5   6   0    0.02    0.15 
   6  -7   0    0.15    0.19 
   5  -7   0    0.53    0.18 
   4  -7   0    0.74    0.17 
   3  -7   0   17.79    0.51 
  -2   7   0   10.43    0.35 
   1  -7   0   17.58    0.43 
   0   7   0   14.94    0.45 
   1   7   0   17.57    0.52 
   1   7   0   18.82    0.54 
   2   7   0   34.35    0.88 
   2   7   0   35.57    0.84 
   3   7   0    4.32    0.31 
   3   7   0    3.97    0.25 
   4   7   0    1.18    0.20 
   4   7   0    1.35    0.24 
   5   7   0    0.09    0.23 
   5   7   0   -0.09    0.17 
   6  -8   0    0.17    0.21 
   5  -8   0    1.14    0.21 
   3  -8   0   28.99    0.76 
  -3   8   0   29.86    0.76 
   2  -8   0   41.17    0.96 
  -2   8   0   41.26    0.98 
   1  -8   0   35.51    0.80 
  -1   8   0   35.40    0.87 
   0   8   0    3.77    0.25 
   1   8   0   14.80    0.49 
   1   8   0   15.52    0.48 
   2   8   0   20.88    0.63 
   2   8   0   21.63    0.61 
   3   8   0   10.92    0.46 
   3   8   0   10.70    0.41 
  -4  -8   0    0.31    0.16 
   4   8   0    0.09    0.21 
   4   8   0    0.14    0.17 
   5   8   0    1.13    0.25 
   5   8   0    0.68    0.27 
   5  -9   0    0.52    0.19 
   4  -9   0    4.64    0.31 
  -4   9   0    4.82    0.33 
   3  -9   0    4.38    0.25 
  -3   9   0    3.93    0.27 
   2  -9   0   10.72    0.35 
  -2   9   0   11.56    0.43 
  -1   9   0   80.98    1.78 
   0   9   0   62.63    1.42 
   1   9   0   28.74    0.77 
   1   9   0   28.57    0.76 
   2   9   0    3.10    0.29 
   2   9   0    2.70    0.26 
   3   9   0    6.90    0.39 
   3   9   0    6.19    0.34 
  -4  -9   0    0.47    0.18 
   4   9   0    0.86    0.21 
   4   9   0    0.68    0.25 
   5 -10   0    0.50    0.21 
  -5  10   0    0.32    0.22 
   4 -10   0    0.09    0.16 
  -4  10   0    0.25    0.18 
   3 -10   0   -0.12    0.13 
  -3  10   0    0.09    0.15 
  -2  10   0    0.61    0.16 
  -1  10   0    7.45    0.35 
   0  10   0    5.96    0.33 
   1  10   0    4.08    0.30 
   1  10   0    4.00    0.29 
   2  10   0    0.05    0.17 
   2  10   0    0.04    0.18 
   3  10   0    0.13    0.18 
   3  10   0    0.21    0.22 
  -4 -10   0    0.20    0.17 
   4  10   0    0.42    0.25 
   4  10   0    0.08    0.22 
   4 -11   0    2.72    0.27 
  -4  11   0    2.75    0.30 
  -3  11   0    2.51    0.28 
  -2  11   0   19.28    0.64 
  -1  11   0   34.70    0.92 
   0  11   0   44.41    1.11 
   1  11   0    9.34    0.41 
   1  11   0    9.04    0.42 
   2  11   0    3.36    0.33 
   2  11   0    3.57    0.32 
  -3 -11   0    1.28    0.22 
   3  11   0    0.84    0.23 
   3  11   0    1.78    0.29 
  -4  12   0    1.67    0.31 
  -3  12   0    2.73    0.31 
  -2  12   0    6.68    0.39 
  -1  12   0    0.46    0.18 
   0  12   0    1.04    0.21 
   0  12   0    0.93    0.23 
   1  12   0    4.13    0.34 
   1  12   0    3.80    0.32 
   2  12   0    1.64    0.25 
   2  12   0    1.65    0.28 
  -3 -12   0    4.16    0.36 
   3  12   0    4.74    0.42 
   2 -13   0    0.03    0.17 
  -2  13   0   -0.05    0.19 
  -1  13   0    1.37    0.24 
   0  13   0   -0.20    0.20 
   0  13   0   -0.18    0.16 
   1  13   0    1.54    0.26 
   1  13   0    1.58    0.23 
  -2 -13   0    0.59    0.22 
   2  13   0    0.95    0.27 
   1 -14   0    6.89    0.40 
   0 -14   0    0.34    0.21 
   0  14   0    0.09    0.25 
   0  14  -1    3.08    0.35 
   0  14  -1    3.85    0.38 
  -1  14  -1    1.03    0.25 
   1 -14   1    1.00    0.24 
   2  13  -1    5.22    0.42 
   2  13  -1    5.51    0.41 
   1  13  -1    5.52    0.41 
   1  13  -1    5.48    0.37 
  -1 -13   1    5.55    0.37 
   0  13  -1    0.92    0.21 
   0  13  -1    0.56    0.24 
   0 -13   1    1.12    0.23 
  -1  13  -1    1.68    0.26 
   1 -13   1    2.02    0.24 
  -2  13  -1    0.14    0.19 
   2 -13   1    0.14    0.17 
  -3  13  -1    0.02    0.21 
   3  12  -1    0.19    0.22 
  -3 -12   1    0.63    0.22 
   2  12  -1    1.49    0.26 
   2  12  -1    1.91    0.28 
  -2 -12   1    1.46    0.24 
   1  12  -1    7.14    0.42 
   1  12  -1    6.93    0.37 
  -1 -12   1    6.59    0.36 
   0  12  -1    0.97    0.21 
   0 -12   1    1.04    0.20 
  -1  12  -1    6.72    0.39 
   1 -12   1    6.74    0.35 
  -2  12  -1   22.14    0.72 
  -3  12  -1    5.73    0.41 
  -4  12  -1    0.92    0.26 
   3  11  -1   -0.11    0.22 
   3  11  -1   -0.12    0.17 
  -3 -11   1    0.18    0.18 
   2  11  -1   -0.02    0.18 
   2  11  -1    0.23    0.21 
  -2 -11   1    0.08    0.17 
   1  11  -1    7.63    0.38 
   1  11  -1    7.56    0.40 
   0  11  -1   37.65    0.98 
  -1  11  -1    6.57    0.34 
  -2  11  -1    5.41    0.35 
   2 -11   1    5.27    0.28 
  -3  11  -1    5.40    0.36 
  -4  11  -1    1.83    0.25 
   4 -11   1    2.12    0.25 
   4  10  -1    1.58    0.31 
   4  10  -1    1.14    0.24 
  -4 -10   1    1.42    0.22 
   3  10  -1    2.53    0.30 
   3  10  -1    1.93    0.25 
  -3 -10   1    1.74    0.23 
   2  10  -1    2.65    0.28 
   2  10  -1    2.52    0.27 
   1  10  -1    5.92    0.36 
   1  10  -1    5.64    0.32 
   0  10  -1   26.46    0.73 
  -1  10  -1   17.46    0.56 
  -2  10  -1    1.72    0.21 
   2 -10   1    2.48    0.20 
  -3  10  -1    2.02    0.22 
   3 -10   1    2.28    0.23 
  -4  10  -1   -0.02    0.16 
   4 -10   1    0.04    0.16 
   5 -10   1    0.24    0.19 
   4   9  -1    2.91    0.33 
   4   9  -1    2.55    0.28 
   3   9  -1    0.62    0.21 
   3   9  -1    0.44    0.17 
  -3  -9   1    0.28    0.16 
   2   9  -1   29.97    0.83 
   2   9  -1   33.15    0.87 
   1   9  -1    7.54    0.36 
   1   9  -1    7.84    0.38 
   0   9  -1    1.65    0.20 
  -1   9  -1   81.94    1.80 
  -2   9  -1   31.72    0.83 
   2  -9   1   32.96    0.77 
   2  -9   1   31.76    0.78 
  -3   9  -1   18.42    0.56 
   3  -9   1   18.01    0.53 
   4  -9   1    2.12    0.23 
   5  -9   1    0.26    0.19 
   5   8  -1    0.78    0.28 
   5   8  -1    0.84    0.23 
   4   8  -1    0.99    0.24 
   4   8  -1    0.86    0.20 
  -4  -8   1    0.70    0.16 
   3   8  -1    1.13    0.20 
   3   8  -1    1.95    0.21 
  -3  -8   1    1.73    0.19 
   2   8  -1    6.07    0.34 
   2   8  -1    5.98    0.31 
   1   8  -1   34.49    0.87 
   1   8  -1   33.84    0.86 
   0   8  -1    7.11    0.31 
  -1   8  -1    3.57    0.24 
   1  -8   1    3.37    0.16 
  -2   8  -1   13.89    0.44 
   2  -8   1   14.35    0.40 
   2  -8   1   14.84    0.41 
   3  -8   1    7.99    0.32 
   4  -8   1   12.93    0.46 
   5  -8   1   12.71    0.49 
   6  -8   1    0.97    0.23 
   5   7  -1    0.54    0.24 
   5   7  -1    0.56    0.20 
   4   7  -1    8.26    0.36 
   4   7  -1    8.04    0.42 
   3   7  -1   24.37    0.64 
   3   7  -1   22.77    0.69 
  -3  -7   1   24.66    0.62 
   2   7  -1    6.45    0.33 
   2   7  -1    6.45    0.28 
   1   7  -1   61.00    1.36 
   1   7  -1   58.75    1.33 
   0   7  -1   11.60    0.38 
   0  -7   1   11.37    0.29 
  -1   7  -1   12.68    0.39 
   1  -7   1   12.88    0.34 
  -2   7  -1   26.20    0.64 
   2  -7   1   24.82    0.63 
   2  -7   1   25.11    0.59 
   3  -7   1    0.06    0.11 
   5  -7   1    4.97    0.32 
   6  -7   1    0.51    0.21 
   6   6  -1    0.15    0.18 
   5   6  -1    1.70    0.22 
   5   6  -1    1.69    0.27 
   4   6  -1    0.44    0.15 
   4   6  -1    0.14    0.19 
   3   6  -1    7.72    0.38 
   3   6  -1    8.09    0.32 
  -3  -6   1    8.10    0.29 
   2   6  -1   14.54    0.42 
   2   6  -1   14.70    0.47 
   1   6  -1   50.54    1.12 
   1   6  -1   50.08    1.14 
   0   6  -1  167.72    3.34 
   0  -6   1  163.65    3.44 
  -1   6  -1   45.84    1.00 
   1  -6   1   45.11    1.00 
   2  -6   1   52.09    1.18 
   2  -6   1   52.79    1.09 
   4  -6   1    5.02    0.27 
   5  -6   1   21.99    0.67 
   6   5  -1    0.48    0.25 
   6   5  -1    0.77    0.20 
   5   5  -1    1.39    0.25 
   5   5  -1    0.84    0.18 
   4   5  -1    5.37    0.27 
   4   5  -1    4.92    0.32 
   3   5  -1    1.74    0.16 
   3   5  -1    1.61    0.21 
  -3  -5   1    1.49    0.14 
   2   5  -1    5.55    0.26 
   2   5  -1    5.76    0.22 
   1   5  -1   50.23    1.12 
   1   5  -1   50.69    1.09 
   0   5  -1    0.33    0.08 
   0  -5   1    0.40    0.05 
  -1   5  -1   98.25    1.96 
   1  -5   1   95.29    2.04 
   2  -5   1   33.36    0.71 
   3  -5   1    5.08    0.23 
   4  -5   1    2.59    0.22 
   5  -5   1    0.24    0.14 
   6  -5   1    0.25    0.19 
   6   4  -1    1.50    0.29 
   6   4  -1    0.98    0.22 
   5   4  -1    1.51    0.24 
   5   4  -1    1.57    0.20 
   4   4  -1    1.09    0.15 
   4   4  -1    0.98    0.19 
   3   4  -1    1.82    0.19 
   3   4  -1    1.93    0.16 
   3   4  -1    1.89    0.14 
  -3  -4   1    1.69    0.13 
   2   4  -1  116.93    2.36 
   2   4  -1  120.39    2.47 
   2   4  -1  115.35    2.45 
   1   4  -1   25.23    0.58 
   1   4  -1   26.18    0.62 
   0   4  -1   45.63    0.97 
   0  -4   1   44.49    0.96 
   1  -4   1  159.52    3.32 
   2  -4   1    0.56    0.09 
   3  -4   1   19.63    0.52 
   4  -4   1   24.49    0.66 
   5  -4   1    0.12    0.15 
   6  -4   1    1.95    0.25 
   6   3  -1    0.49    0.18 
   6   3  -1    0.46    0.22 
   5   3  -1    2.18    0.25 
   5   3  -1    2.38    0.23 
   4   3  -1    1.51    0.21 
   4   3  -1    1.11    0.15 
   4   3  -1    1.57    0.16 
   3   3  -1   75.81    1.57 
   3   3  -1   75.75    1.65 
   3   3  -1   76.37    1.65 
   2   3  -1  102.72    2.19 
   2   3  -1  104.80    2.10 
   2   3  -1  107.42    2.22 
   1   3  -1  186.98    3.79 
   1   3  -1  186.32    3.65 
   0   3  -1  160.96    3.16 
   0  -3   1  159.65    3.31 
   1  -3   1  131.48    2.75 
   2  -3   1  139.61    2.94 
   3  -3   1   11.68    0.35 
   4  -3   1    5.89    0.27 
   5  -3   1    5.92    0.31 
   6  -3   1    0.57    0.18 
   6   2  -1   -0.10    0.15 
   6   2  -1    0.19    0.19 
   5   2  -1   15.81    0.54 
   5   2  -1   15.97    0.49 
   5   2  -1   16.15    0.49 
   4   2  -1    0.21    0.11 
   4   2  -1    0.13    0.15 
   4   2  -1    0.24    0.10 
   3   2  -1    0.99    0.11 
   3   2  -1    0.98    0.14 
   3   2  -1    0.86    0.10 
  -3  -2   1    0.99    0.08 
   2   2  -1    3.04    0.12 
   2   2  -1    3.05    0.14 
   2   2  -1    2.99    0.16 
   1   2  -1    6.63    0.17 
   1   2  -1    6.54    0.21 
   0   2  -1   90.12    1.77 
   0  -2   1   88.37    1.85 
   1  -2   1   23.25    0.52 
   2  -2   1    3.07    0.13 
   3  -2   1   75.96    1.57 
   3  -2   1   77.00    1.67 
   4  -2   1    0.26    0.11 
   4  -2   1    0.28    0.11 
   5  -2   1    1.54    0.17 
   5  -2   1    1.60    0.19 
   6  -2   1    0.12    0.17 
   6   1  -1    0.85    0.22 
   6   1  -1    0.72    0.18 
   5   1  -1    0.66    0.15 
   5   1  -1    0.78    0.17 
   5   1  -1    0.91    0.19 
   4   1  -1    9.18    0.35 
   4   1  -1    8.88    0.31 
   4   1  -1    8.60    0.32 
   3   1  -1   58.61    1.30 
   3   1  -1   58.58    1.23 
   3   1  -1   59.16    1.29 
   2   1  -1   54.68    1.14 
   2   1  -1   56.35    1.19 
   2   1  -1   56.95    1.22 
   1   1  -1   63.60    1.27 
   1   1  -1   64.40    1.33 
   1   1  -1   65.65    1.37 
   0   1  -1  108.86    2.14 
   1  -1   1  119.63    2.49 
   1  -1   1  119.86    2.34 
   2  -1   1   74.10    1.61 
   2  -1   1   75.69    1.58 
   2  -1   1   77.20    1.52 
   3  -1   1    7.06    0.24 
   3  -1   1    7.46    0.25 
   3  -1   1    7.49    0.26 
   4  -1   1    4.67    0.23 
   4  -1   1    4.88    0.26 
   4  -1   1    4.95    0.23 
   5  -1   1    1.15    0.17 
   5  -1   1    1.01    0.17 
   5  -1   1    1.03    0.18 
   6  -1   1   -0.12    0.16 
   6  -1   1    0.15    0.17 
   6   0  -1   14.48    0.53 
   6   0  -1   13.44    0.49 
   6   0  -1   14.30    0.51 
   5   0  -1   23.01    0.66 
   5   0  -1   23.27    0.61 
   5   0  -1   22.84    0.65 
   4   0  -1   14.79    0.46 
   4   0  -1   15.12    0.42 
   4   0  -1   15.10    0.45 
   3   0  -1   42.20    0.96 
   3   0  -1   42.99    0.98 
   3   0  -1   41.93    0.91 
   2   0  -1   69.33    1.40 
   2   0  -1   68.96    1.45 
   2   0  -1   70.83    1.50 
   1   0  -1  196.50    3.77 
   1   0  -1  195.01    3.87 
   1   0  -1  187.38    4.00 
   1   0   1  401.88    8.34 
   1   0   1  397.08    8.10 
   1   0   1  404.94    7.90 
   2   0   1  206.91    4.09 
   2   0   1  203.35    3.96 
   2   0   1  195.63    4.19 
   3   0   1   16.45    0.44 
   3   0   1   15.87    0.42 
   3   0   1   15.49    0.41 
   4   0   1   13.64    0.41 
   4   0   1   13.55    0.44 
   4   0   1   14.20    0.41 
   5   0   1    2.00    0.20 
   5   0   1    1.83    0.19 
   5   0   1    2.53    0.25 
   6   0   1    0.39    0.17 
   6   0   1    0.28    0.17 
   6   0   1    0.48    0.21 
   6  -1  -1   10.01    0.42 
   6  -1  -1    8.74    0.38 
   6  -1  -1    8.75    0.41 
   5  -1  -1    5.59    0.30 
   5  -1  -1    5.50    0.27 
   5  -1  -1    5.22    0.30 
   4  -1  -1    4.56    0.25 
   4  -1  -1    4.65    0.24 
   4  -1  -1    4.17    0.21 
   3  -1  -1    4.72    0.18 
   3  -1  -1    4.59    0.20 
   3  -1  -1    4.64    0.20 
   2  -1  -1    2.49    0.11 
   2  -1  -1    2.68    0.14 
   2  -1  -1    3.23    0.13 
   1  -1  -1    0.98    0.06 
   1  -1  -1    1.15    0.09 
   0   1   1    3.10    0.10 
   1   1   1   85.07    1.76 
   1   1   1   85.97    1.70 
   1   1   1   86.70    1.79 
   2   1   1   60.83    1.29 
   2   1   1   59.56    1.29 
   2   1   1   61.17    1.24 
   3   1   1    0.02    0.10 
   3   1   1    0.05    0.07 
   3   1   1    0.10    0.08 
   4   1   1    6.67    0.25 
   4   1   1    6.96    0.27 
   4   1   1    6.28    0.31 
   5   1   1   33.39    0.83 
   5   1   1   32.43    0.82 
   5   1   1   32.54    0.87 
   6   1   1    6.46    0.36 
   6   1   1    6.76    0.40 
   6  -2  -1    0.22    0.17 
   5  -2  -1    2.19    0.22 
   4  -2  -1   39.82    0.97 
   4  -2  -1   40.39    0.93 
   3  -2  -1   38.66    0.91 
   2  -2  -1   12.67    0.34 
   1  -2  -1   10.60    0.27 
   0   2   1  310.80    6.07 
   1   2   1  479.51    9.44 
   2   2   1   85.50    1.72 
   2   2   1   83.68    1.78 
   2   2   1   85.64    1.78 
   3   2   1    1.75    0.14 
   3   2   1    2.10    0.12 
   3   2   1    1.84    0.19 
   4   2   1    7.05    0.33 
   4   2   1    7.19    0.26 
   4   2   1    6.96    0.29 
   5   2   1    4.04    0.30 
   5   2   1    3.92    0.26 
   6   2   1    3.43    0.35 
   6   2   1    4.02    0.31 
   6  -3  -1    3.18    0.29 
   5  -3  -1    0.49    0.16 
   4  -3  -1    0.15    0.12 
   3  -3  -1   13.89    0.40 
   2  -3  -1  173.05    3.63 
   1  -3  -1  405.93    8.42 
   0   3   1   91.42    1.84 
   1   3   1   14.63    0.37 
   1   3   1   15.28    0.36 
   2   3   1    5.39    0.19 
   2   3   1    5.59    0.15 
   2   3   1    5.88    0.23 
   3   3   1   25.38    0.62 
   3   3   1   26.20    0.67 
   3   3   1   26.63    0.60 
   4   3   1   48.41    1.11 
   4   3   1   49.29    1.17 
   5   3   1    3.69    0.31 
   5   3   1    3.73    0.26 
   6   3   1    0.23    0.18 
   6   3   1   -0.06    0.20 
   6  -4  -1    1.15    0.22 
   5  -4  -1    0.19    0.15 
   4  -4  -1    0.41    0.13 
   3  -4  -1    1.45    0.15 
   2  -4  -1    3.11    0.16 
   1  -4  -1    8.64    0.24 
  -1   4   1    8.39    0.24 
   0  -4  -1    0.76    0.05 
   0   4   1    0.60    0.09 
   1   4   1   91.48    1.94 
   1   4   1   94.93    1.89 
   2   4   1   14.88    0.43 
   2   4   1   15.70    0.34 
   2   4   1   15.48    0.40 
   3   4   1    2.06    0.21 
   3   4   1    1.44    0.15 
   4   4   1   -0.05    0.16 
   4   4   1    0.01    0.12 
   5   4   1   -0.06    0.14 
   5   4   1   -0.15    0.18 
   6   4   1    1.52    0.28 
   6   4   1    0.98    0.22 
   6  -5  -1    0.17    0.18 
   5  -5  -1    0.18    0.15 
   4  -5  -1    7.24    0.32 
   3  -5  -1   38.16    0.91 
   2  -5  -1   45.23    1.02 
   1  -5  -1   49.75    1.08 
  -1   5   1   49.06    1.06 
   0  -5  -1  175.89    3.67 
   0   5   1  180.31    3.56 
   1   5   1    3.93    0.19 
   1   5   1    3.43    0.17 
   2   5   1   33.34    0.76 
   3   5   1   21.04    0.56 
   3   5   1   21.18    0.60 
   4   5   1    3.66    0.25 
   4   5   1    3.73    0.30 
   5   5   1    5.81    0.38 
   5   5   1    6.02    0.33 
   6   5   1    0.93    0.21 
   6  -6  -1    0.20    0.21 
   5  -6  -1    0.49    0.17 
   4  -6  -1   11.83    0.42 
   3  -6  -1   19.71    0.55 
   2  -6  -1   91.90    1.97 
  -2   6   1   89.62    1.88 
   1  -6  -1   21.49    0.52 
  -1   6   1   22.42    0.56 
   0  -6  -1   89.18    1.92 
   0   6   1   95.56    1.93 
   1   6   1   47.07    1.08 
   1   6   1   48.33    1.06 
   2   6   1   17.92    0.48 
   2   6   1   17.15    0.50 
   3   6   1   11.85    0.45 
   3   6   1   12.84    0.41 
   4   6   1    0.66    0.20 
   4   6   1    0.54    0.16 
   5   6   1    0.88    0.25 
   5   6   1    0.43    0.18 
   6  -7  -1    1.79    0.27 
   5  -7  -1    0.05    0.16 
   4  -7  -1    0.02    0.13 
   3  -7  -1    3.02    0.22 
   2  -7  -1    5.03    0.22 
  -2   7   1    5.05    0.25 
  -1   7   1    4.08    0.23 
   0   7   1    0.27    0.11 
   1   7   1    3.85    0.25 
   1   7   1    3.68    0.22 
   2   7   1    2.45    0.22 
   2   7   1    2.44    0.24 
   3   7   1    1.01    0.20 
   3   7   1    1.03    0.17 
   4   7   1    0.47    0.21 
   4   7   1    0.41    0.17 
   5   7   1    1.06    0.26 
   5   7   1    0.85    0.22 
   6  -8  -1    0.81    0.24 
   5  -8  -1    0.67    0.21 
   4  -8  -1   12.05    0.44 
   3  -8  -1   15.92    0.48 
  -3   8   1   15.63    0.49 
  -2   8   1   22.16    0.62 
  -1   8   1   49.81    1.15 
   0   8   1   28.03    0.73 
   1   8   1   24.49    0.65 
   1   8   1   23.26    0.65 
   2   8   1    1.18    0.18 
   2   8   1    1.04    0.20 
   3   8   1    1.29    0.24 
   3   8   1    0.86    0.18 
   4   8   1    1.42    0.23 
   4   8   1    1.26    0.26 
   5   8   1    0.21    0.25 
   5   8   1    0.50    0.22 
   5  -9  -1    3.33    0.32 
   4  -9  -1    1.27    0.20 
  -4   9   1    1.52    0.22 
  -3   9   1   13.01    0.47 
   2  -9  -1   20.09    0.54 
  -2   9   1   20.26    0.60 
  -1   9   1    2.53    0.24 
   0   9   1   39.54    0.98 
   1   9   1   16.41    0.52 
   1   9   1   16.81    0.53 
   2   9   1   20.12    0.62 
   2   9   1   20.18    0.61 
   3   9   1   18.21    0.62 
   3   9   1   17.74    0.60 
   4   9   1    1.58    0.25 
   4   9   1    0.88    0.25 
   5 -10  -1    0.05    0.18 
  -5  10   1    0.40    0.23 
   4 -10  -1   -0.16    0.16 
  -4  10   1    0.17    0.19 
   3 -10  -1    6.04    0.31 
  -3  10   1    5.91    0.35 
  -2  10   1    0.13    0.14 
  -1  10   1   17.38    0.55 
   0  10   1    1.36    0.19 
   1  10   1    5.53    0.32 
   1  10   1    5.32    0.32 
   2  10   1    1.97    0.24 
   2  10   1    1.56    0.24 
   3  10   1    0.76    0.21 
   3  10   1    0.64    0.23 
   4  10   1    0.80    0.27 
   4  10   1    0.61    0.23 
   4 -11  -1    6.67    0.37 
  -4  11   1    6.58    0.42 
  -3  11   1    5.30    0.37 
  -2  11   1    0.76    0.20 
  -1  11   1    3.22    0.28 
   0  11   1    7.33    0.37 
   0  11   1    7.45    0.37 
   1  11   1   14.01    0.50 
   1  11   1   12.76    0.51 
   2  11   1    2.10    0.26 
   2  11   1    1.47    0.26 
   3  11   1    0.82    0.26 
   3  11   1    0.67    0.23 
  -3  12   1    2.82    0.31 
  -2  12   1    1.87    0.25 
  -1  12   1   19.47    0.64 
   0  12   1    9.99    0.45 
   0  12   1   10.47    0.47 
   1  12   1    2.02    0.26 
   1  12   1    2.49    0.24 
   2  12   1    5.48    0.39 
   2  12   1    5.00    0.36 
  -2  13   1   -0.16    0.17 
  -1  13   1    2.37    0.27 
   0  13   1    0.27    0.18 
   1  13   1    2.90    0.31 
   1  13   1    2.07    0.25 
   0  14  -2    0.01    0.24 
   0  14  -2    0.20    0.19 
   0 -14   2    0.12    0.20 
  -1  14  -2    0.08    0.19 
   1 -14   2    0.14    0.19 
   2 -14   2   -0.04    0.19 
   2  13  -2   -0.01    0.20 
   2  13  -2    0.31    0.25 
  -2 -13   2    0.18    0.20 
   1  13  -2    6.52    0.37 
   1  13  -2    6.71    0.43 
   0  13  -2    7.80    0.42 
   0 -13   2    7.83    0.40 
  -1  13  -2    2.39    0.28 
  -2  13  -2    2.95    0.31 
   2 -13   2    3.28    0.31 
  -3  13  -2    0.15    0.21 
   3  12  -2    0.65    0.23 
  -3 -12   2    0.20    0.19 
   2  12  -2    3.80    0.36 
   2  12  -2    3.62    0.33 
  -2 -12   2    3.75    0.31 
   1  12  -2    0.80    0.24 
   1  12  -2    0.98    0.20 
  -1 -12   2    0.62    0.19 
   0  12  -2   12.56    0.49 
   0 -12   2   12.15    0.47 
  -1  12  -2    9.81    0.44 
   1 -12   2    9.81    0.41 
  -2  12  -2    8.02    0.43 
   2 -12   2    8.28    0.37 
  -3  12  -2   15.45    0.62 
  -4  12  -2    3.15    0.34 
   4 -12   2    3.82    0.32 
   3  11  -2    0.28    0.24 
   3  11  -2    0.12    0.19 
  -3 -11   2   -0.13    0.15 
   2  11  -2    0.99    0.23 
   2  11  -2    1.18    0.23 
  -2 -11   2    1.21    0.20 
   1  11  -2    0.17    0.21 
   1  11  -2    0.13    0.15 
  -1 -11   2    0.08    0.13 
   0  11  -2    6.06    0.34 
   0 -11   2    6.14    0.31 
  -1  11  -2    4.41    0.30 
   1 -11   2    5.13    0.28 
  -2  11  -2    0.86    0.19 
   2 -11   2    0.84    0.17 
  -3  11  -2    3.37    0.31 
   3 -11   2    3.10    0.26 
  -4  11  -2    3.46    0.33 
   4 -11   2    3.43    0.31 
   4  10  -2   -0.01    0.27 
   4  10  -2    0.11    0.19 
  -4 -10   2    0.21    0.19 
   3  10  -2    1.34    0.26 
   3  10  -2    1.59    0.23 
  -3 -10   2    1.27    0.20 
   2  10  -2   11.62    0.49 
   2  10  -2   10.27    0.44 
  -2 -10   2   12.00    0.43 
   1  10  -2    1.44    0.20 
   1  10  -2    1.40    0.23 
  -1 -10   2    1.60    0.18 
   0  10  -2    0.61    0.17 
   0 -10   2    0.50    0.15 
  -1  10  -2    6.33    0.33 
   1 -10   2    6.23    0.28 
  -2  10  -2    5.34    0.31 
   2 -10   2    5.14    0.25 
   2 -10   2    5.36    0.26 
  -3  10  -2   13.39    0.49 
   3 -10   2   14.10    0.46 
  -4  10  -2    2.50    0.27 
   4 -10   2    2.47    0.25 
   5 -10   2    2.53    0.29 
   4   9  -2    6.23    0.43 
   4   9  -2    5.62    0.35 
  -4  -9   2    5.29    0.33 
   3   9  -2    6.91    0.35 
   3   9  -2    6.49    0.40 
  -3  -9   2    6.96    0.33 
   2   9  -2    2.12    0.25 
   2   9  -2    1.87    0.22 
  -2  -9   2    1.94    0.19 
   1   9  -2   33.16    0.87 
   1   9  -2   33.36    0.89 
  -1  -9   2   34.46    0.83 
   0   9  -2  175.92    3.55 
   0  -9   2  170.60    3.49 
  -1   9  -2   46.95    1.10 
   1  -9   2   46.91    1.05 
   1  -9   2   45.17    1.04 
  -2   9  -2   71.65    1.59 
   2  -9   2   71.59    1.53 
   2  -9   2   71.82    1.59 
  -3   9  -2   13.58    0.47 
   3  -9   2   14.20    0.45 
   4  -9   2   10.28    0.42 
   5  -9   2   14.60    0.54 
   5   8  -2    0.02    0.26 
   5   8  -2    0.36    0.20 
   4   8  -2    2.82    0.31 
   4   8  -2    2.00    0.23 
  -4  -8   2    2.50    0.24 
   3   8  -2    1.56    0.23 
   3   8  -2    1.21    0.18 
  -3  -8   2    1.25    0.17 
   2   8  -2    3.40    0.30 
   2   8  -2    3.27    0.25 
  -2  -8   2    3.79    0.23 
   1   8  -2    2.52    0.23 
  -1  -8   2    2.18    0.18 
   0   8  -2   32.30    0.81 
  -1   8  -2    1.26    0.16 
   1  -8   2    1.52    0.13 
   1  -8   2    1.12    0.13 
  -2   8  -2    0.30    0.13 
   2  -8   2    0.15    0.10 
   2  -8   2    0.21    0.10 
   3  -8   2    7.99    0.32 
   4  -8   2    0.28    0.15 
   5  -8   2    0.52    0.19 
   6  -8   2    0.22    0.21 
   5   7  -2    1.15    0.26 
   5   7  -2    1.96    0.24 
   4   7  -2    0.07    0.20 
   4   7  -2    0.00    0.14 
   3   7  -2    2.01    0.24 
   3   7  -2    1.70    0.18 
  -3  -7   2    1.98    0.19 
   2   7  -2   30.67    0.81 
   2   7  -2   29.96    0.74 
  -2  -7   2   30.62    0.73 
   1   7  -2   52.74    1.19 
   0   7  -2   52.00    1.15 
   0  -7   2   50.36    1.11 
  -1   7  -2   38.17    0.88 
   1  -7   2   37.25    0.85 
   1  -7   2   37.18    0.83 
  -2   7  -2   24.81    0.63 
   2  -7   2   25.55    0.63 
   2  -7   2   25.09    0.59 
   3  -7   2   11.65    0.38 
   4  -7   2    0.38    0.14 
   5  -7   2    0.24    0.16 
   6  -7   2    1.01    0.22 
   6   6  -2    0.00    0.18 
   5   6  -2    0.87    0.18 
   5   6  -2    0.96    0.24 
   4   6  -2    6.93    0.39 
   4   6  -2    7.37    0.31 
   3   6  -2   19.02    0.52 
   3   6  -2   19.20    0.59 
  -3  -6   2   18.63    0.50 
   2   6  -2   66.70    1.40 
   2   6  -2   65.69    1.48 
  -2  -6   2   65.66    1.39 
   1   6  -2   82.15    1.78 
  -1  -6   2   88.05    1.81 
   0   6  -2  105.18    2.11 
   0  -6   2  101.83    2.14 
   0  -6   2   98.73    2.05 
  -1   6  -2  142.48    2.86 
   1  -6   2  140.20    2.83 
   1  -6   2  144.69    2.99 
   2  -6   2  141.97    2.75 
   2  -6   2  135.62    2.94 
   3  -6   2   37.40    0.90 
   5  -6   2    0.95    0.19 
   6  -6   2    2.38    0.27 
   6   5  -2    0.37    0.19 
   6   5  -2   -0.08    0.24 
   5   5  -2    0.17    0.14 
   5   5  -2    0.09    0.20 
   4   5  -2    0.20    0.12 
   4   5  -2    0.03    0.17 
   3   5  -2    5.04    0.23 
   3   5  -2    4.77    0.30 
  -3  -5   2    4.98    0.21 
   2   5  -2    0.76    0.13 
   2   5  -2    0.53    0.09 
   2   5  -2    0.42    0.13 
  -2  -5   2    0.69    0.10 
   1   5  -2   41.40    0.90 
  -1  -5   2   40.63    0.88 
   0   5  -2    4.50    0.19 
   0  -5   2    4.53    0.17 
   0  -5   2    4.62    0.15 
  -1   5  -2   31.99    0.70 
   1  -5   2   31.43    0.72 
   1  -5   2   31.68    0.69 
   2  -5   2    0.39    0.07 
   2  -5   2    0.41    0.08 
   3  -5   2    0.60    0.12 
   4  -5   2    3.33    0.23 
   5  -5   2    0.21    0.16 
   6  -5   2    0.46    0.19 
   6   4  -2    0.50    0.24 
   6   4  -2    0.48    0.19 
   5   4  -2    5.13    0.35 
   5   4  -2    4.42    0.27 
   4   4  -2    5.03    0.31 
   4   4  -2    5.37    0.25 
   3   4  -2   24.07    0.65 
   3   4  -2   24.50    0.59 
   3   4  -2   25.08    0.61 
  -3  -4   2   24.13    0.57 
   2   4  -2   36.74    0.86 
   2   4  -2   36.80    0.79 
   2   4  -2   37.68    0.85 
  -2  -4   2   35.78    0.79 
   1   4  -2  148.02    2.93 
  -1  -4   2  147.89    2.91 
   0   4  -2   70.74    1.44 
   0  -4   2   68.88    1.41 
   0  -4   2   70.17    1.48 
   1  -4   2  179.79    3.75 
   1  -4   2  180.25    3.51 
   2  -4   2   43.54    0.98 
   3  -4   2   24.05    0.61 
   4  -4   2    1.33    0.16 
   5  -4   2    0.68    0.18 
   6  -4   2    0.06    0.17 
   6   3  -2    0.93    0.24 
   6   3  -2    1.05    0.20 
   5   3  -2    0.72    0.20 
   5   3  -2    1.05    0.17 
   4   3  -2    6.89    0.28 
   4   3  -2    6.86    0.28 
   4   3  -2    7.15    0.34 
   3   3  -2    1.87    0.15 
   3   3  -2    1.57    0.16 
   3   3  -2    1.51    0.17 
  -3  -3   2    1.46    0.11 
   2   3  -2    8.58    0.28 
   2   3  -2    8.54    0.24 
   2   3  -2    8.76    0.28 
  -2  -3   2    8.47    0.24 
   1   3  -2  141.08    2.92 
   1   3  -2  144.55    2.80 
  -1  -3   2  142.91    2.80 
   0   3  -2   48.25    0.99 
   0  -3   2   47.72    1.02 
   1  -3   2   88.35    1.87 
   2  -3   2   19.63    0.48 
   3  -3   2    8.52    0.29 
   4  -3   2   10.52    0.36 
   5  -3   2    8.59    0.36 
   6  -3   2    2.17    0.25 
   6   2  -2    0.93    0.20 
   6   2  -2    0.65    0.22 
   5   2  -2    1.02    0.17 
   5   2  -2    0.66    0.19 
   5   2  -2    1.14    0.17 
   4   2  -2    0.36    0.12 
   4   2  -2    0.44    0.12 
   4   2  -2    0.32    0.16 
   3   2  -2   37.20    0.82 
   3   2  -2   37.51    0.88 
   3   2  -2   38.05    0.89 
  -3  -2   2   38.35    0.79 
   2   2  -2    6.53    0.23 
   2   2  -2    6.45    0.19 
   2   2  -2    5.98    0.22 
  -2  -2   2    6.45    0.18 
   1   2  -2   19.15    0.45 
   1   2  -2   18.43    0.40 
   0   2  -2   -0.66    0.04 
   0  -2   2   -0.71    0.04 
   1  -2   2    2.21    0.10 
   2  -2   2   60.04    1.33 
   2  -2   2   62.19    1.25 
   3  -2   2   55.38    1.17 
   4  -2   2    3.75    0.22 
   4  -2   2    3.63    0.21 
   5  -2   2    0.29    0.13 
   5  -2   2    0.46    0.14 
   6  -2   2    1.78    0.23 
   6   1  -2    0.93    0.19 
   6   1  -2    0.60    0.20 
   6   1  -2    0.79    0.19 
   5   1  -2    4.42    0.29 
   5   1  -2    4.80    0.27 
   5   1  -2    4.72    0.28 
   4   1  -2    7.08    0.27 
   4   1  -2    6.81    0.29 
   4   1  -2    6.83    0.31 
   3   1  -2   85.96    1.74 
   3   1  -2   85.67    1.87 
   3   1  -2   85.34    1.82 
   2   1  -2  144.19    2.83 
   2   1  -2  145.11    2.94 
   2   1  -2  143.27    3.05 
   1   1  -2  173.81    3.57 
   1   1  -2  181.05    3.44 
   0  -1   2    1.62    0.06 
   1  -1   2   26.82    0.55 
   1  -1   2   26.33    0.59 
   2  -1   2  163.95    3.22 
   2  -1   2  158.37    3.32 
   2  -1   2  168.06    3.42 
   3  -1   2  110.60    2.26 
   3  -1   2  113.51    2.34 
   3  -1   2  111.64    2.39 
   4  -1   2    2.53    0.23 
   4  -1   2    2.19    0.18 
   4  -1   2    2.37    0.18 
   5  -1   2    4.84    0.26 
   5  -1   2    4.81    0.26 
   5  -1   2    4.79    0.30 
   6  -1   2    0.63    0.18 
   6  -1   2    0.32    0.18 
   6   0  -2    4.06    0.30 
   6   0  -2    4.49    0.32 
   6   0  -2    3.79    0.27 
   5   0  -2    0.60    0.17 
   5   0  -2    1.11    0.17 
   5   0  -2    0.68    0.15 
   4   0  -2   18.06    0.48 
   4   0  -2   17.76    0.52 
   4   0  -2   18.07    0.52 
   3   0  -2    1.25    0.13 
   3   0  -2    1.19    0.14 
   3   0  -2    1.09    0.10 
   2   0  -2   61.22    1.28 
   2   0  -2   60.35    1.23 
   2   0  -2   61.47    1.34 
   1   0  -2  256.54    4.99 
   1   0  -2  259.74    5.16 
   0   0   2    1.25    0.05 
   1   0   2  222.92    4.31 
   1   0   2  214.80    4.45 
   1   0   2  227.19    4.61 
   2   0   2   16.74    0.39 
   2   0   2   16.71    0.42 
   2   0   2   16.61    0.40 
   3   0   2   69.40    1.51 
   3   0   2   70.08    1.45 
   3   0   2   68.87    1.50 
   4   0   2   20.34    0.54 
   4   0   2   20.86    0.58 
   4   0   2   20.41    0.54 
   5   0   2    4.39    0.26 
   5   0   2    4.20    0.29 
   5   0   2    4.52    0.26 
   6   0   2    0.17    0.19 
   6   0   2   -0.04    0.15 
   6  -1  -2    4.05    0.31 
   6  -1  -2    3.69    0.30 
   5  -1  -2    0.12    0.14 
   5  -1  -2    0.03    0.14 
   5  -1  -2   -0.05    0.12 
   4  -1  -2    0.76    0.13 
   4  -1  -2    0.78    0.15 
   4  -1  -2    0.53    0.13 
   3  -1  -2    4.93    0.20 
   3  -1  -2    5.12    0.19 
   3  -1  -2    5.24    0.23 
   2  -1  -2   39.05    0.89 
   2  -1  -2   38.84    0.83 
   1  -1  -2  603.84   12.57 
   1  -1  -2  600.64   12.05 
   0   1   2  131.10    2.54 
   0   1   2  129.17    2.60 
   1   1   2   69.29    1.44 
   1   1   2   70.34    1.46 
   2   1   2   25.62    0.57 
   2   1   2   25.73    0.57 
   2   1   2   24.97    0.60 
   3   1   2    0.79    0.14 
   3   1   2    0.89    0.10 
   3   1   2    0.74    0.11 
   4   1   2   -0.01    0.10 
   4   1   2    0.19    0.14 
   4   1   2    0.25    0.10 
   5   1   2    1.55    0.18 
   5   1   2    1.73    0.18 
   5   1   2    1.77    0.23 
   6   1   2    0.29    0.18 
   6   1   2    0.57    0.21 
   6  -2  -2    5.13    0.35 
   5  -2  -2   17.32    0.55 
   4  -2  -2   36.68    0.86 
   4  -2  -2   36.89    0.91 
   3  -2  -2   40.19    0.95 
   3  -2  -2   40.51    0.89 
   2  -2  -2  164.52    3.47 
   1  -2  -2  474.30    9.85 
   0   2   2  554.30   11.04 
   0   2   2  544.34   10.80 
   1   2   2  372.63    7.37 
   1   2   2  377.88    7.51 
   2   2   2  189.47    3.80 
   2   2   2  197.25    3.99 
   2   2   2  191.93    3.93 
   3   2   2   22.22    0.53 
   3   2   2   21.99    0.55 
   3   2   2   22.25    0.58 
   4   2   2   23.74    0.66 
   4   2   2   23.57    0.61 
   4   2   2   23.24    0.59 
   5   2   2   13.75    0.47 
   5   2   2   14.48    0.52 
   6   2   2    0.33    0.21 
   6   2   2    0.10    0.17 
   6  -3  -2    0.15    0.18 
   5  -3  -2   -0.10    0.13 
   4  -3  -2    3.74    0.24 
   3  -3  -2   24.18    0.63 
   2  -3  -2   63.15    1.39 
   1  -3  -2    0.83    0.08 
  -1   3   2    0.92    0.08 
   0  -3  -2  148.14    3.05 
   0   3   2  149.40    2.88 
   0   3   2  147.51    2.97 
   0   3   2  144.02    2.92 
   1   3   2   37.87    0.81 
   2   3   2   43.12    0.90 
   2   3   2   41.41    0.94 
   2   3   2   41.52    0.91 
   3   3   2   31.95    0.71 
   3   3   2   31.30    0.74 
   3   3   2   31.16    0.78 
   4   3   2   32.62    0.85 
   5   3   2    0.85    0.21 
   5   3   2    0.95    0.16 
   6   3   2    3.06    0.29 
   6   3   2    3.05    0.31 
   6  -4  -2    0.73    0.21 
   5  -4  -2    0.21    0.15 
   4  -4  -2    1.67    0.19 
   3  -4  -2   24.22    0.63 
   2  -4  -2    4.24    0.19 
   1  -4  -2    0.02    0.06 
  -1   4   2    0.03    0.06 
   0  -4  -2   30.59    0.65 
   0   4   2   29.74    0.69 
   1   4   2    3.44    0.15 
   1   4   2    3.35    0.16 
   2   4   2   34.80    0.77 
   2   4   2   33.86    0.80 
   3   4   2   13.94    0.41 
   3   4   2   13.65    0.45 
   4   4   2    2.05    0.20 
   4   4   2    1.64    0.21 
   5   4   2    0.09    0.15 
   5   4   2    0.11    0.18 
   6   4   2    0.28    0.22 
   6   4   2    0.46    0.20 
   6  -5  -2    1.48    0.24 
   5  -5  -2   12.41    0.47 
   4  -5  -2   10.09    0.38 
   3  -5  -2    9.41    0.33 
   2  -5  -2  156.98    3.27 
  -2   5   2  151.82    3.09 
   1  -5  -2  121.30    2.54 
  -1   5   2  119.74    2.44 
   0  -5  -2  129.60    2.70 
   0   5   2  130.82    2.64 
   1   5   2  155.33    3.10 
   1   5   2  154.05    3.18 
   2   5   2    4.62    0.25 
   2   5   2    4.85    0.21 
   3   5   2    0.23    0.12 
   3   5   2    0.02    0.15 
   4   5   2   24.55    0.66 
   4   5   2   23.25    0.70 
   5   5   2   -0.03    0.14 
   5   5   2    0.06    0.18 
   6  -6  -2    0.04    0.19 
   5  -6  -2   -0.09    0.16 
   4  -6  -2    1.12    0.16 
   3  -6  -2    2.62    0.21 
   2  -6  -2    1.21    0.13 
  -2   6   2    1.49    0.15 
   1  -6  -2   12.63    0.33 
   0  -6  -2    0.71    0.07 
   0   6   2    0.74    0.12 
   1   6   2    3.53    0.20 
   1   6   2    3.64    0.21 
   2   6   2   42.46    1.01 
   2   6   2   42.82    0.97 
   3   6   2    0.76    0.18 
   3   6   2    0.83    0.16 
   4   6   2    4.89    0.34 
   4   6   2    5.52    0.31 
   5   6   2    2.11    0.26 
   5   6   2    1.98    0.29 
   6  -7  -2    0.37    0.22 
   5  -7  -2    0.43    0.18 
   4  -7  -2    1.31    0.19 
   3  -7  -2    4.97    0.26 
  -3   7   2    4.84    0.27 
   2  -7  -2    0.96    0.13 
  -2   7   2    0.82    0.13 
   1  -7  -2   10.76    0.30 
  -1   7   2   11.03    0.38 
   0   7   2    0.15    0.11 
   1   7   2    0.59    0.14 
   1   7   2    0.50    0.12 
   2   7   2    0.04    0.16 
   2   7   2    0.23    0.12 
   3   7   2    2.41    0.25 
   3   7   2    2.39    0.24 
   4   7   2    0.47    0.21 
   4   7   2    0.52    0.17 
   5   7   2    1.19    0.24 
   5   7   2    1.26    0.27 
   6  -8  -2    1.81    0.28 
   5  -8  -2    3.88    0.31 
   4  -8  -2    0.88    0.19 
  -4   8   2    0.84    0.18 
   3  -8  -2   11.76    0.40 
  -3   8   2   11.86    0.42 
   2  -8  -2   13.90    0.41 
  -2   8   2   13.60    0.46 
  -1   8   2   12.13    0.42 
   0   8   2   35.81    0.88 
   1   8   2    4.88    0.27 
   1   8   2    5.09    0.29 
   2   8   2   12.76    0.45 
   2   8   2   12.53    0.43 
   3   8   2    5.79    0.32 
   3   8   2    5.64    0.35 
   4   8   2    0.67    0.23 
   4   8   2    0.84    0.21 
   5  -9  -2    0.97    0.23 
  -5   9   2    0.84    0.22 
   4  -9  -2    4.78    0.31 
  -4   9   2    5.51    0.34 
   3  -9  -2   12.85    0.44 
  -3   9   2   13.59    0.48 
  -2   9   2   20.05    0.61 
  -1   9   2   11.67    0.43 
   0   9   2    6.83    0.34 
   0   9   2    7.15    0.33 
   1   9   2   16.71    0.52 
   1   9   2   16.89    0.53 
   2   9   2   17.95    0.57 
   2   9   2   18.39    0.58 
   3   9   2    1.70    0.25 
   3   9   2    1.81    0.24 
   4   9   2    6.07    0.40 
   4   9   2    5.65    0.40 
   5 -10  -2    0.14    0.20 
  -5  10   2    0.13    0.21 
  -4  10   2    6.19    0.39 
  -3  10   2    8.27    0.41 
  -2  10   2    3.66    0.29 
  -1  10   2    0.93    0.17 
   0  10   2    0.53    0.17 
   0  10   2    0.18    0.14 
   1  10   2   13.51    0.48 
   1  10   2   14.23    0.49 
   2  10   2    0.32    0.18 
   2  10   2   -0.03    0.15 
   3  10   2    0.77    0.24 
   3  10   2    1.27    0.23 
   4  10   2    0.17    0.24 
  -4  11   2    2.19    0.31 
  -3  11   2    5.26    0.39 
  -2  11   2   15.06    0.55 
  -1  11   2   20.26    0.64 
   0  11   2    6.83    0.38 
   0  11   2    6.65    0.35 
   1  11   2    4.60    0.35 
   1  11   2    4.64    0.30 
   2  11   2    2.83    0.28 
   2  11   2    2.59    0.28 
   3  11   2    2.47    0.30 
   3  11   2    3.07    0.34 
  -3  12   2    1.21    0.25 
  -2  12   2    1.39    0.23 
  -1  12   2    2.66    0.27 
   0  12   2    4.67    0.33 
   1  12   2    9.33    0.42 
   1  12   2   10.06    0.47 
   2  12   2    3.82    0.33 
   2  12   2    4.08    0.38 
  -2  13   2    3.77    0.35 
  -1  13   2    1.75    0.25 
   0  13   2    5.10    0.37 
   1  13   2    3.65    0.33 
   0  14  -3    0.18    0.19 
   0 -14   3    0.00    0.21 
  -1  14  -3    0.69    0.23 
   1 -14   3    0.72    0.21 
   2 -14   3    0.18    0.22 
   2  13  -3    0.69    0.23 
  -2 -13   3    0.43    0.22 
   1  13  -3    0.88    0.27 
   1  13  -3    1.39    0.22 
  -1 -13   3    1.09    0.23 
   0  13  -3   13.74    0.54 
   0 -13   3   13.12    0.52 
  -1  13  -3    5.82    0.39 
   1 -13   3    6.21    0.36 
  -2  13  -3    2.69    0.31 
   2 -13   3    2.02    0.25 
  -3  13  -3    2.14    0.30 
   3  12  -3    5.44    0.39 
  -3 -12   3    6.23    0.38 
   2  12  -3    9.48    0.46 
   2  12  -3    9.65    0.52 
  -2 -12   3   10.81    0.46 
   1  12  -3    4.99    0.39 
   1  12  -3    4.19    0.30 
  -1 -12   3    4.50    0.31 
   0  12  -3    9.83    0.44 
   0 -12   3    9.58    0.42 
  -1  12  -3   14.47    0.53 
   1 -12   3   14.39    0.51 
  -2  12  -3   11.97    0.51 
   2 -12   3   11.41    0.43 
  -3  12  -3    8.69    0.46 
  -4  12  -3    2.81    0.33 
   4 -12   3    3.41    0.31 
   3  11  -3    0.77    0.26 
   3  11  -3    0.71    0.21 
  -3 -11   3    0.38    0.18 
   2  11  -3   -0.03    0.17 
   2  11  -3    0.06    0.20 
  -2 -11   3    0.06    0.16 
   1  11  -3   -0.14    0.18 
   1  11  -3    0.15    0.15 
  -1 -11   3    0.01    0.14 
   0  11  -3    0.33    0.16 
   0 -11   3    0.42    0.16 
  -1  11  -3    1.35    0.21 
   1 -11   3    1.36    0.19 
  -2  11  -3    0.03    0.15 
   2 -11   3    0.20    0.14 
  -3  11  -3    0.86    0.21 
   3 -11   3    1.06    0.19 
  -4  11  -3    0.96    0.23 
   4 -11   3    0.59    0.19 
   4  10  -3    0.23    0.20 
   4  10  -3    0.65    0.28 
  -4 -10   3    0.10    0.18 
   3  10  -3    2.81    0.27 
   3  10  -3    3.57    0.36 
  -3 -10   3    3.12    0.28 
   2  10  -3   11.32    0.48 
   2  10  -3    8.28    0.40 
  -2 -10   3   10.68    0.40 
   1  10  -3   15.53    0.52 
  -1 -10   3   15.75    0.50 
   0  10  -3   16.22    0.52 
   0 -10   3   15.49    0.49 
  -1  10  -3   14.95    0.51 
   1 -10   3   14.68    0.46 
  -2  10  -3    4.72    0.30 
   2 -10   3    4.37    0.24 
   2 -10   3    4.36    0.24 
  -3  10  -3    6.01    0.34 
   3 -10   3    6.10    0.31 
  -4  10  -3   12.97    0.52 
   4 -10   3   13.16    0.48 
   5 -10   3    1.26    0.24 
   4   9  -3    4.78    0.33 
   4   9  -3    4.81    0.42 
  -4  -9   3    5.17    0.32 
   3   9  -3    7.36    0.44 
   3   9  -3    7.56    0.35 
  -3  -9   3    7.63    0.35 
   2   9  -3    3.31    0.31 
   2   9  -3    3.04    0.26 
  -2  -9   3    3.59    0.24 
   1   9  -3   36.12    0.91 
  -1  -9   3   35.79    0.87 
   0   9  -3   45.21    1.07 
   0  -9   3   43.76    1.02 
  -1   9  -3   57.08    1.31 
   1  -9   3   56.37    1.26 
   1  -9   3   56.91    1.26 
  -2   9  -3   36.92    0.90 
   2  -9   3   34.72    0.84 
   2  -9   3   36.66    0.87 
  -3   9  -3    8.79    0.37 
   3  -9   3    9.24    0.35 
   4  -9   3    9.32    0.39 
   5  -9   3    0.52    0.20 
   5   8  -3    0.23    0.27 
   5   8  -3    0.33    0.19 
   4   8  -3    4.51    0.30 
   4   8  -3    3.76    0.37 
  -4  -8   3    4.25    0.28 
   3   8  -3    1.92    0.26 
   3   8  -3    1.25    0.17 
  -3  -8   3    1.24    0.17 
   2   8  -3    6.58    0.31 
   2   8  -3    6.87    0.37 
  -2  -8   3    6.57    0.28 
   1   8  -3   45.92    1.12 
  -1  -8   3   51.06    1.10 
   0   8  -3    7.15    0.32 
   0  -8   3    7.48    0.28 
   0  -8   3    7.89    0.24 
  -1   8  -3    8.13    0.33 
   1  -8   3    8.48    0.27 
   1  -8   3    7.60    0.29 
  -2   8  -3    8.15    0.32 
   2  -8   3    8.10    0.29 
   2  -8   3    8.01    0.28 
   3  -8   3    0.35    0.13 
   4  -8   3    1.29    0.19 
   5  -8   3   -0.06    0.17 
   6  -8   3    1.16    0.26 
   5   7  -3    0.53    0.25 
   5   7  -3    0.45    0.18 
   4   7  -3    7.95    0.44 
   4   7  -3    8.26    0.35 
  -4  -7   3    8.97    0.38 
   3   7  -3   25.20    0.72 
   3   7  -3   24.48    0.63 
  -3  -7   3   24.31    0.64 
   2   7  -3    7.16    0.36 
   2   7  -3    7.05    0.28 
  -2  -7   3    6.59    0.27 
   1   7  -3    0.58    0.13 
  -1  -7   3    0.62    0.11 
   0   7  -3   76.24    1.62 
   0  -7   3   76.76    1.62 
   0  -7   3   73.84    1.58 
  -1   7  -3  104.14    2.09 
   1  -7   3   99.22    2.05 
   1  -7   3   98.92    2.15 
   2  -7   3   87.40    1.91 
   2  -7   3   88.44    1.80 
   3  -7   3   29.38    0.75 
   4  -7   3    0.08    0.13 
   5  -7   3    0.69    0.18 
   6  -7   3    2.29    0.29 
   6   6  -3    0.98    0.22 
   5   6  -3    1.29    0.20 
   5   6  -3    1.26    0.25 
   4   6  -3    3.39    0.32 
   4   6  -3    2.92    0.23 
   3   6  -3    0.59    0.13 
   3   6  -3    0.38    0.18 
  -3  -6   3    0.39    0.12 
   2   6  -3   45.90    1.00 
   2   6  -3   46.04    1.10 
  -2  -6   3   46.40    1.02 
   1   6  -3   76.23    1.66 
  -1  -6   3   79.66    1.71 
  -1  -6   3   82.56    1.65 
   0   6  -3   67.83    1.41 
   0  -6   3   64.61    1.37 
   0  -6   3   65.28    1.41 
  -1   6  -3   86.74    1.78 
   1  -6   3   86.17    1.85 
   1  -6   3   87.09    1.76 
   2  -6   3    3.29    0.16 
   2  -6   3    3.20    0.17 
   3  -6   3   36.15    0.88 
   4  -6   3   65.44    1.51 
   5  -6   3    2.80    0.27 
   6  -6   3    0.60    0.21 
   6   5  -3    0.53    0.26 
   6   5  -3    0.32    0.20 
   5   5  -3    6.89    0.33 
   5   5  -3    7.27    0.41 
   4   5  -3    9.11    0.40 
   4   5  -3    8.27    0.32 
   3   5  -3    0.81    0.13 
   3   5  -3    0.60    0.18 
  -3  -5   3    0.88    0.12 
   2   5  -3   22.27    0.52 
   2   5  -3   22.25    0.60 
  -2  -5   3   21.12    0.53 
   1   5  -3    1.01    0.11 
  -1  -5   3    1.04    0.11 
  -1  -5   3    1.13    0.11 
   0   5  -3   15.09    0.41 
   0  -5   3   15.40    0.38 
   0  -5   3   15.15    0.37 
   1  -5   3    2.27    0.12 
   1  -5   3    2.37    0.13 
   2  -5   3   -0.04    0.07 
   2  -5   3    0.08    0.06 
   3  -5   3    7.25    0.28 
   4  -5   3    1.47    0.17 
   5  -5   3    3.42    0.26 
   6  -5   3    0.79    0.22 
   6   4  -3    0.71    0.25 
   6   4  -3    0.77    0.20 
   5   4  -3    1.83    0.26 
   5   4  -3    1.69    0.19 
   4   4  -3   13.04    0.47 
   3   4  -3   13.24    0.44 
   3   4  -3   12.24    0.36 
   3   4  -3   13.39    0.40 
  -3  -4   3   12.73    0.35 
   2   4  -3   10.98    0.35 
   2   4  -3   10.53    0.28 
  -2  -4   3   10.26    0.29 
   1   4  -3  171.38    3.35 
  -1  -4   3  169.31    3.35 
   0   4  -3  105.50    2.09 
   0  -4   3  102.47    2.18 
   0  -4   3  104.22    2.07 
   1  -4   3    9.25    0.25 
   1  -4   3    9.45    0.26 
   2  -4   3  157.62    3.30 
   2  -4   3  155.99    3.07 
   3  -4   3   33.11    0.80 
   4  -4   3   23.45    0.63 
   5  -4   3   14.09    0.48 
   6  -4   3    1.20    0.22 
   6   3  -3    0.16    0.17 
   6   3  -3    0.26    0.22 
   5   3  -3    0.12    0.18 
   5   3  -3    0.04    0.14 
   4   3  -3    0.46    0.17 
   4   3  -3    0.35    0.14 
   4   3  -3    0.28    0.12 
   3   3  -3   20.64    0.57 
   3   3  -3   21.00    0.57 
   3   3  -3   21.49    0.51 
  -3  -3   3   21.22    0.50 
   2   3  -3   56.48    1.15 
   2   3  -3   55.75    1.22 
  -2  -3   3   56.62    1.16 
   1   3  -3    3.28    0.11 
  -1  -3   3    2.99    0.12 
   0   3  -3  281.96    5.58 
   0  -3   3  288.28    5.49 
   0  -3   3  278.59    5.92 
   1  -3   3   34.15    0.76 
   2  -3   3   69.48    1.51 
   3  -3   3   67.18    1.49 
   4  -3   3    1.60    0.17 
   5  -3   3    2.78    0.23 
   6  -3   3    2.04    0.25 
   6   2  -3    0.05    0.16 
   6   2  -3   -0.09    0.19 
   5   2  -3    5.50    0.33 
   5   2  -3    5.95    0.29 
   5   2  -3    5.32    0.30 
   4   2  -3    0.98    0.16 
   4   2  -3    0.64    0.13 
   4   2  -3    0.63    0.17 
   3   2  -3    7.34    0.28 
   3   2  -3    6.93    0.23 
   3   2  -3    7.08    0.28 
  -3  -2   3    7.12    0.21 
   2   2  -3    0.88    0.10 
   2   2  -3    0.95    0.08 
   2   2  -3    1.17    0.15 
  -2  -2   3    0.82    0.08 
   1   2  -3    0.33    0.04 
   1   2  -3    0.29    0.08 
  -1  -2   3    0.25    0.05 
   0   2  -3   86.23    1.69 
   0  -2   3   85.97    1.81 
   1  -2   3    2.48    0.10 
   2  -2   3   10.66    0.28 
   2  -2   3   10.80    0.30 
   3  -2   3   29.68    0.71 
   3  -2   3   29.78    0.68 
   4  -2   3    0.22    0.12 
   4  -2   3    0.46    0.12 
   5  -2   3    3.87    0.25 
   5  -2   3    4.42    0.26 
   6  -2   3    0.84    0.20 
   6  -2   3    0.77    0.18 
   6   1  -3    2.21    0.26 
   6   1  -3    2.21    0.25 
   6   1  -3    1.89    0.23 
   5   1  -3    0.76    0.16 
   5   1  -3    0.69    0.15 
   5   1  -3    0.77    0.19 
   4   1  -3   25.06    0.67 
   4   1  -3   24.81    0.61 
   4   1  -3   24.74    0.66 
   3   1  -3   39.05    0.94 
   3   1  -3   39.76    0.85 
   3   1  -3   39.70    0.90 
  -3  -1   3   38.73    0.81 
   2   1  -3  181.75    3.48 
   2   1  -3  173.63    3.76 
   2   1  -3  178.50    3.61 
   1   1  -3   48.76    1.01 
   1   1  -3   48.06    0.95 
   0  -1   3  246.91    5.18 
   1  -1   3  465.67    9.03 
   1  -1   3  453.76    9.58 
   2  -1   3    1.64    0.10 
   2  -1   3    1.75    0.11 
   3  -1   3   15.70    0.43 
   3  -1   3   15.86    0.42 
   3  -1   3   15.86    0.41 
   4  -1   3    5.07    0.23 
   4  -1   3    5.46    0.28 
   4  -1   3    5.06    0.25 
   5  -1   3    0.12    0.13 
   5  -1   3    0.13    0.13 
   6  -1   3    3.51    0.29 
   6  -1   3    3.80    0.30 
   6   0  -3    2.97    0.30 
   6   0  -3    3.10    0.27 
   6   0  -3    3.07    0.28 
   5   0  -3    0.00    0.15 
   5   0  -3   -0.05    0.12 
   5   0  -3    0.02    0.13 
   4   0  -3    0.09    0.13 
   4   0  -3    0.21    0.13 
   4   0  -3    0.12    0.11 
   3   0  -3   11.39    0.30 
   3   0  -3   11.15    0.37 
   3   0  -3   11.57    0.33 
   2   0  -3   74.45    1.53 
   2   0  -3   72.91    1.47 
   1   0  -3  160.90    3.22 
   0   0   3  258.96    5.58 
   0   0   3  273.91    5.35 
   0   0   3  272.37    5.21 
   1   0   3    0.66    0.06 
   1   0   3    0.74    0.08 
   1   0   3    0.66    0.07 
   1   0   3    0.64    0.06 
   2   0   3   31.47    0.71 
   2   0   3   30.72    0.67 
   2   0   3   31.12    0.68 
   2   0   3   31.14    0.70 
   3   0   3   40.92    0.91 
   3   0   3   41.39    0.95 
   3   0   3   41.63    0.94 
   4   0   3   24.64    0.62 
   4   0   3   24.88    0.63 
   4   0   3   24.31    0.66 
   5   0   3    2.59    0.23 
   5   0   3    3.12    0.28 
   5   0   3    2.81    0.21 
   6   0   3    1.51    0.22 
   6  -1  -3    0.03    0.18 
   6  -1  -3    0.10    0.17 
   5  -1  -3    1.19    0.18 
   5  -1  -3    0.92    0.17 
   4  -1  -3    0.44    0.13 
   4  -1  -3    0.50    0.15 
   3  -1  -3    7.63    0.29 
   3  -1  -3    8.01    0.26 
   2  -1  -3   44.86    0.94 
   2  -1  -3   44.18    1.02 
  -2   1   3   43.93    0.93 
   1  -1  -3  972.46   19.66 
  -1   1   3 1000.00   19.71 
   0   1   3   11.59    0.26 
   0   1   3   11.52    0.25 
   0   1   3   11.31    0.31 
   1   1   3  100.40    2.00 
   1   1   3  102.20    2.07 
   1   1   3  101.79    2.06 
   1   1   3  100.10    2.11 
   2   1   3   10.32    0.28 
   2   1   3    9.72    0.28 
   2   1   3   10.08    0.30 
   2   1   3   10.26    0.25 
   2   1   3    9.88    0.26 
   3   1   3    0.30    0.08 
   3   1   3    0.43    0.10 
   3   1   3    0.38    0.12 
   4   1   3   19.88    0.59 
   4   1   3   20.85    0.53 
   5   1   3    2.37    0.23 
   5   1   3    2.93    0.27 
   6   1   3    2.30    0.29 
   6   1   3    1.89    0.24 
   6  -2  -3    1.69    0.24 
   5  -2  -3   16.97    0.55 
   4  -2  -3   28.07    0.76 
   4  -2  -3   29.15    0.70 
   3  -2  -3   81.74    1.83 
   3  -2  -3   82.67    1.73 
  -3   2   3   84.08    1.70 
   2  -2  -3   10.97    0.34 
   1  -2  -3  109.65    2.28 
  -1   2   3  104.32    2.11 
   0   2   3  179.19    3.54 
   0   2   3  180.13    3.62 
   0   2   3  183.37    3.53 
   1   2   3  109.48    2.30 
   1   2   3  111.53    2.27 
   1   2   3  112.79    2.19 
   1   2   3  109.92    2.20 
   2   2   3   70.06    1.46 
   2   2   3   72.65    1.44 
   2   2   3   70.11    1.52 
   2   2   3   72.34    1.51 
   3   2   3   17.56    0.43 
   3   2   3   16.76    0.49 
   3   2   3   17.07    0.46 
   4   2   3    4.93    0.30 
   4   2   3    5.95    0.27 
   5   2   3    0.11    0.17 
   5   2   3    0.04    0.14 
   6   2   3    0.02    0.20 
   6   2   3    0.19    0.18 
   6  -3  -3    0.37    0.20 
   5  -3  -3    0.44    0.16 
   4  -3  -3    2.92    0.23 
   3  -3  -3    1.43    0.16 
   2  -3  -3    4.08    0.20 
  -2   3   3    4.16    0.14 
   1  -3  -3   36.12    0.81 
  -1   3   3   34.45    0.76 
  -1   3   3   35.28    0.74 
   0   3   3   41.74    0.87 
   0   3   3   41.99    0.87 
   0   3   3   40.97    0.89 
   1   3   3  139.57    2.88 
   1   3   3  142.34    2.79 
   1   3   3  139.77    2.92 
   1   3   3  144.12    2.81 
   2   3   3   69.83    1.44 
   2   3   3   68.15    1.42 
   2   3   3   67.04    1.47 
   3   3   3   30.04    0.72 
   3   3   3   30.17    0.76 
   4   3   3   31.89    0.83 
   4   3   3   31.52    0.79 
   5   3   3    1.56    0.23 
   5   3   3    1.25    0.18 
   6   3   3    0.72    0.25 
   6   3   3    0.46    0.20 
   6  -4  -3   -0.09    0.17 
   5  -4  -3   10.65    0.43 
   4  -4  -3   27.38    0.74 
   3  -4  -3    7.35    0.30 
   2  -4  -3    1.54    0.15 
  -2   4   3    1.49    0.10 
   1  -4  -3    0.37    0.08 
  -1   4   3    0.28    0.08 
  -1   4   3    0.50    0.07 
   0  -4  -3    6.14    0.18 
   0   4   3    5.41    0.18 
   0   4   3    5.51    0.21 
   0   4   3    5.56    0.19 
   1   4   3  156.31    3.16 
   1   4   3  152.87    3.07 
   2   4   3   34.52    0.79 
   2   4   3   35.08    0.82 
   3   4   3    6.63    0.32 
   3   4   3    6.68    0.28 
   4   4   3    0.68    0.15 
   4   4   3    0.60    0.18 
   5   4   3    0.63    0.22 
   5   4   3    0.29    0.16 
   6   4   3    2.62    0.33 
   6  -5  -3    1.97    0.25 
   5  -5  -3    1.68    0.22 
   4  -5  -3    0.42    0.14 
   3  -5  -3    9.11    0.33 
   2  -5  -3   49.11    1.12 
  -2   5   3   48.41    1.06 
   1  -5  -3  164.53    3.36 
  -1   5   3  155.19    3.21 
   0  -5  -3   17.41    0.41 
   0   5   3   18.11    0.44 
   0   5   3   17.26    0.46 
   1   5   3   12.24    0.35 
   1   5   3   12.31    0.35 
   2   5   3   30.77    0.73 
   2   5   3   30.63    0.76 
   3   5   3   32.49    0.83 
   3   5   3   32.47    0.79 
   4   5   3    4.11    0.26 
   4   5   3    3.64    0.30 
   5   5   3    0.33    0.21 
   5   5   3    0.18    0.15 
   6  -6  -3    1.79    0.26 
   5  -6  -3    0.00    0.16 
   4  -6  -3    3.58    0.26 
   3  -6  -3    8.03    0.32 
   2  -6  -3    0.07    0.09 
  -2   6   3    0.11    0.10 
   1  -6  -3   21.91    0.54 
  -1   6   3   22.61    0.58 
   0   6   3   18.31    0.47 
   0   6   3   16.73    0.48 
   1   6   3   28.27    0.69 
   1   6   3   28.85    0.69 
   2   6   3    2.49    0.23 
   2   6   3    2.44    0.20 
   3   6   3    5.21    0.29 
   3   6   3    5.37    0.32 
   4   6   3    0.96    0.18 
   4   6   3    0.67    0.22 
   5   6   3    1.95    0.28 
   5   6   3    1.64    0.25 
   6  -7  -3    0.51    0.22 
   5  -7  -3    1.12    0.21 
   4  -7  -3    3.27    0.26 
   3  -7  -3    0.36    0.13 
  -3   7   3    0.10    0.13 
   2  -7  -3    9.89    0.32 
  -2   7   3    9.15    0.35 
   1  -7  -3   13.19    0.35 
  -1   7   3   12.55    0.41 
   0   7   3   27.22    0.67 
   0   7   3   26.16    0.69 
   1   7   3   11.23    0.37 
   1   7   3   10.91    0.38 
   2   7   3    3.41    0.23 
   2   7   3    3.93    0.27 
   3   7   3    0.76    0.20 
   3   7   3    0.75    0.16 
   4   7   3    1.65    0.23 
   4   7   3    1.99    0.27 
   5   7   3    6.31    0.44 
   5   7   3    6.39    0.41 
   5  -8  -3    0.57    0.20 
   4  -8  -3    7.85    0.37 
  -4   8   3    8.84    0.40 
   3  -8  -3   20.07    0.58 
  -3   8   3   20.19    0.60 
   2  -8  -3   25.76    0.66 
  -1   8   3   24.21    0.66 
   0   8   3   28.37    0.72 
   0   8   3   28.21    0.74 
   1   8   3   12.92    0.44 
   1   8   3   13.80    0.44 
   2   8   3   11.20    0.41 
   2   8   3   11.65    0.42 
   3   8   3    4.21    0.34 
   3   8   3    4.08    0.28 
   4   8   3    0.46    0.23 
   4   8   3    0.20    0.19 
   5  -9  -3    0.01    0.18 
  -5   9   3    0.04    0.19 
   4  -9  -3    0.41    0.17 
  -4   9   3    0.28    0.19 
   3  -9  -3    0.12    0.14 
  -3   9   3    0.14    0.16 
  -2   9   3    1.46    0.20 
  -1   9   3    8.92    0.37 
   0   9   3    3.25    0.25 
   0   9   3    3.14    0.25 
   1   9   3    1.34    0.18 
   1   9   3    1.70    0.21 
   2   9   3    0.59    0.21 
   2   9   3    0.58    0.17 
   3   9   3    2.17    0.27 
   3   9   3    1.93    0.25 
   4   9   3    0.11    0.21 
   4   9   3    0.31    0.24 
   5 -10  -3    1.33    0.26 
  -5  10   3    2.11    0.30 
   4 -10  -3    1.22    0.22 
  -4  10   3    0.91    0.23 
  -3  10   3    2.30    0.26 
  -2  10   3   19.66    0.63 
  -1  10   3    2.69    0.26 
   0  10   3    3.37    0.26 
   1  10   3    0.24    0.13 
   1  10   3    0.03    0.17 
   2  10   3    0.20    0.16 
   2  10   3    0.14    0.20 
   3  10   3    0.24    0.22 
   3  10   3    0.23    0.19 
  -4  11   3    1.49    0.28 
  -3  11   3    3.01    0.32 
  -2  11   3   18.58    0.63 
  -1  11   3   18.47    0.60 
   0  11   3    6.28    0.35 
   1  11   3    4.85    0.31 
   2  11   3    7.91    0.41 
   2  11   3    7.42    0.41 
   3  11   3    0.91    0.27 
   3  11   3    0.93    0.28 
  -3  12   3    0.48    0.22 
  -2  12   3    2.48    0.28 
  -1  12   3    1.86    0.25 
   0  12   3    2.26    0.27 
   1  12   3    0.70    0.19 
   2  12   3   -0.15    0.18 
  -2  13   3    0.38    0.22 
  -1  13   3    0.42    0.21 
   0  13   3    4.23    0.35 
   0  14  -4   -0.03    0.17 
   0 -14   4    0.05    0.21 
  -1  14  -4    1.08    0.25 
   1 -14   4    0.99    0.23 
   2  13  -4    4.00    0.35 
   1  13  -4   11.73    0.48 
   1  13  -4   11.85    0.57 
  -1 -13   4   10.88    0.48 
   0  13  -4   14.37    0.55 
  -1  13  -4   19.04    0.66 
   1 -13   4   19.83    0.63 
  -2  13  -4   11.06    0.52 
   2 -13   4    9.96    0.45 
  -3  13  -4    9.96    0.52 
  -3 -12   4    0.69    0.22 
   2  12  -4    0.03    0.19 
   2  12  -4   -0.02    0.22 
  -2 -12   4    0.20    0.18 
   1  12  -4    5.24    0.33 
   1  12  -4    6.01    0.41 
  -1 -12   4    5.73    0.34 
   0  12  -4    3.50    0.31 
   0 -12   4    2.94    0.27 
  -1  12  -4   16.60    0.57 
   1 -12   4   16.51    0.55 
  -2  12  -4    3.17    0.31 
   2 -12   4    2.75    0.26 
  -3  12  -4    0.72    0.22 
   4 -12   4    1.35    0.24 
   3  11  -4   -0.09    0.24 
   3  11  -4   -0.24    0.17 
  -3 -11   4    0.07    0.18 
   2  11  -4    4.85    0.38 
   2  11  -4    3.84    0.31 
  -2 -11   4    3.87    0.29 
   1  11  -4    0.14    0.14 
   1  11  -4   -0.08    0.20 
  -1 -11   4    0.17    0.16 
   0  11  -4    1.98    0.23 
   0 -11   4    1.69    0.20 
  -1  11  -4   18.68    0.61 
   1 -11   4   18.98    0.57 
  -2  11  -4   -0.14    0.14 
   2 -11   4    0.19    0.14 
  -3  11  -4    0.57    0.18 
   3 -11   4    0.66    0.17 
  -4  11  -4    0.29    0.20 
   4 -11   4    0.34    0.20 
   4  10  -4   -0.14    0.27 
  -4 -10   4   -0.16    0.18 
   3  10  -4    1.22    0.20 
   3  10  -4    0.97    0.26 
  -3 -10   4    0.94    0.20 
   2  10  -4    9.99    0.42 
   2  10  -4   10.62    0.49 
  -2 -10   4   11.24    0.42 
   1  10  -4   60.62    1.39 
  -1 -10   4   59.81    1.36 
   0  10  -4    8.74    0.38 
   0 -10   4    8.73    0.35 
  -1  10  -4   21.92    0.65 
   1 -10   4   22.02    0.61 
  -2  10  -4   32.19    0.85 
   2 -10   4   31.11    0.79 
   2 -10   4   31.87    0.79 
  -3  10  -4   11.21    0.45 
   3 -10   4   11.27    0.42 
   4 -10   4    6.33    0.35 
   5 -10   4    4.68    0.35 
   4   9  -4    0.91    0.28 
  -4  -9   4    0.20    0.17 
   3   9  -4    1.61    0.28 
   3   9  -4    1.91    0.20 
  -3  -9   4    1.28    0.19 
   2   9  -4    2.65    0.29 
   2   9  -4    2.73    0.23 
  -2  -9   4    2.22    0.21 
   1   9  -4    0.30    0.14 
  -1  -9   4    0.28    0.11 
   0   9  -4    0.53    0.15 
   0  -9   4    0.35    0.11 
  -1   9  -4   12.70    0.44 
   1  -9   4   11.98    0.39 
   1  -9   4   12.63    0.37 
  -2   9  -4    5.27    0.28 
   2  -9   4    5.38    0.26 
   2  -9   4    5.52    0.26 
  -3   9  -4   19.36    0.59 
   3  -9   4   18.56    0.57 
   4  -9   4    1.38    0.20 
   5  -9   4    2.51    0.27 
   5   8  -4    0.30    0.28 
   4   8  -4    1.69    0.29 
   4   8  -4    1.62    0.21 
  -4  -8   4    1.75    0.22 
   3   8  -4    5.23    0.37 
   3   8  -4    5.19    0.27 
  -3  -8   4    5.47    0.29 
   2   8  -4    0.64    0.20 
   2   8  -4    0.80    0.15 
  -2  -8   4    0.58    0.14 
   1   8  -4   14.15    0.47 
  -1  -8   4   15.72    0.44 
   0   8  -4   19.55    0.55 
   0  -8   4   20.15    0.49 
   0  -8   4   18.71    0.52 
  -1   8  -4    6.90    0.30 
   1  -8   4    6.23    0.24 
   1  -8   4    6.46    0.27 
  -2   8  -4    2.26    0.20 
   2  -8   4    2.03    0.18 
   2  -8   4    2.04    0.17 
   3  -8   4    0.46    0.13 
   4  -8   4    3.09    0.27 
   5  -8   4    0.00    0.17 
   5   7  -4    3.70    0.38 
   4   7  -4   15.50    0.48 
   4   7  -4   15.32    0.59 
  -4  -7   4   15.90    0.49 
   3   7  -4   21.27    0.65 
   3   7  -4   20.27    0.54 
  -3  -7   4   19.50    0.56 
   2   7  -4   43.25    0.97 
   2   7  -4   43.12    1.09 
  -2  -7   4   44.82    1.00 
   1   7  -4   15.61    0.47 
  -1  -7   4   18.22    0.46 
  -1  -7   4   15.41    0.45 
   0   7  -4   80.01    1.68 
   0  -7   4   76.43    1.65 
   0  -7   4   80.72    1.70 
  -1   7  -4  153.15    3.07 
   1  -7   4  152.23    3.04 
   1  -7   4  150.67    3.21 
   2  -7   4   71.89    1.51 
   2  -7   4   72.99    1.61 
   3  -7   4   62.10    1.42 
   4  -7   4   41.01    1.03 
   5  -7   4    7.69    0.38 
   6  -7   4    0.61    0.22 
   5   6  -4    0.30    0.22 
   4   6  -4    3.79    0.24 
   4   6  -4    4.35    0.34 
   3   6  -4    5.48    0.34 
   3   6  -4    5.41    0.24 
  -3  -6   4    5.02    0.24 
   2   6  -4   10.92    0.42 
   2   6  -4   10.83    0.32 
  -2  -6   4   10.84    0.34 
   1   6  -4   35.81    0.82 
  -1  -6   4   38.14    0.81 
  -1  -6   4   33.85    0.84 
   0   6  -4   36.36    0.83 
   0  -6   4   34.97    0.81 
   0  -6   4   36.98    0.82 
  -1   6  -4   12.16    0.34 
   1  -6   4   11.86    0.33 
   1  -6   4   11.77    0.33 
   2  -6   4   65.77    1.46 
   2  -6   4   65.67    1.36 
   3  -6   4   10.11    0.35 
   4  -6   4    0.72    0.15 
   5  -6   4    5.32    0.32 
   6  -6   4    0.09    0.20 
   6   5  -4    1.15    0.29 
   5   5  -4    0.48    0.22 
   5   5  -4    0.41    0.15 
   4   5  -4    0.53    0.19 
   4   5  -4    0.44    0.13 
   3   5  -4    7.45    0.35 
   3   5  -4    7.43    0.34 
   3   5  -4    7.13    0.27 
  -3  -5   4    7.67    0.28 
   2   5  -4   24.13    0.54 
   2   5  -4   23.32    0.64 
  -2  -5   4   23.15    0.56 
   1   5  -4   27.67    0.62 
  -1  -5   4   27.52    0.63 
  -1  -5   4   27.34    0.66 
   0   5  -4    1.96    0.14 
   0  -5   4    1.81    0.12 
   0  -5   4    1.94    0.11 
   1  -5   4    0.33    0.07 
   1  -5   4    0.10    0.07 
   2  -5   4   31.54    0.68 
   2  -5   4   29.92    0.74 
   3  -5   4    0.64    0.12 
   4  -5   4   21.18    0.60 
   5  -5   4    0.65    0.17 
   6  -5   4    1.83    0.25 
   6   4  -4    0.51    0.24 
   5   4  -4    7.00    0.33 
   5   4  -4    6.99    0.39 
   4   4  -4    9.43    0.39 
   4   4  -4    8.54    0.36 
   4   4  -4    8.98    0.32 
   3   4  -4   24.81    0.65 
   3   4  -4   24.23    0.57 
   3   4  -4   23.87    0.66 
  -3  -4   4   23.49    0.57 
   2   4  -4  111.04    2.20 
   2   4  -4  112.21    2.34 
  -2  -4   4  108.76    2.22 
   1   4  -4  130.35    2.57 
  -1  -4   4  130.79    2.75 
  -1  -4   4  129.34    2.59 
   0   4  -4  542.43   10.70 
   0  -4   4  555.38   10.54 
   0  -4   4  539.36   11.44 
   1  -4   4  308.81    5.94 
   1  -4   4  302.55    6.34 
   2  -4   4   68.23    1.38 
   2  -4   4   68.33    1.50 
   3  -4   4   22.84    0.59 
   4  -4   4   21.55    0.60 
   5  -4   4   10.04    0.40 
   6  -4   4    5.38    0.35 
   6   3  -4    0.20    0.22 
   5   3  -4    0.07    0.15 
   5   3  -4   -0.03    0.13 
   5   3  -4   -0.06    0.19 
   4   3  -4    0.24    0.10 
   4   3  -4   -0.02    0.15 
   4   3  -4    0.12    0.13 
   3   3  -4    1.28    0.19 
   3   3  -4    1.49    0.18 
  -3  -3   4    1.37    0.12 
   2   3  -4   18.83    0.42 
   2   3  -4   18.90    0.49 
  -2  -3   4   18.30    0.44 
   1   3  -4    5.60    0.15 
  -1  -3   4    5.10    0.18 
   0   3  -4    1.01    0.07 
   0  -3   4    0.83    0.08 
   0  -3   4    0.90    0.08 
   1  -3   4   24.94    0.54 
   1  -3   4   24.10    0.57 
   2  -3   4   10.95    0.28 
   2  -3   4   11.30    0.32 
   3  -3   4    0.45    0.11 
   4  -3   4   10.46    0.36 
   5  -3   4    0.33    0.15 
   6  -3   4    0.23    0.18 
   6   2  -4    0.65    0.22 
   6   2  -4    0.57    0.20 
   5   2  -4    0.29    0.15 
   5   2  -4    0.02    0.17 
   5   2  -4    0.22    0.13 
   4   2  -4    9.91    0.38 
   4   2  -4    9.45    0.38 
   4   2  -4   10.41    0.33 
   3   2  -4   52.37    1.08 
   3   2  -4   51.15    1.15 
   3   2  -4   50.47    1.21 
  -3  -2   4   51.19    1.07 
   2   2  -4   36.64    0.83 
  -2  -2   4   37.34    0.79 
   1   2  -4   81.01    1.57 
  -1  -2   4   79.91    1.61 
   0  -2   4   76.82    1.52 
   0  -2   4   75.27    1.61 
   1  -2   4   69.70    1.50 
   1  -2   4   69.60    1.40 
   2  -2   4   19.44    0.46 
   2  -2   4   19.45    0.44 
   2  -2   4   19.83    0.49 
   3  -2   4    4.40    0.20 
   3  -2   4    4.42    0.20 
   4  -2   4    2.06    0.19 
   4  -2   4    1.52    0.16 
   5  -2   4    1.24    0.18 
   5  -2   4    1.21    0.18 
   6  -2   4    1.23    0.22 
   6  -2   4    0.82    0.19 
   6   1  -4    2.92    0.28 
   6   1  -4    2.30    0.26 
   6   1  -4    2.10    0.23 
   5   1  -4    2.23    0.24 
   5   1  -4    2.30    0.23 
   5   1  -4    2.04    0.19 
   4   1  -4    0.37    0.15 
   4   1  -4    0.30    0.11 
   4   1  -4    0.32    0.15 
   3   1  -4    6.42    0.21 
   3   1  -4    6.46    0.25 
   3   1  -4    6.10    0.29 
  -3  -1   4    6.29    0.20 
   2   1  -4   25.55    0.54 
   2   1  -4   25.36    0.58 
  -2  -1   4   25.22    0.55 
   1   1  -4   79.16    1.63 
  -1  -1   4   79.82    1.59 
   0  -1   4  110.24    2.14 
   0  -1   4  106.09    2.27 
   1  -1   4   30.92    0.63 
   1  -1   4   29.98    0.64 
   1  -1   4   30.35    0.68 
   2  -1   4   69.62    1.40 
   2  -1   4   70.71    1.51 
   2  -1   4   69.41    1.43 
   3  -1   4    3.85    0.18 
   3  -1   4    4.01    0.19 
   4  -1   4   10.64    0.36 
   4  -1   4   10.97    0.36 
   5  -1   4    0.44    0.15 
   5  -1   4    0.57    0.15 
   6  -1   4    0.22    0.19 
   6  -1   4    0.10    0.17 
   6   0  -4    0.09    0.17 
   6   0  -4    0.22    0.20 
   5   0  -4    0.08    0.14 
   5   0  -4    0.13    0.15 
   5   0  -4    0.15    0.13 
   4   0  -4    0.16    0.13 
   4   0  -4   -0.07    0.10 
   4   0  -4   -0.06    0.13 
   3   0  -4   18.72    0.55 
   3   0  -4   19.78    0.45 
   3   0  -4   19.61    0.49 
  -3   0   4   19.16    0.44 
   2   0  -4   24.75    0.67 
   2   0  -4   26.26    0.58 
  -2   0   4   26.13    0.56 
   1   0  -4    8.22    0.20 
  -1   0   4    8.48    0.24 
  -1   0   4    8.10    0.22 
   0   0   4    6.65    0.19 
   0   0   4    6.90    0.21 
   0   0   4    6.77    0.19 
   1   0   4   28.57    0.64 
   1   0   4   29.45    0.61 
   1   0   4   27.90    0.64 
   1   0   4   29.01    0.62 
   2   0   4  149.43    3.11 
   2   0   4  150.97    3.01 
   2   0   4  154.13    3.18 
   2   0   4  153.39    2.97 
   2   0   4  151.36    3.06 
   3   0   4   11.96    0.35 
   3   0   4   11.85    0.37 
   3   0   4   11.59    0.34 
   4   0   4    8.93    0.36 
   4   0   4    8.73    0.31 
   4   0   4    8.42    0.32 
   5   0   4    1.26    0.18 
   5   0   4    1.68    0.23 
   5   0   4    1.26    0.17 
   6   0   4    2.78    0.27 
   6  -1  -4    4.57    0.33 
   6  -1  -4    4.88    0.35 
   5  -1  -4    0.25    0.16 
   5  -1  -4    0.21    0.15 
   4  -1  -4   10.24    0.34 
   4  -1  -4    9.61    0.39 
   3  -1  -4   13.10    0.44 
   3  -1  -4   13.80    0.37 
  -3   1   4   14.80    0.34 
  -3   1   4   13.49    0.33 
   2  -1  -4   30.63    0.66 
  -2   1   4   31.15    0.68 
  -2   1   4   30.42    0.65 
  -1   1   4   49.20    1.06 
  -1   1   4   49.03    1.00 
  -1   1   4   50.68    1.02 
   0   1   4   24.93    0.52 
   0   1   4   25.27    0.55 
   0   1   4   24.78    0.57 
   0   1   4   25.00    0.58 
   1   1   4  139.37    2.79 
   1   1   4  137.39    2.70 
   1   1   4  135.44    2.85 
   1   1   4  134.18    2.78 
   1   1   4  139.20    2.70 
   2   1   4   11.70    0.32 
   2   1   4   11.98    0.33 
   2   1   4   11.49    0.33 
   2   1   4   12.01    0.31 
   2   1   4   12.25    0.30 
   3   1   4    5.97    0.23 
   3   1   4    5.92    0.23 
   3   1   4    5.23    0.21 
   3   1   4    5.98    0.19 
   3   1   4    6.09    0.26 
   4   1   4    0.92    0.18 
   4   1   4    0.85    0.14 
   4   1   4    1.17    0.13 
   5   1   4    0.01    0.17 
   5   1   4   -0.04    0.14 
   6   1   4    1.38    0.26 
   6   1   4    0.95    0.21 
   6  -2  -4   -0.02    0.17 
   5  -2  -4    1.72    0.21 
   4  -2  -4    8.96    0.31 
   4  -2  -4    8.75    0.37 
   3  -2  -4   22.76    0.62 
   3  -2  -4   22.32    0.53 
  -3   2   4   22.84    0.53 
   2  -2  -4    6.81    0.28 
  -2   2   4    6.61    0.23 
  -2   2   4    6.76    0.20 
  -1   2   4   46.19    0.95 
  -1   2   4   45.40    0.95 
   0   2   4  169.56    3.33 
   0   2   4  176.32    3.34 
   0   2   4  163.78    3.40 
   1   2   4   43.36    0.90 
   1   2   4   43.08    0.90 
   1   2   4   42.45    0.92 
   1   2   4   43.69    0.92 
   2   2   4    7.22    0.26 
   2   2   4    7.07    0.21 
   2   2   4    7.28    0.22 
   2   2   4    7.44    0.24 
   3   2   4   26.10    0.64 
   3   2   4   25.82    0.67 
   3   2   4   25.50    0.61 
   3   2   4   26.42    0.64 
   4   2   4   30.11    0.77 
   4   2   4   31.77    0.81 
   5   2   4    7.59    0.40 
   5   2   4    6.86    0.34 
   6   2   4    0.39    0.23 
   6   2   4    0.28    0.19 
   6  -3  -4    0.04    0.17 
   5  -3  -4    0.11    0.15 
   4  -3  -4    4.57    0.28 
   3  -3  -4   19.44    0.56 
  -3   3   4   19.91    0.50 
   2  -3  -4  112.01    2.42 
  -2   3   4  111.31    2.21 
   1  -3  -4   16.92    0.46 
  -1   3   4   16.00    0.41 
  -1   3   4   17.33    0.40 
   0   3   4    0.39    0.08 
   0   3   4    0.31    0.07 
   0   3   4    0.37    0.06 
   1   3   4  153.51    3.06 
   1   3   4  146.53    2.91 
   1   3   4  143.55    2.92 
   1   3   4  145.83    3.00 
   2   3   4   92.73    1.93 
   2   3   4   90.90    1.94 
   2   3   4   91.92    1.86 
   2   3   4   91.39    1.88 
   3   3   4   11.46    0.39 
   3   3   4   11.08    0.36 
   3   3   4   11.32    0.39 
   4   3   4    6.35    0.30 
   4   3   4    6.36    0.34 
   5   3   4    0.21    0.18 
   5   3   4   -0.04    0.14 
   6   3   4    1.16    0.26 
   6   3   4    0.90    0.22 
   6  -4  -4   -0.02    0.18 
   5  -4  -4    3.04    0.29 
   4  -4  -4   27.60    0.76 
   3  -4  -4   64.03    1.47 
   2  -4  -4  140.13    3.05 
  -2   4   4  146.34    2.85 
  -2   4   4  141.15    2.81 
   1  -4  -4   24.23    0.59 
  -1   4   4   23.66    0.57 
  -1   4   4   23.95    0.55 
   0  -4  -4   37.35    0.85 
   0   4   4   37.40    0.81 
   0   4   4   36.93    0.80 
   0   4   4   37.69    0.83 
   1   4   4   65.26    1.39 
   1   4   4   62.50    1.36 
   1   4   4   68.90    1.38 
   2   4   4   22.13    0.57 
   2   4   4   21.97    0.55 
   3   4   4  115.97    2.49 
   3   4   4  117.29    2.41 
   4   4   4    5.47    0.29 
   4   4   4    5.77    0.33 
   5   4   4   -0.01    0.15 
   5   4   4    0.16    0.19 
   6  -5  -4    1.17    0.25 
   5  -5  -4    0.15    0.15 
   4  -5  -4    6.13    0.31 
   3  -5  -4    9.92    0.36 
   2  -5  -4   11.69    0.37 
  -2   5   4   11.04    0.31 
  -2   5   4   11.34    0.35 
   1  -5  -4   72.03    1.53 
  -1   5   4   70.82    1.45 
  -1   5   4   66.40    1.47 
   0  -5  -4   88.57    1.87 
   0   5   4   87.96    1.82 
   0   5   4   87.37    1.83 
   1   5   4   54.10    1.17 
   1   5   4   54.20    1.18 
   2   5   4    5.46    0.24 
   2   5   4    5.42    0.27 
   3   5   4    5.31    0.32 
   3   5   4    4.90    0.26 
   4   5   4    1.03    0.18 
   4   5   4    1.03    0.21 
   5   5   4    2.40    0.30 
   5   5   4    1.86    0.23 
   6  -6  -4    0.60    0.21 
   5  -6  -4    0.02    0.16 
   4  -6  -4    1.52    0.20 
   3  -6  -4    0.01    0.13 
  -3   6   4   -0.10    0.11 
   2  -6  -4    1.44    0.15 
  -2   6   4    1.48    0.17 
   1  -6  -4    0.01    0.09 
  -1   6   4    0.11    0.11 
   0   6   4   47.62    1.04 
   0   6   4   47.12    1.07 
   1   6   4    0.73    0.12 
   1   6   4    0.57    0.14 
   2   6   4    7.33    0.34 
   2   6   4    7.64    0.30 
   3   6   4    4.69    0.30 
   3   6   4    5.31    0.29 
   4   6   4    1.13    0.19 
   4   6   4    0.99    0.23 
   5   6   4    0.28    0.23 
   5   6   4    0.50    0.19 
   6  -7  -4    1.33    0.25 
   5  -7  -4    7.33    0.38 
   4  -7  -4    4.28    0.28 
  -4   7   4    5.33    0.32 
   3  -7  -4   14.24    0.46 
  -3   7   4   15.01    0.48 
   2  -7  -4    9.35    0.33 
  -2   7   4    8.70    0.35 
  -1   7   4   50.99    1.16 
   0   7   4   77.35    1.65 
   0   7   4   75.88    1.64 
   1   7   4    7.06    0.30 
   1   7   4    6.44    0.29 
   2   7   4   10.80    0.38 
   2   7   4   10.32    0.40 
   3   7   4    0.36    0.19 
   3   7   4    0.63    0.18 
   4   7   4    0.28    0.18 
   4   7   4    0.01    0.19 
   5   7   4    0.85    0.26 
   5  -8  -4   -0.09    0.17 
  -5   8   4    0.34    0.20 
   4  -8  -4    0.89    0.18 
  -4   8   4    0.87    0.19 
   3  -8  -4    3.85    0.26 
  -3   8   4    4.04    0.28 
   2  -8  -4   15.39    0.45 
  -2   8   4   15.30    0.50 
  -1   8   4    3.87    0.25 
   0   8   4    1.25    0.17 
   1   8   4   14.81    0.46 
   1   8   4   14.64    0.46 
   2   8   4    1.10    0.18 
   2   8   4    0.92    0.20 
   3   8   4    3.35    0.30 
   3   8   4    3.02    0.28 
   4   8   4    0.99    0.23 
   4   8   4    0.67    0.24 
   5  -9  -4    0.33    0.21 
  -5   9   4    0.13    0.20 
   4  -9  -4    0.09    0.16 
  -4   9   4   -0.30    0.16 
   3  -9  -4   -0.05    0.13 
  -3   9   4    0.08    0.16 
  -2   9   4    0.77    0.18 
  -1   9   4    0.40    0.14 
   0   9   4    0.12    0.13 
   1   9   4    1.21    0.19 
   1   9   4    0.89    0.16 
   2   9   4    2.86    0.26 
   2   9   4    3.12    0.30 
   3   9   4    0.21    0.20 
   3   9   4    0.45    0.18 
   4   9   4    1.01    0.25 
   4   9   4    1.20    0.28 
   5 -10  -4    0.15    0.22 
  -5  10   4    0.09    0.22 
   4 -10  -4    0.63    0.19 
  -4  10   4    0.83    0.24 
  -3  10   4    1.12    0.22 
  -2  10   4    0.72    0.19 
  -1  10   4   13.02    0.49 
   0  10   4    2.87    0.26 
   1  10   4    0.52    0.15 
   2  10   4    3.56    0.31 
   3  10   4    0.23    0.22 
   3  10   4    0.14    0.20 
  -4  11   4    1.55    0.27 
  -3  11   4    5.76    0.41 
  -2  11   4    1.57    0.23 
  -1  11   4    4.72    0.33 
   0  11   4   21.09    0.67 
   1  11   4    4.02    0.30 
   2  11   4    3.41    0.31 
  -3  12   4    0.15    0.22 
  -2  12   4    0.16    0.19 
  -1  12   4    0.13    0.18 
   0  12   4    0.48    0.18 
   1  12   4   -0.12    0.15 
  -1  13   4    3.43    0.33 
   0  14  -5    8.21    0.43 
   0 -14   5    7.61    0.44 
  -1  14  -5    1.51    0.26 
   1 -14   5    1.46    0.26 
  -2 -13   5    3.83    0.35 
   1  13  -5    7.08    0.47 
  -1 -13   5    7.01    0.41 
   0  13  -5    4.97    0.36 
  -1  13  -5    8.98    0.45 
   1 -13   5    9.17    0.42 
  -2  13  -5   16.67    0.64 
   2 -13   5   15.91    0.57 
  -3  13  -5   10.41    0.54 
  -3 -12   5   -0.18    0.19 
   2  12  -5    0.27    0.23 
  -2 -12   5    0.50    0.20 
   1  12  -5    0.64    0.24 
   1  12  -5    0.77    0.18 
  -1 -12   5    0.61    0.20 
   0  12  -5    5.41    0.34 
   0 -12   5    4.73    0.33 
  -1  12  -5    1.51    0.22 
   1 -12   5    1.66    0.23 
  -2  12  -5   10.78    0.48 
   2 -12   5    9.99    0.42 
  -3  12  -5    2.95    0.32 
   3 -12   5    2.74    0.26 
   3  11  -5   -0.08    0.24 
  -3 -11   5    0.08    0.18 
   2  11  -5    0.34    0.22 
  -2 -11   5    0.13    0.16 
   1  11  -5    6.23    0.33 
   0  11  -5    7.78    0.37 
  -1  11  -5    3.77    0.29 
   1 -11   5    3.94    0.27 
  -2  11  -5    3.77    0.31 
   2 -11   5    4.13    0.26 
   2 -11   5    3.94    0.28 
  -3  11  -5    2.97    0.29 
   3 -11   5    3.17    0.28 
  -4  11  -5    2.83    0.30 
   4 -11   5    3.06    0.32 
   4  10  -5    1.55    0.32 
  -4 -10   5    1.47    0.24 
   3  10  -5    5.53    0.43 
  -3 -10   5    5.54    0.33 
   2  10  -5    8.01    0.37 
   2  10  -5    8.51    0.46 
  -2 -10   5    9.45    0.39 
   1  10  -5    5.59    0.30 
  -1 -10   5    4.69    0.28 
   0  10  -5   49.43    1.16 
   0 -10   5   47.77    1.13 
  -1  10  -5   42.70    1.04 
   1 -10   5   42.01    0.99 
   1 -10   5   41.36    0.99 
  -2  10  -5   35.49    0.91 
   2 -10   5   35.86    0.88 
   2 -10   5   33.43    0.85 
  -3  10  -5   22.90    0.68 
   3 -10   5   23.84    0.67 
   4 -10   5    0.31    0.19 
   5 -10   5    1.99    0.28 
   4   9  -5    1.06    0.29 
  -4  -9   5    0.79    0.19 
   3   9  -5    0.77    0.25 
  -3  -9   5    0.49    0.17 
   2   9  -5    4.78    0.27 
   2   9  -5    4.85    0.37 
  -2  -9   5    4.76    0.27 
   1   9  -5   12.17    0.42 
  -1  -9   5   11.63    0.41 
   0   9  -5   31.17    0.80 
   0  -9   5   30.67    0.78 
   0  -9   5   32.34    0.76 
  -1   9  -5    0.53    0.14 
   1  -9   5    0.55    0.11 
   1  -9   5    0.41    0.13 
  -2   9  -5    2.84    0.21 
   2  -9   5    2.56    0.20 
   2  -9   5    2.30    0.20 
   3  -9   5    6.40    0.31 
   4  -9   5   13.43    0.49 
   5  -9   5    2.33    0.28 
   5   8  -5    0.17    0.28 
   4   8  -5    1.50    0.30 
  -4  -8   5    1.11    0.19 
   3   8  -5    0.27    0.21 
  -3  -8   5    0.22    0.15 
   2   8  -5    4.51    0.23 
   2   8  -5    4.46    0.34 
  -2  -8   5    4.67    0.25 
   1   8  -5   54.70    1.26 
  -1  -8   5   58.94    1.26 
   0   8  -5    5.30    0.28 
   0  -8   5    5.54    0.22 
   0  -8   5    5.23    0.25 
  -1   8  -5    7.27    0.31 
   1  -8   5    8.36    0.31 
   1  -8   5    7.57    0.27 
  -2   8  -5    1.81    0.18 
   2  -8   5    1.82    0.17 
   2  -8   5    1.88    0.18 
   3  -8   5    4.65    0.26 
   4  -8   5   10.91    0.43 
   5  -8   5    3.80    0.31 
   5   7  -5    2.14    0.33 
   4   7  -5    4.68    0.41 
  -4  -7   5    4.07    0.27 
   3   7  -5   28.60    0.80 
   3   7  -5   25.85    0.66 
  -3  -7   5   27.15    0.69 
   2   7  -5   64.77    1.33 
   2   7  -5   61.43    1.47 
  -2  -7   5   61.24    1.35 
   1   7  -5  104.17    2.09 
  -1  -7   5  110.51    2.09 
  -1  -7   5   88.30    2.18 
   0   7  -5   31.73    0.78 
   0  -7   5   33.93    0.77 
   0  -7   5   32.82    0.77 
  -1   7  -5   53.35    1.17 
   1  -7   5   53.18    1.16 
   1  -7   5   53.86    1.20 
   2  -7   5   52.10    1.20 
   2  -7   5   52.44    1.13 
   3  -7   5   16.76    0.50 
   4  -7   5    4.89    0.29 
   5  -7   5    3.09    0.29 
   6  -7   5    0.42    0.21 
   5   6  -5    0.04    0.21 
   4   6  -5    1.95    0.27 
   3   6  -5    0.01    0.11 
   3   6  -5    0.08    0.19 
  -3  -6   5    0.01    0.10 
   2   6  -5   15.39    0.39 
   2   6  -5   15.48    0.52 
  -2  -6   5   14.41    0.42 
   1   6  -5    1.11    0.12 
  -1  -6   5    1.12    0.13 
  -1  -6   5    1.02    0.14 
   0   6  -5    4.07    0.20 
   0  -6   5    3.86    0.17 
   0  -6   5    3.84    0.18 
  -1   6  -5   14.22    0.38 
   1  -6   5   14.33    0.39 
   1  -6   5   14.19    0.39 
   2  -6   5   42.65    0.99 
   2  -6   5   42.31    0.93 
   3  -6   5   15.84    0.48 
   4  -6   5    1.13    0.17 
   5  -6   5    0.05    0.15 
   6  -6   5    0.26    0.19 
   6   5  -5    0.13    0.25 
   5   5  -5    0.69    0.23 
   4   5  -5   13.00    0.49 
   3   5  -5   19.58    0.62 
   3   5  -5   19.23    0.58 
   3   5  -5   19.51    0.49 
  -3  -5   5   18.83    0.51 
   2   5  -5   17.02    0.41 
   2   5  -5   17.41    0.52 
  -2  -5   5   16.23    0.44 
   1   5  -5   25.79    0.57 
  -1  -5   5   25.20    0.59 
  -1  -5   5   24.49    0.63 
   0   5  -5    9.65    0.28 
   0  -5   5    9.40    0.27 
   0  -5   5    9.05    0.28 
   1  -5   5  107.06    2.30 
   1  -5   5  108.78    2.17 
   2  -5   5   39.45    0.85 
   2  -5   5   38.84    0.92 
   3  -5   5    0.61    0.13 
   4  -5   5    0.13    0.12 
   5  -5   5    1.19    0.19 
   6  -5   5    0.93    0.22 
   6   4  -5    3.91    0.37 
   5   4  -5   10.94    0.48 
   4   4  -5    0.66    0.13 
   4   4  -5    0.82    0.18 
   4   4  -5    0.95    0.20 
   3   4  -5   19.09    0.46 
   3   4  -5   18.11    0.54 
   3   4  -5   18.14    0.59 
  -3  -4   5   17.73    0.47 
   2   4  -5   20.33    0.45 
   2   4  -5   19.43    0.55 
  -2  -4   5   19.44    0.49 
   1   4  -5   98.68    1.94 
  -1  -4   5   96.54    2.11 
  -1  -4   5   99.60    1.98 
   0   4  -5  113.18    2.24 
   0  -4   5  112.54    2.38 
   0  -4   5  111.99    2.25 
   1  -4   5  126.06    2.68 
   1  -4   5  127.10    2.52 
   2  -4   5   92.15    1.88 
   2  -4   5   94.90    2.03 
   3  -4   5   63.52    1.44 
   4  -4   5    4.79    0.26 
   5  -4   5    1.41    0.19 
   6  -4   5    0.51    0.20 
   6   3  -5    4.54    0.37 
   5   3  -5    1.32    0.21 
   5   3  -5    0.77    0.21 
   4   3  -5    0.73    0.13 
   4   3  -5    0.53    0.17 
   4   3  -5    0.62    0.17 
   3   3  -5    2.91    0.23 
   3   3  -5    3.24    0.16 
   3   3  -5    3.04    0.28 
  -3  -3   5    3.17    0.17 
   2   3  -5    0.23    0.11 
   2   3  -5    0.42    0.06 
  -2  -3   5    0.35    0.08 
   1   3  -5    2.22    0.08 
  -1  -3   5    2.18    0.13 
   0   3  -5   20.59    0.44 
   0  -3   5   19.70    0.49 
   0  -3   5   20.62    0.47 
   1  -3   5   70.82    1.54 
   1  -3   5   70.99    1.44 
   2  -3   5    4.85    0.21 
   2  -3   5    4.85    0.18 
   3  -3   5    7.95    0.29 
   4  -3   5    8.09    0.31 
   4  -3   5    7.38    0.30 
   5  -3   5    2.51    0.25 
   6  -3   5    4.16    0.32 
   6   2  -5    0.28    0.21 
   6   2  -5    0.15    0.18 
   5   2  -5    1.52    0.22 
   5   2  -5    1.99    0.23 
   4   2  -5    3.78    0.29 
   4   2  -5    4.04    0.21 
   4   2  -5    3.67    0.27 
   3   2  -5    0.71    0.19 
   3   2  -5    0.69    0.14 
   3   2  -5    0.76    0.10 
  -3  -2   5    0.63    0.10 
   2   2  -5   95.39    1.89 
   2   2  -5   96.27    2.00 
  -2  -2   5   95.72    1.92 
   1   2  -5    5.83    0.13 
  -1  -2   5    6.19    0.20 
   0  -2   5   89.82    1.77 
   0  -2   5   86.48    1.87 
   1  -2   5  117.49    2.33 
   1  -2   5  118.52    2.31 
   1  -2   5  116.46    2.48 
   2  -2   5   15.22    0.38 
   2  -2   5   15.79    0.42 
   2  -2   5   15.57    0.38 
   3  -2   5   29.84    0.73 
   3  -2   5   30.07    0.69 
   4  -2   5   14.85    0.45 
   4  -2   5   15.32    0.45 
   5  -2   5    2.49    0.23 
   5  -2   5    2.08    0.22 
   6  -2   5    0.88    0.21 
   6  -2   5    1.00    0.21 
   6   1  -5    0.43    0.20 
   6   1  -5    0.44    0.20 
   5   1  -5    0.07    0.15 
   5   1  -5    0.32    0.17 
   4   1  -5   15.10    0.47 
   4   1  -5   15.20    0.52 
   4   1  -5   15.86    0.42 
   3   1  -5    9.24    0.31 
   3   1  -5    9.67    0.40 
   3   1  -5    9.90    0.27 
  -3  -1   5    9.78    0.28 
   2   1  -5    5.94    0.21 
   2   1  -5    5.96    0.16 
  -2  -1   5    6.03    0.19 
  -1  -1   5  193.74    3.79 
   0  -1   5  103.48    2.21 
   0  -1   5  105.58    2.09 
   0  -1   5  106.11    2.04 
   1  -1   5   96.47    1.89 
   1  -1   5   92.25    1.87 
   1  -1   5   95.21    2.01 
   2  -1   5  171.17    3.44 
   2  -1   5  174.55    3.42 
   2  -1   5  177.60    3.66 
   3  -1   5   15.94    0.44 
   3  -1   5   16.07    0.43 
   4  -1   5   11.75    0.38 
   4  -1   5   11.26    0.38 
   5  -1   5   13.98    0.47 
   5  -1   5   13.81    0.46 
   6  -1   5    0.45    0.20 
   6   0  -5    0.68    0.21 
   5   0  -5    0.29    0.17 
   5   0  -5    0.22    0.15 
   4   0  -5    0.47    0.17 
   4   0  -5    0.02    0.13 
   3   0  -5    1.72    0.16 
   3   0  -5    1.65    0.22 
  -3   0   5    1.71    0.13 
   2   0  -5    3.05    0.14 
  -2   0   5    3.13    0.14 
   1   0  -5   10.87    0.26 
  -1   0   5   11.63    0.29 
  -1   0   5   10.97    0.24 
  -1   0   5   10.95    0.30 
   0   0   5   28.14    0.65 
   0   0   5   28.86    0.65 
   0   0   5   28.59    0.63 
   0   0   5   29.13    0.58 
   1   0   5    9.84    0.29 
   1   0   5   10.15    0.28 
   1   0   5   10.15    0.25 
   1   0   5   10.11    0.27 
   2   0   5    9.28    0.28 
   2   0   5    9.54    0.27 
   2   0   5    9.82    0.27 
   3   0   5    7.88    0.27 
   3   0   5    8.18    0.24 
   3   0   5    8.20    0.28 
   3   0   5    8.01    0.30 
   4   0   5    4.94    0.24 
   4   0   5    4.44    0.25 
   4   0   5    4.34    0.27 
   5   0   5    0.30    0.15 
   5   0   5    0.31    0.14 
   6   0   5   -0.02    0.18 
   6  -1  -5    0.21    0.18 
   5  -1  -5    6.77    0.36 
   4  -1  -5    5.95    0.25 
   4  -1  -5    5.30    0.31 
   3  -1  -5   33.78    0.77 
   3  -1  -5   32.65    0.87 
  -3   1   5   36.35    0.76 
  -3   1   5   34.47    0.74 
   2  -1  -5   45.03    0.96 
   2  -1  -5   44.97    1.10 
  -2   1   5   46.31    0.96 
  -2   1   5   46.80    1.00 
  -1   1   5    2.05    0.10 
  -1   1   5    2.24    0.15 
  -1   1   5    2.06    0.12 
   0   1   5  184.53    3.50 
   0   1   5  176.34    3.65 
   0   1   5  178.60    3.53 
   1   1   5   34.42    0.71 
   1   1   5   32.93    0.77 
   1   1   5   32.92    0.74 
   1   1   5   33.40    0.73 
   1   1   5   32.95    0.72 
   2   1   5   43.05    0.96 
   2   1   5   42.92    0.92 
   2   1   5   43.04    0.96 
   2   1   5   43.74    0.93 
   3   1   5   11.04    0.33 
   3   1   5   11.09    0.33 
   3   1   5   10.56    0.30 
   3   1   5   10.62    0.34 
   3   1   5   10.73    0.37 
   4   1   5    0.04    0.10 
   4   1   5    0.28    0.15 
   4   1   5    0.05    0.11 
   5   1   5    0.16    0.15 
   5   1   5    0.42    0.19 
   6   1   5    0.08    0.18 
   6  -2  -5    0.08    0.19 
   5  -2  -5    0.29    0.16 
   4  -2  -5    0.19    0.15 
   3  -2  -5    3.57    0.25 
   3  -2  -5    3.94    0.17 
  -3   2   5    3.68    0.19 
  -3   2   5    3.72    0.16 
   2  -2  -5  346.51    7.40 
  -2   2   5  356.94    6.86 
  -2   2   5  357.78    7.08 
  -1   2   5  155.07    2.98 
  -1   2   5  147.17    2.98 
  -1   2   5  150.37    3.09 
   0   2   5   36.29    0.78 
   0   2   5   35.99    0.83 
   0   2   5   36.09    0.74 
   0   2   5   36.26    0.75 
   1   2   5   60.04    1.22 
   1   2   5   58.35    1.25 
   1   2   5   59.26    1.21 
   1   2   5   58.12    1.23 
   1   2   5   57.51    1.28 
   2   2   5    7.56    0.25 
   2   2   5    7.66    0.24 
   2   2   5    7.61    0.27 
   2   2   5    7.40    0.23 
   3   2   5   32.56    0.75 
   3   2   5   32.42    0.77 
   3   2   5   31.35    0.76 
   3   2   5   32.79    0.72 
   3   2   5   32.14    0.80 
   4   2   5   25.27    0.70 
   4   2   5   24.90    0.66 
   5   2   5    0.41    0.20 
   5   2   5    0.27    0.16 
   6   2   5    1.78    0.25 
   6   2   5    1.89    0.29 
   6  -3  -5    0.27    0.20 
   5  -3  -5    0.09    0.16 
   4  -3  -5    5.60    0.31 
   3  -3  -5    1.06    0.18 
  -3   3   5    1.25    0.15 
   2  -3  -5   31.27    0.79 
  -2   3   5   30.57    0.69 
  -2   3   5   30.89    0.68 
   1  -3  -5   13.53    0.42 
  -1   3   5   12.61    0.34 
  -1   3   5   13.18    0.35 
   0   3   5    0.75    0.09 
   0   3   5    0.88    0.07 
   0   3   5    0.84    0.10 
   1   3   5    1.71    0.11 
   1   3   5    1.71    0.14 
   1   3   5    1.52    0.12 
   1   3   5    1.55    0.14 
   2   3   5    7.48    0.21 
   2   3   5    7.40    0.25 
   2   3   5    7.12    0.30 
   2   3   5    6.77    0.26 
   2   3   5    7.44    0.27 
   3   3   5    6.74    0.28 
   3   3   5    6.83    0.33 
   3   3   5    6.61    0.30 
   4   3   5    3.83    0.28 
   5   3   5    1.09    0.24 
   5   3   5    0.61    0.17 
   6  -4  -5    0.45    0.20 
   5  -4  -5    2.01    0.23 
   4  -4  -5   14.82    0.50 
   3  -4  -5   43.65    1.07 
   2  -4  -5   14.13    0.45 
  -2   4   5   14.32    0.37 
  -2   4   5   13.78    0.39 
   1  -4  -5   67.20    1.46 
  -1   4   5   64.89    1.34 
  -1   4   5   65.26    1.33 
  -1   4   5   61.56    1.36 
   0   4   5   55.21    1.14 
   0   4   5   55.82    1.17 
   0   4   5   52.35    1.15 
   1   4   5   28.46    0.66 
   1   4   5   28.11    0.66 
   1   4   5   27.79    0.65 
   2   4   5   14.07    0.43 
   2   4   5   13.88    0.40 
   3   4   5   45.38    1.07 
   3   4   5   44.20    1.03 
   3   4   5   45.31    1.07 
   4   4   5    0.47    0.19 
   4   4   5    0.62    0.16 
   5   4   5    5.81    0.36 
   5   4   5    6.12    0.39 
   6  -5  -5    0.41    0.21 
   5  -5  -5    4.06    0.30 
   4  -5  -5    0.13    0.15 
   3  -5  -5    7.04    0.32 
  -3   5   5    6.66    0.29 
   2  -5  -5   29.83    0.75 
  -2   5   5   28.72    0.67 
  -2   5   5   28.86    0.71 
   1  -5  -5   10.07    0.34 
  -1   5   5    9.72    0.33 
  -1   5   5   10.18    0.31 
   0  -5  -5   47.36    1.05 
   0   5   5   45.46    1.01 
   0   5   5   45.68    1.02 
   1   5   5   22.65    0.57 
   1   5   5   23.48    0.58 
   2   5   5   98.17    2.07 
   2   5   5  100.64    2.12 
   3   5   5   28.54    0.75 
   3   5   5   28.34    0.73 
   4   5   5    3.51    0.31 
   4   5   5    3.59    0.27 
   5   5   5    2.40    0.27 
   5   5   5    1.93    0.28 
   6  -6  -5    0.20    0.21 
   5  -6  -5   -0.14    0.16 
   4  -6  -5    1.57    0.21 
   3  -6  -5   14.10    0.46 
  -3   6   5   13.42    0.43 
   2  -6  -5    3.03    0.21 
  -2   6   5    2.70    0.22 
   1  -6  -5    3.96    0.21 
  -1   6   5    3.58    0.23 
   0   6   5    3.16    0.20 
   1   6   5    0.58    0.12 
   1   6   5    0.33    0.14 
   2   6   5    2.75    0.25 
   2   6   5    2.44    0.21 
   3   6   5   11.73    0.44 
   3   6   5   11.22    0.42 
   4   6   5    0.07    0.16 
   4   6   5    0.49    0.21 
   5   6   5    0.16    0.24 
   5   6   5   -0.23    0.17 
   5  -7  -5    1.20    0.21 
   4  -7  -5    2.45    0.25 
  -4   7   5    2.39    0.24 
   3  -7  -5    5.46    0.28 
  -3   7   5    4.74    0.28 
   2  -7  -5    7.85    0.31 
  -2   7   5    8.06    0.35 
  -1   7   5    7.89    0.33 
   0   7   5    9.88    0.36 
   1   7   5   37.34    0.87 
   1   7   5   35.30    0.86 
   2   7   5    1.35    0.18 
   2   7   5    1.76    0.20 
   3   7   5    6.38    0.35 
   3   7   5    6.15    0.34 
   4   7   5    1.93    0.26 
   4   7   5    2.36    0.28 
   5  -8  -5   -0.03    0.19 
  -5   8   5    0.00    0.19 
   4  -8  -5    0.21    0.17 
  -4   8   5    0.13    0.17 
   3  -8  -5    3.16    0.25 
  -3   8   5    3.15    0.29 
  -2   8   5    4.69    0.30 
  -1   8   5   14.21    0.47 
   0   8   5   16.48    0.51 
   1   8   5   11.35    0.40 
   2   8   5    6.59    0.33 
   2   8   5    7.13    0.36 
   3   8   5    0.78    0.20 
   3   8   5    0.73    0.22 
   4   8   5    5.78    0.43 
   4   8   5    5.90    0.38 
   5  -9  -5   -0.10    0.20 
  -5   9   5    0.19    0.20 
   4  -9  -5    0.41    0.18 
  -4   9   5    0.64    0.21 
  -3   9   5   -0.08    0.16 
  -2   9   5    0.05    0.15 
  -1   9   5    0.51    0.16 
   0   9   5    1.92    0.22 
   1   9   5    2.46    0.24 
   2   9   5    0.27    0.17 
   3   9   5    0.84    0.21 
   4   9   5    0.13    0.24 
  -4  10   5    3.09    0.33 
  -3  10   5    4.85    0.36 
  -2  10   5    3.15    0.30 
  -1  10   5    5.49    0.34 
   0  10   5    5.00    0.32 
   1  10   5    7.29    0.36 
   2  10   5    0.22    0.18 
   3  10   5    2.55    0.29 
  -4  11   5    0.38    0.24 
  -3  11   5    3.91    0.38 
  -2  11   5    3.90    0.32 
  -1  11   5    2.59    0.27 
   0  11   5    0.10    0.15 
   1  11   5    0.75    0.19 
   2  11   5    0.16    0.20 
  -3  12   5    0.67    0.23 
  -2  12   5    0.03    0.19 
  -1  12   5   -0.07    0.18 
   0  12   5    0.03    0.15 
   1  12   5    0.63    0.20 
   1  13  -6    6.98    0.47 
  -1 -13   6    5.58    0.39 
  -1  13  -6   16.65    0.61 
  -2  13  -6   11.71    0.54 
   2 -13   6   11.76    0.48 
   2  12  -6    0.60    0.27 
  -2 -12   6    0.25    0.20 
  -1 -12   6    0.01    0.18 
   0 -12   6    2.91    0.28 
  -1  12  -6    1.39    0.21 
   1 -12   6    1.32    0.22 
  -2  12  -6    1.42    0.24 
   2 -12   6    2.06    0.24 
  -3  12  -6    0.07    0.20 
   3 -12   6    0.50    0.18 
   3  11  -6    7.06    0.51 
  -3 -11   6    7.66    0.40 
   2  11  -6    3.41    0.36 
  -2 -11   6    3.50    0.30 
  -1 -11   6   21.00    0.64 
   0  11  -6   17.37    0.56 
   0 -11   6   16.46    0.55 
  -1  11  -6   16.25    0.55 
   1 -11   6   16.64    0.53 
  -2  11  -6   19.42    0.63 
   2 -11   6   18.66    0.58 
   2 -11   6   19.03    0.57 
  -3  11  -6    4.90    0.35 
   3 -11   6    5.87    0.34 
  -4  11  -6    4.54    0.37 
   4 -11   6    5.05    0.35 
   4  10  -6   -0.33    0.29 
  -4 -10   6   -0.14    0.17 
   3  10  -6    6.62    0.47 
  -3 -10   6    6.41    0.36 
   2  10  -6    4.56    0.39 
  -2 -10   6    3.91    0.29 
  -1 -10   6    3.94    0.27 
   0  10  -6   33.06    0.84 
   0 -10   6   32.21    0.83 
  -1  10  -6   22.16    0.67 
   1 -10   6   23.83    0.62 
   1 -10   6   24.44    0.65 
  -2  10  -6   22.70    0.68 
   2 -10   6   25.36    0.67 
   2 -10   6   23.52    0.65 
  -3  10  -6    9.03    0.41 
   3 -10   6    8.82    0.38 
   4 -10   6    2.42    0.27 
   4   9  -6    2.12    0.35 
  -4  -9   6    2.26    0.25 
   3   9  -6    2.42    0.32 
  -3  -9   6    2.06    0.22 
   2   9  -6    1.77    0.29 
  -2  -9   6    1.44    0.19 
   1   9  -6    0.24    0.13 
  -1  -9   6   -0.07    0.12 
   0   9  -6    0.16    0.13 
   0  -9   6    0.31    0.12 
   0  -9   6    0.17    0.12 
  -1   9  -6    2.78    0.23 
   1  -9   6    3.28    0.22 
   1  -9   6    3.25    0.20 
  -2   9  -6    1.43    0.17 
   2  -9   6    1.95    0.19 
   2  -9   6    1.92    0.20 
   3  -9   6    0.08    0.14 
   4  -9   6    5.10    0.34 
   5  -9   6   -0.22    0.20 
   5   8  -6    0.26    0.29 
   4   8  -6    0.26    0.25 
  -4  -8   6    0.97    0.20 
   3   8  -6    1.21    0.25 
  -3  -8   6    0.95    0.17 
   2   8  -6   36.39    1.00 
  -2  -8   6   36.35    0.88 
   1   8  -6   48.73    1.12 
  -1  -8   6   49.58    1.17 
  -1  -8   6   51.65    1.13 
   0   8  -6   27.04    0.70 
   0  -8   6   28.76    0.68 
   0  -8   6   26.48    0.68 
  -1   8  -6   44.30    1.04 
   1  -8   6   46.90    1.04 
   1  -8   6   44.87    1.05 
  -2   8  -6   12.85    0.40 
   2  -8   6   11.99    0.38 
   2  -8   6   11.73    0.40 
   3  -8   6   27.08    0.74 
   4  -8   6    3.84    0.29 
   5  -8   6   -0.11    0.18 
   5   7  -6    0.29    0.25 
   4   7  -6    4.53    0.39 
  -4  -7   6    4.18    0.28 
   3   7  -6    0.21    0.20 
  -3  -7   6    0.26    0.13 
   2   7  -6    9.58    0.45 
  -2  -7   6   10.13    0.35 
   1   7  -6   25.30    0.61 
  -1  -7   6   27.00    0.64 
  -1  -7   6   23.08    0.66 
   0   7  -6   58.83    1.28 
   0  -7   6   59.30    1.32 
   0  -7   6   59.07    1.28 
  -1   7  -6   37.87    0.88 
   1  -7   6   39.34    0.91 
   1  -7   6   38.84    0.88 
   2  -7   6   12.17    0.37 
   2  -7   6   12.08    0.39 
   3  -7   6    1.92    0.20 
   4  -7   6    6.52    0.33 
   5  -7   6    9.30    0.43 
   5   6  -6   -0.05    0.23 
   4   6  -6    0.04    0.21 
   3   6  -6   13.16    0.49 
  -3  -6   6   12.43    0.40 
   2   6  -6   24.30    0.71 
  -2  -6   6   23.85    0.61 
   1   6  -6    1.32    0.13 
  -1  -6   6    0.95    0.16 
  -1  -6   6    1.23    0.14 
   0   6  -6    0.07    0.09 
   0  -6   6    0.22    0.09 
   0  -6   6    0.07    0.09 
  -1   6  -6    3.34    0.17 
   1  -6   6    3.19    0.19 
   1  -6   6    4.07    0.19 
   2  -6   6   25.46    0.66 
   2  -6   6   25.32    0.61 
   3  -6   6   62.09    1.43 
   4  -6   6   17.68    0.56 
   5  -6   6   -0.03    0.16 
   6  -6   6    0.21    0.21 
   6   5  -6    0.39    0.26 
   5   5  -6    2.22    0.28 
   4   5  -6    3.68    0.31 
   3   5  -6   37.93    0.94 
  -3  -5   6   36.10    0.85 
   2   5  -6   54.51    1.25 
  -2  -5   6   52.35    1.15 
   1   5  -6   33.82    0.72 
  -1  -5   6   32.74    0.81 
  -1  -5   6   34.46    0.77 
   0   5  -6   99.88    2.04 
   0  -5   6  100.67    2.16 
   0  -5   6  101.41    2.05 
   1  -5   6   14.66    0.40 
   1  -5   6   14.02    0.39 
   2  -5   6   66.45    1.39 
   2  -5   6   67.25    1.50 
   3  -5   6  150.09    3.23 
   4  -5   6    1.24    0.18 
   5  -5   6    3.90    0.31 
   6  -5   6    0.69    0.22 
   6   4  -6    0.57    0.25 
   5   4  -6    0.48    0.20 
   4   4  -6    9.21    0.40 
   4   4  -6    9.47    0.43 
   3   4  -6    7.85    0.44 
   3   4  -6    7.88    0.34 
  -3  -4   6    7.77    0.28 
   2   4  -6   40.38    0.95 
  -2  -4   6   38.97    0.88 
   1   4  -6   33.19    0.68 
  -1  -4   6   32.57    0.74 
  -1  -4   6   32.76    0.79 
   0   4  -6   31.77    0.69 
   0  -4   6   31.82    0.72 
   0  -4   6   33.40    0.75 
   1  -4   6   77.33    1.57 
   1  -4   6   75.82    1.67 
   2  -4   6   20.59    0.54 
   2  -4   6   19.95    0.49 
   3  -4   6   77.57    1.73 
   4  -4   6   18.87    0.56 
   5  -4   6    0.47    0.17 
   6  -4   6    0.16    0.19 
   6   3  -6    1.15    0.26 
   5   3  -6    0.71    0.20 
   5   3  -6    0.23    0.17 
   4   3  -6   -0.18    0.15 
   4   3  -6    0.04    0.17 
   3   3  -6    0.15    0.22 
   3   3  -6    0.13    0.16 
  -3  -3   6    0.11    0.10 
   2   3  -6   13.14    0.30 
   2   3  -6   12.60    0.39 
  -2  -3   6   12.79    0.35 
   1   3  -6    6.14    0.14 
  -1  -3   6    6.25    0.21 
   0   3  -6   95.89    1.89 
   0  -3   6   95.21    1.93 
   0  -3   6   96.10    2.04 
   1  -3   6    0.01    0.07 
   1  -3   6    0.11    0.07 
   2  -3   6    0.01    0.08 
   2  -3   6    0.10    0.09 
   3  -3   6    0.12    0.10 
   3  -3   6    0.25    0.12 
   4  -3   6    2.12    0.21 
   4  -3   6    1.60    0.17 
   5  -3   6    3.41    0.28 
   6  -3   6    0.17    0.19 
   6   2  -6    0.54    0.20 
   5   2  -6    7.93    0.38 
   5   2  -6    7.45    0.39 
   4   2  -6   18.44    0.60 
   4   2  -6   18.12    0.54 
   3   2  -6   31.63    0.89 
   3   2  -6   32.28    0.77 
  -3  -2   6   31.58    0.72 
   2   2  -6   32.80    0.75 
   2   2  -6   33.04    0.67 
  -2  -2   6   32.05    0.72 
  -1  -2   6  243.03    4.75 
   0  -2   6  174.05    3.63 
   0  -2   6  172.97    3.42 
   1  -2   6  180.88    3.46 
   1  -2   6  178.17    3.48 
   1  -2   6  171.48    3.71 
   2  -2   6  145.94    2.90 
   2  -2   6  146.91    3.10 
   2  -2   6  145.64    2.89 
   3  -2   6    6.90    0.26 
   3  -2   6    6.16    0.26 
   4  -2   6   17.24    0.51 
   4  -2   6   17.81    0.50 
   5  -2   6   12.10    0.43 
   5  -2   6   12.11    0.43 
   6  -2   6    0.34    0.19 
   6  -2   6    0.35    0.20 
   6   1  -6    0.37    0.20 
   5   1  -6    0.38    0.18 
   4   1  -6    2.73    0.27 
   4   1  -6    2.29    0.22 
   3   1  -6   11.91    0.48 
   3   1  -6   12.14    0.32 
   3   1  -6   12.14    0.36 
  -3  -1   6   12.08    0.34 
   2   1  -6   31.15    0.70 
  -2  -1   6   31.17    0.69 
  -1  -1   6   19.62    0.47 
   0  -1   6   61.13    1.35 
   0  -1   6   62.32    1.29 
   0  -1   6   63.41    1.22 
   1  -1   6   49.30    0.98 
   1  -1   6   46.71    1.06 
   1  -1   6   48.24    1.01 
   2  -1   6    6.06    0.23 
   2  -1   6    5.88    0.22 
   2  -1   6    6.29    0.21 
   3  -1   6   25.34    0.64 
   3  -1   6   24.74    0.61 
   4  -1   6    0.26    0.12 
   4  -1   6   -0.01    0.12 
   5  -1   6    0.28    0.15 
   5  -1   6    0.64    0.17 
   6  -1   6    0.98    0.23 
   6   0  -6    0.21    0.19 
   5   0  -6    3.57    0.30 
   4   0  -6    3.79    0.29 
   4   0  -6    4.09    0.24 
   3   0  -6   13.79    0.38 
   3   0  -6   13.56    0.51 
  -3   0   6   13.93    0.36 
   2   0  -6    9.84    0.26 
  -2   0   6   10.03    0.28 
   1   0  -6   19.53    0.44 
  -1   0   6   19.64    0.48 
  -1   0   6   21.54    0.41 
  -1   0   6   19.76    0.50 
   0   0   6   51.47    1.11 
   0   0   6   48.05    1.10 
   0   0   6   52.48    1.01 
   0   0   6   49.75    1.06 
   1   0   6    2.20    0.14 
   1   0   6    1.97    0.15 
   1   0   6    1.90    0.10 
   1   0   6    2.09    0.12 
   2   0   6    7.72    0.25 
   2   0   6    7.36    0.24 
   2   0   6    7.13    0.25 
   2   0   6    7.57    0.27 
   3   0   6    0.49    0.12 
   3   0   6    0.60    0.12 
   3   0   6    0.65    0.11 
   4   0   6    0.14    0.13 
   4   0   6    0.18    0.12 
   5   0   6    2.19    0.23 
   6   0   6    0.23    0.19 
   6  -1  -6    0.14    0.20 
   5  -1  -6    0.67    0.20 
   4  -1  -6    2.92    0.27 
   3  -1  -6   20.85    0.64 
  -3   1   6   20.70    0.49 
   2  -1  -6   32.56    0.69 
  -2   1   6   32.88    0.76 
  -2   1   6   32.94    0.72 
  -1   1   6   68.37    1.39 
  -1   1   6   66.58    1.44 
  -1   1   6   66.83    1.34 
   0   1   6   18.02    0.44 
   0   1   6   18.27    0.39 
   0   1   6   17.46    0.47 
   1   1   6    6.98    0.21 
   1   1   6    6.68    0.27 
   1   1   6    7.29    0.24 
   1   1   6    7.21    0.21 
   2   1   6   31.49    0.71 
   2   1   6   31.15    0.75 
   2   1   6   31.59    0.73 
   2   1   6   31.94    0.71 
   2   1   6   30.97    0.73 
   3   1   6    8.33    0.33 
   3   1   6    8.13    0.29 
   3   1   6    8.05    0.30 
   3   1   6    8.27    0.27 
   3   1   6    8.04    0.30 
   4   1   6    1.60    0.21 
   4   1   6    1.30    0.17 
   5   1   6    0.97    0.19 
   6   1   6    0.64    0.23 
   6  -2  -6    0.84    0.22 
   5  -2  -6    2.30    0.26 
   4  -2  -6    0.21    0.16 
   3  -2  -6    2.22    0.23 
  -3   2   6    2.09    0.15 
  -3   2   6    2.40    0.19 
   2  -2  -6    0.29    0.17 
  -2   2   6    0.24    0.10 
  -2   2   6    0.33    0.07 
  -2   2   6    0.28    0.12 
  -1   2   6   78.67    1.60 
  -1   2   6   79.77    1.68 
  -1   2   6   76.41    1.58 
   0   2   6  160.49    3.33 
   0   2   6  164.24    3.18 
   0   2   6  160.30    3.20 
   1   2   6   29.59    0.64 
   1   2   6   29.51    0.66 
   1   2   6   28.15    0.71 
   1   2   6   27.77    0.64 
   1   2   6   29.45    0.67 
   2   2   6   30.48    0.72 
   2   2   6   30.73    0.70 
   2   2   6   29.42    0.70 
   2   2   6   30.66    0.69 
   2   2   6   29.90    0.74 
   3   2   6    2.70    0.20 
   3   2   6    2.73    0.18 
   3   2   6    2.43    0.21 
   3   2   6    2.38    0.24 
   4   2   6    2.51    0.23 
   4   2   6    2.42    0.24 
   5   2   6    8.08    0.39 
   5   2   6    7.82    0.41 
   6  -3  -6    1.45    0.24 
   5  -3  -6    1.06    0.21 
   4  -3  -6    1.71    0.21 
   3  -3  -6    0.91    0.19 
  -3   3   6    1.06    0.17 
  -3   3   6    1.00    0.12 
   2  -3  -6   12.40    0.45 
  -2   3   6   13.25    0.36 
  -2   3   6   12.89    0.35 
  -2   3   6   13.40    0.42 
  -1   3   6    6.24    0.22 
  -1   3   6    6.03    0.28 
  -1   3   6    6.03    0.23 
   0   3   6    1.91    0.11 
   0   3   6    1.70    0.14 
   0   3   6    1.73    0.09 
   0   3   6    1.30    0.16 
   1   3   6    7.20    0.26 
   1   3   6    7.44    0.31 
   1   3   6    7.19    0.23 
   1   3   6    7.37    0.24 
   1   3   6    7.60    0.24 
   2   3   6    1.08    0.15 
   2   3   6    1.24    0.13 
   2   3   6    1.25    0.14 
   2   3   6    1.00    0.18 
   3   3   6    5.11    0.27 
   3   3   6    5.50    0.27 
   3   3   6    5.04    0.28 
   4   3   6    0.79    0.19 
   4   3   6    0.63    0.15 
   5   3   6    0.28    0.16 
   5   3   6    0.01    0.19 
   6  -4  -6    0.45    0.20 
   5  -4  -6    2.20    0.25 
   4  -4  -6    2.13    0.23 
   3  -4  -6    2.20    0.23 
  -3   4   6    1.70    0.15 
  -3   4   6    1.87    0.18 
  -3   4   6    2.21    0.21 
   2  -4  -6    5.59    0.30 
  -2   4   6    5.45    0.24 
  -2   4   6    5.39    0.22 
   1  -4  -6   67.37    1.51 
  -1   4   6   64.77    1.39 
  -1   4   6   65.68    1.38 
   0   4   6   39.03    0.88 
   0   4   6   39.83    0.87 
   1   4   6   20.19    0.50 
   1   4   6   20.83    0.51 
   1   4   6   20.38    0.53 
   2   4   6    8.37    0.32 
   2   4   6    8.75    0.30 
   2   4   6    9.20    0.39 
   2   4   6    8.30    0.31 
   3   4   6    3.52    0.26 
   3   4   6    3.96    0.25 
   4   4   6    3.55    0.29 
   4   4   6    3.74    0.27 
   5   4   6    0.18    0.19 
   5   4   6    0.07    0.21 
   6  -5  -6    0.70    0.23 
   5  -5  -6   -0.13    0.16 
   4  -5  -6   13.66    0.50 
   3  -5  -6   57.78    1.41 
  -3   5   6   61.38    1.31 
   2  -5  -6   34.30    0.88 
  -2   5   6   34.71    0.83 
  -2   5   6   34.32    0.79 
   1  -5  -6   17.67    0.52 
  -1   5   6   16.96    0.47 
  -1   5   6   17.84    0.47 
   0  -5  -6    4.04    0.26 
   0   5   6    3.72    0.20 
   0   5   6    3.59    0.19 
   1   5   6   19.60    0.52 
   1   5   6   19.90    0.51 
   1   5   6   19.04    0.50 
   2   5   6   80.46    1.73 
   2   5   6   78.81    1.69 
   3   5   6   32.16    0.83 
   3   5   6   31.61    0.81 
   4   5   6    3.21    0.30 
   4   5   6    3.42    0.29 
   5   5   6    0.34    0.22 
   5   5   6   -0.05    0.18 
   6  -6  -6    0.50    0.22 
   5  -6  -6    0.07    0.18 
   4  -6  -6    4.01    0.30 
  -4   6   6    4.13    0.29 
   3  -6  -6   24.64    0.71 
  -3   6   6   26.63    0.69 
   2  -6  -6   20.87    0.60 
  -2   6   6   20.19    0.53 
  -2   6   6   21.36    0.59 
   1  -6  -6    0.04    0.13 
  -1   6   6    0.34    0.13 
  -1   6   6    0.04    0.10 
   0   6   6    1.97    0.19 
   0   6   6    2.07    0.19 
   1   6   6   14.91    0.45 
   2   6   6   25.71    0.67 
   2   6   6   25.61    0.68 
   3   6   6    3.28    0.27 
   3   6   6    2.76    0.28 
   4   6   6    0.97    0.21 
   4   6   6    0.66    0.23 
   5   6   6    0.30    0.23 
   5  -7  -6    3.49    0.34 
  -5   7   6    2.88    0.29 
   4  -7  -6    2.85    0.27 
  -4   7   6    2.60    0.25 
   3  -7  -6    1.12    0.18 
  -3   7   6    1.37    0.21 
   2  -7  -6   25.19    0.69 
  -2   7   6   26.58    0.71 
  -1   7   6   18.00    0.53 
   0   7   6   19.92    0.56 
   1   7   6    9.40    0.36 
   2   7   6    1.64    0.19 
   3   7   6    9.33    0.42 
   3   7   6    8.70    0.40 
   4   7   6    5.34    0.35 
   4   7   6    4.32    0.36 
   5  -8  -6    0.44    0.21 
  -5   8   6    0.17    0.19 
   4  -8  -6    3.60    0.31 
  -4   8   6    4.34    0.34 
   3  -8  -6    0.29    0.15 
  -3   8   6    0.23    0.16 
  -2   8   6    0.33    0.15 
  -1   8   6    6.72    0.32 
   0   8   6    4.47    0.27 
   1   8   6    7.44    0.33 
   2   8   6    3.77    0.27 
   3   8   6    0.54    0.20 
   4   8   6    1.04    0.24 
   5  -9  -6    2.25    0.28 
  -5   9   6    2.70    0.32 
   4  -9  -6    4.17    0.33 
  -4   9   6    5.04    0.37 
  -3   9   6    2.78    0.29 
  -2   9   6    3.70    0.28 
  -1   9   6    4.63    0.31 
   0   9   6    1.73    0.20 
   1   9   6    6.75    0.33 
   2   9   6    2.05    0.24 
   3   9   6    0.99    0.23 
  -4  10   6    0.01    0.21 
  -3  10   6    2.95    0.31 
  -2  10   6    7.29    0.40 
  -1  10   6    2.01    0.24 
   0  10   6    2.67    0.25 
   1  10   6    0.38    0.16 
   2  10   6    2.42    0.27 
  -3  11   6    0.61    0.23 
  -2  11   6    2.13    0.28 
  -1  11   6    0.89    0.20 
   0  11   6    0.47    0.17 
   1  11   6    1.70    0.24 
  -2  12   6    1.00    0.24 
  -1  12   6    0.12    0.18 
   0  12   6   -0.12    0.15 
  -1 -13   7   12.92    0.53 
   0 -13   7    8.53    0.42 
   1 -13   7   15.95    0.58 
   2 -13   7   12.62    0.51 
   2  12  -7    0.61    0.29 
  -2 -12   7    0.48    0.20 
  -1 -12   7    2.39    0.26 
   0 -12   7    2.58    0.27 
   1 -12   7    0.97    0.21 
  -2  12  -7   -0.04    0.17 
   2 -12   7   -0.02    0.18 
  -3  12  -7    2.88    0.32 
   3 -12   7    2.72    0.27 
   3  11  -7    3.05    0.39 
  -3 -11   7    3.18    0.30 
   2  11  -7   12.83    0.59 
  -2 -11   7   11.68    0.47 
  -1 -11   7    6.26    0.34 
   0 -11   7   27.69    0.76 
   1 -11   7   10.18    0.43 
  -2  11  -7   13.51    0.51 
   2 -11   7   13.06    0.49 
   2 -11   7   14.01    0.47 
  -3  11  -7   12.29    0.51 
   3 -11   7   13.54    0.50 
  -4  11  -7    2.15    0.28 
   4 -11   7    1.56    0.25 
  -4 -10   7    0.42    0.21 
   3  10  -7    0.16    0.26 
  -3 -10   7    0.12    0.17 
   2  10  -7    3.71    0.37 
  -2 -10   7    3.24    0.27 
  -1 -10   7   11.03    0.42 
   0 -10   7    3.68    0.26 
  -1  10  -7   25.87    0.74 
   1 -10   7   27.31    0.70 
   1 -10   7   26.82    0.73 
  -2  10  -7   24.82    0.73 
   2 -10   7   26.73    0.72 
   2 -10   7   26.49    0.71 
  -3  10  -7   13.19    0.50 
   3 -10   7   14.33    0.51 
   4 -10   7   12.24    0.50 
   4   9  -7    0.50    0.28 
  -4  -9   7    0.08    0.19 
   3   9  -7    0.52    0.25 
  -3  -9   7    0.39    0.17 
   2   9  -7    8.07    0.47 
  -2  -9   7    9.00    0.37 
  -1  -9   7    1.20    0.17 
   0  -9   7    0.92    0.14 
   0  -9   7    0.54    0.14 
  -1   9  -7    2.94    0.23 
   1  -9   7    2.48    0.23 
   1  -9   7    3.22    0.21 
  -2   9  -7    0.84    0.15 
   2  -9   7    0.84    0.16 
   2  -9   7    0.88    0.16 
   3  -9   7    0.39    0.16 
   4  -9   7    1.10    0.22 
   5  -9   7    0.76    0.24 
   4   8  -7    4.07    0.40 
  -4  -8   7    3.70    0.30 
   3   8  -7    6.11    0.44 
  -3  -8   7    6.61    0.32 
   2   8  -7    8.11    0.46 
  -2  -8   7    8.79    0.35 
  -1  -8   7    2.86    0.24 
  -1  -8   7    2.78    0.22 
   0  -8   7   51.81    1.18 
   0  -8   7   50.71    1.16 
  -1   8  -7   54.02    1.22 
   1  -8   7   55.12    1.22 
   1  -8   7   53.80    1.25 
  -2   8  -7   59.46    1.35 
   2  -8   7   61.79    1.34 
   2  -8   7   62.80    1.42 
   3  -8   7   12.07    0.44 
   4  -8   7    6.75    0.36 
   5  -8   7    1.23    0.24 
   5   7  -7    0.37    0.28 
   4   7  -7    0.76    0.28 
  -4  -7   7    0.42    0.17 
   3   7  -7    0.55    0.22 
  -3  -7   7    0.31    0.15 
   2   7  -7   31.72    0.92 
  -2  -7   7   33.67    0.80 
  -1  -7   7    5.95    0.30 
  -1  -7   7    6.59    0.27 
   0  -7   7   47.83    1.10 
   0  -7   7   48.20    1.08 
  -1   7  -7   23.85    0.60 
   1  -7   7   23.86    0.62 
   1  -7   7   24.32    0.62 
   2  -7   7    9.61    0.34 
   2  -7   7   10.29    0.36 
   3  -7   7   25.18    0.70 
   4  -7   7    6.98    0.36 
   5  -7   7    1.85    0.25 
   5   6  -7    1.18    0.27 
   4   6  -7    0.60    0.24 
  -4  -6   7    0.45    0.16 
   3   6  -7    1.49    0.23 
  -3  -6   7    1.37    0.18 
   2   6  -7    3.99    0.36 
  -2  -6   7    4.92    0.25 
  -1  -6   7    8.66    0.31 
  -1  -6   7    7.99    0.34 
   0  -6   7   12.38    0.38 
   0  -6   7   13.18    0.39 
  -1   6  -7    0.56    0.10 
   1  -6   7    0.21    0.11 
   1  -6   7    0.42    0.11 
   2  -6   7    1.54    0.17 
   2  -6   7    1.40    0.15 
   3  -6   7    6.27    0.30 
   4  -6   7    3.39    0.27 
   5  -6   7    0.01    0.17 
   5   5  -7    0.00    0.21 
   4   5  -7    9.00    0.43 
   4   5  -7    7.79    0.45 
   3   5  -7   58.74    1.36 
  -3  -5   7   57.83    1.27 
   2   5  -7   48.43    1.16 
  -2  -5   7   47.95    1.07 
  -1  -5   7   49.48    1.16 
  -1  -5   7   49.70    1.09 
   0   5  -7   63.96    1.35 
   0  -5   7   65.24    1.44 
   0  -5   7   65.98    1.38 
   1  -5   7   90.24    1.86 
   1  -5   7   90.57    1.97 
   2  -5   7   36.61    0.89 
   2  -5   7   36.86    0.83 
   3  -5   7    0.21    0.13 
   4  -5   7    7.28    0.34 
   5  -5   7    1.45    0.22 
   5   4  -7    0.95    0.22 
   5   4  -7    0.74    0.21 
   4   4  -7    0.48    0.22 
   4   4  -7   -0.01    0.16 
   3   4  -7    1.00    0.18 
  -3  -4   7    0.67    0.13 
   2   4  -7   25.77    0.68 
  -2  -4   7   25.25    0.62 
  -1  -4   7   44.29    0.98 
  -1  -4   7   44.96    1.05 
   0   4  -7   59.40    1.21 
   0  -4   7   60.12    1.26 
   0  -4   7   58.67    1.32 
   1  -4   7    9.33    0.30 
   1  -4   7    9.35    0.31 
   2  -4   7   21.89    0.58 
   2  -4   7   21.95    0.54 
   3  -4   7    5.47    0.27 
   4  -4   7   34.02    0.88 
   5  -4   7    8.19    0.38 
   6  -4   7    0.10    0.18 
   5   3  -7    0.09    0.18 
   5   3  -7    0.22    0.20 
   4   3  -7    0.47    0.22 
   4   3  -7    0.49    0.17 
   3   3  -7   10.17    0.37 
  -3  -3   7    9.64    0.33 
   2   3  -7   19.56    0.53 
  -2  -3   7   19.85    0.50 
  -1  -3   7   62.64    1.32 
   0   3  -7   10.56    0.25 
   0  -3   7   10.94    0.32 
   0  -3   7   10.34    0.31 
   1  -3   7    1.82    0.14 
   1  -3   7    1.56    0.14 
   2  -3   7    9.43    0.32 
   2  -3   7    9.69    0.30 
   3  -3   7   10.30    0.36 
   3  -3   7   10.39    0.33 
   4  -3   7    3.36    0.26 
   4  -3   7    2.80    0.22 
   5  -3   7    0.50    0.17 
   6  -3   7    0.10    0.19 
   6   2  -7    0.94    0.23 
   5   2  -7    2.44    0.28 
   4   2  -7   12.58    0.43 
   4   2  -7   13.13    0.52 
   3   2  -7   33.33    0.96 
   3   2  -7   32.13    0.78 
  -3  -2   7   33.10    0.76 
   2   2  -7   25.63    0.62 
  -2  -2   7   26.21    0.61 
  -1  -2   7   85.09    1.74 
   0  -2   7   69.17    1.50 
   0  -2   7   68.55    1.43 
   1  -2   7   98.25    1.97 
   1  -2   7   95.73    1.92 
   1  -2   7   97.04    2.08 
   2  -2   7   39.98    0.93 
   2  -2   7   38.95    0.86 
   2  -2   7   39.38    0.85 
   3  -2   7   27.07    0.70 
   3  -2   7   26.36    0.64 
   4  -2   7    3.73    0.24 
   4  -2   7    3.68    0.24 
   5  -2   7    0.00    0.15 
   5  -2   7    0.23    0.16 
   6  -2   7    0.35    0.20 
   6   1  -7    0.06    0.20 
   5   1  -7    0.26    0.19 
   4   1  -7    3.27    0.32 
   3   1  -7    5.26    0.39 
   3   1  -7    4.59    0.23 
  -3  -1   7    4.58    0.21 
   2   1  -7    0.43    0.09 
  -2  -1   7    0.72    0.12 
  -1  -1   7    1.60    0.14 
   0  -1   7   40.98    0.80 
   0  -1   7   40.56    0.88 
   0  -1   7   40.07    0.92 
   1  -1   7   38.70    0.85 
   1  -1   7   39.50    0.81 
   1  -1   7   38.33    0.89 
   2  -1   7   49.41    1.04 
   2  -1   7   47.91    1.10 
   2  -1   7   48.16    1.03 
   3  -1   7   29.13    0.73 
   3  -1   7   28.33    0.69 
   4  -1   7   10.33    0.37 
   4  -1   7   10.03    0.37 
   5  -1   7    0.92    0.19 
   5  -1   7    0.74    0.18 
   6  -1   7    0.10    0.22 
   6   0  -7    0.74    0.23 
   5   0  -7    0.55    0.20 
   4   0  -7    2.12    0.25 
   3   0  -7   10.32    0.47 
  -3   0   7   10.09    0.31 
  -2   0   7    2.36    0.16 
   1   0  -7   14.69    0.34 
  -1   0   7   13.92    0.40 
  -1   0   7   14.48    0.39 
   0   0   7   14.07    0.38 
   0   0   7   13.17    0.36 
   0   0   7   13.41    0.30 
   0   0   7   13.18    0.39 
   1   0   7    6.96    0.25 
   1   0   7    7.29    0.24 
   1   0   7    7.51    0.21 
   1   0   7    7.33    0.28 
   2   0   7   10.61    0.33 
   2   0   7   10.87    0.32 
   2   0   7   11.58    0.34 
   3   0   7    9.81    0.34 
   3   0   7    9.65    0.31 
   3   0   7    9.92    0.34 
   4   0   7    1.65    0.18 
   4   0   7    1.36    0.18 
   5   0   7    0.55    0.17 
   6  -1  -7    0.30    0.20 
   5  -1  -7    0.38    0.19 
   4  -1  -7    6.71    0.37 
  -3   1   7    6.16    0.24 
  -2   1   7   19.49    0.51 
  -2   1   7   18.95    0.48 
  -1   1   7   36.70    0.88 
  -1   1   7   40.20    0.78 
  -1   1   7   36.52    0.84 
   0   1   7   78.92    1.64 
   0   1   7   82.13    1.59 
   0   1   7   78.20    1.71 
   1   1   7  172.45    3.48 
   1   1   7  176.49    3.67 
   1   1   7  173.43    3.60 
   1   1   7  179.46    3.46 
   2   1   7   13.64    0.38 
   2   1   7   13.80    0.42 
   2   1   7   13.50    0.39 
   2   1   7   13.22    0.37 
   3   1   7   29.45    0.70 
   3   1   7   30.88    0.73 
   3   1   7   29.45    0.73 
   3   1   7   29.94    0.73 
   4   1   7    5.78    0.29 
   5   1   7    4.00    0.29 
   6  -2  -7    1.37    0.26 
   5  -2  -7    0.36    0.20 
   4  -2  -7    2.10    0.24 
   3  -2  -7    4.54    0.34 
  -3   2   7    4.72    0.22 
  -3   2   7    4.70    0.26 
   2  -2  -7    0.37    0.20 
  -2   2   7    0.02    0.13 
  -2   2   7    0.30    0.11 
  -2   2   7    0.19    0.08 
  -1   2   7   31.56    0.78 
  -1   2   7   31.33    0.72 
  -1   2   7   31.86    0.68 
   0   2   7    0.42    0.11 
   0   2   7    0.49    0.14 
   0   2   7    0.42    0.07 
   1   2   7    8.55    0.34 
   1   2   7    8.67    0.26 
   1   2   7    8.23    0.29 
   1   2   7    8.58    0.26 
   2   2   7   13.82    0.45 
   2   2   7   12.93    0.39 
   2   2   7   12.78    0.38 
   2   2   7   13.43    0.37 
   2   2   7   13.57    0.39 
   3   2   7    3.58    0.22 
   3   2   7    2.79    0.24 
   3   2   7    3.12    0.20 
   3   2   7    3.03    0.23 
   4   2   7    0.12    0.15 
   4   2   7    0.18    0.16 
   5   2   7    0.23    0.18 
   5   2   7    0.10    0.20 
   6  -3  -7    0.29    0.23 
   5  -3  -7    0.74    0.21 
   4  -3  -7    4.56    0.32 
   3  -3  -7    0.08    0.17 
  -3   3   7    0.08    0.15 
  -3   3   7    0.13    0.11 
   2  -3  -7    1.56    0.24 
  -2   3   7    1.46    0.14 
  -2   3   7    1.55    0.20 
  -2   3   7    1.73    0.16 
  -1   3   7   17.17    0.46 
  -1   3   7   16.49    0.51 
  -1   3   7   17.31    0.43 
   0   3   7    2.33    0.13 
   0   3   7    2.01    0.20 
   0   3   7    2.32    0.18 
   1   3   7    3.33    0.17 
   1   3   7    2.86    0.20 
   1   3   7    3.17    0.17 
   1   3   7    3.35    0.27 
   2   3   7    7.61    0.29 
   2   3   7    7.80    0.29 
   2   3   7    7.37    0.35 
   2   3   7    7.53    0.29 
   3   3   7    1.63    0.20 
   3   3   7    1.93    0.18 
   3   3   7    1.57    0.18 
   4   3   7    4.04    0.31 
   4   3   7    3.98    0.28 
   5   3   7    2.12    0.24 
   5   3   7    2.33    0.29 
   6  -4  -7    0.65    0.21 
   5  -4  -7    1.50    0.24 
   4  -4  -7    4.35    0.31 
   3  -4  -7   30.61    0.85 
  -3   4   7   30.59    0.72 
  -3   4   7   32.61    0.76 
  -3   4   7   30.09    0.79 
   2  -4  -7   28.41    0.80 
  -2   4   7   29.75    0.70 
  -2   4   7   28.97    0.70 
  -2   4   7   29.68    0.77 
   1  -4  -7   19.83    0.60 
  -1   4   7   18.60    0.57 
  -1   4   7   18.73    0.49 
  -1   4   7   18.35    0.49 
   0   4   7   90.16    1.87 
   0   4   7   90.67    1.98 
   0   4   7   89.28    1.84 
   1   4   7   34.80    0.89 
   1   4   7   34.35    0.78 
   1   4   7   34.61    0.81 
   2   4   7   12.32    0.39 
   2   4   7   11.58    0.45 
   2   4   7   12.02    0.39 
   2   4   7   11.80    0.38 
   3   4   7   21.32    0.59 
   3   4   7   20.17    0.60 
   4   4   7    0.05    0.18 
   4   4   7    0.21    0.15 
   5   4   7    2.33    0.29 
   5   4   7    1.61    0.25 
   6  -5  -7    0.08    0.19 
   5  -5  -7    0.68    0.21 
   4  -5  -7    0.43    0.19 
   3  -5  -7    0.34    0.16 
  -3   5   7   -0.02    0.13 
  -3   5   7    0.05    0.15 
  -3   5   7    0.06    0.10 
   2  -5  -7    7.09    0.35 
  -2   5   7    7.85    0.28 
  -2   5   7    7.46    0.31 
   1  -5  -7    4.16    0.30 
  -1   5   7    5.11    0.24 
  -1   5   7    4.49    0.23 
   0   5   7    0.71    0.13 
   0   5   7    1.21    0.13 
   1   5   7    9.31    0.34 
   1   5   7   10.02    0.33 
   2   5   7   26.25    0.76 
   2   5   7   27.00    0.68 
   3   5   7    0.41    0.17 
   3   5   7    0.01    0.14 
   3   5   7   -0.17    0.20 
   4   5   7    3.43    0.30 
   4   5   7    3.94    0.33 
   5   5   7    0.22    0.25 
   5  -6  -7    2.40    0.28 
   4  -6  -7    5.56    0.34 
   3  -6  -7    2.61    0.27 
  -3   6   7    2.58    0.24 
   2  -6  -7    9.57    0.38 
  -2   6   7    9.95    0.37 
  -2   6   7    9.16    0.33 
   1  -6  -7    7.11    0.34 
  -1   6   7    7.46    0.31 
  -1   6   7    7.03    0.29 
   0   6   7   10.10    0.36 
   0   6   7    9.59    0.33 
   1   6   7    0.05    0.11 
   2   6   7    0.59    0.15 
   3   6   7    1.53    0.21 
   4   6   7   -0.10    0.20 
   4   6   7   -0.08    0.17 
   5  -7  -7    0.07    0.20 
   4  -7  -7    1.14    0.22 
   3  -7  -7   10.55    0.42 
  -3   7   7   11.18    0.45 
   2  -7  -7   20.58    0.60 
  -2   7   7   19.90    0.59 
  -1   7   7   38.56    0.93 
   0   7   7   11.14    0.38 
   1   7   7    0.71    0.15 
   2   7   7   29.53    0.77 
   3   7   7    5.18    0.32 
   4   7   7    4.41    0.36 
   5  -8  -7    0.22    0.21 
   4  -8  -7    0.45    0.18 
   3  -8  -7    0.35    0.17 
  -3   8   7    0.40    0.18 
  -2   8   7    5.26    0.32 
  -1   8   7    6.27    0.31 
   0   8   7    6.53    0.30 
   1   8   7    1.44    0.20 
   2   8   7    0.60    0.17 
   3   8   7    0.62    0.20 
   4  -9  -7    1.83    0.25 
  -3   9   7    1.60    0.25 
  -2   9   7   -0.18    0.15 
  -1   9   7    1.74    0.22 
   0   9   7    4.46    0.29 
   1   9   7    0.78    0.19 
   2   9   7    0.95    0.20 
   3   9   7    0.21    0.21 
  -3  10   7    0.51    0.22 
  -2  10   7    1.63    0.24 
  -1  10   7    4.59    0.32 
   0  10   7    4.15    0.28 
   1  10   7    5.26    0.35 
   2  10   7    4.76    0.34 
  -3  11   7   -0.06    0.21 
  -2  11   7    0.59    0.22 
  -1  11   7    0.47    0.19 
   0  11   7    0.71    0.18 
   1  11   7    0.94    0.21 
  -1  12   7    4.20    0.38 
   0 -13   8    1.14    0.25 
   1 -13   8    1.59    0.26 
  -2 -12   8    0.79    0.21 
  -1 -12   8    0.12    0.18 
   0 -12   8   -0.20    0.17 
   1 -12   8    0.54    0.21 
   2 -12   8   -0.36    0.17 
   2 -12   8    0.07    0.16 
   3 -12   8    0.65    0.20 
  -3 -11   8    2.12    0.27 
   2  11  -8    7.82    0.50 
  -2 -11   8    7.31    0.39 
  -1 -11   8   15.04    0.53 
   0 -11   8   18.07    0.59 
   1 -11   8   33.84    0.86 
   1 -11   8   33.85    0.89 
   2 -11   8   22.41    0.65 
   2 -11   8   21.51    0.65 
   3 -11   8   18.82    0.62 
   3  10  -8    0.28    0.28 
  -3 -10   8    0.01    0.18 
   2  10  -8    3.65    0.39 
  -2 -10   8    3.55    0.28 
  -1 -10   8    7.09    0.35 
   0 -10   8   11.67    0.40 
   0 -10   8   11.64    0.44 
   1 -10   8   19.96    0.56 
   1 -10   8   19.31    0.59 
   2 -10   8    5.84    0.31 
   2 -10   8    5.41    0.30 
  -3  10  -8    5.12    0.33 
   3 -10   8    5.33    0.34 
   4 -10   8    2.29    0.27 
   4   9  -8    0.78    0.30 
  -4  -9   8    0.65    0.21 
   3   9  -8    1.92    0.32 
  -3  -9   8    2.17    0.25 
   2   9  -8    5.41    0.46 
  -2  -9   8    5.28    0.31 
  -1  -9   8   10.81    0.40 
   0  -9   8   15.59    0.46 
   0  -9   8   14.76    0.49 
   1  -9   8    8.81    0.36 
   1  -9   8    8.67    0.33 
   2  -9   8    7.90    0.34 
   2  -9   8    7.58    0.34 
   3  -9   8    0.47    0.17 
   4  -9   8    6.28    0.38 
   4   8  -8    2.26    0.32 
  -4  -8   8    2.37    0.25 
   3   8  -8   10.79    0.55 
  -3  -8   8   11.83    0.45 
   2   8  -8   13.83    0.60 
  -2  -8   8   16.32    0.50 
  -1  -8   8   41.17    1.01 
  -1  -8   8   39.50    0.96 
   0  -8   8   11.15    0.40 
   0  -8   8   12.61    0.39 
   1  -8   8   14.24    0.43 
   1  -8   8   13.15    0.43 
  -2   8  -8   51.75    1.19 
   2  -8   8   52.57    1.24 
   2  -8   8   52.38    1.18 
   3  -8   8   18.63    0.58 
   4  -8   8    5.59    0.35 
   5  -8   8    0.23    0.22 
   5   7  -8    0.83    0.30 
   4   7  -8    0.53    0.23 
  -4  -7   8    0.36    0.17 
   3   7  -8    1.21    0.26 
  -3  -7   8    0.59    0.16 
   2   7  -8   -0.15    0.21 
  -2  -7   8    0.05    0.12 
  -1  -7   8    9.85    0.36 
  -1  -7   8    9.90    0.38 
   0  -7   8   24.90    0.64 
   0  -7   8   25.37    0.65 
   1  -7   8    9.38    0.35 
   1  -7   8    9.88    0.34 
   2  -7   8   10.50    0.36 
   2  -7   8   10.16    0.37 
   3  -7   8    5.09    0.30 
   4  -7   8    0.72    0.19 
   5  -7   8    1.74    0.26 
   5   6  -8    0.58    0.26 
   4   6  -8    3.64    0.33 
  -4  -6   8    2.62    0.25 
   3   6  -8   24.56    0.74 
  -3  -6   8   24.64    0.65 
   2   6  -8   28.14    0.83 
  -2  -6   8   30.79    0.74 
  -1  -6   8    5.95    0.30 
  -1  -6   8    5.75    0.26 
   0  -6   8   13.53    0.42 
   0  -6   8   14.21    0.42 
   1  -6   8   10.43    0.35 
   1  -6   8   10.18    0.35 
   2  -6   8   24.60    0.66 
   2  -6   8   24.59    0.62 
   3  -6   8    9.01    0.37 
   4  -6   8    1.10    0.20 
   5  -6   8    0.54    0.20 
   4   5  -8    0.35    0.21 
   4   5  -8    0.44    0.26 
   3   5  -8    8.14    0.39 
  -3  -5   8    8.67    0.33 
   2   5  -8    4.77    0.33 
  -2  -5   8    4.80    0.25 
  -1  -5   8   26.45    0.66 
  -1  -5   8   27.59    0.72 
   0  -5   8   47.83    1.07 
   0  -5   8   48.79    1.11 
   1  -5   8   72.19    1.63 
   1  -5   8   74.69    1.55 
   2  -5   8    4.22    0.22 
   2  -5   8    4.06    0.24 
   3  -5   8    1.60    0.19 
   4  -5   8    1.97    0.22 
   5  -5   8    0.88    0.21 
   5   4  -8    0.79    0.23 
   4   4  -8    0.39    0.24 
   4   4  -8    0.55    0.19 
   3   4  -8   14.42    0.47 
  -3  -4   8   14.36    0.43 
   2   4  -8   16.08    0.51 
  -2  -4   8   16.63    0.46 
  -1  -4   8   43.45    0.97 
   0  -4   8    0.48    0.11 
   0  -4   8    0.30    0.10 
   1  -4   8   13.76    0.40 
   1  -4   8   14.40    0.41 
   2  -4   8  143.83    2.91 
   2  -4   8  146.44    3.12 
   3  -4   8   30.08    0.79 
   4  -4   8    6.17    0.32 
   5  -4   8    0.70    0.19 
   6   3  -8    3.34    0.35 
   5   3  -8    0.91    0.24 
   4   3  -8    1.33    0.27 
   3   3  -8    9.44    0.35 
  -3  -3   8    9.69    0.33 
   2   3  -8   32.88    0.80 
  -2  -3   8   33.13    0.77 
  -1  -3   8   36.66    0.84 
   0  -3   8   17.59    0.47 
   0  -3   8   16.64    0.45 
   1  -3   8   39.75    0.88 
   1  -3   8   39.06    0.93 
   2  -3   8   34.35    0.78 
   2  -3   8   33.63    0.83 
   3  -3   8    1.49    0.17 
   4  -3   8    0.99    0.18 
   5  -3   8    0.52    0.19 
   6   2  -8    0.00    0.23 
   5   2  -8    1.13    0.25 
   4   2  -8    1.97    0.29 
  -3  -2   8   11.18    0.36 
   2   2  -8   29.08    0.70 
  -2  -2   8   30.39    0.70 
  -1  -2   8   10.35    0.33 
   0  -2   8  133.20    2.69 
   0  -2   8  134.27    2.85 
   1  -2   8   38.66    0.91 
   1  -2   8   39.12    0.87 
   2  -2   8   22.08    0.53 
   2  -2   8   22.79    0.56 
   2  -2   8   21.75    0.59 
   3  -2   8   42.98    0.96 
   3  -2   8   41.83    1.02 
   4  -2   8    7.87    0.34 
   4  -2   8    7.90    0.33 
   5  -2   8    8.22    0.38 
   5  -2   8    7.85    0.36 
   6   1  -8    0.16    0.22 
   5   1  -8    0.31    0.20 
   4   1  -8    4.84    0.39 
   3   1  -8    0.27    0.25 
  -3  -1   8   -0.15    0.10 
  -2  -1   8   23.56    0.58 
  -1  -1   8   15.60    0.42 
   0  -1   8    3.47    0.19 
   0  -1   8    3.24    0.19 
   1  -1   8   58.67    1.17 
   1  -1   8   56.10    1.28 
   1  -1   8   57.47    1.23 
   2  -1   8   12.94    0.39 
   2  -1   8   12.76    0.35 
   2  -1   8   12.92    0.38 
   3  -1   8    3.93    0.22 
   3  -1   8    4.45    0.24 
   3  -1   8    4.16    0.22 
   4  -1   8    5.69    0.30 
   4  -1   8    5.33    0.29 
   5  -1   8   -0.02    0.16 
   6   0  -8    0.38    0.24 
   5   0  -8    3.73    0.35 
   4   0  -8    6.50    0.41 
   3   0  -8   11.54    0.55 
  -3   0   8   12.43    0.37 
  -2   0   8   61.77    1.31 
  -1   0   8   28.38    0.67 
  -1   0   8   29.14    0.71 
   0   0   8   32.95    0.77 
   0   0   8   31.17    0.77 
   0   0   8   32.03    0.74 
   1   0   8  103.20    2.20 
   1   0   8  104.69    2.13 
   1   0   8  101.76    2.24 
   1   0   8  108.62    2.09 
   2   0   8   15.19    0.41 
   2   0   8   15.38    0.43 
   2   0   8   14.88    0.43 
   3   0   8   21.26    0.56 
   3   0   8   20.32    0.53 
   3   0   8   21.12    0.57 
   4   0   8   18.11    0.55 
   4   0   8   18.61    0.54 
   5   0   8    0.50    0.19 
   6  -1  -8    0.31    0.23 
   5  -1  -8    1.12    0.24 
   4  -1  -8    4.18    0.35 
   3  -1  -8   15.86    0.61 
  -3   1   8   16.02    0.45 
  -2   1   8   26.26    0.67 
  -2   1   8   26.40    0.64 
  -1   1   8   47.56    1.04 
  -1   1   8   46.79    1.09 
   0   1   8   25.85    0.68 
   0   1   8   25.36    0.63 
   0   1   8   26.50    0.56 
   1   1   8   23.01    0.58 
   1   1   8   23.60    0.58 
   1   1   8   22.86    0.53 
   1   1   8   23.23    0.63 
   2   1   8   41.08    0.95 
   2   1   8   42.07    0.99 
   2   1   8   41.86    0.92 
   2   1   8   40.54    0.94 
   3   1   8    1.76    0.17 
   3   1   8    1.64    0.16 
   3   1   8    1.81    0.18 
   4   1   8    7.36    0.35 
   5   1   8    2.31    0.26 
   6  -2  -8    0.52    0.23 
   5  -2  -8    0.95    0.23 
   4  -2  -8    1.35    0.23 
   3  -2  -8    0.20    0.21 
  -3   2   8    0.05    0.12 
  -3   2   8    0.19    0.14 
  -2   2   8    6.62    0.31 
  -2   2   8    6.84    0.28 
  -1   2   8    9.36    0.32 
  -1   2   8    9.32    0.37 
   0   2   8    0.90    0.15 
   0   2   8    0.81    0.18 
   0   2   8    0.77    0.09 
   1   2   8    0.33    0.11 
   1   2   8    0.22    0.12 
   1   2   8   -0.01    0.16 
   1   2   8    0.31    0.10 
   2   2   8    0.07    0.16 
   2   2   8    0.15    0.11 
   2   2   8    0.13    0.12 
   2   2   8    0.15    0.10 
   3   2   8    0.82    0.15 
   3   2   8    0.94    0.15 
   4   2   8    0.55    0.16 
   5   2   8   -0.08    0.17 
   6  -3  -8    0.25    0.21 
   5  -3  -8   -0.03    0.20 
   4  -3  -8    2.36    0.28 
   3  -3  -8   32.10    0.91 
  -3   3   8   32.90    0.76 
  -3   3   8   32.71    0.82 
   2  -3  -8   13.91    0.55 
  -2   3   8   12.87    0.45 
  -2   3   8   13.35    0.40 
  -1   3   8    0.34    0.16 
  -1   3   8    0.26    0.12 
   0   3   8    5.09    0.25 
   0   3   8    4.99    0.31 
   0   3   8    5.20    0.20 
   1   3   8    2.61    0.21 
   1   3   8    2.66    0.17 
   1   3   8    2.32    0.25 
   2   3   8    8.81    0.39 
   2   3   8    9.30    0.32 
   2   3   8    9.84    0.36 
   2   3   8    9.04    0.33 
   3   3   8    6.97    0.31 
   3   3   8    6.51    0.32 
   3   3   8    7.57    0.30 
   4   3   8    4.28    0.32 
   4   3   8    4.40    0.29 
   5   3   8    0.36    0.19 
   5  -4  -8    3.22    0.33 
   4  -4  -8    0.43    0.20 
   3  -4  -8    0.48    0.19 
  -3   4   8    0.52    0.13 
  -3   4   8    0.73    0.18 
   2  -4  -8   11.52    0.48 
  -2   4   8   11.67    0.38 
  -2   4   8   11.37    0.44 
  -1   4   8   35.40    0.80 
  -1   4   8   35.84    0.84 
  -1   4   8   35.15    0.92 
   0   4   8   37.68    0.97 
   0   4   8   38.16    0.84 
   0   4   8   37.29    0.88 
   1   4   8   20.27    0.52 
   1   4   8   21.12    0.64 
   1   4   8   20.10    0.56 
   2   4   8    0.93    0.15 
   2   4   8    0.99    0.22 
   2   4   8    1.02    0.15 
   3   4   8    0.78    0.17 
   3   4   8    1.06    0.23 
   3   4   8    1.11    0.21 
   5   4   8    2.89    0.31 
   5   4   8    2.80    0.32 
   5  -5  -8    0.16    0.20 
   4  -5  -8    2.01    0.26 
   3  -5  -8    1.14    0.21 
  -3   5   8    1.07    0.21 
  -3   5   8    1.12    0.15 
   2  -5  -8    0.07    0.17 
  -2   5   8    0.18    0.18 
  -2   5   8    0.11    0.12 
   1  -5  -8    1.40    0.23 
  -1   5   8    0.98    0.22 
  -1   5   8    0.91    0.16 
  -1   5   8    0.93    0.13 
   0   5   8    0.91    0.13 
   0   5   8    0.90    0.16 
   0   5   8    0.48    0.20 
   1   5   8    2.29    0.21 
   1   5   8    2.34    0.19 
   1   5   8    2.08    0.27 
   2   5   8   20.33    0.66 
   2   5   8   18.84    0.55 
   2   5   8   19.56    0.55 
   3   5   8    0.17    0.15 
   4   5   8    4.34    0.33 
   5  -6  -8    0.08    0.20 
   4  -6  -8    0.18    0.19 
   3  -6  -8    0.57    0.18 
  -3   6   8    0.69    0.21 
   2  -6  -8    0.01    0.15 
  -2   6   8    0.20    0.12 
  -2   6   8    0.12    0.14 
  -1   6   8    7.09    0.30 
  -1   6   8    7.26    0.30 
   0   6   8    7.64    0.29 
   0   6   8    7.32    0.32 
   1   6   8    9.98    0.38 
   1   6   8    9.91    0.35 
   2   6   8    0.56    0.15 
   2   6   8    0.05    0.21 
   3   6   8    0.15    0.16 
   4   6   8    0.23    0.20 
   5  -7  -8    0.40    0.22 
   4  -7  -8    1.74    0.25 
   3  -7  -8   13.18    0.50 
  -3   7   8   13.14    0.54 
  -2   7   8   12.75    0.42 
  -2   7   8   12.51    0.45 
  -1   7   8   13.38    0.44 
  -1   7   8   13.34    0.44 
   0   7   8   12.75    0.41 
   1   7   8   27.76    0.72 
   2   7   8    6.81    0.44 
   2   7   8    7.02    0.33 
   3   7   8    3.74    0.31 
   4  -8  -8    1.26    0.23 
  -2   8   8    0.20    0.17 
  -1   8   8    0.11    0.14 
   0   8   8    1.43    0.18 
   1   8   8    1.06    0.18 
   2   8   8    0.54    0.18 
   3   8   8    0.03    0.18 
  -2   9   8    3.87    0.32 
  -1   9   8    6.81    0.34 
   0   9   8    5.25    0.30 
   1   9   8    0.84    0.18 
   2   9   8    0.73    0.20 
  -2  10   8    0.90    0.22 
  -1  10   8    0.27    0.18 
   0  10   8    1.12    0.19 
   1  10   8    4.71    0.33 
   2  10   8    0.17    0.19 
  -2  11   8    0.16    0.21 
  -1  11   8    0.15    0.18 
   0  11   8    1.18    0.21 
  -1 -12   9    3.89    0.34 
   0 -12   9    3.19    0.31 
   1 -12   9    0.49    0.21 
   2 -12   9    0.98    0.20 
   2 -12   9    0.60    0.23 
   2  11  -9   10.39    0.57 
  -2 -11   9    9.89    0.45 
  -1 -11   9   21.96    0.68 
   0 -11   9   13.42    0.51 
   1 -11   9   22.78    0.65 
   1 -11   9   22.33    0.68 
   2 -11   9    7.30    0.36 
   2 -11   9    7.97    0.39 
   3 -11   9    8.61    0.42 
   3  10  -9    1.12    0.31 
  -3 -10   9    0.62    0.21 
   2  10  -9    1.12    0.31 
  -2 -10   9    1.22    0.23 
  -1 -10   9    0.40    0.18 
   0 -10   9    1.42    0.21 
   0 -10   9    1.85    0.20 
   1 -10   9    2.35    0.25 
   1 -10   9    2.35    0.24 
   2 -10   9   12.91    0.46 
   2 -10   9   12.47    0.47 
   3 -10   9    3.24    0.31 
   4 -10   9    1.37    0.25 
   4   9  -9    3.42    0.40 
  -4  -9   9    4.24    0.34 
   3   9  -9    2.83    0.35 
  -3  -9   9    3.68    0.30 
   2   9  -9    2.17    0.34 
  -2  -9   9    2.78    0.26 
  -1  -9   9   24.97    0.71 
  -1  -9   9   26.40    0.74 
   0  -9   9   10.04    0.38 
   0  -9   9   10.32    0.40 
   1  -9   9    8.69    0.37 
   1  -9   9    8.54    0.34 
   2  -9   9    8.15    0.37 
   2  -9   9    8.18    0.37 
   3  -9   9    1.17    0.21 
   4  -9   9    0.22    0.19 
   4   8  -9    0.21    0.26 
  -4  -8   9   -0.10    0.18 
   3   8  -9    5.59    0.44 
  -3  -8   9    5.96    0.32 
   2   8  -9    5.31    0.42 
  -2  -8   9    5.83    0.31 
  -1  -8   9   11.04    0.43 
  -1  -8   9   11.51    0.41 
   0  -8   9   38.44    0.94 
   0  -8   9   37.46    0.92 
   1  -8   9   35.52    0.88 
   1  -8   9   35.56    0.89 
   2  -8   9   22.14    0.64 
   2  -8   9   22.25    0.61 
   3  -8   9   34.99    0.93 
   4  -8   9    1.51    0.24 
   4   7  -9   -0.09    0.22 
  -4  -7   9    0.17    0.18 
   3   7  -9    2.14    0.29 
  -3  -7   9    1.83    0.22 
   2   7  -9    1.45    0.27 
  -2  -7   9    1.64    0.20 
  -1  -7   9    5.24    0.28 
  -1  -7   9    6.18    0.32 
   0  -7   9    0.30    0.14 
   0  -7   9    0.52    0.14 
   1  -7   9   10.18    0.37 
   1  -7   9   10.65    0.37 
   2  -7   9    0.36    0.14 
   2  -7   9    0.33    0.14 
   3  -7   9    3.85    0.30 
   4  -7   9    5.99    0.37 
   5  -7   9   -0.12    0.19 
   4   6  -9    1.75    0.28 
  -4  -6   9    1.26    0.20 
   3   6  -9    0.18    0.20 
  -3  -6   9    0.49    0.16 
   2   6  -9   20.11    0.69 
  -2  -6   9   23.09    0.60 
  -1  -6   9   27.38    0.75 
  -1  -6   9   27.67    0.70 
   0  -6   9   19.68    0.54 
   0  -6   9   18.78    0.54 
   1  -6   9   16.60    0.49 
   1  -6   9   16.38    0.48 
   2  -6   9    1.01    0.16 
   2  -6   9    0.93    0.15 
   3  -6   9   18.91    0.59 
   4  -6   9   16.38    0.56 
   5  -6   9    0.01    0.18 
   4   5  -9    4.99    0.48 
   3   5  -9    4.32    0.32 
  -3  -5   9    4.18    0.25 
   2   5  -9    0.83    0.21 
  -2  -5   9    0.98    0.15 
  -1  -5   9   17.74    0.50 
   0  -5   9   47.36    1.06 
   0  -5   9   45.86    1.09 
   1  -5   9   60.70    1.33 
   1  -5   9   61.71    1.40 
   2  -5   9   69.96    1.59 
   2  -5   9   68.75    1.48 
   3  -5   9   32.01    0.85 
   4  -5   9    1.52    0.21 
   5  -5   9    1.08    0.23 
   5   4  -9    0.21    0.23 
   4   4  -9    0.95    0.32 
  -3  -4   9    2.71    0.22 
   2   4  -9    4.90    0.30 
  -2  -4   9    5.22    0.26 
  -1  -4   9    0.31    0.13 
   0  -4   9    6.90    0.29 
   0  -4   9    7.23    0.29 
   1  -4   9    2.27    0.21 
   1  -4   9    1.97    0.19 
   2  -4   9   21.47    0.59 
   2  -4   9   20.67    0.55 
   3  -4   9    8.55    0.36 
   4  -4   9    0.15    0.16 
   5  -4   9    0.05    0.18 
   5   3  -9    6.82    0.47 
   4   3  -9   10.02    0.55 
  -3  -3   9   13.83    0.42 
  -2  -3   9   10.82    0.36 
  -1  -3   9    5.92    0.26 
   0  -3   9   42.06    0.94 
   0  -3   9   40.53    0.97 
   1  -3   9   29.14    0.73 
   1  -3   9   29.49    0.71 
   2  -3   9   65.86    1.51 
   2  -3   9   66.88    1.42 
   3  -3   9    1.18    0.18 
   4  -3   9    2.66    0.25 
   5  -3   9    0.12    0.17 
   5   2  -9    0.57    0.25 
   4   2  -9   -0.12    0.23 
  -3  -2   9    2.85    0.20 
  -2  -2   9   56.45    1.23 
  -1  -2   9  130.17    2.64 
   0  -2   9   34.83    0.82 
   0  -2   9   35.95    0.85 
   1  -2   9    1.99    0.19 
   1  -2   9    2.03    0.18 
   2  -2   9   19.41    0.55 
   2  -2   9   19.96    0.50 
   2  -2   9   20.06    0.53 
   3  -2   9   14.64    0.47 
   3  -2   9   15.04    0.43 
   4  -2   9   26.35    0.69 
   4  -2   9   25.80    0.73 
   5  -2   9    3.12    0.28 
   5  -2   9    3.20    0.30 
   5   1  -9    0.08    0.22 
   4   1  -9    1.11    0.28 
  -3  -1   9    0.06    0.12 
  -2  -1   9    8.82    0.32 
  -1  -1   9    9.27    0.32 
   0  -1   9    0.85    0.15 
   0  -1   9    0.69    0.13 
   1  -1   9    1.64    0.17 
   1  -1   9    1.89    0.17 
   2  -1   9   10.08    0.30 
   2  -1   9   10.18    0.35 
   2  -1   9    9.12    0.33 
   3  -1   9    0.51    0.14 
   3  -1   9    0.54    0.14 
   3  -1   9    0.49    0.13 
   4  -1   9    3.75    0.27 
   4  -1   9    3.47    0.27 
   5  -1   9    0.56    0.20 
   6   0  -9   -0.06    0.22 
   5   0  -9    4.58    0.39 
   4   0  -9    8.33    0.48 
   3   0  -9   17.80    0.69 
  -3   0   9   18.52    0.50 
  -2   0   9   25.64    0.64 
  -1   0   9   27.47    0.67 
   0   0   9   38.14    0.92 
   0   0   9   39.51    0.89 
   0   0   9   37.54    0.92 
   1   0   9   17.03    0.49 
   1   0   9   17.88    0.48 
   2   0   9    9.46    0.31 
   2   0   9    9.70    0.34 
   2   0   9    9.75    0.33 
   3   0   9    0.23    0.13 
   3   0   9    0.18    0.13 
   3   0   9    0.39    0.13 
   4   0   9    1.17    0.19 
   5   0   9    2.58    0.27 
   6  -1  -9    0.36    0.26 
   5  -1  -9    0.38    0.22 
   4  -1  -9    0.26    0.22 
   3  -1  -9    1.14    0.27 
  -3   1   9    2.00    0.18 
  -2   1   9    8.14    0.31 
  -2   1   9    7.64    0.33 
  -1   1   9   19.96    0.54 
  -1   1   9   20.53    0.58 
   0   1   9   24.08    0.66 
   0   1   9   23.95    0.61 
   1   1   9   20.37    0.55 
   1   1   9   19.90    0.60 
   1   1   9   20.88    0.54 
   2   1   9   42.93    0.99 
   2   1   9   42.87    1.00 
   2   1   9   43.72    0.96 
   2   1   9   42.55    1.04 
   3   1   9   12.60    0.40 
   3   1   9   11.92    0.40 
   4   1   9    3.37    0.28 
   5   1   9    0.42    0.20 
   5  -2  -9    0.18    0.20 
   4  -2  -9    2.51    0.30 
   3  -2  -9    2.35    0.30 
  -3   2   9    2.39    0.22 
  -3   2   9    2.02    0.20 
  -2   2   9    2.92    0.23 
  -2   2   9    3.00    0.26 
  -1   2   9    0.18    0.17 
  -1   2   9    0.17    0.14 
   0   2   9    7.10    0.30 
   0   2   9    7.53    0.36 
   1   2   9    2.02    0.16 
   1   2   9    2.06    0.19 
   1   2   9    1.76    0.22 
   1   2   9    1.84    0.19 
   2   2   9    0.02    0.11 
   2   2   9    0.06    0.11 
   2   2   9    0.08    0.13 
   2   2   9    0.11    0.17 
   3   2   9   -0.08    0.12 
   3   2   9   -0.23    0.16 
   3   2   9   -0.10    0.12 
   4   2   9    0.38    0.16 
   5   2   9    0.00    0.19 
   5  -3  -9    0.20    0.21 
   4  -3  -9    0.40    0.20 
   3  -3  -9    4.54    0.37 
  -3   3   9    5.00    0.31 
  -3   3   9    4.67    0.24 
   2  -3  -9    9.50    0.48 
  -2   3   9    9.32    0.35 
  -2   3   9    9.96    0.40 
  -1   3   9   31.85    0.84 
  -1   3   9   31.06    0.77 
   0   3   9   24.03    0.69 
   0   3   9   22.52    0.61 
   1   3   9   15.41    0.54 
   1   3   9   16.07    0.43 
   1   3   9   14.58    0.46 
   2   3   9    8.92    0.33 
   2   3   9    9.17    0.42 
   2   3   9    9.67    0.35 
   3   3   9    5.35    0.29 
   3   3   9    5.63    0.29 
   3   3   9    6.05    0.36 
   4   3   9    4.59    0.30 
   5   3   9    4.35    0.36 
   5  -4  -9    0.52    0.22 
   4  -4  -9    0.59    0.22 
   3  -4  -9    0.35    0.19 
  -3   4   9    0.37    0.14 
  -3   4   9    0.35    0.19 
   2  -4  -9    6.47    0.39 
  -2   4   9    6.19    0.28 
  -2   4   9    6.49    0.35 
  -1   4   9   10.55    0.37 
  -1   4   9   10.38    0.44 
   0   4   9    2.35    0.22 
   0   4   9    3.06    0.30 
   1   4   9    8.09    0.33 
   1   4   9    8.08    0.29 
   1   4   9    8.08    0.41 
   2   4   9    8.04    0.40 
   2   4   9    7.31    0.31 
   2   4   9    8.06    0.33 
   3   4   9    4.58    0.36 
   3   4   9    4.63    0.30 
   3   4   9    4.77    0.28 
   4   4   9    0.03    0.18 
   5  -5  -9    0.40    0.24 
   4  -5  -9    2.39    0.28 
   3  -5  -9    0.45    0.20 
  -3   5   9    0.19    0.20 
  -3   5   9    0.21    0.13 
   2  -5  -9    8.17    0.42 
  -2   5   9    7.81    0.40 
  -2   5   9    7.55    0.32 
   1  -5  -9   -0.10    0.19 
  -1   5   9    0.11    0.19 
  -1   5   9    0.09    0.13 
   0   5   9    0.04    0.20 
   0   5   9    0.03    0.13 
   0   5   9    0.08    0.11 
   1   5   9   -0.03    0.11 
   1   5   9   -0.06    0.13 
   1   5   9    0.18    0.21 
   2   5   9    2.16    0.22 
   2   5   9    1.93    0.20 
   2   5   9    1.67    0.28 
   3   5   9    1.38    0.21 
   4   5   9    0.56    0.19 
   5  -6  -9    2.80    0.32 
   4  -6  -9    9.71    0.48 
   3  -6  -9    2.39    0.27 
  -3   6   9    2.95    0.30 
  -3   6   9    2.55    0.22 
   2  -6  -9    1.74    0.23 
  -2   6   9    1.55    0.25 
  -2   6   9    1.13    0.17 
  -1   6   9    4.42    0.26 
  -1   6   9    4.32    0.36 
   0   6   9   12.06    0.42 
   0   6   9   11.48    0.38 
   0   6   9   11.79    0.51 
   1   6   9   44.62    1.18 
   1   6   9   45.04    1.04 
   1   6   9   46.58    1.09 
   2   6   9   11.69    0.43 
   2   6   9   11.92    0.55 
   3   6   9    0.04    0.17 
   4   6   9   -0.02    0.19 
   4  -7  -9    0.13    0.20 
   3  -7  -9    1.44    0.25 
  -3   7   9    1.37    0.28 
  -2   7   9    7.63    0.44 
  -2   7   9    7.31    0.33 
  -1   7   9    2.87    0.24 
   0   7   9   -0.10    0.14 
   0   7   9    0.03    0.13 
   1   7   9    0.98    0.17 
   1   7   9    0.88    0.26 
   2   7   9    0.19    0.25 
   2   7   9    0.11    0.16 
   3   7   9    3.13    0.30 
   4  -8  -9    0.21    0.21 
  -3   8   9    1.27    0.28 
   0   8   9    0.05    0.13 
   1   8   9    1.84    0.22 
   2   8   9    0.36    0.18 
   2   8   9    0.31    0.26 
   3   8   9   -0.26    0.19 
  -3   9   9    1.28    0.31 
   0   9   9    4.04    0.29 
   1   9   9    4.17    0.30 
   2   9   9    0.01    0.29 
   2   9   9    0.24    0.20 
   0  10   9    0.21    0.18 
   1  10   9    0.21    0.19 
  -1 -12  10    8.45    0.44 
   0 -12  10    8.98    0.45 
   1 -12  10    6.18    0.40 
   2  11 -10    0.61    0.30 
  -2 -11  10    0.14    0.20 
  -1 -11  10    1.20    0.23 
   0 -11  10   18.21    0.61 
   1 -11  10   12.04    0.45 
   1 -11  10   12.49    0.51 
   2 -11  10    9.26    0.40 
   2 -11  10    9.13    0.44 
   3  10 -10    0.13    0.29 
  -3 -10  10    0.02    0.20 
   2  10 -10    2.51    0.36 
  -2 -10  10    1.57    0.24 
  -1 -10  10   -0.23    0.15 
   0 -10  10    1.92    0.24 
   0 -10  10    1.53    0.22 
   1 -10  10    1.57    0.24 
   1 -10  10    1.49    0.20 
   2 -10  10    3.05    0.28 
   2 -10  10    3.52    0.28 
   3 -10  10    9.65    0.44 
   3   9 -10    2.74    0.36 
  -3  -9  10    3.37    0.31 
   2   9 -10    9.49    0.55 
  -2  -9  10    9.29    0.41 
  -1  -9  10    8.98    0.39 
   0  -9  10   18.21    0.57 
   0  -9  10   18.44    0.57 
   1  -9  10   27.18    0.74 
   1  -9  10   26.84    0.74 
   2  -9  10   17.19    0.56 
   2  -9  10   17.11    0.56 
   3  -9  10   17.89    0.60 
   4  -9  10    3.74    0.35 
   4   8 -10    0.88    0.29 
  -4  -8  10    0.54    0.22 
   3   8 -10    1.41    0.29 
  -3  -8  10    2.03    0.25 
   2   8 -10   10.22    0.54 
  -2  -8  10   10.88    0.42 
  -1  -8  10   15.80    0.51 
   0  -8  10   22.66    0.63 
   0  -8  10   21.99    0.64 
   1  -8  10   37.99    0.94 
   1  -8  10   38.34    0.96 
   2  -8  10   16.92    0.53 
   2  -8  10   16.83    0.54 
   3  -8  10   13.55    0.51 
   4  -8  10   16.80    0.61 
  -4  -7  10    0.02    0.18 
   3   7 -10    0.13    0.22 
  -3  -7  10    0.11    0.16 
   2   7 -10    0.69    0.25 
  -2  -7  10    1.10    0.19 
  -1  -7  10    5.57    0.30 
   0  -7  10    7.38    0.33 
   0  -7  10    7.80    0.33 
   1  -7  10    1.14    0.18 
   1  -7  10    1.10    0.17 
   2  -7  10    0.23    0.14 
   2  -7  10    0.20    0.15 
   3  -7  10    0.07    0.16 
   4  -7  10    0.21    0.19 
   4   6 -10   -0.47    0.33 
  -4  -6  10    0.31    0.17 
  -3  -6  10   17.04    0.53 
   2   6 -10   13.43    0.55 
  -2  -6  10   15.32    0.47 
  -1  -6  10   17.61    0.52 
   0  -6  10   19.45    0.56 
   0  -6  10   18.97    0.55 
   1  -6  10   19.01    0.55 
   1  -6  10   18.43    0.54 
   2  -6  10   26.37    0.69 
   2  -6  10   26.35    0.72 
   3  -6  10   15.90    0.54 
   4  -6  10    1.73    0.24 
   4   5 -10    5.04    0.51 
  -3  -5  10    9.50    0.38 
   2   5 -10    1.91    0.24 
  -2  -5  10    2.23    0.22 
  -1  -5  10   12.99    0.42 
   0  -5  10   33.01    0.82 
   0  -5  10   31.21    0.79 
   1  -5  10   28.20    0.73 
   1  -5  10   27.72    0.71 
   2  -5  10   11.01    0.41 
   2  -5  10   11.89    0.39 
   3  -5  10    3.82    0.28 
   4  -5  10    6.74    0.37 
   5  -5  10    8.56    0.44 
   5   4 -10    0.88    0.30 
   4   4 -10   15.91    0.75 
  -3  -4  10    5.03    0.29 
  -2  -4  10    2.28    0.21 
  -1  -4  10    9.58    0.35 
   0  -4  10    1.89    0.20 
   0  -4  10    1.70    0.19 
   1  -4  10    3.35    0.23 
   1  -4  10    3.79    0.23 
   2  -4  10    0.07    0.13 
   2  -4  10   -0.13    0.12 
   3  -4  10    1.93    0.22 
   4  -4  10    4.84    0.32 
   5  -4  10    0.10    0.19 
   5   3 -10    0.24    0.26 
   4   3 -10    0.04    0.29 
  -3  -3  10    8.51    0.34 
  -2  -3  10    2.30    0.21 
  -1  -3  10   10.82    0.37 
   0  -3  10   10.16    0.36 
   0  -3  10    9.51    0.35 
   1  -3  10    1.96    0.19 
   1  -3  10    2.14    0.20 
   2  -3  10    2.25    0.22 
   2  -3  10    2.41    0.21 
   3  -3  10   11.34    0.42 
   4  -3  10    0.56    0.18 
   5  -3  10    0.55    0.20 
   5   2 -10   -0.02    0.24 
   4   2 -10    0.15    0.28 
  -3  -2  10    3.40    0.23 
  -2  -2  10   15.48    0.46 
  -1  -2  10   34.94    0.83 
   0  -2  10   53.02    1.20 
   0  -2  10   55.62    1.27 
   1  -2  10   86.48    1.91 
   1  -2  10   86.96    1.82 
   2  -2  10   10.80    0.38 
   2  -2  10   10.65    0.37 
   3  -2  10   11.35    0.41 
   4  -2  10    7.92    0.37 
   4  -2  10    7.53    0.35 
   5  -2  10    1.75    0.24 
   5  -2  10    1.55    0.23 
   5   1 -10    1.07    0.29 
   4   1 -10    1.50    0.32 
  -3  -1  10    0.35    0.14 
  -2  -1  10   11.59    0.39 
  -1  -1  10    0.90    0.16 
   0  -1  10    3.02    0.23 
   0  -1  10    2.50    0.24 
   1  -1  10    3.04    0.23 
   1  -1  10    2.91    0.22 
   2  -1  10    0.55    0.15 
   2  -1  10    0.23    0.13 
   3  -1  10    1.09    0.18 
   3  -1  10    0.97    0.16 
   4  -1  10    1.43    0.20 
   4  -1  10    1.43    0.20 
   5  -1  10    0.31    0.21 
   5   0 -10    0.30    0.23 
   4   0 -10    4.05    0.40 
   3   0 -10    0.27    0.28 
  -3   0  10    0.46    0.16 
  -2   0  10    1.60    0.18 
  -1   0  10   53.05    1.18 
   0   0  10   42.89    0.99 
   1   0  10   27.02    0.69 
   1   0  10   27.10    0.69 
   2   0  10   14.82    0.45 
   2   0  10   14.39    0.45 
   3   0  10    2.07    0.22 
   3   0  10    2.60    0.22 
   4   0  10    4.00    0.29 
   5   0  10    0.72    0.22 
   5  -1 -10    0.22    0.24 
   4  -1 -10    1.90    0.31 
   3  -1 -10   15.96    0.68 
  -3   1  10   19.11    0.51 
  -2   1  10   10.31    0.40 
  -2   1  10   10.47    0.37 
  -1   1  10    6.13    0.30 
  -1   1  10    6.91    0.34 
   0   1  10   24.11    0.69 
   0   1  10   25.33    0.65 
   1   1  10   16.43    0.48 
   1   1  10   15.35    0.51 
   1   1  10   14.92    0.47 
   2   1  10   15.63    0.52 
   2   1  10   16.71    0.49 
   2   1  10   16.39    0.47 
   3   1  10   37.83    0.90 
   3   1  10   37.57    0.90 
   4   1  10    0.97    0.19 
   5   1  10    0.03    0.18 
   5  -2 -10    0.15    0.22 
   4  -2 -10    0.33    0.22 
   3  -2 -10    4.99    0.41 
  -3   2  10    4.69    0.26 
  -3   2  10    5.46    0.31 
  -2   2  10    9.78    0.37 
  -2   2  10    9.36    0.39 
  -1   2  10    6.10    0.35 
  -1   2  10    6.85    0.30 
   0   2  10   19.30    0.61 
   0   2  10   19.10    0.55 
   1   2  10    0.48    0.16 
   1   2  10    0.58    0.19 
   2   2  10   14.51    0.46 
   2   2  10   14.51    0.52 
   3   2  10    2.50    0.24 
   3   2  10    2.42    0.24 
   3   2  10    2.88    0.29 
   4   2  10    0.14    0.17 
   5  -3 -10    2.16    0.30 
   4  -3 -10    2.70    0.31 
   3  -3 -10    0.71    0.25 
  -3   3  10    0.88    0.16 
  -3   3  10    1.21    0.21 
   2  -3 -10   16.80    0.67 
  -2   3  10   19.68    0.60 
  -2   3  10   18.59    0.53 
  -1   3  10   14.50    0.46 
  -1   3  10   14.65    0.53 
   0   3  10   16.93    0.57 
   0   3  10   16.84    0.51 
   1   3  10   20.04    0.57 
   1   3  10   19.82    0.64 
   2   3  10    5.73    0.37 
   2   3  10    6.39    0.31 
   3   3  10    4.66    0.29 
   3   3  10    4.68    0.29 
   3   3  10    4.95    0.35 
   4   3  10    3.75    0.32 
   5  -4 -10    0.13    0.23 
   4  -4 -10    0.78    0.23 
   3  -4 -10    1.33    0.25 
  -3   4  10    1.50    0.18 
  -3   4  10    1.54    0.24 
   2  -4 -10   -0.20    0.21 
  -2   4  10    0.13    0.13 
  -2   4  10    0.19    0.20 
  -1   4  10    0.03    0.20 
  -1   4  10    0.21    0.14 
   0   4  10    0.65    0.16 
   0   4  10    0.58    0.22 
   1   4  10    0.08    0.21 
   1   4  10    0.41    0.17 
   2   4  10    1.86    0.21 
   2   4  10    1.99    0.20 
   2   4  10    1.73    0.27 
   3   4  10    1.71    0.21 
   3   4  10    0.90    0.19 
   4   4  10    0.70    0.21 
   5  -5 -10    0.16    0.23 
   4  -5 -10    2.10    0.28 
   3  -5 -10    1.70    0.26 
  -3   5  10    1.45    0.26 
  -3   5  10    1.72    0.20 
   2  -5 -10    0.24    0.21 
  -2   5  10    0.22    0.21 
  -2   5  10    0.25    0.14 
   1  -5 -10    1.37    0.27 
  -1   5  10    1.24    0.24 
  -1   5  10    1.41    0.20 
   0   5  10    0.20    0.15 
   0   5  10   -0.06    0.21 
   1   5  10    0.58    0.23 
   1   5  10    0.66    0.17 
   2   5  10    5.46    0.30 
   2   5  10    5.26    0.39 
   2   5  10    5.34    0.31 
   3   5  10    0.66    0.19 
   4   5  10   -0.16    0.18 
   4  -6 -10    1.66    0.28 
   3  -6 -10    2.48    0.28 
  -3   6  10    2.66    0.32 
  -3   6  10    3.13    0.24 
   2  -6 -10    6.65    0.38 
  -2   6  10    6.34    0.42 
  -2   6  10    7.21    0.33 
  -1   6  10    6.30    0.32 
  -1   6  10    6.98    0.43 
   0   6  10    8.16    0.36 
   0   6  10    7.33    0.45 
   1   6  10    1.87    0.31 
   1   6  10    1.57    0.21 
   2   6  10    1.06    0.19 
   2   6  10    0.63    0.26 
   3   6  10    7.05    0.38 
   4  -7 -10    0.16    0.22 
   3  -7 -10    0.12    0.18 
  -3   7  10    0.07    0.22 
  -2   7  10   -0.13    0.25 
  -2   7  10    0.18    0.15 
  -1   7  10    0.01    0.21 
  -1   7  10   -0.01    0.14 
   0   7  10    1.80    0.23 
   0   7  10    1.96    0.29 
   1   7  10    3.59    0.38 
   2   7  10    2.04    0.24 
   2   7  10    1.49    0.32 
   3   7  10   -0.06    0.19 
  -3   8  10    0.74    0.29 
  -2   8  10   -0.22    0.22 
  -1   8  10    0.27    0.26 
   0   8  10    1.36    0.29 
   1   8  10    0.71    0.28 
   2   8  10    0.45    0.31 
   2   8  10    0.05    0.19 
  -3   9  10   -0.23    0.24 
  -2   9  10    1.13    0.32 
  -1   9  10   13.18    0.66 
   0   9  10    7.42    0.52 
   1   9  10    1.41    0.34 
  -1 -11  11    9.36    0.46 
   0 -11  11    6.52    0.39 
   1 -11  11    3.26    0.32 
   1 -11  11    3.15    0.30 
   2 -11  11    8.52    0.45 
   2 -11  11    8.67    0.41 
   2  10 -11    0.11    0.28 
  -2 -10  11    0.32    0.21 
  -1 -10  11    0.68    0.20 
   0 -10  11    0.73    0.21 
   0 -10  11    0.93    0.22 
   1 -10  11    0.38    0.20 
   1 -10  11    0.63    0.18 
   2 -10  11   -0.05    0.18 
   2 -10  11    0.10    0.16 
   3 -10  11    0.40    0.22 
  -3  -9  11   10.01    0.47 
   2   9 -11   13.24    0.63 
  -2  -9  11   12.98    0.50 
  -1  -9  11   12.22    0.47 
   0  -9  11   24.87    0.72 
   0  -9  11   25.23    0.71 
   1  -9  11    9.99    0.43 
   1  -9  11   10.09    0.41 
   2  -9  11   11.80    0.47 
   2  -9  11   12.64    0.48 
   3  -9  11    5.70    0.39 
  -3  -8  11    0.23    0.19 
   2   8 -11    5.24    0.44 
  -2  -8  11    5.36    0.32 
  -1  -8  11    5.05    0.31 
   0  -8  11    8.13    0.36 
   0  -8  11    7.87    0.37 
   1  -8  11   11.62    0.45 
   1  -8  11   11.96    0.43 
   2  -8  11   10.85    0.44 
   2  -8  11   11.06    0.43 
   3  -8  11    2.41    0.27 
   4  -8  11    6.03    0.40 
  -4  -7  11    2.57    0.28 
  -3  -7  11    1.55    0.23 
   2   7 -11    5.42    0.42 
  -2  -7  11    6.49    0.33 
  -1  -7  11    1.04    0.19 
   0  -7  11    0.28    0.17 
   0  -7  11    0.51    0.17 
   1  -7  11    8.80    0.38 
   1  -7  11    8.73    0.37 
   2  -7  11    0.44    0.18 
   2  -7  11    0.38    0.15 
   3  -7  11    1.37    0.22 
   4  -7  11   -0.05    0.20 
   4   6 -11    1.31    0.44 
  -4  -6  11    2.29    0.25 
  -3  -6  11    5.52    0.34 
  -2  -6  11    7.14    0.34 
  -1  -6  11   27.59    0.74 
   0  -6  11   15.24    0.50 
   0  -6  11   14.81    0.49 
   1  -6  11   29.19    0.77 
   1  -6  11   29.61    0.78 
   2  -6  11   29.04    0.80 
   2  -6  11   29.35    0.76 
   3  -6  11    4.22    0.31 
   4  -6  11    6.24    0.38 
   4   5 -11    1.45    0.42 
  -3  -5  11    0.24    0.17 
  -2  -5  11    7.49    0.34 
  -1  -5  11   10.82    0.40 
   0  -5  11   12.09    0.42 
   0  -5  11   12.02    0.42 
   1  -5  11    1.64    0.19 
   1  -5  11    1.20    0.19 
   2  -5  11    5.85    0.31 
   2  -5  11    6.63    0.32 
   3  -5  11   16.79    0.56 
   4  -5  11    1.82    0.25 
   5   4 -11    0.40    0.32 
   4   4 -11    2.97    0.47 
  -3  -4  11    1.83    0.22 
  -2  -4  11   14.08    0.46 
  -1  -4  11   12.19    0.42 
   0  -4  11    9.95    0.38 
   0  -4  11   10.38    0.39 
   1  -4  11    2.41    0.22 
   1  -4  11    2.33    0.23 
   2  -4  11    4.18    0.28 
   2  -4  11    4.17    0.27 
   3  -4  11    7.22    0.36 
   4  -4  11    1.55    0.23 
   5   3 -11    0.74    0.32 
   4   3 -11    4.06    0.47 
  -3  -3  11    3.97    0.26 
  -2  -3  11    8.34    0.34 
  -1  -3  11    2.99    0.21 
   0  -3  11   23.51    0.66 
   0  -3  11   22.60    0.63 
   1  -3  11  141.17    2.89 
   1  -3  11  141.13    3.05 
   2  -3  11   19.23    0.57 
   2  -3  11   19.26    0.55 
   3  -3  11    5.05    0.31 
   4  -3  11    2.26    0.25 
   5   2 -11    1.54    0.34 
   4   2 -11    0.47    0.31 
  -3  -2  11    0.72    0.17 
  -2  -2  11    2.38    0.23 
  -1  -2  11   10.07    0.37 
   0  -2  11    2.51    0.22 
   0  -2  11    2.55    0.24 
   1  -2  11    3.57    0.24 
   1  -2  11    4.05    0.26 
   2  -2  11    8.39    0.35 
   2  -2  11    8.37    0.36 
   3  -2  11    1.84    0.21 
   4  -2  11   -0.12    0.17 
   5   1 -11    1.35    0.32 
   4   1 -11    1.87    0.36 
  -3  -1  11    3.81    0.25 
  -2  -1  11    0.18    0.13 
  -1  -1  11    3.96    0.24 
   0  -1  11    5.70    0.28 
   1  -1  11    1.89    0.21 
   1  -1  11    2.31    0.21 
   2  -1  11   11.15    0.40 
   2  -1  11   11.22    0.41 
   3  -1  11    0.10    0.15 
   3  -1  11    0.00    0.14 
   5   0 -11    0.71    0.27 
   4   0 -11    0.66    0.29 
   3   0 -11    6.39    0.53 
  -3   0  11    8.45    0.35 
  -2   0  11   26.92    0.70 
  -1   0  11   16.93    0.51 
   0   0  11   41.47    0.98 
   1   0  11   18.51    0.55 
   1   0  11   18.54    0.54 
   2   0  11    9.18    0.36 
   2   0  11    9.87    0.38 
   3   0  11   15.25    0.50 
   3   0  11   15.13    0.49 
   5  -1 -11   -0.22    0.22 
   4  -1 -11    0.51    0.27 
   3  -1 -11    0.22    0.27 
  -3   1  11    0.61    0.18 
  -2   1  11    2.57    0.24 
  -1   1  11    0.95    0.18 
  -1   1  11    0.72    0.18 
   0   1  11   -0.17    0.18 
   0   1  11    0.35    0.17 
   1   1  11    5.63    0.33 
   1   1  11    5.14    0.29 
   1   1  11    5.41    0.29 
   2   1  11    0.21    0.16 
   2   1  11    0.00    0.14 
   3   1  11    0.71    0.18 
   5  -2 -11    0.67    0.28 
   4  -2 -11    4.57    0.42 
   3  -2 -11    5.14    0.44 
  -3   2  11    5.21    0.28 
  -2   2  11    1.75    0.20 
  -2   2  11    2.11    0.25 
  -1   2  11    6.27    0.31 
  -1   2  11    6.20    0.35 
   0   2  11    7.10    0.33 
   0   2  11    7.70    0.39 
   1   2  11    4.59    0.28 
   1   2  11    4.41    0.33 
   2   2  11    0.01    0.19 
   2   2  11    0.10    0.15 
   3   2  11    0.35    0.16 
   5  -3 -11    0.45    0.27 
   4  -3 -11    1.03    0.26 
   3  -3 -11    6.51    0.46 
  -3   3  11    6.47    0.31 
  -3   3  11    7.70    0.39 
   2  -3 -11    4.76    0.47 
  -2   3  11    4.82    0.30 
  -2   3  11    5.28    0.35 
  -1   3  11    4.88    0.27 
  -1   3  11    4.68    0.35 
   0   3  11   12.49    0.51 
   0   3  11   12.77    0.45 
   1   3  11    7.43    0.35 
   1   3  11    7.76    0.42 
   2   3  11    7.92    0.36 
   2   3  11    8.41    0.44 
   3   3  11    5.19    0.39 
   3   3  11    4.30    0.30 
   4  -4 -11    0.50    0.23 
   3  -4 -11    0.17    0.23 
  -3   4  11    0.30    0.22 
  -3   4  11    0.30    0.16 
   2  -4 -11    0.61    0.26 
  -2   4  11    0.74    0.23 
  -2   4  11    0.61    0.16 
  -1   4  11    0.25    0.16 
  -1   4  11    0.56    0.24 
   0   4  11    0.99    0.18 
   0   4  11    1.21    0.26 
   1   4  11    0.59    0.19 
   1   4  11    0.43    0.24 
   2   4  11    0.26    0.22 
   2   4  11    0.28    0.17 
   3   4  11    1.67    0.22 
   4  -5 -11    0.36    0.23 
   3  -5 -11    1.57    0.28 
  -3   5  11    1.89    0.22 
  -3   5  11    1.87    0.28 
   2  -5 -11    2.47    0.31 
  -2   5  11    2.36    0.24 
  -2   5  11    2.68    0.31 
  -1   5  11    6.76    0.44 
  -1   5  11    6.96    0.34 
   0   5  11    2.98    0.33 
   0   5  11    2.19    0.25 
   1   5  11    0.63    0.18 
   1   5  11    0.31    0.24 
   2   5  11    0.68    0.18 
   2   5  11    0.85    0.27 
   4  -6 -11    0.05    0.21 
   3  -6 -11    1.95    0.28 
  -3   6  11    1.99    0.31 
  -3   6  11    1.54    0.21 
  -2   6  11    0.83    0.27 
  -2   6  11    0.81    0.18 
  -1   6  11    4.80    0.31 
  -1   6  11    5.12    0.41 
   0   6  11    4.88    0.42 
   0   6  11    4.97    0.31 
   1   6  11    2.30    0.32 
   1   6  11    2.18    0.24 
   2   6  11    1.14    0.22 
   2   6  11    1.08    0.31 
  -3   7  11    0.36    0.26 
  -2   7  11    0.23    0.16 
  -2   7  11    0.13    0.25 
  -1   7  11    0.05    0.16 
  -1   7  11   -0.05    0.25 
   0   7  11    0.81    0.29 
   0   7  11    1.48    0.22 
   1   7  11    3.39    0.39 
   1   7  11    3.14    0.30 
   2   7  11    0.23    0.29 
  -3   8  11    0.32    0.28 
  -2   8  11    0.65    0.30 
  -2   8  11    0.38    0.18 
  -1   8  11    1.17    0.33 
  -1   8  11    1.38    0.22 
   0   8  11    9.24    0.58 
   1   8  11    4.59    0.46 
  -1   9  11   -0.05    0.27 
   0   9  11    0.40    0.33 
  -1 -10  12    1.15    0.24 
   0 -10  12    1.80    0.26 
   0 -10  12    1.85    0.26 
   1 -10  12    0.05    0.20 
   1 -10  12    0.12    0.18 
   2 -10  12    3.07    0.31 
   2 -10  12    3.21    0.34 
  -2  -9  12    0.95    0.21 
  -1  -9  12    6.62    0.37 
   0  -9  12   13.19    0.49 
   0  -9  12   12.72    0.50 
   1  -9  12   21.11    0.66 
   1  -9  12   20.49    0.64 
   2  -9  12    3.23    0.31 
   2  -9  12    3.13    0.32 
  -3  -8  12    1.94    0.27 
  -2  -8  12    1.12    0.22 
  -1  -8  12    7.01    0.37 
   0  -8  12    8.84    0.40 
   0  -8  12    8.48    0.40 
   1  -8  12    6.34    0.34 
   1  -8  12    7.02    0.37 
   2  -8  12   17.70    0.60 
   2  -8  12   17.35    0.58 
   3  -8  12   12.86    0.52 
  -3  -7  12    1.39    0.24 
  -2  -7  12    4.25    0.31 
  -1  -7  12    6.14    0.34 
   0  -7  12    6.42    0.34 
   0  -7  12    6.51    0.35 
   1  -7  12    4.72    0.31 
   1  -7  12    4.36    0.30 
   2  -7  12   11.91    0.46 
   2  -7  12   11.55    0.47 
   3  -7  12    0.26    0.19 
   4   6 -12   -0.89    0.40 
  -4  -6  12    0.24    0.20 
  -3  -6  12    1.36    0.22 
  -2  -6  12   17.56    0.57 
  -1  -6  12   20.49    0.62 
   0  -6  12   32.41    0.87 
   0  -6  12   32.88    0.85 
   1  -6  12   22.83    0.66 
   1  -6  12   22.29    0.66 
   2  -6  12   23.33    0.67 
   2  -6  12   23.27    0.69 
   3  -6  12   20.24    0.67 
   4  -6  12    6.04    0.39 
   4   5 -12   -0.24    0.42 
  -4  -5  12    0.56    0.23 
  -3  -5  12    0.12    0.17 
  -2  -5  12    0.07    0.15 
  -1  -5  12    0.54    0.17 
   0  -5  12    1.36    0.21 
   0  -5  12    1.12    0.20 
   1  -5  12    3.73    0.29 
   1  -5  12    3.43    0.27 
   2  -5  12    0.41    0.18 
   2  -5  12    1.02    0.19 
   3  -5  12    0.02    0.16 
   4  -5  12    1.63    0.26 
   4   4 -12   -0.48    0.37 
  -3  -4  12    0.87    0.21 
  -2  -4  12    5.84    0.32 
  -1  -4  12   11.48    0.42 
   0  -4  12   10.64    0.40 
   0  -4  12   11.49    0.45 
   1  -4  12   13.01    0.46 
   1  -4  12   13.18    0.46 
   2  -4  12   13.47    0.48 
   2  -4  12   13.64    0.46 
   3  -4  12    0.74    0.19 
   4  -4  12    0.03    0.17 
   4   3 -12    5.51    0.58 
  -3  -3  12    3.87    0.29 
  -2  -3  12    8.20    0.36 
  -1  -3  12   15.78    0.51 
   0  -3  12   31.18    0.81 
   0  -3  12   32.43    0.86 
   1  -3  12    5.13    0.30 
   1  -3  12    5.12    0.30 
   2  -3  12   17.83    0.56 
   2  -3  12   18.32    0.57 
   3  -3  12    7.56    0.36 
   4  -3  12    3.44    0.31 
   4   2 -12   -0.32    0.31 
  -3  -2  12    0.22    0.17 
  -2  -2  12    0.17    0.15 
  -1  -2  12    2.67    0.24 
   0  -2  12    7.45    0.34 
   0  -2  12    6.22    0.34 
   1  -2  12    5.28    0.31 
   1  -2  12    5.43    0.30 
   2  -2  12    6.29    0.32 
   2  -2  12    6.27    0.32 
   3  -2  12    2.04    0.23 
   4  -2  12    1.07    0.21 
   5   1 -12    0.59    0.31 
   4   1 -12    0.39    0.32 
  -3  -1  12    7.78    0.37 
  -2  -1  12    8.59    0.37 
  -1  -1  12    0.15    0.16 
   0  -1  12   15.59    0.50 
   1  -1  12    1.96    0.22 
   1  -1  12    1.38    0.20 
   2  -1  12    6.25    0.33 
   2  -1  12    6.09    0.32 
   3  -1  12    2.61    0.25 
   5   0 -12    3.08    0.41 
   4   0 -12    0.35    0.31 
  -3   0  12    0.68    0.19 
  -2   0  12    4.70    0.30 
  -1   0  12   32.75    0.83 
   0   0  12   37.47    0.93 
   1   0  12   17.67    0.55 
   1   0  12   16.41    0.54 
   2   0  12    5.84    0.34 
   2   0  12    5.79    0.32 
   3   0  12    1.56    0.22 
   4  -1 -12    0.53    0.28 
   3  -1 -12    1.72    0.35 
  -3   1  12    1.60    0.22 
  -2   1  12    0.18    0.17 
  -1   1  12    0.03    0.17 
   0   1  12    0.83    0.22 
   0   1  12    0.64    0.19 
   1   1  12    3.46    0.28 
   2   1  12    2.90    0.27 
   3   1  12    0.06    0.17 
   4  -2 -12    0.01    0.25 
   3  -2 -12    0.66    0.30 
  -3   2  12    0.11    0.16 
  -2   2  12    3.69    0.30 
  -2   2  12    3.48    0.27 
  -1   2  12    1.99    0.22 
  -1   2  12    2.64    0.29 
   0   2  12    8.00    0.42 
   0   2  12    7.92    0.37 
   1   2  12   16.63    0.54 
   1   2  12   16.12    0.59 
   2   2  12    0.38    0.22 
   2   2  12    0.12    0.17 
   3   2  12    0.71    0.19 
   4  -3 -12    0.91    0.28 
   3  -3 -12    4.52    0.46 
  -3   3  12    4.73    0.30 
  -3   3  12    5.07    0.35 
   2  -3 -12    8.22    0.55 
  -2   3  12   10.09    0.40 
  -2   3  12   10.47    0.48 
  -1   3  12   18.33    0.64 
  -1   3  12   18.91    0.58 
   0   3  12    3.27    0.32 
   0   3  12    3.23    0.28 
   1   3  12   12.01    0.52 
   1   3  12   11.82    0.46 
   2   3  12   12.68    0.53 
   2   3  12   12.00    0.47 
   3   3  12    3.84    0.32 
   4  -4 -12    0.21    0.23 
   3  -4 -12    0.74    0.27 
  -3   4  12    0.43    0.22 
  -3   4  12    0.38    0.18 
   2  -4 -12    0.71    0.29 
  -2   4  12    0.98    0.20 
  -2   4  12    0.98    0.26 
  -1   4  12    0.25    0.18 
  -1   4  12    0.51    0.23 
   0   4  12    0.05    0.16 
   0   4  12   -0.01    0.22 
   1   4  12    0.56    0.20 
   1   4  12    0.57    0.25 
   2   4  12    0.60    0.20 
   2   4  12    0.51    0.26 
   3   4  12    0.07    0.18 
   4  -5 -12    0.31    0.24 
   3  -5 -12    2.18    0.31 
  -3   5  12    2.26    0.24 
  -3   5  12    1.95    0.31 
   2  -5 -12    5.51    0.44 
  -2   5  12    4.97    0.41 
  -2   5  12    5.25    0.32 
  -1   5  12    2.80    0.27 
  -1   5  12    2.99    0.35 
   0   5  12    8.12    0.48 
   0   5  12    7.98    0.39 
   1   5  12    4.37    0.42 
   1   5  12    4.56    0.32 
   2   5  12    3.63    0.31 
   2   5  12    3.27    0.36 
   3  -6 -12    0.20    0.23 
  -3   6  12    0.41    0.17 
  -3   6  12    0.51    0.26 
  -2   6  12    0.45    0.19 
  -2   6  12    0.75    0.28 
  -1   6  12    0.43    0.27 
  -1   6  12    0.33    0.18 
   0   6  12    0.27    0.18 
   0   6  12    0.10    0.27 
   1   6  12    3.88    0.32 
   1   6  12    3.53    0.40 
   2   6  12    0.15    0.29 
   2   6  12   -0.10    0.19 
  -3   7  12    0.10    0.28 
  -2   7  12   -0.18    0.16 
  -2   7  12   -0.04    0.27 
  -1   7  12   -0.15    0.27 
  -1   7  12   -0.10    0.16 
   0   7  12    2.72    0.28 
   0   7  12    3.16    0.37 
   1   7  12    0.60    0.32 
   1   7  12    0.00    0.19 
  -1   8  12   -0.03    0.17 
  -1   8  12    0.58    0.31 
   0   8  12    0.11    0.27 
   0 -10  13    6.78    0.43 
   0 -10  13    6.98    0.41 
  -1  -9  13    3.75    0.33 
   0  -9  13   12.27    0.54 
   0  -9  13   11.56    0.50 
   1  -9  13   15.98    0.57 
   1  -9  13   16.51    0.59 
   2  -9  13   14.58    0.55 
   2  -9  13   13.05    0.55 
  -2  -8  13    0.75    0.22 
  -1  -8  13    0.50    0.20 
   0  -8  13    0.01    0.19 
   0  -8  13   -0.14    0.18 
   1  -8  13    0.93    0.22 
   1  -8  13    1.04    0.22 
   2  -8  13    0.30    0.21 
   2  -8  13    0.44    0.21 
  -3  -7  13    3.25    0.31 
  -2  -7  13    3.71    0.32 
  -1  -7  13    8.96    0.41 
   0  -7  13    9.56    0.43 
   0  -7  13   10.41    0.46 
   1  -7  13    7.83    0.40 
   1  -7  13    7.35    0.40 
   2  -7  13    9.78    0.46 
   2  -7  13   10.81    0.46 
   3  -7  13    3.14    0.32 
  -3  -6  13    4.84    0.34 
  -2  -6  13    3.29    0.30 
  -1  -6  13    4.82    0.32 
   0  -6  13   21.19    0.66 
   0  -6  13   22.10    0.70 
   1  -6  13    8.58    0.41 
   1  -6  13    7.94    0.39 
   2  -6  13    7.44    0.40 
   2  -6  13    8.24    0.39 
   3  -6  13    6.22    0.38 
  -3  -5  13    1.32    0.24 
  -2  -5  13    0.23    0.18 
  -1  -5  13    0.14    0.18 
   0  -5  13    0.19    0.19 
   0  -5  13   -0.10    0.15 
   1  -5  13    0.67    0.19 
   1  -5  13    0.51    0.19 
   2  -5  13   -0.14    0.17 
   2  -5  13    0.20    0.19 
   3  -5  13    1.34    0.23 
   4   4 -13    1.90    0.49 
  -3  -4  13    1.50    0.23 
  -2  -4  13    4.65    0.31 
  -1  -4  13   10.26    0.42 
   0  -4  13   10.79    0.45 
   0  -4  13   10.12    0.42 
   1  -4  13   10.50    0.43 
   1  -4  13   10.57    0.43 
   2  -4  13    3.33    0.29 
   2  -4  13    2.89    0.28 
   3  -4  13    7.73    0.40 
   4   3 -13   -0.36    0.38 
  -3  -3  13    2.48    0.26 
  -2  -3  13    2.08    0.24 
  -1  -3  13   15.09    0.52 
   0  -3  13    5.78    0.33 
   0  -3  13    5.27    0.34 
   1  -3  13    3.40    0.28 
   1  -3  13    3.27    0.29 
   2  -3  13    8.49    0.40 
   2  -3  13    8.47    0.39 
   3  -3  13    0.96    0.23 
   4   2 -13    0.13    0.37 
  -3  -2  13   -0.01    0.17 
  -2  -2  13    0.66    0.18 
  -1  -2  13    1.73    0.23 
   0  -2  13    4.96    0.32 
   1  -2  13    2.04    0.24 
   1  -2  13    1.45    0.21 
   2  -2  13    0.24    0.17 
   2  -2  13    0.35    0.20 
   3  -2  13    0.02    0.18 
   4   1 -13    0.26    0.34 
  -3  -1  13    3.91    0.31 
  -2  -1  13    3.03    0.28 
  -1  -1  13    6.60    0.35 
   0  -1  13   26.17    0.73 
   1  -1  13    9.47    0.44 
   1  -1  13    9.50    0.42 
   2  -1  13    5.35    0.33 
   2  -1  13    5.28    0.34 
   3  -1  13    4.94    0.32 
   4   0 -13    0.33    0.32 
  -3   0  13    0.18    0.18 
  -2   0  13    4.23    0.30 
  -1   0  13    7.65    0.37 
   0   0  13    2.26    0.26 
   1   0  13    4.45    0.33 
   1   0  13    3.83    0.30 
   2   0  13    0.95    0.21 
   2   0  13    1.01    0.20 
   3   0  13    4.65    0.34 
   4  -1 -13    0.53    0.32 
   3  -1 -13    0.52    0.33 
  -3   1  13    0.75    0.21 
  -2   1  13    7.11    0.39 
  -1   1  13    1.04    0.22 
   0   1  13    1.02    0.21 
   1   1  13    1.05    0.22 
   2   1  13    0.99    0.22 
   3   1  13   -0.03    0.18 
   4  -2 -13    5.05    0.52 
   3  -2 -13    1.03    0.33 
  -3   2  13    0.91    0.21 
  -2   2  13    1.17    0.22 
  -1   2  13    7.86    0.42 
  -1   2  13    8.36    0.39 
   0   2  13   12.96    0.48 
   0   2  13   12.61    0.53 
   1   2  13   12.93    0.54 
   1   2  13   13.17    0.50 
   2   2  13   17.45    0.58 
   3   2  13    0.57    0.22 
   4  -3 -13    0.10    0.26 
   3  -3 -13    0.03    0.28 
  -3   3  13    0.01    0.18 
  -3   3  13    0.46    0.23 
   2  -3 -13    1.39    0.37 
  -2   3  13    2.32    0.26 
  -2   3  13    3.08    0.32 
  -1   3  13    1.07    0.21 
  -1   3  13    0.87    0.25 
   0   3  13    1.91    0.24 
   0   3  13    1.75    0.28 
   1   3  13    0.04    0.23 
   1   3  13    0.22    0.18 
   2   3  13    0.58    0.26 
   2   3  13    0.01    0.19 
   3   3  13    2.33    0.27 
   3  -4 -13    1.13    0.31 
  -3   4  13    0.78    0.21 
  -3   4  13    1.25    0.27 
   2  -4 -13    0.71    0.30 
  -2   4  13    0.89    0.21 
  -2   4  13    1.10    0.28 
  -1   4  13    0.43    0.25 
  -1   4  13    0.18    0.19 
   0   4  13    0.36    0.26 
   0   4  13    0.34    0.19 
   1   4  13    0.08    0.20 
   1   4  13    0.09    0.25 
   2   4  13    0.07    0.19 
   2   4  13    0.62    0.28 
   3  -5 -13    0.77    0.27 
  -3   5  13    0.35    0.26 
  -3   5  13    0.28    0.20 
  -2   5  13    1.75    0.32 
  -2   5  13    1.42    0.23 
  -1   5  13    3.44    0.31 
  -1   5  13    3.19    0.36 
   0   5  13    1.47    0.29 
   0   5  13    1.98    0.27 
   1   5  13    1.94    0.32 
   1   5  13    1.52    0.25 
   2   5  13    0.50    0.22 
   2   5  13    1.28    0.33 
  -2   6  13    0.25    0.19 
  -2   6  13    0.63    0.29 
  -1   6  13    0.29    0.20 
  -1   6  13    0.42    0.28 
   0   6  13    0.18    0.19 
   0   6  13    0.43    0.29 
   1   6  13   -0.48    0.27 
   1   6  13    0.08    0.19 
  -1   7  13   -0.17    0.18 
  -1   7  13    0.15    0.31 
  -1  -8  14    0.82    0.23 
   0  -8  14    0.04    0.21 
   0  -8  14    0.12    0.21 
   1  -8  14   -0.02    0.22 
   1  -8  14    0.32    0.21 
  -2  -7  14    0.65    0.22 
  -1  -7  14    0.86    0.23 
   0  -7  14    5.52    0.39 
   0  -7  14    5.37    0.37 
   1  -7  14    4.30    0.36 
   1  -7  14    3.84    0.35 
   2  -7  14    0.89    0.25 
   2  -7  14    0.38    0.22 
  -2  -6  14    5.14    0.36 
  -1  -6  14   12.24    0.49 
   0  -6  14    5.36    0.38 
   0  -6  14    5.49    0.35 
   1  -6  14   22.46    0.70 
   1  -6  14   22.85    0.71 
   2  -6  14    4.88    0.36 
   2  -6  14    5.81    0.37 
  -3  -5  14    0.00    0.20 
  -2  -5  14    0.53    0.20 
  -1  -5  14    0.07    0.18 
   0  -5  14    0.74    0.23 
   0  -5  14    0.55    0.21 
   1  -5  14    0.76    0.21 
   1  -5  14    0.65    0.22 
   2  -5  14    0.73    0.22 
   2  -5  14    0.46    0.21 
   3  -5  14    0.12    0.20 
  -3  -4  14    6.66    0.41 
  -2  -4  14   10.48    0.45 
  -1  -4  14   10.70    0.46 
   0  -4  14   10.38    0.45 
   1  -4  14   13.45    0.52 
   1  -4  14   13.89    0.51 
   2  -4  14   20.27    0.66 
   2  -4  14   21.65    0.68 
   3  -4  14    5.03    0.37 
  -3  -3  14    0.48    0.22 
  -2  -3  14    0.24    0.19 
  -1  -3  14    2.21    0.27 
   0  -3  14   12.66    0.49 
   1  -3  14   12.15    0.51 
   1  -3  14   11.67    0.47 
   2  -3  14    0.34    0.19 
   2  -3  14    0.05    0.19 
   3  -3  14    0.34    0.21 
  -3  -2  14    0.19    0.20 
  -2  -2  14    0.35    0.20 
  -1  -2  14    2.26    0.26 
   0  -2  14   13.74    0.51 
   1  -2  14    0.31    0.20 
   1  -2  14    0.36    0.22 
   2  -2  14    0.29    0.22 
   2  -2  14    0.13    0.20 
   3  -2  14    0.11    0.19 
  -3  -1  14    1.84    0.26 
  -2  -1  14    5.61    0.35 
  -1  -1  14    8.55    0.41 
   0  -1  14   14.96    0.53 
   1  -1  14   10.75    0.46 
   1  -1  14   10.12    0.46 
   2  -1  14    6.02    0.37 
   2  -1  14    5.84    0.38 
  -3   0  14    1.22    0.25 
  -2   0  14    1.21    0.22 
  -1   0  14    2.66    0.28 
   0   0  14    0.96    0.24 
   1   0  14    0.10    0.18 
   2   0  14    1.00    0.24 
   2   0  14    1.05    0.23 
   3  -1 -14    1.51    0.40 
  -3   1  14    2.45    0.29 
  -2   1  14   -0.01    0.21 
  -1   1  14    0.67    0.21 
   0   1  14    0.60    0.21 
   1   1  14    0.23    0.20 
   2   1  14    1.90    0.27 
   3  -2 -14    1.76    0.38 
  -3   2  14    1.69    0.25 
  -2   2  14    1.43    0.25 
  -1   2  14    6.92    0.39 
   0   2  14    6.70    0.38 
   1   2  14    1.60    0.25 
   2   2  14    0.55    0.21 
   3  -3 -14    0.53    0.32 
  -3   3  14    0.73    0.23 
   2  -3 -14   -0.49    0.31 
  -2   3  14    0.26    0.24 
  -2   3  14   -0.14    0.19 
  -1   3  14   -0.12    0.19 
  -1   3  14    0.13    0.25 
   0   3  14    1.51    0.31 
   0   3  14    1.49    0.25 
   1   3  14    2.54    0.34 
   1   3  14    2.34    0.28 
   2   3  14    2.50    0.30 
   2  -4 -14   -0.46    0.29 
  -2   4  14    0.13    0.27 
  -2   4  14   -0.07    0.20 
  -1   4  14    0.01    0.20 
  -1   4  14    0.01    0.25 
   0   4  14    0.07    0.19 
   0   4  14    0.19    0.25 
   1   4  14    0.12    0.27 
   1   4  14    0.00    0.20 
  -2   5  14    2.87    0.29 
  -2   5  14    2.43    0.36 
  -1   5  14    3.80    0.41 
  -1   5  14    4.36    0.36 
   0   5  14    5.29    0.38 
   0   5  14    4.73    0.47 
   0  -7  15    5.41    0.40 
  -1  -6  15    1.42    0.25 
   0  -6  15    2.26    0.30 
   1  -6  15    0.86    0.24 
   1  -6  15    1.67    0.28 
  -2  -5  15    2.44    0.30 
  -1  -5  15    0.99    0.25 
   0  -5  15    1.40    0.25 
   1  -5  15    3.18    0.34 
   1  -5  15    3.02    0.30 
   2  -5  15    1.73    0.28 
   2  -5  15    1.93    0.28 
  -2  -4  15    3.79    0.34 
  -1  -4  15    7.98    0.42 
   0  -4  15    7.52    0.41 
   1  -4  15    8.95    0.46 
   1  -4  15    9.51    0.50 
   2  -4  15    3.84    0.39 
   2  -4  15    3.85    0.34 
  -2  -3  15   -0.01    0.19 
  -1  -3  15    0.32    0.20 
   0  -3  15    0.65    0.23 
   1  -3  15    0.12    0.22 
   1  -3  15    0.32    0.23 
   2  -3  15    3.27    0.34 
   2  -3  15    3.16    0.33 
  -3  -2  15    1.11    0.25 
  -2  -2  15    1.26    0.24 
  -1  -2  15    4.88    0.36 
   0  -2  15    2.29    0.28 
   1  -2  15    0.89    0.26 
   1  -2  15    0.93    0.24 
   2  -2  15    3.23    0.32 
   2  -2  15    3.79    0.36 
  -3  -1  15    0.89    0.24 
  -2  -1  15    0.56    0.23 
  -1  -1  15    0.21    0.20 
   0  -1  15    2.20    0.30 
   1  -1  15   10.74    0.49 
   2  -1  15    3.69    0.36 
   2  -1  15    3.25    0.32 
   3   0 -15   -1.15    0.35 
  -3   0  15    0.09    0.23 
  -2   0  15    1.29    0.26 
  -1   0  15    8.49    0.44 
   0   0  15    0.00    0.23 
   1   0  15    0.21    0.22 
   2   0  15    1.20    0.24 
  -2   1  15    2.46    0.29 
  -1   1  15    3.83    0.35 
   0   1  15    0.41    0.22 
   1   1  15    2.04    0.29 
  -2   2  15    2.79    0.30 
  -1   2  15    2.00    0.28 
   0   2  15    1.93    0.28 
   1   2  15    0.01    0.22 
   2  -3 -15   -0.82    0.33 
  -2   3  15   -0.01    0.21 
  -1   3  15   -0.03    0.20 
  -1   3  15    0.34    0.26 
   0   3  15    0.10    0.22 
   0   3  15    0.43    0.27 
  -1  -4  16    4.46    0.37 
   0  -4  16    9.21    0.49 
  -1  -3  16    0.12    0.22 
   0  -3  16    0.28    0.24 
  -1  -2  16    1.46    0.28 
   0  -2  16    0.52    0.22 
   1  -2  16    9.41    0.49 
  -1  -1  16    6.61    0.44 
   0  -1  16    4.72    0.40 
  -1   0  16    1.27    0.29 
   0   0  16    0.05    0.21 
   0   0   0    0.00    0.00 
;
_shelx_hkl_checksum              44806
loop_
_space_group_symop_operation_xyz
'x, y, z'
'-x, -y, -z'
loop_
_atom_site_label
_atom_site_type_symbol
_atom_site_fract_x
_atom_site_fract_y
_atom_site_fract_z
_atom_site_U_iso_or_equiv
_atom_site_adp_type
_atom_site_occupancy
_atom_site_site_symmetry_order
_atom_site_calc_flag
_atom_site_refinement_flags_posn
_atom_site_refinement_flags_adp
_atom_site_refinement_flags_occupancy
_atom_site_disorder_assembly
_atom_site_disorder_group
Br1 Br -0.00975(6) -0.32821(2) 0.54624(2) 0.05491(12) Uani 1 1 d . . . . .
O1 O -0.3792(3) -0.07672(14) 0.10725(11) 0.0342(3) Uani 1 1 d . . . . .
O2 O 0.3610(3) 0.13220(13) 0.27907(14) 0.0387(4) Uani 1 1 d . . . . .
N1 N -0.0233(3) 0.03240(15) 0.20435(13) 0.0257(3) Uani 1 1 d . . . . .
N2 N -0.2124(3) 0.10709(16) 0.05492(14) 0.0319(4) Uani 1 1 d . . . . .
H2A H -0.3235 0.0946 -0.0027 0.038 Uiso 1 1 calc R U . . .
N3 N -0.0526(3) 0.21610(16) 0.06890(14) 0.0296(3) Uani 1 1 d . . . . .
C3 C -0.2174(3) 0.01547(18) 0.12130(15) 0.0268(4) Uani 1 1 d . . . . .
C4 C 0.1329(3) 0.23144(17) 0.14531(15) 0.0261(4) Uani 1 1 d . . . . .
C5 C 0.1759(3) 0.13218(17) 0.21567(15) 0.0260(4) Uani 1 1 d . . . . .
C6 C -0.0245(3) -0.05694(17) 0.28271(15) 0.0251(4) Uani 1 1 d . . . . .
C7 C 0.1523(4) -0.1445(2) 0.2793(2) 0.0359(4) Uani 1 1 d . . . . .
H7A H 0.2714 -0.1488 0.2237 0.043 Uiso 1 1 calc R U . . .
C8 C 0.1546(4) -0.2264(2) 0.3578(2) 0.0397(5) Uani 1 1 d . . . . .
H8A H 0.2754 -0.2868 0.3565 0.048 Uiso 1 1 calc R U . . .
C9 C -0.0201(4) -0.21886(18) 0.43731(16) 0.0307(4) Uani 1 1 d . . . . .
C10 C -0.2005(4) -0.13262(19) 0.44059(16) 0.0329(4) Uani 1 1 d . . . . .
H10A H -0.3212 -0.1293 0.4955 0.040 Uiso 1 1 calc R U . . .
C11 C -0.2012(4) -0.05068(19) 0.36154(16) 0.0306(4) Uani 1 1 d . . . . .
H11A H -0.3232 0.0091 0.3622 0.037 Uiso 1 1 calc R U . . .
C12 C 0.2925(4) 0.35565(18) 0.16130(16) 0.0275(4) Uani 1 1 d D . . . .
C13 C 0.2635(9) 0.4400(4) 0.0829(4) 0.0350(9) Uiso 0.5 1 d D . P A 1
H13A H 0.1468 0.4151 0.0203 0.042 Uiso 0.5 1 calc R U P A 1
C14 C 0.4022(9) 0.5578(4) 0.0961(4) 0.0369(9) Uiso 0.5 1 d D . P A 1
H14A H 0.3797 0.6129 0.0429 0.044 Uiso 0.5 1 calc R U P A 1
C16' C 0.6144(9) 0.5124(4) 0.2596(4) 0.0351(10) Uiso 0.5 1 d D . P A 1
H16A H 0.7394 0.5371 0.3193 0.042 Uiso 0.5 1 calc R U P A 1
C17' C 0.4779(9) 0.3938(4) 0.2482(4) 0.0310(10) Uiso 0.5 1 d D . P A 1
H17A H 0.5109 0.3382 0.2999 0.037 Uiso 0.5 1 calc R U P A 1
C13' C 0.1824(8) 0.4575(4) 0.1223(4) 0.0303(8) Uiso 0.5 1 d D . P A 2
H13B H 0.0136 0.4452 0.0877 0.036 Uiso 0.5 1 calc R U P A 2
C14' C 0.3203(9) 0.5749(4) 0.1344(4) 0.0342(9) Uiso 0.5 1 d D . P A 2
H14B H 0.2455 0.6431 0.1080 0.041 Uiso 0.5 1 calc R U P A 2
C16 C 0.6710(9) 0.4965(4) 0.2289(4) 0.0329(10) Uiso 0.5 1 d D . P A 2
H16B H 0.8362 0.5100 0.2669 0.039 Uiso 0.5 1 calc R U P A 2
C17 C 0.5334(8) 0.3773(4) 0.2178(4) 0.0276(9) Uiso 0.5 1 d D . P A 2
H17B H 0.6042 0.3109 0.2488 0.033 Uiso 0.5 1 calc R U P A 2
C15 C 0.5718(4) 0.5950(2) 0.18569(19) 0.0392(5) Uani 1 1 d D . . . .
H15A H 0.6598 0.6775 0.1968 0.047 Uiso 0.5 1 calc R U P A 1
H15B H 0.6703 0.6746 0.1903 0.047 Uiso 0.5 1 calc R U P A 2
loop_
_atom_site_aniso_label
_atom_site_aniso_U_11
_atom_site_aniso_U_22
_atom_site_aniso_U_33
_atom_site_aniso_U_23
_atom_site_aniso_U_13
_atom_site_aniso_U_12
Br1 0.0863(2) 0.03875(15) 0.04437(16) 0.02042(10) -0.00261(12) 0.01431(12)
O1 0.0341(7) 0.0361(7) 0.0292(7) 0.0089(6) -0.0112(6) -0.0103(6)
O2 0.0318(7) 0.0293(7) 0.0533(9) 0.0135(6) -0.0198(7) -0.0032(6)
N1 0.0244(7) 0.0268(7) 0.0253(7) 0.0069(6) -0.0057(6) -0.0006(6)
N2 0.0315(8) 0.0357(9) 0.0267(8) 0.0106(7) -0.0107(7) -0.0066(7)
N3 0.0291(8) 0.0309(8) 0.0278(8) 0.0083(6) -0.0058(6) -0.0034(6)
C3 0.0247(9) 0.0320(9) 0.0223(8) 0.0041(7) -0.0047(7) -0.0004(7)
C4 0.0245(8) 0.0272(9) 0.0266(9) 0.0061(7) -0.0031(7) 0.0016(7)
C5 0.0241(8) 0.0240(8) 0.0288(9) 0.0030(7) -0.0050(7) 0.0013(7)
C6 0.0243(8) 0.0241(8) 0.0253(9) 0.0050(7) -0.0076(7) -0.0029(7)
C7 0.0308(10) 0.0331(10) 0.0471(12) 0.0139(9) 0.0060(9) 0.0059(8)
C8 0.0340(11) 0.0320(10) 0.0569(14) 0.0164(10) 0.0017(10) 0.0096(8)
C9 0.0383(10) 0.0236(8) 0.0292(9) 0.0082(7) -0.0095(8) -0.0014(7)
C10 0.0376(10) 0.0351(10) 0.0263(9) 0.0056(8) -0.0012(8) 0.0048(8)
C11 0.0324(10) 0.0320(9) 0.0284(9) 0.0057(8) -0.0032(8) 0.0086(8)
C12 0.0265(9) 0.0263(9) 0.0290(9) 0.0042(7) -0.0021(7) 0.0009(7)
C15 0.0419(12) 0.0269(10) 0.0467(12) 0.0041(9) 0.0011(10) -0.0039(8)
loop_
_atom_type_symbol
_atom_type_description
_atom_type_scat_dispersion_real
_atom_type_scat_dispersion_imag
_atom_type_scat_source
C C 0.0033 0.0016 'International Tables Vol C Tables 4.2.6.8 and 6.1.1.4'
H H 0.0000 0.0000 'International Tables Vol C Tables 4.2.6.8 and 6.1.1.4'
N N 0.0061 0.0033 'International Tables Vol C Tables 4.2.6.8 and 6.1.1.4'
O O 0.0106 0.0060 'International Tables Vol C Tables 4.2.6.8 and 6.1.1.4'
Br Br -0.2901 2.4595 'International Tables Vol C Tables 4.2.6.8 and 6.1.1.4'
loop_
_geom_angle_atom_site_label_1
_geom_angle_atom_site_label_2
_geom_angle_atom_site_label_3
_geom_angle
C3 N1 C5 122.96(16)
C3 N1 C6 118.38(15)
C5 N1 C6 118.66(14)
N3 N2 C3 126.36(15)
C4 N3 N2 118.60(16)
O1 C3 N2 122.51(16)
O1 C3 N1 122.47(17)
N2 C3 N1 115.01(16)
N3 C4 C5 121.55(16)
N3 C4 C12 116.27(16)
C5 C4 C12 122.13(15)
O2 C5 N1 120.15(17)
O2 C5 C4 125.62(16)
N1 C5 C4 114.23(15)
C11 C6 C7 121.08(18)
C11 C6 N1 118.53(17)
C7 C6 N1 120.37(18)
C6 C7 C8 119.5(2)
C9 C8 C7 119.2(2)
C8 C9 C10 121.71(19)
C8 C9 Br1 118.89(16)
C10 C9 Br1 119.39(16)
C9 C10 C11 118.7(2)
C6 C11 C10 119.75(19)
C17 C12 C13' 119.2(3)
C17' C12 C13 117.0(3)
C17 C12 C4 123.6(2)
C17' C12 C4 123.7(2)
C13' C12 C4 117.1(2)
C13 C12 C4 119.2(2)
C14 C13 C12 121.2(4)
C15 C14 C13 120.1(4)
C15 C16' C17' 121.1(4)
C16' C17' C12 120.5(4)
C14' C13' C12 119.9(3)
C13' C14' C15 120.8(4)
C15 C16 C17 121.2(4)
C12 C17 C16 120.0(3)
C14 C15 C16' 119.8(3)
C16 C15 C14' 118.6(3)
loop_
_geom_bond_atom_site_label_1
_geom_bond_atom_site_label_2
_geom_bond_distance
Br1 C9 1.8987(19)
O1 C3 1.228(2)
O2 C5 1.211(2)
N1 C3 1.384(2)
N1 C5 1.411(2)
N1 C6 1.448(2)
N2 N3 1.360(2)
N2 C3 1.360(2)
N3 C4 1.298(2)
C4 C5 1.487(3)
C4 C12 1.491(3)
C6 C11 1.377(3)
C6 C7 1.383(3)
C7 C8 1.391(3)
C8 C9 1.375(3)
C9 C10 1.386(3)
C10 C11 1.397(3)
C12 C17 1.391(4)
C12 C17' 1.396(4)
C12 C13' 1.414(4)
C12 C13 1.421(5)
C13 C14 1.385(6)
C14 C15 1.368(5)
C16' C15 1.376(5)
C16' C17' 1.388(6)
C13' C14' 1.379(5)
C14' C15 1.414(5)
C16 C15 1.379(5)
C16 C17 1.396(5)
loop_
_geom_torsion_atom_site_label_1
_geom_torsion_atom_site_label_2
_geom_torsion_atom_site_label_3
_geom_torsion_atom_site_label_4
_geom_torsion
C3 N2 N3 C4 7.8(3)
N3 N2 C3 O1 175.06(19)
N3 N2 C3 N1 -6.3(3)
C5 N1 C3 O1 174.50(18)
C6 N1 C3 O1 -5.1(3)
C5 N1 C3 N2 -4.1(3)
C6 N1 C3 N2 176.24(17)
N2 N3 C4 C5 1.1(3)
N2 N3 C4 C12 -176.52(17)
C3 N1 C5 O2 -168.89(19)
C6 N1 C5 O2 10.7(3)
C3 N1 C5 C4 11.5(3)
C6 N1 C5 C4 -168.88(16)
N3 C4 C5 O2 170.4(2)
C12 C4 C5 O2 -12.1(3)
N3 C4 C5 N1 -10.0(3)
C12 C4 C5 N1 167.49(17)
C3 N1 C6 C11 -74.4(2)
C5 N1 C6 C11 105.9(2)
C3 N1 C6 C7 106.9(2)
C5 N1 C6 C7 -72.7(2)
C11 C6 C7 C8 -1.0(3)
N1 C6 C7 C8 177.57(18)
C6 C7 C8 C9 0.2(3)
C7 C8 C9 C10 0.7(3)
C7 C8 C9 Br1 -178.45(17)
C8 C9 C10 C11 -0.8(3)
Br1 C9 C10 C11 178.37(14)
C7 C6 C11 C10 1.0(3)
N1 C6 C11 C10 -177.67(16)
C9 C10 C11 C6 0.0(3)
N3 C4 C12 C17 -162.9(3)
C5 C4 C12 C17 19.5(4)
N3 C4 C12 C17' 171.7(3)
C5 C4 C12 C17' -5.9(4)
N3 C4 C12 C13' 21.2(3)
C5 C4 C12 C13' -156.4(3)
N3 C4 C12 C13 -10.4(3)
C5 C4 C12 C13 172.1(3)
C17 C12 C13 C14 -26.4(6)
C17' C12 C13 C14 -3.8(6)
C13' C12 C13 C14 84.8(6)
C4 C12 C13 C14 178.1(4)
C12 C13 C14 C15 0.2(7)
C15 C16' C17' C12 -0.3(8)
C17 C12 C17' C16' 85.0(8)
C13' C12 C17' C16' -26.7(6)
C13 C12 C17' C16' 3.8(6)
C4 C12 C17' C16' -178.2(4)
C17 C12 C13' C14' 4.0(6)
C17' C12 C13' C14' 26.5(5)
C13 C12 C13' C14' -78.0(6)
C4 C12 C13' C14' -179.9(4)
C12 C13' C14' C15 0.0(7)
C17' C12 C17 C16 -82.7(8)
C13' C12 C17 C16 -4.3(6)
C13 C12 C17 C16 25.6(6)
C4 C12 C17 C16 179.8(4)
C15 C16 C17 C12 0.7(7)
C13 C14 C15 C16' 3.5(7)
C13 C14 C15 C16 26.8(6)
C13 C14 C15 C14' -79.7(7)
C17' C16' C15 C14 -3.5(7)
C17' C16' C15 C16 -83.0(9)
C17' C16' C15 C14' 26.9(6)
C17 C16 C15 C14 -27.6(6)
C17 C16 C15 C16' 83.6(9)
C17 C16 C15 C14' 3.3(7)
C13' C14' C15 C14 83.9(7)
C13' C14' C15 C16' -26.7(6)
C13' C14' C15 C16 -3.6(6)
