#------------------------------------------------------------------------------
#$Date: 2015-10-06 14:07:28 +0300 (Tue, 06 Oct 2015) $
#$Revision: 160459 $
#$URL: svn://www.crystallography.net/cod/cif/1/53/41/1534107.cif $
#------------------------------------------------------------------------------
#
# This file is available in the Crystallography Open Database (COD),
# http://www.crystallography.net/
#
# All data on this site have been placed in the public domain by the
# contributors.
#
data_1534107
loop_
_publ_author_name
'Xu, Chunfa'
'Shen, Qilong'
_publ_section_title
;
 Lewis Acid Mediated Trifluoromethylthio Lactonization/Lactamization.
;
_journal_issue                   18
_journal_name_full               'Organic letters'
_journal_page_first              4561
_journal_page_last               4563
_journal_paper_doi               10.1021/acs.orglett.5b02315
_journal_volume                  17
_journal_year                    2015
_chemical_formula_sum            'C20 H13 F3 O2 S'
_chemical_formula_weight         374.36
_chemical_name_systematic
; 
 ? 
;
_space_group_crystal_system      triclinic
_space_group_IT_number           2
_space_group_name_Hall           '-P 1'
_space_group_name_H-M_alt        'P -1'
_symmetry_space_group_name_Hall  '-P 1'
_symmetry_space_group_name_H-M   'P -1'
_atom_sites_solution_hydrogens   geom
_audit_creation_method           SHELXL-2013
_cell_angle_alpha                79.059(3)
_cell_angle_beta                 79.842(3)
_cell_angle_gamma                75.136(3)
_cell_formula_units_Z            2
_cell_length_a                   7.4471(9)
_cell_length_b                   9.4405(11)
_cell_length_c                   12.7810(16)
_cell_measurement_reflns_used    1181
_cell_measurement_temperature    293(2)
_cell_measurement_theta_max      45.519
_cell_measurement_theta_min      4.516
_cell_volume                     844.95(18)
_computing_cell_refinement       'Bruker SMART'
_computing_data_collection       'Bruker SMART'
_computing_data_reduction        'Bruker SHELXTL'
_computing_molecular_graphics    'Bruker SHELXTL'
_computing_publication_material  'Bruker SHELXTL'
_computing_structure_refinement  'SHELXL-2013 (Sheldrick, 2013)'
_computing_structure_solution    'Bruker SHELXTL'
_diffrn_ambient_temperature      293(2)
_diffrn_measured_fraction_theta_full 0.972
_diffrn_measured_fraction_theta_max 0.998
_diffrn_measurement_device_type  'CCD area detector'
_diffrn_measurement_method       'phi and omega scans'
_diffrn_radiation_type           MoK\a
_diffrn_radiation_wavelength     0.71073
_diffrn_reflns_av_R_equivalents  0.0219
_diffrn_reflns_av_unetI/netI     0.0452
_diffrn_reflns_laue_measured_fraction_full 0.972
_diffrn_reflns_laue_measured_fraction_max 0.998
_diffrn_reflns_limit_h_max       8
_diffrn_reflns_limit_h_min       -5
_diffrn_reflns_limit_k_max       11
_diffrn_reflns_limit_k_min       -11
_diffrn_reflns_limit_l_max       15
_diffrn_reflns_limit_l_min       -15
_diffrn_reflns_number            4770
_diffrn_reflns_point_group_measured_fraction_full 0.972
_diffrn_reflns_point_group_measured_fraction_max 0.998
_diffrn_reflns_theta_full        25.242
_diffrn_reflns_theta_max         25.049
_diffrn_reflns_theta_min         1.638
_exptl_absorpt_coefficient_mu    0.234
_exptl_absorpt_correction_T_max  0.7457
_exptl_absorpt_correction_T_min  0.6375
_exptl_absorpt_correction_type   multi-scan
_exptl_absorpt_process_details   sadabs
_exptl_crystal_colour            colorless
_exptl_crystal_density_diffrn    1.471
_exptl_crystal_description       prismatic
_exptl_crystal_F_000             384
_exptl_crystal_size_max          0.151
_exptl_crystal_size_mid          0.113
_exptl_crystal_size_min          0.045
_refine_diff_density_max         0.337
_refine_diff_density_min         -0.418
_refine_diff_density_rms         0.044
_refine_ls_extinction_method     none
_refine_ls_goodness_of_fit_ref   1.051
_refine_ls_hydrogen_treatment    constr
_refine_ls_matrix_type           full
_refine_ls_number_parameters     262
_refine_ls_number_reflns         2977
_refine_ls_number_restraints     36
_refine_ls_restrained_S_all      1.128
_refine_ls_R_factor_all          0.0926
_refine_ls_R_factor_gt           0.0670
_refine_ls_shift/su_max          0.000
_refine_ls_shift/su_mean         0.000
_refine_ls_structure_factor_coef Fsqd
_refine_ls_weighting_details
'w=1/[\s^2^(Fo^2^)+(0.0591P)^2^+0.5922P] where P=(Fo^2^+2Fc^2^)/3'
_refine_ls_weighting_scheme      calc
_refine_ls_wR_factor_gt          0.1460
_refine_ls_wR_factor_ref         0.1591
_reflns_Friedel_coverage         0.000
_reflns_number_gt                2174
_reflns_number_total             2977
_reflns_threshold_expression     'I > 2\s(I)'
_cod_data_source_file            ol5b02315_si_002.cif
_cod_data_source_block           cd214682
_cod_database_code               1534107
_shelx_space_group_comment
; 
The symmetry employed for this shelxl refinement is uniquely defined 
by the following loop, which should always be used as a source of 
symmetry information in preference to the above space-group names. 
They are only intended as comments. 
;
_shelxl_version_number           2013-4
_shelx_res_file
; 
TITL cd214682 in P-1 
CELL 0.71073   7.4471   9.4405  12.7810  79.059  79.842  75.136 
ZERR    2.00   0.0009   0.0011   0.0016   0.003   0.003   0.003 
LATT 1 
SFAC C  H  O  F  S 
UNIT 40 26 4 6 2 
OMIT  -3.00  50.10 
L.S. 10 
ACTA 
BOND $H 
FMAP 2 
PLAN 20 
HTAB C19 F1' 
HTAB C19 F1' 
HTAB C19 F1' 
HTAB C19 F1' 
simu 0.005 f1 f2 f3 f1' f2' f3' 
wpdb -1 
mpla c3 > c8 
mpla c6 c7 c9 > c12 
mpla o2 c1 c2 c3 c4 
mpla c13 > c18 
htab 
conf 
HTAB C19 F1' 
HTAB C19 F1' 
HTAB C19 F1' 
WGHT    0.059100    0.592200 
FVAR       0.23839 
MOLE 1 
S1    5    0.282109    0.602939    0.554109    11.00000    0.09320    0.04964 = 
         0.09064   -0.00707   -0.04547   -0.01143 
O1    3   -0.055067    0.689314    0.859240    11.00000    0.03574    0.09325 = 
         0.08850    0.02851   -0.00413   -0.01890 
O2    3    0.144521    0.792467    0.736927    11.00000    0.03423    0.05825 = 
         0.05724    0.01192   -0.00958   -0.01352 
C1    1    0.103282    0.686215    0.819209    11.00000    0.04030    0.06078 = 
         0.05673    0.00854   -0.01022   -0.02011 
C2    1    0.344853    0.766811    0.701131    11.00000    0.03299    0.05388 = 
         0.04315    0.00300   -0.00570   -0.01436 
C3    1    0.425916    0.626141    0.772492    11.00000    0.03884    0.04613 = 
         0.04003   -0.00171   -0.00724   -0.01372 
C4    1    0.277372    0.580084    0.843125    11.00000    0.03828    0.05195 = 
         0.04284    0.00012   -0.00544   -0.01425 
C5    1    0.303060    0.454678    0.915795    11.00000    0.04773    0.05627 = 
         0.04005    0.00429   -0.00235   -0.02174 
AFIX  43 
H5    2    0.201577    0.427690    0.961598    11.00000   -1.20000 
AFIX   0 
C6    1    0.484658    0.365939    0.921152    11.00000    0.05418    0.04817 = 
         0.03439   -0.00620   -0.00987   -0.00813 
C7    1    0.637469    0.411959    0.850757    11.00000    0.05191    0.04619 = 
         0.04374   -0.00847   -0.01129   -0.00436 
C8    1    0.603245    0.542708    0.775719    11.00000    0.03896    0.05358 = 
         0.04421   -0.00755   -0.00037   -0.01204 
AFIX  43 
H8    2    0.702033    0.571763    0.728488    11.00000   -1.20000 
AFIX   0 
C9    1    0.521425    0.232787    0.992547    11.00000    0.07952    0.05611 = 
         0.04510    0.00222   -0.00922   -0.00771 
AFIX  43 
H9    2    0.422743    0.202133    1.038866    11.00000   -1.20000 
AFIX   0 
C10   1    0.697249    0.148069    0.995460    11.00000    0.09662    0.06100 = 
         0.05927    0.00636   -0.01144    0.00929 
AFIX  43 
H10   2    0.718374    0.059054    1.042396    11.00000   -1.20000 
AFIX   0 
C11   1    0.846787    0.194066    0.928180    11.00000    0.07251    0.07610 = 
         0.07701   -0.00388   -0.02057    0.02595 
AFIX  43 
H11   2    0.967784    0.136249    0.931844    11.00000   -1.20000 
AFIX   0 
C12   1    0.819043    0.321904    0.857288    11.00000    0.05416    0.06787 = 
         0.06024   -0.00969   -0.00515    0.00505 
AFIX  43 
H12   2    0.920843    0.350206    0.812673    11.00000   -1.20000 
AFIX   0 
C13   1    0.406938    0.905768    0.708630    11.00000    0.04365    0.04727 = 
         0.03165    0.00303   -0.00373   -0.01492 
C14   1    0.585900    0.900003    0.726090    11.00000    0.04837    0.05714 = 
         0.06610    0.00041   -0.01290   -0.01711 
AFIX  43 
H14   2    0.670659    0.808965    0.737496    11.00000   -1.20000 
AFIX   0 
C15   1    0.639787    1.029231    0.726697    11.00000    0.06630    0.07923 = 
         0.07221   -0.00568   -0.01683   -0.03514 
AFIX  43 
H15   2    0.760969    1.024603    0.738567    11.00000   -1.20000 
AFIX   0 
C16   1    0.517489    1.163328    0.710111    11.00000    0.08690    0.06446 = 
         0.05952   -0.01394    0.00029   -0.03895 
AFIX  43 
H16   2    0.555002    1.250052    0.709962    11.00000   -1.20000 
AFIX   0 
C17   1    0.339911    1.169411    0.693756    11.00000    0.07108    0.04959 = 
         0.09447   -0.00899   -0.00625   -0.00867 
AFIX  43 
H17   2    0.255231    1.260684    0.683464    11.00000   -1.20000 
AFIX   0 
C18   1    0.284697    1.041779    0.692324    11.00000    0.05449    0.05243 = 
         0.08343    0.00114   -0.01531   -0.01212 
AFIX  43 
H18   2    0.163341    1.047508    0.680193    11.00000   -1.20000 
AFIX   0 
C19   1    0.377605    0.746810    0.582552    11.00000    0.05852    0.05639 = 
         0.05018    0.00233   -0.01368   -0.02124 
AFIX  23 
H19A  2    0.511531    0.724633    0.558803    11.00000   -1.20000 
H19B  2    0.322785    0.839968    0.540663    11.00000   -1.20000 
AFIX   0 
C20   1    0.067492    0.705551    0.509307    11.00000    0.06540    0.06555 = 
         0.05728   -0.00859   -0.00295   -0.02663 
PART 1 
F1    4    0.006461    0.842143    0.526796    10.60000    0.11342    0.07028 = 
         0.13185   -0.03481   -0.06655    0.01991 
F2    4    0.082544    0.718514    0.405466    10.50000    0.08378    0.14299 = 
         0.06902   -0.00593   -0.02044    0.00143 
F3    4   -0.078849    0.641481    0.541656    10.50000    0.06551    0.12105 = 
         0.14633   -0.00089   -0.00377   -0.04502 
PART 2 
F1'   4    0.066665    0.840072    0.467692    10.40000    0.07472    0.06949 = 
         0.13068    0.01257   -0.02885   -0.01490 
F2'   4    0.037437    0.646527    0.431184    10.50000    0.10159    0.12414 = 
         0.10031   -0.04421   -0.04591   -0.02026 
F3'   4   -0.061196    0.687843    0.587065    10.50000    0.06780    0.15476 = 
         0.10461   -0.03152   -0.00021   -0.03737 
PART 0 
HKLF 4 
  
REM  cd214682 in P-1 
REM R1 =  0.0670 for    2174 Fo > 4sig(Fo)  and  0.0926 for all    2977 data 
REM    262 parameters refined using     36 restraints 
  
END 
  
WGHT      0.0591      0.5920 
  
REM Instructions for potential hydrogen bonds 
HTAB C19 F1' 
  
REM Highest difference peak  0.337,  deepest hole -0.418,  1-sigma level  0.044 
Q1    1  -0.0941  0.7965  0.5773  11.00000  0.05    0.34 
Q2    1   0.3452  0.6732  0.5655  11.00000  0.05    0.31 
Q3    1   0.1917  0.6340  0.6187  11.00000  0.05    0.27 
Q4    1   0.0605  0.8432  0.5061  11.00000  0.05    0.24 
Q5    1   0.0979  0.8243  0.4069  11.00000  0.05    0.20 
Q6    1  -0.0237  0.6224  0.6073  11.00000  0.05    0.19 
Q7    1   0.2453  0.6413  0.4841  11.00000  0.05    0.18 
Q8    1   0.3743  0.8334  0.7271  11.00000  0.05    0.17 
Q9    1  -0.0551  0.6423  0.5837  11.00000  0.05    0.17 
Q10   1   0.3732  0.7497  0.6438  11.00000  0.05    0.17 
Q11   1   0.5050  0.5573  0.7429  11.00000  0.05    0.16 
Q12   1   0.1548  0.7813  0.8131  11.00000  0.05    0.15 
Q13   1  -0.0530  0.6183  0.4799  11.00000  0.05    0.15 
Q14   1   0.5346  0.6280  0.7931  11.00000  0.05    0.15 
Q15   1   0.3423  0.6378  0.8354  11.00000  0.05    0.15 
Q16   1   0.5735  0.4227  0.9151  11.00000  0.05    0.15 
Q17   1   0.2574  0.5084  0.5465  11.00000  0.05    0.15 
Q18   1   0.7323  0.3999  0.8713  11.00000  0.05    0.14 
Q19   1   0.3316  0.5736  0.7846  11.00000  0.05    0.14 
Q20   1   0.1237  0.7834  0.6576  11.00000  0.05    0.14 
;
_shelx_res_checksum              3436
_shelx_hkl_file
; 
   1   0   0   27.23    0.53 
   1   0   0   28.02    0.60 
   2   0   0    8.73    0.33 
   2   0   0    8.82    0.25 
   3   0   0   71.72    1.60 
   3   0   0   73.13    1.38 
   4   0   0    8.17    0.29 
   4   0   0    8.10    0.41 
   5   0   0   10.55    0.54 
   5   0   0   11.49    0.38 
   6   0   0    1.36    0.31 
   7   0   0    0.38    0.23 
   8   0   0    0.65    0.30 
   9   0   0    2.17    0.44 
   9  -1   0   -0.04    0.23 
   8  -1   0   -0.04    0.19 
   7  -1   0    0.02    0.18 
   6  -1   0    5.57    0.47 
   5  -1   0   15.26    0.65 
   5  -1   0   15.32    0.49 
   4  -1   0    1.22    0.14 
   4  -1   0    1.17    0.20 
   3  -1   0   15.65    0.53 
  -3   1   0   16.01    0.47 
  -2   1   0    0.00    0.02 
  -1   1   0  381.69    6.54 
   0  -1   0   62.84    1.31 
   0  -1   0   66.20    1.31 
   0   1   0   63.90    1.18 
   0   1   0   63.14    1.31 
   1   1   0  238.65    4.14 
   1   1   0  241.35    4.53 
   2   1   0    8.66    0.25 
   2   1   0    8.36    0.33 
   3   1   0    1.27    0.18 
   3   1   0    1.26    0.11 
   4   1   0   10.56    0.34 
   4   1   0   11.44    0.49 
   5   1   0    0.13    0.07 
   5   1   0   -0.02    0.14 
   6   1   0    0.03    0.21 
   6   1   0    0.23    0.08 
   7   1   0    0.07    0.19 
   8   1   0    0.33    0.26 
   9   1   0    0.34    0.28 
   9  -2   0    0.48    0.24 
   8  -2   0    0.52    0.22 
   7  -2   0    0.55    0.23 
   6  -2   0    3.74    0.41 
   5  -2   0    1.66    0.19 
   5  -2   0    1.20    0.27 
   4  -2   0    6.75    0.39 
  -4   2   0    6.36    0.31 
  -3   2   0    0.01    0.03 
  -2   2   0  180.28    3.28 
   1  -2   0   22.51    0.57 
  -1   2   0   21.62    0.55 
   0  -2   0  195.44    3.79 
   0   2   0  197.98    3.70 
   0   2   0  187.99    3.40 
   1   2   0  284.77    4.91 
   2   2   0   32.55    0.77 
   2   2   0   31.55    0.70 
   3   2   0  107.55    1.98 
   3   2   0  106.24    2.24 
   4   2   0    4.62    0.31 
   4   2   0    4.86    0.23 
   5   2   0    2.04    0.16 
   5   2   0    2.06    0.30 
   6   2   0    0.17    0.08 
   6   2   0   -0.02    0.18 
   7   2   0    7.20    0.54 
   8   2   0    0.07    0.24 
   9   2   0    0.08    0.27 
   8  -3   0    0.95    0.28 
   7  -3   0    0.93    0.28 
   6  -3   0    1.83    0.33 
   5  -3   0    6.33    0.43 
  -5   3   0    5.18    0.31 
   4  -3   0    0.72    0.19 
  -4   3   0    0.64    0.11 
  -3   3   0   11.10    0.44 
  -2   3   0   23.83    0.68 
   1  -3   0   21.05    0.58 
  -1   3   0   21.38    0.60 
   0  -3   0    6.22    0.28 
   0   3   0    6.08    0.20 
   0   3   0    6.03    0.27 
   1   3   0   52.02    1.09 
   1   3   0   51.36    1.09 
   2   3   0    2.19    0.18 
   2   3   0    2.00    0.16 
   3   3   0   21.97    0.59 
   3   3   0   22.59    0.66 
   4   3   0   13.00    0.43 
   4   3   0   13.32    0.54 
   5   3   0    2.29    0.30 
   5   3   0    2.02    0.17 
   6   3   0    6.31    0.30 
   6   3   0    6.35    0.47 
   7   3   0    3.06    0.43 
   8   3   0    0.23    0.18 
   9   3   0    0.23    0.25 
   8  -4   0    0.96    0.22 
   7  -4   0    0.04    0.18 
   6  -4   0    0.03    0.16 
   5  -4   0    0.85    0.24 
  -5   4   0    0.70    0.15 
   4  -4   0    1.24    0.22 
  -4   4   0    1.65    0.22 
   3  -4   0    6.98    0.40 
  -3   4   0    6.78    0.37 
   2  -4   0    0.30    0.15 
  -2   4   0    0.54    0.11 
   1  -4   0   15.09    0.50 
  -1   4   0   14.23    0.51 
   0  -4   0   43.89    1.07 
   0   4   0   43.61    0.93 
   0   4   0   43.78    1.04 
   1   4   0    6.44    0.26 
   1   4   0    6.33    0.30 
   2   4   0   11.57    0.40 
   2   4   0   12.40    0.44 
   3   4   0    0.11    0.08 
   3   4   0    0.10    0.13 
   4   4   0   26.94    0.73 
   4   4   0   26.12    0.82 
   5   4   0    1.72    0.29 
   5   4   0    1.66    0.19 
   6   4   0    8.98    0.55 
   6   4   0    8.91    0.39 
   7   4   0    3.96    0.46 
   8   4   0   -0.10    0.17 
   9   4   0    0.43    0.27 
   7  -5   0    0.70    0.27 
   6  -5   0    0.71    0.29 
   6  -5   0    0.76    0.18 
   5  -5   0    0.59    0.16 
   5  -5   0    0.55    0.25 
  -5   5   0    0.31    0.10 
   4  -5   0    0.66    0.26 
  -4   5   0    0.57    0.14 
   3  -5   0    0.03    0.20 
  -3   5   0    0.34    0.10 
   2  -5   0   10.31    0.46 
  -2   5   0   10.69    0.49 
   1  -5   0    4.95    0.31 
  -1   5   0    4.38    0.29 
   0  -5   0   30.92    0.87 
   0   5   0   31.14    0.72 
   0   5   0   31.60    0.88 
   1   5   0   27.10    0.79 
   1   5   0   26.74    0.67 
   2   5   0   49.19    1.18 
   2   5   0   48.10    1.12 
   3   5   0    6.46    0.34 
   3   5   0    6.62    0.35 
   4   5   0    5.17    0.30 
   4   5   0    5.26    0.36 
   5   5   0   12.73    0.61 
   5   5   0   12.90    0.50 
   6   5   0   15.70    0.73 
   6   5   0   15.88    0.58 
   7   5   0    1.46    0.32 
   8   5   0    0.50    0.23 
   9   5   0    1.06    0.32 
   7  -6   0    0.40    0.29 
   6  -6   0    0.40    0.28 
   5  -6   0    0.05    0.25 
  -5   6   0    0.46    0.11 
   4  -6   0    0.42    0.25 
  -4   6   0    0.42    0.12 
   3  -6   0    2.11    0.33 
  -3   6   0    1.92    0.28 
   2  -6   0   15.72    0.64 
  -2   6   0   14.93    0.66 
   1  -6   0    1.98    0.29 
  -1   6   0    2.06    0.27 
   0  -6   0    0.21    0.19 
   0   6   0    0.35    0.06 
   0   6   0    0.32    0.10 
   1   6   0   74.01    1.69 
   1   6   0   71.49    1.52 
   2   6   0    1.37    0.19 
   2   6   0    1.53    0.22 
   3   6   0    2.82    0.28 
   3   6   0    2.84    0.28 
   4   6   0    0.21    0.20 
   4   6   0    0.48    0.12 
   5   6   0    3.39    0.38 
   5   6   0    4.13    0.30 
   6   6   0    0.60    0.16 
   6   6   0    0.31    0.24 
   7   6   0    1.35    0.32 
   8   6   0    0.15    0.19 
   9   6   0    0.31    0.22 
   6  -7   0    0.59    0.25 
   5  -7   0   -0.19    0.20 
  -5   7   0    0.26    0.10 
   4  -7   0    3.98    0.45 
  -4   7   0    3.33    0.41 
   3  -7   0    2.31    0.36 
  -3   7   0    1.93    0.31 
   2  -7   0   19.75    0.77 
  -2   7   0   18.45    0.80 
   1  -7   0   14.17    0.65 
  -1   7   0   15.22    0.67 
   0  -7   0    0.69    0.24 
   0   7   0    0.68    0.19 
   1   7   0    7.02    0.28 
   1   7   0    7.00    0.44 
   2   7   0   10.30    0.41 
   2   7   0   10.47    0.53 
   3   7   0   14.47    0.63 
   3   7   0   14.54    0.56 
   4   7   0    1.23    0.25 
   4   7   0    1.16    0.27 
   5   7   0    2.39    0.30 
   5   7   0    2.83    0.36 
   6   7   0    0.13    0.12 
   6   7   0    0.07    0.22 
   7   7   0    0.46    0.26 
   8   7   0    1.30    0.33 
   9   7   0    0.25    0.25 
  -5   8   0    0.56    0.12 
  -4   8   0    0.19    0.10 
   3  -8   0    0.52    0.28 
  -3   8   0    0.40    0.13 
   2  -8   0    3.29    0.40 
  -2   8   0    2.67    0.37 
   1  -8   0   11.63    0.61 
  -1   8   0   11.61    0.62 
   0  -8   0    0.33    0.20 
   0   8   0   -0.04    0.11 
   1   8   0    0.19    0.16 
   2   8   0    0.85    0.22 
   3   8   0    0.08    0.14 
   3   8   0    0.12    0.12 
   4   8   0    5.46    0.41 
   5   8   0    4.17    0.35 
   5   8   0    4.46    0.44 
   6   8   0    0.32    0.22 
   6   8   0    0.40    0.15 
   7   8   0   -0.14    0.20 
   8   8   0    0.09    0.22 
  -4   9   0    0.67    0.14 
  -3   9   0    1.38    0.28 
  -2   9   0    1.23    0.26 
  -1   9   0    1.36    0.26 
   0   9   0    0.76    0.22 
   1   9   0    1.97    0.33 
   2   9   0   -0.10    0.11 
   3   9   0    0.28    0.16 
   4   9   0    4.20    0.46 
   5   9   0    0.46    0.18 
   6   9   0    1.51    0.26 
   6   9   0    1.53    0.31 
   7   9   0    0.08    0.20 
   8   9   0    0.35    0.20 
  -3  10   0    0.51    0.16 
  -2  10   0   -0.04    0.09 
  -1  10   0    0.04    0.10 
   0  10   0    0.18    0.13 
   1  10   0    1.65    0.31 
   2  10   0    1.52    0.31 
   3  10   0    0.22    0.16 
   4  10   0    0.11    0.15 
   5  10   0    1.63    0.29 
   6  10   0    1.00    0.20 
  -2  11   0    0.55    0.16 
  -1  11   0    0.64    0.18 
   0  11   0    0.32    0.12 
   1  11   0    0.18    0.16 
   2  11   0    1.89    0.35 
   3  11   0    0.50    0.19 
   4  11   0    0.36    0.17 
   5  11   0    0.60    0.20 
   6  11   0    0.09    0.14 
   0  12   0    0.00    0.14 
   1  12   0    1.75    0.36 
   2  12   0    0.27    0.19 
   3  12   0    0.82    0.27 
   4  12   0    0.07    0.15 
   3  12  -1    0.39    0.17 
   2  12  -1    0.21    0.18 
   1  12  -1    0.55    0.22 
   5  11  -1    0.58    0.17 
   4  11  -1    0.02    0.14 
   3  11  -1    0.35    0.14 
   2  11  -1    0.10    0.17 
   1  11  -1    0.09    0.13 
   0  11  -1    1.11    0.23 
  -1  11  -1    0.39    0.14 
  -2  11  -1    0.71    0.18 
   6  10  -1    0.42    0.14 
   5  10  -1    0.20    0.15 
   4  10  -1   -0.18    0.10 
   3  10  -1    0.27    0.16 
   2  10  -1    0.41    0.17 
   1  10  -1    1.46    0.31 
   0  10  -1    0.43    0.16 
  -1  10  -1    0.28    0.12 
  -2  10  -1    1.49    0.28 
  -3  10  -1    0.17    0.14 
   7   9  -1    0.38    0.27 
   6   9  -1    0.39    0.12 
   6   9  -1    0.32    0.21 
   5   9  -1    1.78    0.30 
   4   9  -1    0.75    0.21 
   3   9  -1   -0.08    0.12 
   2   9  -1    0.88    0.23 
   1   9  -1    0.17    0.12 
   0   9  -1    1.05    0.23 
  -1   9  -1    0.82    0.19 
  -2   9  -1    0.35    0.14 
  -3   9  -1    0.82    0.20 
  -4   9  -1   -0.05    0.13 
   8   8  -1    0.35    0.25 
   7   8  -1    0.05    0.22 
   6   8  -1    0.41    0.28 
   6   8  -1    0.69    0.17 
   5   8  -1    4.95    0.38 
   5   8  -1    5.00    0.44 
   4   8  -1    5.92    0.42 
   4   8  -1    6.03    0.43 
   3   8  -1    4.23    0.42 
   3   8  -1    4.25    0.29 
   2   8  -1    0.52    0.18 
   2   8  -1    0.55    0.11 
   1   8  -1    0.16    0.13 
   0   8  -1    9.64    0.56 
   0  -8   1    9.94    0.49 
  -1   8  -1    2.20    0.34 
  -2   8  -1    1.40    0.25 
  -3   8  -1    0.46    0.13 
  -4   8  -1    1.70    0.28 
  -5   8  -1    0.05    0.10 
   8   7  -1    0.02    0.21 
   7   7  -1    0.03    0.21 
   6   7  -1    0.58    0.14 
   6   7  -1    0.22    0.24 
   5   7  -1    1.34    0.23 
   5   7  -1    1.03    0.28 
   4   7  -1    3.24    0.35 
   4   7  -1    3.66    0.38 
   3   7  -1   -0.05    0.19 
   3   7  -1    0.16    0.14 
   2   7  -1    1.45    0.21 
   2   7  -1    1.13    0.23 
   1   7  -1   30.65    1.00 
   1   7  -1   30.31    0.80 
   0   7  -1   11.87    0.60 
   0   7  -1   13.13    0.44 
   0  -7   1   13.04    0.55 
  -1   7  -1    0.75    0.19 
   1  -7   1    0.92    0.25 
  -2   7  -1    0.46    0.18 
   2  -7   1    0.47    0.23 
  -3   7  -1    0.18    0.12 
   3  -7   1    0.40    0.24 
  -4   7  -1   -0.01    0.09 
   4  -7   1   -0.13    0.19 
  -5   7  -1    0.52    0.13 
   9   6  -1   -0.07    0.24 
   8   6  -1   -0.21    0.18 
   7   6  -1    3.17    0.44 
   6   6  -1    2.61    0.22 
   6   6  -1    2.97    0.40 
   5   6  -1    1.24    0.19 
   5   6  -1    1.37    0.31 
   4   6  -1    1.27    0.18 
   4   6  -1    1.04    0.27 
   3   6  -1    0.17    0.19 
   3   6  -1    0.21    0.09 
   1   6  -1    0.90    0.18 
   1   6  -1    0.91    0.15 
   0   6  -1    0.10    0.09 
   0   6  -1    0.04    0.05 
   0  -6   1    0.00    0.14 
  -1   6  -1    2.22    0.29 
   1  -6   1    1.89    0.26 
  -2   6  -1   18.02    0.75 
   2  -6   1   19.57    0.70 
  -3   6  -1    3.20    0.38 
   3  -6   1    3.03    0.34 
  -4   6  -1    0.04    0.09 
   4  -6   1    0.08    0.22 
  -5   6  -1    0.91    0.18 
   5  -6   1    0.71    0.28 
   6  -6   1    0.60    0.26 
   9   5  -1    0.06    0.21 
   8   5  -1    0.05    0.19 
   7   5  -1    1.63    0.35 
   6   5  -1    1.56    0.33 
   5   5  -1    4.01    0.38 
   5   5  -1    3.93    0.25 
   4   5  -1    5.47    0.30 
   4   5  -1    4.98    0.39 
   3   5  -1    8.30    0.42 
   3   5  -1    8.19    0.38 
   2   5  -1   16.21    0.56 
   2   5  -1   17.15    0.59 
   1   5  -1   63.36    1.47 
   1   5  -1   64.69    1.40 
   0   5  -1    0.16    0.06 
   0   5  -1    0.01    0.07 
   0  -5   1   -0.06    0.12 
  -1   5  -1    3.27    0.25 
   1  -5   1    3.32    0.26 
  -2   5  -1    7.22    0.41 
   2  -5   1    7.18    0.38 
  -3   5  -1    5.77    0.39 
   3  -5   1    6.40    0.41 
  -4   5  -1    1.68    0.27 
   4  -5   1    1.51    0.30 
  -5   5  -1    0.30    0.11 
   5  -5   1    0.31    0.23 
   6  -5   1    0.26    0.24 
   6  -5   1    0.31    0.14 
   7  -5   1    0.13    0.21 
   9   4  -1   -0.06    0.23 
   8   4  -1    0.26    0.22 
   7   4  -1    1.22    0.33 
   6   4  -1    7.90    0.54 
   5   4  -1    0.11    0.06 
   5   4  -1    0.07    0.21 
   4   4  -1    1.59    0.17 
   4   4  -1    1.35    0.24 
   3   4  -1    0.60    0.17 
   3   4  -1    0.54    0.11 
   2   4  -1    8.30    0.37 
   2   4  -1    8.16    0.35 
   0   4  -1    3.51    0.24 
   0   4  -1    4.08    0.20 
   0  -4   1    3.69    0.23 
  -1   4  -1    0.15    0.07 
   1  -4   1    0.20    0.13 
  -2   4  -1   31.43    0.91 
   2  -4   1   31.89    0.86 
  -3   4  -1    9.06    0.45 
   3  -4   1    9.08    0.44 
  -4   4  -1    1.78    0.23 
  -5   4  -1    3.14    0.28 
   6  -4   1    0.13    0.14 
   6  -4   1    0.03    0.15 
   7  -4   1    0.26    0.21 
   8  -4   1    0.40    0.20 
   9   3  -1    0.37    0.29 
   8   3  -1    0.33    0.25 
   7   3  -1    3.98    0.46 
   6   3  -1    1.69    0.33 
   5   3  -1    0.82    0.24 
   5   3  -1    1.01    0.13 
   4   3  -1   26.73    0.66 
   4   3  -1   25.76    0.83 
   3   3  -1    1.15    0.13 
   3   3  -1    1.33    0.19 
   2   3  -1   53.45    1.19 
   2   3  -1   51.93    1.10 
   1   3  -1   10.05    0.36 
   1   3  -1   10.58    0.36 
   0   3  -1   11.00    0.39 
   0  -3   1   10.71    0.35 
  -1   3  -1   14.60    0.49 
   1  -3   1   14.45    0.42 
  -2   3  -1    3.43    0.23 
  -3   3  -1   25.77    0.79 
  -4   3  -1    0.31    0.09 
  -5   3  -1   15.61    0.63 
   5  -3   1   15.73    0.67 
   6  -3   1   14.25    0.59 
   6  -3   1   13.83    0.69 
   7  -3   1    0.21    0.18 
   8  -3   1   -0.19    0.15 
   9   2  -1    0.12    0.26 
   8   2  -1    0.10    0.24 
   7   2  -1    0.38    0.26 
   6   2  -1    0.14    0.23 
   5   2  -1    1.11    0.12 
   5   2  -1    0.69    0.24 
   4   2  -1   13.05    0.38 
   4   2  -1   12.86    0.54 
   3   2  -1    2.80    0.23 
   3   2  -1    2.76    0.15 
   2   2  -1   30.71    0.76 
   2   2  -1   30.43    0.66 
   1   2  -1  115.74    2.09 
   1   2  -1  114.14    2.26 
   0   2  -1    3.05    0.17 
   0   2  -1    4.24    0.21 
   0  -2   1    4.18    0.19 
  -1   2  -1   42.29    0.95 
  -2   2  -1   75.73    1.57 
  -3   2  -1    6.17    0.31 
  -4   2  -1   12.27    0.49 
   5  -2   1   16.94    0.58 
   5  -2   1   17.70    0.71 
   6  -2   1    1.55    0.21 
   6  -2   1    1.75    0.33 
   7  -2   1    0.46    0.23 
   8  -2   1    0.46    0.22 
   9  -2   1    0.45    0.24 
   9   1  -1   -0.01    0.22 
   8   1  -1    0.52    0.28 
   7   1  -1    1.12    0.32 
   6   1  -1   20.49    0.84 
   5   1  -1    1.54    0.12 
   5   1  -1    1.14    0.26 
   4   1  -1   36.39    0.76 
   4   1  -1   36.79    1.02 
   3   1  -1    2.17    0.21 
   3   1  -1    1.99    0.11 
   2   1  -1    1.13    0.09 
   2   1  -1    1.30    0.16 
   1   1  -1   22.13    0.45 
   1   1  -1   21.82    0.52 
   0   1  -1   40.52    0.80 
   0   1  -1   40.11    0.84 
   0   1  -1   40.86    0.97 
  -1   1  -1   55.88    1.12 
  -2   1  -1    2.20    0.15 
   3  -1   1   39.38    0.89 
   4  -1   1    2.08    0.17 
   5  -1   1    0.00    0.06 
   5  -1   1   -0.03    0.17 
   6  -1   1    0.27    0.22 
   6  -1   1    0.03    0.09 
   7  -1   1    1.69    0.34 
   8  -1   1   -0.05    0.21 
   9  -1   1   -0.08    0.19 
   9   0  -1    0.05    0.25 
   8   0  -1    0.11    0.25 
   7   0  -1    0.73    0.26 
   6   0  -1   25.14    0.94 
   5   0  -1    3.35    0.17 
   5   0  -1    3.29    0.35 
   4   0  -1    0.10    0.13 
   4   0  -1    0.05    0.05 
   3   0  -1    2.75    0.23 
   3   0  -1    2.60    0.12 
   2   0  -1    1.04    0.15 
   2   0  -1    0.87    0.07 
   0   0  -1   33.28    0.76 
   0   0  -1   39.40    0.71 
   0   0   1   41.50    0.82 
   1   0   1    3.45    0.13 
   2   0   1   36.12    0.76 
   3   0   1  185.16    3.30 
   4   0   1    0.25    0.09 
   4   0   1    0.38    0.15 
   5   0   1    1.86    0.29 
   5   0   1    1.84    0.16 
   6   0   1    3.81    0.43 
   6   0   1    3.13    0.22 
   7   0   1    0.09    0.21 
   8   0   1    0.61    0.27 
   9   0   1    0.02    0.23 
   9  -1  -1    0.06    0.22 
   8  -1  -1   -0.26    0.19 
   7  -1  -1    0.10    0.19 
   6  -1  -1    0.55    0.24 
   5  -1  -1    1.86    0.15 
   5  -1  -1    1.60    0.29 
   4  -1  -1   36.66    1.02 
   4  -1  -1   36.79    0.81 
   3  -1  -1    3.43    0.24 
  -3   1   1    3.47    0.17 
   2  -1  -1   35.58    0.84 
  -2   1   1   36.72    0.75 
   1  -1  -1    5.36    0.19 
  -1   1   1    5.49    0.17 
   0  -1  -1  126.31    2.47 
   0   1   1  123.39    2.20 
   1   1   1    0.09    0.05 
   2   1   1    0.02    0.06 
   3   1   1    3.17    0.18 
   3   1   1    3.32    0.23 
   4   1   1    3.38    0.20 
   4   1   1    2.98    0.27 
   5   1   1   17.34    0.52 
   5   1   1   17.00    0.68 
   6   1   1    3.27    0.22 
   6   1   1    3.86    0.43 
   7   1   1    0.87    0.27 
   8   1   1    0.10    0.19 
   9   1   1   -0.11    0.20 
   8  -2  -1    1.66    0.36 
   7  -2  -1    2.40    0.39 
   6  -2  -1    0.28    0.20 
   5  -2  -1   30.17    0.98 
   5  -2  -1   28.86    0.76 
   4  -2  -1    7.06    0.38 
  -4   2   1    6.19    0.28 
   3  -2  -1  132.73    2.76 
  -3   2   1  137.27    2.54 
   1  -2  -1    1.95    0.19 
   1  -2  -1    2.04    0.12 
  -1   2   1    1.92    0.13 
   0  -2  -1   74.44    1.56 
   0   2   1   74.24    1.40 
   1   2   1   47.39    0.97 
   1   2   1   49.00    0.99 
   2   2   1    8.61    0.31 
   2   2   1    8.87    0.31 
   3   2   1    0.67    0.14 
   3   2   1    0.72    0.11 
   4   2   1   22.26    0.60 
   4   2   1   23.96    0.74 
   5   2   1    9.04    0.36 
   5   2   1    7.70    0.45 
   6   2   1   16.53    0.55 
   6   2   1   16.70    0.73 
   7   2   1    0.95    0.29 
   8   2   1    0.82    0.29 
   9   2   1    0.60    0.27 
   8  -3  -1    0.43    0.21 
   7  -3  -1    0.26    0.19 
   6  -3  -1    3.42    0.40 
   5  -3  -1    0.60    0.23 
  -5   3   1    0.57    0.09 
   4  -3  -1   -0.03    0.13 
  -4   3   1    0.05    0.04 
   3  -3  -1    8.25    0.37 
   2  -3  -1   23.78    0.71 
  -2   3   1   23.16    0.64 
   1  -3  -1   44.07    1.03 
  -1   3   1   42.35    0.96 
   0  -3  -1    9.04    0.36 
   0   3   1    8.86    0.32 
  -1  -3  -1    0.69    0.15 
   1   3   1    0.91    0.10 
   1   3   1    0.90    0.13 
   2   3   1    0.30    0.09 
   2   3   1    0.18    0.08 
   3   3   1    6.48    0.31 
   3   3   1    6.09    0.28 
   4   3   1   15.80    0.51 
   4   3   1   16.43    0.59 
   5   3   1    0.35    0.12 
   5   3   1    0.29    0.18 
   6   3   1   16.19    0.56 
   6   3   1   16.67    0.73 
   7   3   1   15.50    0.75 
   8   3   1    0.42    0.21 
   9   3   1    0.64    0.25 
   7  -4  -1    0.71    0.22 
   6  -4  -1    0.30    0.21 
   5  -4  -1    0.06    0.17 
  -5   4   1    0.38    0.08 
   4  -4  -1    1.65    0.24 
  -4   4   1    1.98    0.23 
   3  -4  -1    4.36    0.34 
   3  -4  -1    3.92    0.26 
  -3   4   1    4.20    0.26 
   2  -4  -1   22.88    0.73 
  -2   4   1   22.66    0.68 
   1  -4  -1    1.83    0.22 
  -1   4   1    1.81    0.19 
   0  -4  -1    9.98    0.42 
   0   4   1    9.99    0.39 
   0   4   1   10.09    0.26 
  -1  -4  -1   24.35    0.72 
   1   4   1   23.52    0.66 
   1   4   1   24.39    0.56 
   2   4   1   15.92    0.51 
   2   4   1   15.32    0.44 
   3   4   1    2.09    0.21 
   3   4   1    2.28    0.22 
   4   4   1   14.78    0.56 
   4   4   1   15.54    0.53 
   5   4   1    4.97    0.37 
   5   4   1    5.51    0.31 
   6   4   1    0.38    0.22 
   6   4   1    0.63    0.13 
   7   4   1    5.31    0.44 
   8   4   1    0.16    0.19 
   9   4   1    0.13    0.18 
   7  -5  -1    0.40    0.26 
   6  -5  -1   -0.03    0.23 
   5  -5  -1    1.31    0.33 
   5  -5  -1    1.41    0.26 
  -5   5   1    1.59    0.22 
   4  -5  -1    0.05    0.12 
   4  -5  -1    0.32    0.26 
  -4   5   1    0.20    0.08 
   3  -5  -1    0.64    0.15 
   3  -5  -1    0.51    0.25 
  -3   5   1    0.65    0.13 
   2  -5  -1    1.36    0.25 
  -2   5   1    1.34    0.20 
   1  -5  -1    0.28    0.18 
  -1   5   1    0.14    0.06 
   0  -5  -1    6.40    0.37 
   0   5   1    7.42    0.36 
  -1  -5  -1    4.86    0.32 
   1   5   1    5.12    0.30 
   1   5   1    5.22    0.21 
   2   5   1   20.63    0.66 
   2   5   1   20.40    0.56 
   3   5   1    5.01    0.29 
   3   5   1    4.63    0.28 
   4   5   1    2.60    0.28 
   4   5   1    2.02    0.23 
   5   5   1    9.63    0.51 
   5   5   1    9.34    0.43 
   6   5   1    5.11    0.40 
   6   5   1    4.92    0.31 
   7   5   1    0.77    0.27 
   8   5   1    0.59    0.26 
   9   5   1    0.12    0.19 
   7  -6  -1   -0.40    0.21 
   6  -6  -1    0.30    0.30 
   5  -6  -1    0.23    0.28 
  -5   6   1    0.30    0.07 
   4  -6  -1    0.17    0.25 
  -4   6   1    0.19    0.10 
   3  -6  -1    2.40    0.35 
  -3   6   1    2.44    0.31 
   2  -6  -1    5.40    0.42 
  -2   6   1    5.70    0.36 
   1  -6  -1    0.19    0.21 
  -1   6   1    0.30    0.11 
   0  -6  -1    2.69    0.32 
   0   6   1    2.79    0.28 
  -1  -6  -1   18.91    0.70 
   1   6   1   18.90    0.48 
   1   6   1   18.41    0.67 
   2   6   1    0.03    0.08 
   2   6   1   -0.14    0.10 
   3   6   1   18.26    0.66 
   3   6   1   17.98    0.58 
   4   6   1    0.58    0.15 
   4   6   1    0.31    0.18 
   5   6   1    0.04    0.11 
   5   6   1   -0.01    0.18 
   6   6   1    0.66    0.18 
   6   6   1    0.61    0.25 
   7   6   1    0.34    0.22 
   8   6   1   -0.04    0.17 
   9   6   1    0.71    0.27 
   6  -7  -1    0.17    0.27 
   5  -7  -1    0.03    0.24 
   4  -7  -1    0.74    0.31 
  -4   7   1    0.88    0.21 
   3  -7  -1   11.04    0.63 
  -3   7   1   11.06    0.59 
   2  -7  -1    6.74    0.49 
  -2   7   1    7.23    0.45 
   1  -7  -1   11.32    0.59 
  -1   7   1   11.29    0.56 
   0  -7  -1    5.23    0.41 
   0   7   1    4.95    0.36 
  -1  -7  -1    1.22    0.27 
   1   7   1    1.24    0.25 
   2   7   1   11.74    0.41 
   2   7   1   11.58    0.55 
   3   7   1    0.57    0.19 
   3   7   1    0.79    0.22 
   4   7   1    0.72    0.19 
   4   7   1    0.65    0.23 
   5   7   1    0.37    0.16 
   5   7   1    0.76    0.23 
   6   7   1    0.61    0.18 
   6   7   1    0.05    0.21 
   7   7   1    0.08    0.22 
   8   7   1    0.18    0.20 
   9   7   1   -0.15    0.21 
   5  -8  -1    0.41    0.27 
   4  -8  -1   -0.01    0.24 
  -4   8   1   -0.03    0.09 
   3  -8  -1    0.58    0.30 
  -3   8   1    0.14    0.12 
   2  -8  -1    8.38    0.56 
  -2   8   1    7.53    0.50 
   1  -8  -1    1.73    0.35 
  -1   8   1    1.60    0.28 
   0  -8  -1    0.59    0.27 
   0   8   1    0.82    0.20 
  -1  -8  -1    5.76    0.44 
   1   8   1    5.74    0.42 
   2   8   1    0.38    0.18 
   3   8   1    0.08    0.14 
   4   8   1    7.79    0.43 
   4   8   1    7.39    0.48 
   5   8   1    0.01    0.12 
   5   8   1    0.05    0.19 
   6   8   1    1.71    0.28 
   6   8   1    1.85    0.34 
   7   8   1    0.22    0.19 
   8   8   1    0.09    0.18 
  -4   9   1    0.38    0.13 
  -3   9   1    0.28    0.14 
   2  -9  -1    1.58    0.35 
  -2   9   1    1.98    0.32 
   1  -9  -1    1.14    0.30 
  -1   9   1    1.35    0.26 
   0  -9  -1    7.48    0.50 
   0   9   1    8.63    0.54 
   1   9   1    0.00    0.10 
   2   9   1   -0.11    0.10 
   3   9   1    0.48    0.19 
   4   9   1    4.23    0.46 
   5   9   1    3.61    0.42 
   6   9   1    0.78    0.21 
   7   9   1    1.53    0.29 
   8   9   1    0.32    0.18 
  -3  10   1    0.21    0.13 
  -2  10   1    0.09    0.12 
  -1  10   1    0.11    0.11 
   0  10   1    1.12    0.24 
   1  10   1    0.82    0.20 
   2  10   1    2.28    0.37 
   3  10   1   -0.03    0.17 
   4  10   1    1.92    0.34 
   5  10   1    5.33    0.45 
   6  10   1    1.24    0.25 
  -2  11   1    0.16    0.13 
  -1  11   1    0.68    0.16 
   0  11   1    0.01    0.11 
   1  11   1    0.55    0.17 
   2  11   1    0.64    0.24 
   3  11   1    3.01    0.45 
   4  11   1    0.16    0.15 
   5  11   1    0.86    0.24 
   6  11   1    1.60    0.28 
   0  12   1    0.05    0.16 
   1  12   1    0.79    0.20 
   2  12   1    0.72    0.23 
   3  12   1    0.16    0.18 
   4  12   1    0.62    0.18 
   2  12  -2    0.70    0.24 
   5  11  -2    0.22    0.18 
   4  11  -2    0.45    0.20 
   3  11  -2    0.40    0.21 
   2  11  -2    0.13    0.14 
   1  11  -2    0.17    0.17 
   0  11  -2    0.75    0.23 
  -1  11  -2    1.03    0.23 
   5  10  -2    0.24    0.13 
   4  10  -2    0.50    0.19 
   3  10  -2    0.19    0.16 
   2  10  -2    1.09    0.31 
   1  10  -2    0.06    0.14 
   0  10  -2    0.09    0.16 
  -1  10  -2    0.16    0.11 
  -2  10  -2    0.56    0.17 
  -3  10  -2    0.55    0.24 
   7   9  -2    0.56    0.24 
   6   9  -2    0.56    0.24 
   5   9  -2    0.05    0.11 
   5   9  -2    0.10    0.18 
   4   9  -2    1.35    0.27 
   3   9  -2    0.10    0.14 
   2   9  -2    0.97    0.24 
   1   9  -2    2.47    0.37 
   0   9  -2    1.60    0.32 
  -1   9  -2   -0.10    0.10 
  -2   9  -2    0.29    0.12 
  -3   9  -2    1.45    0.27 
  -4   9  -2    0.81    0.20 
   8   8  -2    0.34    0.29 
   7   8  -2    0.35    0.25 
   6   8  -2    0.38    0.27 
   5   8  -2    2.42    0.33 
   5   8  -2    2.21    0.37 
   4   8  -2    5.87    0.46 
   4   8  -2    5.04    0.40 
   3   8  -2    2.56    0.30 
   3   8  -2    2.71    0.36 
   2   8  -2    0.20    0.08 
   2   8  -2    0.12    0.13 
   1   8  -2    4.22    0.37 
   0   8  -2    3.13    0.40 
  -1   8  -2    6.53    0.48 
  -2   8  -2    0.15    0.12 
  -3   8  -2    0.48    0.16 
  -4   8  -2    2.12    0.33 
  -5   8  -2    1.49    0.24 
   8   7  -2   -0.04    0.20 
   7   7  -2   -0.17    0.21 
   6   7  -2    1.00    0.33 
   5   7  -2    0.40    0.26 
   5   7  -2    0.08    0.10 
   4   7  -2    3.54    0.31 
   4   7  -2    3.37    0.39 
   3   7  -2   14.71    0.64 
   3   7  -2   15.27    0.66 
   2   7  -2    1.15    0.23 
   2   7  -2    0.64    0.17 
   1   7  -2    2.16    0.22 
   1   7  -2    2.03    0.31 
   0   7  -2   19.81    0.63 
   0   7  -2   19.73    0.80 
  -1   7  -2    0.57    0.18 
   1  -7   2    0.49    0.20 
  -2   7  -2    0.27    0.13 
  -3   7  -2    0.69    0.20 
  -4   7  -2   -0.08    0.10 
  -5   7  -2   -0.10    0.10 
  -6   7  -2    2.57    0.32 
   9   6  -2   -0.17    0.23 
   8   6  -2    0.12    0.22 
   7   6  -2    2.82    0.45 
   6   6  -2    3.80    0.46 
   5   6  -2    8.40    0.54 
   5   6  -2    8.41    0.42 
   4   6  -2    0.26    0.09 
   4   6  -2   -0.02    0.24 
   3   6  -2    9.72    0.46 
   3   6  -2   10.76    0.54 
   2   6  -2    3.03    0.25 
   2   6  -2    2.85    0.29 
   1   6  -2    1.39    0.23 
   0   6  -2    2.45    0.18 
   0   6  -2    2.73    0.31 
   0  -6   2    2.27    0.21 
  -1   6  -2    2.37    0.31 
   1  -6   2    2.39    0.27 
  -2   6  -2    0.76    0.19 
   2  -6   2    0.63    0.23 
  -3   6  -2   16.24    0.75 
   3  -6   2   15.61    0.62 
  -4   6  -2    0.36    0.14 
   4  -6   2    0.27    0.21 
  -5   6  -2    1.39    0.25 
   5  -6   2    0.97    0.28 
  -6   6  -2    0.53    0.14 
   9   5  -2    0.26    0.26 
   8   5  -2    0.53    0.26 
   7   5  -2    0.06    0.23 
   6   5  -2    8.11    0.56 
   5   5  -2    0.05    0.27 
   5   5  -2    0.48    0.10 
   4   5  -2    2.54    0.20 
   4   5  -2    2.34    0.32 
   3   5  -2    0.26    0.10 
   3   5  -2    0.26    0.20 
   2   5  -2    1.05    0.17 
   2   5  -2    0.99    0.20 
   1   5  -2    0.24    0.13 
   1   5  -2    0.40    0.12 
   0   5  -2    0.73    0.15 
   0  -5   2    0.50    0.13 
  -1   5  -2    1.49    0.22 
   1  -5   2    1.63    0.20 
  -2   5  -2    0.16    0.09 
   2  -5   2    0.16    0.16 
  -3   5  -2    3.71    0.32 
   3  -5   2    3.31    0.31 
  -4   5  -2    7.79    0.48 
   4  -5   2    6.62    0.44 
  -5   5  -2    0.04    0.11 
   5  -5   2    0.08    0.18 
   6  -5   2   -0.10    0.15 
   6  -5   2    0.21    0.14 
   7  -5   2    1.93    0.28 
   9   4  -2    0.47    0.28 
   8   4  -2   -0.01    0.20 
   7   4  -2    0.98    0.31 
   6   4  -2    1.93    0.36 
   5   4  -2    0.34    0.25 
   5   4  -2    0.85    0.12 
   4   4  -2    5.05    0.25 
   4   4  -2    4.39    0.38 
   3   4  -2    1.03    0.22 
   3   4  -2    1.08    0.15 
   2   4  -2   30.97    0.80 
   2   4  -2   29.90    0.84 
   1   4  -2    9.27    0.37 
   1   4  -2    9.04    0.39 
   0   4  -2    0.26    0.10 
   0   4  -2    0.43    0.11 
   0  -4   2    0.29    0.10 
  -1   4  -2    1.80    0.22 
  -1   4  -2    1.47    0.13 
   1  -4   2    1.59    0.18 
  -2   4  -2    0.71    0.15 
   2  -4   2    0.58    0.15 
  -3   4  -2    4.11    0.30 
  -4   4  -2    0.18    0.11 
  -5   4  -2    0.15    0.11 
   6  -4   2    1.18    0.26 
   6  -4   2    1.44    0.28 
   7  -4   2    0.06    0.15 
   8  -4   2    0.29    0.16 
   9   3  -2    0.05    0.26 
   8   3  -2    2.48    0.47 
   7   3  -2    0.07    0.20 
   6   3  -2   -0.07    0.20 
   5   3  -2    0.00    0.21 
   4   3  -2    0.01    0.18 
   4   3  -2    0.18    0.05 
   3   3  -2   67.60    1.57 
   3   3  -2   67.29    1.35 
   2   3  -2    0.71    0.11 
   2   3  -2    0.79    0.17 
   1   3  -2    4.95    0.25 
   1   3  -2    4.53    0.27 
   0   3  -2    4.70    0.23 
   0   3  -2    4.40    0.25 
   0  -3   2    4.58    0.18 
  -1   3  -2   29.64    0.76 
  -1   3  -2   29.43    0.81 
   1  -3   2   29.94    0.69 
  -2   3  -2    0.15    0.08 
  -3   3  -2    7.34    0.38 
  -4   3  -2    8.77    0.45 
   5  -3   2   -0.11    0.14 
   6  -3   2    1.39    0.29 
   6  -3   2    1.72    0.26 
   7  -3   2    0.45    0.20 
   8  -3   2    0.21    0.19 
   9   2  -2   -0.18    0.24 
   8   2  -2    0.59    0.32 
   7   2  -2    0.36    0.26 
   6   2  -2    5.35    0.48 
   5   2  -2    0.86    0.07 
   5   2  -2    0.58    0.24 
   4   2  -2    1.42    0.09 
   4   2  -2    1.24    0.24 
   3   2  -2    0.87    0.19 
   3   2  -2    0.76    0.08 
   2   2  -2   42.93    1.01 
   2   2  -2   41.36    0.86 
   1   2  -2   24.32    0.64 
   1   2  -2   25.00    0.59 
   0   2  -2    5.70    0.16 
   0   2  -2    5.54    0.25 
   0   2  -2    5.76    0.25 
  -1   2  -2    0.92    0.14 
  -1   2  -2    1.19    0.13 
  -2   2  -2   90.36    1.86 
  -3   2  -2   19.31    0.64 
   4  -2   2    0.19    0.11 
   5  -2   2   14.13    0.55 
   6  -2   2    6.81    0.48 
   6  -2   2    7.12    0.40 
   7  -2   2    0.59    0.24 
   8  -2   2    0.82    0.27 
   9  -2   2    0.63    0.24 
   9   1  -2   -0.23    0.24 
   8   1  -2    0.11    0.27 
   7   1  -2    0.12    0.23 
   6   1  -2    5.74    0.48 
   5   1  -2    7.47    0.46 
   4   1  -2   22.62    0.47 
   4   1  -2   21.72    0.74 
   3   1  -2    8.38    0.40 
   3   1  -2    8.36    0.21 
   2   1  -2   20.83    0.43 
   2   1  -2   20.54    0.59 
   1   1  -2  164.29    2.82 
   1   1  -2  156.05    3.10 
   0   1  -2  210.10    3.70 
   0   1  -2  211.91    4.01 
  -1   1  -2   16.01    0.45 
  -1   1  -2   16.25    0.46 
  -2   1  -2   61.68    1.32 
   3  -1   2    6.01    0.29 
   4  -1   2   14.79    0.50 
   5  -1   2    3.68    0.25 
   6  -1   2    0.96    0.28 
   6  -1   2    0.79    0.16 
   7  -1   2    0.72    0.24 
   8  -1   2    1.00    0.30 
   9  -1   2    0.85    0.29 
   9   0  -2    0.26    0.26 
   8   0  -2   -0.05    0.24 
   7   0  -2    0.58    0.26 
   6   0  -2    4.29    0.46 
   5   0  -2   29.25    0.96 
   4   0  -2   29.75    0.89 
   4   0  -2   29.68    0.60 
   3   0  -2    0.38    0.14 
   2   0  -2    4.84    0.26 
   1   0  -2  431.35    8.08 
  -1   0   2  433.02    8.07 
  -1   0   2  437.37    8.00 
   0   0  -2    4.81    0.18 
   0   0   2    3.65    0.14 
   1   0   2   19.04    0.45 
   2   0   2   50.53    1.04 
   3   0   2   15.80    0.47 
   4   0   2   72.90    1.52 
   5   0   2    1.30    0.18 
   6   0   2    2.30    0.35 
   6   0   2    2.25    0.23 
   7   0   2    1.89    0.36 
   8   0   2    1.88    0.39 
   9   0   2    0.81    0.31 
   9  -1  -2    0.05    0.23 
   8  -1  -2    0.09    0.25 
   7  -1  -2    0.35    0.24 
   6  -1  -2    0.43    0.24 
   5  -1  -2    2.21    0.31 
   4  -1  -2   12.29    0.51 
   4  -1  -2   11.93    0.33 
   3  -1  -2    0.00    0.10 
  -3   1   2    0.09    0.03 
   2  -1  -2    4.20    0.23 
  -2   1   2    4.83    0.15 
   1  -1  -2    7.86    0.27 
  -1   1   2    8.02    0.21 
   0  -1  -2    9.34    0.29 
   0  -1  -2    9.00    0.24 
   0   1   2    8.40    0.24 
   1   1   2    0.11    0.07 
   2   1   2   22.39    0.55 
   3   1   2   20.91    0.56 
   4   1   2    1.12    0.15 
   5   1   2   20.65    0.61 
   5   1   2   18.43    0.73 
   6   1   2   10.76    0.45 
   6   1   2   11.82    0.61 
   7   1   2    0.09    0.20 
   8   1   2    0.34    0.26 
   9   1   2   -0.15    0.18 
   8  -2  -2    0.10    0.23 
   7  -2  -2   -0.08    0.22 
   6  -2  -2    0.14    0.19 
   5  -2  -2    1.01    0.26 
   4  -2  -2    1.71    0.24 
  -4   2   2    1.61    0.12 
   3  -2  -2    5.09    0.29 
  -3   2   2    5.40    0.23 
   2  -2  -2    1.37    0.15 
  -2   2   2    1.51    0.10 
   1  -2  -2    4.51    0.18 
   1  -2  -2    4.49    0.25 
   0  -2  -2  124.97    2.54 
   0  -2  -2  125.77    2.54 
   0   2   2  124.09    2.50 
   0   2   2  124.53    2.25 
  -1  -2  -2  217.09    4.34 
   1   2   2  222.34    3.86 
   2   2   2    7.90    0.29 
   4   2   2    3.20    0.27 
   4   2   2    2.92    0.20 
   5   2   2    0.44    0.12 
   5   2   2    0.36    0.17 
   6   2   2    1.28    0.19 
   6   2   2    0.63    0.24 
   7   2   2    6.45    0.34 
   7   2   2    6.04    0.47 
   8   2   2    0.29    0.23 
   9   2   2    0.23    0.25 
   8  -3  -2    0.37    0.22 
   7  -3  -2   -0.01    0.18 
   6  -3  -2    0.28    0.19 
   5  -3  -2    0.22    0.18 
   4  -3  -2    0.74    0.19 
  -4   3   2    0.92    0.13 
   3  -3  -2    0.28    0.12 
  -3   3   2    0.39    0.07 
   2  -3  -2    2.91    0.19 
   2  -3  -2    2.80    0.24 
   1  -3  -2   21.14    0.48 
   1  -3  -2   20.40    0.61 
  -1   3   2   20.88    0.56 
   0  -3  -2   14.42    0.50 
   0   3   2   14.66    0.43 
  -1  -3  -2    1.16    0.19 
   1   3   2    1.11    0.14 
   1   3   2    1.15    0.09 
   2   3   2    8.38    0.33 
   3   3   2    0.29    0.11 
   3   3   2    0.39    0.12 
   4   3   2    1.97    0.23 
   4   3   2    2.25    0.19 
   5   3   2   15.46    0.53 
   5   3   2   14.65    0.62 
   6   3   2    3.54    0.26 
   6   3   2    3.46    0.39 
   7   3   2    1.92    0.23 
   7   3   2    1.43    0.30 
   8   3   2    0.29    0.19 
   9   3   2   -0.09    0.14 
   7  -4  -2    0.10    0.16 
   6  -4  -2    0.06    0.19 
   5  -4  -2    5.15    0.38 
   4  -4  -2    0.88    0.21 
   4  -4  -2    0.80    0.29 
  -4   4   2    1.18    0.16 
   3  -4  -2    4.55    0.27 
   3  -4  -2    4.31    0.35 
  -3   4   2    4.20    0.25 
   2  -4  -2    4.78    0.32 
   2  -4  -2    5.11    0.25 
  -2   4   2    4.84    0.26 
   1  -4  -2   32.25    0.70 
   1  -4  -2   32.57    0.90 
  -1   4   2   32.20    0.83 
   0  -4  -2   57.47    1.38 
   0   4   2   56.06    1.24 
  -1  -4  -2   75.24    1.74 
   1   4   2   74.69    1.56 
   1   4   2   75.74    1.47 
   2   4   2   75.57    1.55 
   2   4   2   74.37    1.57 
   3   4   2   94.71    1.94 
   3   4   2   95.23    2.01 
   4   4   2    0.03    0.10 
   4   4   2    0.21    0.11 
   5   4   2   10.54    0.44 
   5   4   2    9.19    0.49 
   6   4   2    5.88    0.43 
   6   4   2    6.42    0.36 
   7   4   2    0.82    0.17 
   7   4   2    1.00    0.27 
   8   4   2    0.00    0.13 
   9   4   2   -0.09    0.14 
   7  -5  -2   -0.01    0.24 
   6  -5  -2    0.80    0.31 
   5  -5  -2    2.51    0.29 
   5  -5  -2    2.38    0.39 
   4  -5  -2    4.69    0.42 
   4  -5  -2    4.68    0.32 
  -4   5   2    4.82    0.31 
   3  -5  -2    0.09    0.24 
   3  -5  -2    0.17    0.13 
  -3   5   2    0.22    0.07 
   2  -5  -2    0.22    0.21 
   2  -5  -2    0.37    0.10 
  -2   5   2    0.50    0.12 
   1  -5  -2    1.61    0.26 
   1  -5  -2    1.69    0.11 
  -1   5   2    2.33    0.19 
   0  -5  -2    2.92    0.30 
   0   5   2    2.19    0.19 
  -1  -5  -2   44.85    1.20 
   1   5   2   43.83    1.09 
   1   5   2   44.16    0.90 
   2   5   2    2.80    0.18 
   2   5   2    2.67    0.23 
   4   5   2   14.41    0.55 
   4   5   2   14.37    0.55 
   5   5   2   10.65    0.48 
   5   5   2   10.25    0.51 
   6   5   2    0.77    0.24 
   6   5   2    0.50    0.17 
   7   5   2   -0.02    0.17 
   7   5   2    0.13    0.11 
   8   5   2    0.06    0.18 
   9   5   2    0.42    0.19 
   7  -6  -2   -0.05    0.25 
   6  -6  -2    0.01    0.24 
   5  -6  -2    0.28    0.26 
   4  -6  -2    2.65    0.40 
  -4   6   2    2.73    0.31 
   3  -6  -2    3.13    0.40 
  -3   6   2    3.22    0.28 
   2  -6  -2    6.94    0.48 
  -2   6   2    6.63    0.40 
   1  -6  -2    1.12    0.28 
  -1   6   2    1.43    0.21 
   0  -6  -2    3.43    0.36 
   0   6   2    3.04    0.25 
  -1  -6  -2    7.54    0.45 
   1   6   2    8.14    0.22 
   1   6   2    8.05    0.41 
   2   6   2    0.20    0.11 
   2   6   2    0.36    0.11 
   3   6   2    6.98    0.39 
   3   6   2    6.92    0.33 
   4   6   2    0.84    0.19 
   4   6   2    1.18    0.22 
   5   6   2    1.56    0.27 
   5   6   2    1.42    0.27 
   6   6   2    4.00    0.33 
   6   6   2    3.92    0.36 
   7   6   2    0.77    0.26 
   7   6   2    0.93    0.19 
   8   6   2    0.11    0.22 
   9   6   2   -0.05    0.17 
   6  -7  -2   -0.18    0.26 
   5  -7  -2    0.33    0.30 
   4  -7  -2   -0.21    0.25 
  -4   7   2    0.07    0.09 
   3  -7  -2    1.32    0.35 
  -3   7   2    1.69    0.26 
   2  -7  -2    0.20    0.27 
  -2   7   2    0.37    0.12 
   1  -7  -2    5.60    0.49 
  -1   7   2    6.21    0.40 
   0  -7  -2    2.46    0.38 
   0   7   2    2.85    0.32 
  -1  -7  -2    5.45    0.44 
   1   7   2    5.63    0.38 
   2   7   2    0.28    0.09 
   2   7   2    0.15    0.14 
   3   7   2    0.00    0.14 
   3   7   2    0.06    0.14 
   4   7   2    0.64    0.22 
   4   7   2    0.73    0.17 
   5   7   2    0.58    0.21 
   5   7   2    0.46    0.18 
   6   7   2   -0.08    0.11 
   6   7   2    0.10    0.17 
   7   7   2    1.94    0.35 
   7   7   2    2.06    0.29 
   8   7   2    0.41    0.23 
   9   7   2    0.06    0.18 
   5  -8  -2   -0.50    0.24 
   4  -8  -2   -0.10    0.27 
  -4   8   2    0.23    0.12 
   3  -8  -2    0.59    0.30 
  -3   8   2    0.35    0.13 
   2  -8  -2    1.51    0.36 
  -2   8   2    1.79    0.29 
   1  -8  -2    2.82    0.41 
  -1   8   2    3.49    0.39 
   0  -8  -2    0.52    0.29 
   0   8   2    0.76    0.19 
  -1  -8  -2    2.95    0.40 
   1   8   2    3.22    0.37 
   2   8   2   -0.20    0.12 
   3   8   2   -0.09    0.12 
   4   8   2    2.47    0.35 
   5   8   2   -0.08    0.14 
   5   8   2    0.14    0.16 
   6   8   2   -0.12    0.16 
   6   8   2    0.29    0.16 
   7   8   2    0.91    0.21 
   7   8   2    0.11    0.21 
   8   8   2    1.36    0.34 
   4  -9  -2    0.14    0.26 
  -4   9   2    0.11    0.10 
   3  -9  -2   -0.09    0.25 
  -3   9   2   -0.04    0.11 
   2  -9  -2    1.81    0.39 
  -2   9   2    2.08    0.31 
   1  -9  -2    1.82    0.39 
  -1   9   2    1.35    0.26 
   0  -9  -2    2.94    0.42 
   0   9   2    2.97    0.38 
  -1  -9  -2    0.46    0.24 
   1   9   2    0.29    0.14 
   2   9   2    1.40    0.30 
   3   9   2    2.42    0.36 
   4   9   2    1.59    0.31 
   5   9   2    1.13    0.24 
   6   9   2    0.30    0.15 
   7   9   2    1.81    0.27 
  -3  10   2    0.08    0.11 
  -2  10   2    0.38    0.14 
   1 -10  -2    1.30    0.28 
  -1  10   2    0.72    0.18 
   0 -10  -2    0.50    0.24 
   0  10   2    0.01    0.09 
   1  10   2    3.01    0.39 
   2  10   2    0.68    0.21 
   3  10   2    1.28    0.27 
   4  10   2    0.69    0.23 
   5  10   2    0.33    0.14 
   6  10   2    0.03    0.14 
   7  10   2    0.72    0.18 
  -2  11   2    0.15    0.11 
  -1  11   2   -0.05    0.09 
   0  11   2    0.31    0.13 
   1  11   2    1.62    0.29 
   2  11   2    1.06    0.27 
   3  11   2    1.37    0.30 
   4  11   2    1.67    0.31 
   5  11   2   -0.04    0.14 
   6  11   2    0.18    0.15 
   0  12   2    0.19    0.16 
   1  12   2    0.37    0.16 
   2  12   2    1.19    0.29 
   3  12   2    0.28    0.16 
   4  12   2    0.60    0.19 
   5  12   2    0.44    0.17 
   5  11  -3    0.44    0.12 
   4  11  -3    0.28    0.14 
   3  11  -3    0.29    0.18 
   2  11  -3    0.35    0.20 
   1  11  -3    0.10    0.14 
   0  11  -3    0.19    0.16 
  -1  11  -3    0.44    0.20 
   5  10  -3    0.29    0.13 
   4  10  -3    0.39    0.15 
   3  10  -3    0.39    0.16 
   2  10  -3    0.69    0.24 
   1  10  -3    0.08    0.15 
   0  10  -3    1.06    0.27 
  -1  10  -3    0.24    0.14 
  -2  10  -3    1.80    0.31 
  -3  10  -3    2.74    0.40 
   7   9  -3   -0.07    0.20 
   6   9  -3    1.12    0.29 
   5   9  -3    0.79    0.24 
   4   9  -3    0.69    0.18 
   4   9  -3    0.22    0.14 
   3   9  -3    0.04    0.12 
   2   9  -3    0.25    0.16 
   1   9  -3    3.30    0.44 
   0   9  -3    0.29    0.18 
  -1   9  -3    1.47    0.28 
  -2   9  -3   -0.05    0.10 
  -3   9  -3    0.33    0.14 
  -4   9  -3    1.46    0.27 
   8   8  -3    0.58    0.32 
   7   8  -3   -0.15    0.23 
   6   8  -3    0.20    0.24 
   5   8  -3    0.27    0.26 
   5   8  -3    0.51    0.13 
   4   8  -3    2.90    0.36 
   4   8  -3    3.20    0.39 
   3   8  -3    0.29    0.18 
   3   8  -3    0.35    0.16 
   2   8  -3    0.41    0.14 
   2   8  -3    0.03    0.11 
   1   8  -3   13.45    0.69 
   1   8  -3   11.78    0.47 
   0   8  -3   18.87    0.87 
  -1   8  -3    3.14    0.42 
  -2   8  -3    0.49    0.18 
  -3   8  -3    0.27    0.13 
  -4   8  -3    0.81    0.18 
  -5   8  -3    0.42    0.15 
   8   7  -3    0.25    0.31 
   7   7  -3   -0.22    0.23 
   6   7  -3    0.80    0.32 
   5   7  -3    3.64    0.45 
   5   7  -3    3.02    0.27 
   4   7  -3    0.25    0.12 
   4   7  -3    0.05    0.22 
   3   7  -3    3.12    0.35 
   3   7  -3    3.04    0.37 
   2   7  -3    2.16    0.28 
   2   7  -3    2.08    0.31 
   1   7  -3    6.35    0.43 
   1   7  -3    6.42    0.35 
   0   7  -3    8.08    0.52 
  -1   7  -3    0.23    0.14 
  -1   7  -3    0.13    0.06 
  -2   7  -3    5.10    0.42 
  -3   7  -3    0.31    0.15 
  -4   7  -3    0.42    0.13 
  -5   7  -3    0.17    0.13 
  -6   7  -3    0.07    0.15 
   8   6  -3    0.11    0.23 
   7   6  -3   -0.05    0.25 
   6   6  -3    0.02    0.25 
   5   6  -3    1.50    0.20 
   5   6  -3    0.99    0.31 
   4   6  -3    4.70    0.30 
   4   6  -3    4.24    0.45 
   3   6  -3   20.81    0.78 
   3   6  -3   20.23    0.71 
   2   6  -3    6.73    0.40 
   2   6  -3    7.37    0.42 
   1   6  -3    1.64    0.25 
   1   6  -3    2.02    0.23 
   0   6  -3    0.13    0.08 
   0   6  -3    0.08    0.11 
  -1   6  -3   15.88    0.70 
  -1   6  -3   13.95    0.55 
   1  -6   3   16.25    0.53 
  -2   6  -3   35.51    1.19 
  -3   6  -3    6.87    0.48 
  -4   6  -3    0.68    0.17 
  -5   6  -3    0.78    0.18 
  -6   6  -3    0.48    0.14 
   9   5  -3    0.04    0.25 
   8   5  -3   -0.22    0.20 
   7   5  -3    1.49    0.37 
   6   5  -3    0.92    0.30 
   5   5  -3    6.37    0.32 
   5   5  -3    6.48    0.49 
   4   5  -3   10.67    0.44 
   4   5  -3   11.04    0.60 
   3   5  -3    2.18    0.23 
   3   5  -3    2.02    0.32 
   2   5  -3    7.35    0.38 
   2   5  -3    6.98    0.41 
   1   5  -3    2.45    0.26 
   1   5  -3    2.54    0.24 
   0   5  -3    0.08    0.07 
   0   5  -3    0.07    0.07 
  -1   5  -3    6.02    0.31 
  -1   5  -3    5.72    0.37 
   1  -5   3    5.99    0.28 
  -2   5  -3    2.34    0.32 
   2  -5   3    2.55    0.25 
  -3   5  -3   31.71    1.10 
   3  -5   3   32.62    0.92 
  -4   5  -3    4.14    0.37 
   4  -5   3    3.98    0.33 
  -5   5  -3    3.54    0.43 
   5  -5   3    3.56    0.34 
   6  -5   3    0.33    0.21 
   7  -5   3    0.97    0.24 
   9   4  -3   -0.12    0.19 
   8   4  -3    0.32    0.24 
   7   4  -3    0.29    0.26 
   6   4  -3    0.20    0.23 
   5   4  -3    0.37    0.28 
   4   4  -3    0.31    0.08 
   4   4  -3    0.27    0.25 
   3   4  -3    2.72    0.31 
   3   4  -3    2.61    0.18 
   2   4  -3    4.70    0.27 
   2   4  -3    4.99    0.34 
   1   4  -3   14.15    0.52 
   1   4  -3   15.30    0.53 
   0   4  -3   55.91    1.35 
   0   4  -3   55.67    1.29 
  -1   4  -3    0.75    0.13 
  -1   4  -3    0.79    0.15 
   1  -4   3    0.71    0.12 
  -2   4  -3    0.80    0.16 
   2  -4   3    0.56    0.14 
  -3   4  -3   10.82    0.55 
  -4   4  -3   10.21    0.56 
  -5   4  -3    2.74    0.35 
   6  -4   3    3.06    0.37 
   7  -4   3    0.08    0.14 
   8  -4   3    0.08    0.20 
   9   3  -3    1.01    0.38 
   8   3  -3    0.61    0.34 
   7   3  -3   -0.04    0.27 
   6   3  -3    7.87    0.54 
   5   3  -3    1.04    0.29 
   4   3  -3    2.29    0.32 
   4   3  -3    2.16    0.14 
   3   3  -3   13.44    0.41 
   3   3  -3   13.44    0.54 
   2   3  -3   16.35    0.49 
   2   3  -3   16.44    0.58 
   1   3  -3    0.97    0.16 
   0   3  -3   76.64    1.63 
   0   3  -3   76.72    1.65 
  -1   3  -3  113.41    2.30 
  -1   3  -3  112.11    2.33 
   1  -3   3  109.52    2.20 
  -2   3  -3   54.00    1.35 
  -3   3  -3    7.47    0.41 
  -4   3  -3    6.39    0.40 
   5  -3   3    6.78    0.43 
   6  -3   3    0.41    0.15 
   7  -3   3    1.52    0.31 
   7  -3   3    1.56    0.23 
   8  -3   3    0.91    0.28 
   9   2  -3    0.00    0.28 
   8   2  -3    0.27    0.29 
   7   2  -3    2.03    0.40 
   6   2  -3    1.53    0.35 
   5   2  -3    0.59    0.24 
   4   2  -3    2.85    0.32 
   4   2  -3    2.62    0.11 
   3   2  -3   21.92    0.50 
   3   2  -3   21.41    0.71 
   2   2  -3    0.11    0.13 
   2   2  -3    0.16    0.05 
   1   2  -3    1.10    0.13 
   1   2  -3    0.93    0.18 
   0   2  -3    1.80    0.17 
   0   2  -3    1.53    0.17 
  -1   2  -3   21.49    0.65 
  -1   2  -3   21.09    0.60 
  -2   2  -3  122.04    2.46 
  -3   2  -3   12.51    0.52 
   4  -2   3    6.15    0.36 
   5  -2   3    0.78    0.18 
   6  -2   3    0.49    0.17 
   7  -2   3    0.17    0.19 
   7  -2   3   -0.05    0.10 
   8  -2   3    0.42    0.20 
   9  -2   3    0.40    0.21 
   9   1  -3    0.31    0.31 
   8   1  -3   -0.16    0.24 
   7   1  -3    0.05    0.23 
   6   1  -3    6.07    0.50 
   5   1  -3    3.96    0.41 
   4   1  -3    5.30    0.38 
   3   1  -3   25.05    0.75 
   2   1  -3   44.66    1.07 
   2   1  -3   43.69    0.84 
   1   1  -3   11.80    0.33 
   1   1  -3   11.37    0.41 
   0   1  -3  186.05    3.42 
   0   1  -3  192.81    3.71 
   0   1  -3  197.25    3.84 
  -1   1  -3   55.33    1.20 
  -1   1  -3   56.01    1.23 
  -2   1  -3    3.96    0.24 
   3  -1   3  129.57    2.49 
   4  -1   3    3.26    0.24 
   5  -1   3    2.60    0.22 
   6  -1   3    0.05    0.10 
   7  -1   3    0.24    0.13 
   7  -1   3    0.40    0.23 
   8  -1   3    0.72    0.28 
   9  -1   3    1.64    0.41 
   9   0  -3   -0.14    0.21 
   8   0  -3   -0.03    0.21 
   7   0  -3    0.35    0.24 
   6   0  -3    5.14    0.46 
   5   0  -3   -0.11    0.21 
   4   0  -3   -0.04    0.16 
   3   0  -3   17.46    0.59 
   2   0  -3  106.42    2.19 
   1   0  -3  201.64    3.88 
  -1   0   3  201.03    3.49 
   0   0  -3   22.02    0.56 
   0   0   3   20.94    0.48 
  -1   0  -3  205.45    3.91 
   1   0   3  200.92    3.57 
   2   0   3  287.65    5.03 
   3   0   3  119.13    2.29 
   4   0   3    1.01    0.16 
   5   0   3    1.38    0.20 
   6   0   3    1.42    0.22 
   7   0   3    0.35    0.14 
   7   0   3    0.43    0.24 
   8   0   3    0.71    0.28 
   9   0   3   -0.04    0.20 
   8  -1  -3    0.44    0.30 
   7  -1  -3    0.09    0.24 
   6  -1  -3    2.08    0.34 
   5  -1  -3   -0.05    0.20 
   4  -1  -3    3.83    0.32 
   3  -1  -3   37.76    0.98 
  -3   1   3   37.23    0.73 
   2  -1  -3    9.51    0.36 
  -2   1   3    9.55    0.23 
   1  -1  -3   20.76    0.54 
   1  -1  -3   21.72    0.59 
  -1   1   3   20.71    0.45 
   0  -1  -3  471.85    9.14 
   0  -1  -3  501.63    9.44 
   0   1   3  505.78    8.39 
  -1  -1  -3  229.26    4.34 
  -1  -1  -3  230.22    4.48 
   1   1   3  225.37    3.98 
   2   1   3    3.87    0.21 
   3   1   3   21.58    0.59 
   4   1   3   50.50    1.16 
   5   1   3    0.23    0.10 
   6   1   3    5.94    0.34 
   6   1   3    6.07    0.45 
   7   1   3    4.99    0.34 
   7   1   3    5.34    0.46 
   8   1   3    1.12    0.33 
   9   1   3   -0.09    0.18 
   8  -2  -3    0.83    0.31 
   7  -2  -3   -0.22    0.21 
   6  -2  -3    0.14    0.22 
   5  -2  -3    1.01    0.27 
   4  -2  -3    2.57    0.28 
  -4   2   3    2.76    0.14 
   3  -2  -3    0.14    0.12 
  -3   2   3    0.26    0.03 
   2  -2  -3    5.58    0.27 
   2  -2  -3    5.03    0.31 
  -2   2   3    5.71    0.21 
   1  -2  -3    7.16    0.26 
   1  -2  -3    6.97    0.32 
  -1   2   3    6.87    0.23 
   0  -2  -3    0.66    0.16 
   0  -2  -3    0.63    0.08 
   0   2   3    0.59    0.10 
  -1  -2  -3  989.31   18.88 
   1   2   3 1000.00   16.75 
   2   2   3    4.84    0.24 
   3   2   3    2.60    0.20 
   4   2   3    0.36    0.12 
   5   2   3    2.60    0.23 
   5   2   3    2.45    0.30 
   6   2   3   24.48    0.91 
   6   2   3   23.86    0.76 
   7   2   3    0.29    0.23 
   7   2   3    0.57    0.18 
   8   2   3    0.17    0.16 
   9   2   3    0.34    0.24 
   8  -3  -3    0.19    0.20 
   7  -3  -3   -0.36    0.16 
   6  -3  -3    1.22    0.27 
   5  -3  -3   18.05    0.72 
   4  -3  -3    3.15    0.30 
  -4   3   3    3.01    0.18 
   3  -3  -3    3.04    0.24 
   3  -3  -3    3.43    0.34 
  -3   3   3    2.99    0.18 
   2  -3  -3    4.08    0.22 
   2  -3  -3    3.65    0.30 
  -2   3   3    3.89    0.20 
   1  -3  -3    2.06    0.23 
   1  -3  -3    1.94    0.14 
  -1   3   3    2.04    0.14 
   0  -3  -3   64.61    1.30 
   0  -3  -3   66.40    1.51 
   0   3   3   65.14    1.32 
  -1  -3  -3  124.04    2.65 
   1   3   3  125.99    2.35 
   2   3   3   97.62    1.92 
   3   3   3    2.06    0.20 
   4   3   3   11.26    0.44 
   4   3   3   11.20    0.48 
   5   3   3    2.90    0.31 
   6   3   3    0.34    0.13 
   6   3   3    0.43    0.22 
   7   3   3    0.17    0.15 
   7   3   3   -0.09    0.17 
   8   3   3    0.27    0.16 
   9   3   3    0.27    0.18 
   7  -4  -3   -0.04    0.22 
   6  -4  -3    2.07    0.32 
   6  -4  -3    1.66    0.37 
   5  -4  -3    0.60    0.27 
   5  -4  -3    0.37    0.20 
   4  -4  -3    1.19    0.32 
   4  -4  -3    1.37    0.24 
  -4   4   3    1.59    0.13 
   3  -4  -3    1.00    0.18 
   3  -4  -3    0.90    0.26 
  -3   4   3    0.91    0.13 
   2  -4  -3   14.66    0.60 
   2  -4  -3   14.65    0.44 
  -2   4   3   14.51    0.49 
   1  -4  -3    0.27    0.08 
   1  -4  -3    0.23    0.17 
  -1   4   3    0.43    0.09 
   0  -4  -3    8.41    0.42 
   0   4   3    8.52    0.35 
  -1  -4  -3    5.26    0.35 
   1   4   3    5.31    0.16 
   1   4   3    5.75    0.29 
   2   4   3   28.87    0.78 
   2   4   3   27.98    0.68 
   3   4   3   23.13    0.65 
   3   4   3   21.70    0.67 
   4   4   3   31.60    0.90 
   4   4   3   31.68    0.88 
   5   4   3    0.83    0.18 
   5   4   3    0.62    0.19 
   6   4   3    8.75    0.51 
   6   4   3    8.07    0.44 
   7   4   3    0.14    0.16 
   7   4   3   -0.05    0.14 
   8   4   3    0.29    0.19 
   9   4   3   -0.18    0.13 
   7  -5  -3    0.04    0.27 
   6  -5  -3    0.18    0.23 
   5  -5  -3    1.30    0.35 
   4  -5  -3    2.37    0.26 
   4  -5  -3    2.31    0.39 
  -4   5   3    2.06    0.23 
   3  -5  -3    0.27    0.14 
   3  -5  -3    0.37    0.26 
  -3   5   3    0.26    0.07 
   2  -5  -3    3.28    0.20 
   2  -5  -3    3.61    0.36 
  -2   5   3    3.11    0.23 
   1  -5  -3    3.34    0.35 
  -1   5   3    2.86    0.22 
   0  -5  -3    0.87    0.24 
   0   5   3    0.85    0.14 
  -1  -5  -3   24.54    0.83 
   1   5   3   23.93    0.72 
   2   5   3   -0.04    0.07 
   2   5   3    0.00    0.06 
   3   5   3    2.95    0.28 
   3   5   3    2.57    0.20 
   4   5   3    0.34    0.14 
   4   5   3    0.57    0.14 
   5   5   3    0.25    0.13 
   5   5   3    0.33    0.16 
   6   5   3    3.41    0.34 
   6   5   3    3.32    0.37 
   7   5   3    1.71    0.32 
   7   5   3    1.81    0.28 
   8   5   3    1.78    0.34 
   9   5   3   -0.17    0.11 
   6  -6  -3    0.01    0.27 
   5  -6  -3   -0.07    0.26 
   4  -6  -3    0.75    0.31 
  -4   6   3    0.59    0.12 
   3  -6  -3    4.14    0.44 
  -3   6   3    3.14    0.27 
   2  -6  -3    2.31    0.37 
  -2   6   3    2.58    0.22 
   1  -6  -3    3.76    0.38 
  -1   6   3    3.76    0.27 
   0  -6  -3    1.47    0.30 
   0   6   3    1.88    0.23 
  -1  -6  -3   24.59    0.88 
   1   6   3   24.08    0.78 
   2   6   3    2.97    0.29 
   2   6   3    2.37    0.16 
   3   6   3    0.23    0.11 
   3   6   3    0.03    0.10 
   4   6   3    1.04    0.22 
   4   6   3    0.58    0.15 
   5   6   3    5.23    0.36 
   5   6   3    5.85    0.40 
   6   6   3    5.91    0.41 
   6   6   3    5.86    0.41 
   7   6   3    0.56    0.22 
   7   6   3    0.32    0.17 
   8   6   3    1.59    0.32 
   9   6   3    0.70    0.23 
   6  -7  -3    0.12    0.28 
   5  -7  -3    0.13    0.27 
   4  -7  -3    0.01    0.26 
  -4   7   3    0.13    0.08 
   3  -7  -3   -0.31    0.24 
  -3   7   3    0.09    0.08 
   2  -7  -3    2.19    0.39 
  -2   7   3    2.70    0.32 
   1  -7  -3    1.26    0.35 
  -1   7   3    1.43    0.24 
   0  -7  -3    1.92    0.38 
   0   7   3    2.02    0.29 
  -1  -7  -3    6.30    0.48 
   1   7   3    6.53    0.41 
   2   7   3   20.00    0.75 
   3   7   3    0.37    0.14 
   3   7   3    0.41    0.17 
   4   7   3    0.51    0.17 
   4   7   3    0.21    0.16 
   5   7   3    0.14    0.15 
   5   7   3    0.44    0.18 
   6   7   3    0.25    0.15 
   6   7   3    0.17    0.17 
   7   7   3    0.40    0.21 
   7   7   3    0.30    0.17 
   8   7   3    2.06    0.36 
   9   7   3   -0.24    0.16 
   5  -8  -3   -0.01    0.30 
   4  -8  -3   -0.17    0.29 
   3  -8  -3    0.18    0.30 
  -3   8   3    0.25    0.12 
   2  -8  -3    0.31    0.28 
  -2   8   3    0.24    0.12 
   1  -8  -3    4.81    0.51 
  -1   8   3    4.62    0.36 
   0  -8  -3    9.50    0.61 
   0   8   3    9.41    0.53 
  -1  -8  -3    1.09    0.34 
   1   8   3    0.65    0.19 
   2   8   3    8.69    0.51 
   3   8   3    1.28    0.26 
   4   8   3    3.70    0.40 
   5   8   3    0.15    0.17 
   5   8   3    0.00    0.07 
   6   8   3    0.15    0.15 
   6   8   3    0.38    0.17 
   7   8   3    2.03    0.33 
   7   8   3    2.04    0.31 
   8   8   3    0.35    0.18 
   9   8   3    0.59    0.22 
   4  -9  -3    0.15    0.32 
   3  -9  -3    0.08    0.27 
  -3   9   3    0.01    0.09 
   2  -9  -3    1.54    0.39 
  -2   9   3    1.49    0.26 
   1  -9  -3    1.24    0.39 
  -1   9   3    0.99    0.22 
   0  -9  -3    0.76    0.29 
   0   9   3    0.60    0.18 
  -1  -9  -3    0.09    0.23 
   1   9   3    0.26    0.15 
   2   9   3    0.68    0.21 
   3   9   3    2.15    0.33 
   4   9   3    3.92    0.44 
   5   9   3    1.63    0.31 
   6   9   3    0.16    0.13 
   7   9   3    0.12    0.15 
   3 -10  -3    0.55    0.26 
  -3  10   3    0.17    0.13 
   2 -10  -3    0.79    0.31 
  -2  10   3    0.84    0.16 
   1 -10  -3    0.86    0.30 
  -1  10   3    0.52    0.14 
   0 -10  -3    1.58    0.37 
   0  10   3    1.00    0.21 
  -1 -10  -3    0.92    0.33 
   1  10   3    0.91    0.20 
   2  10   3    0.13    0.14 
   3  10   3    2.33    0.37 
   4  10   3    0.22    0.14 
   5  10   3    2.32    0.37 
   6  10   3   -0.07    0.12 
   7  10   3    0.64    0.17 
  -2  11   3    0.13    0.12 
  -1  11   3    0.01    0.11 
   0  11   3    0.53    0.13 
   1  11   3    0.12    0.10 
   2  11   3    0.35    0.14 
   3  11   3    0.06    0.12 
   4  11   3    0.83    0.25 
   5  11   3    0.27    0.14 
   6  11   3    0.35    0.19 
   0  12   3    0.71    0.23 
   1  12   3    0.08    0.12 
   2  12   3    0.27    0.12 
   3  12   3    0.05    0.14 
   4  12   3    0.06    0.15 
   5  12   3    0.12    0.18 
   4  11  -4    0.54    0.20 
   3  11  -4    0.29    0.18 
   2  11  -4    0.37    0.19 
   1  11  -4    0.16    0.15 
   0  11  -4   -0.25    0.15 
   4  10  -4    0.76    0.21 
   3  10  -4    0.79    0.21 
   2  10  -4    0.08    0.15 
   1  10  -4    0.37    0.19 
   0  10  -4    0.16    0.18 
  -1  10  -4    2.14    0.40 
  -2  10  -4   -0.08    0.11 
   6   9  -4    0.54    0.23 
   5   9  -4    0.59    0.22 
   4   9  -4    0.78    0.17 
   4   9  -4    0.40    0.14 
   3   9  -4    0.77    0.14 
   3   9  -4    0.38    0.18 
   2   9  -4    0.87    0.22 
   1   9  -4    0.02    0.15 
   0   9  -4    0.25    0.15 
  -1   9  -4    0.99    0.26 
  -2   9  -4   -0.11    0.11 
  -3   9  -4    0.16    0.12 
  -4   9  -4    0.42    0.15 
   7   8  -4    0.18    0.26 
   6   8  -4    0.46    0.28 
   5   8  -4    0.48    0.26 
   4   8  -4    0.28    0.22 
   4   8  -4    0.32    0.15 
   3   8  -4    0.67    0.19 
   3   8  -4    0.05    0.16 
   2   8  -4    0.27    0.14 
   2   8  -4    0.03    0.14 
   1   8  -4    2.63    0.24 
   1   8  -4    3.44    0.43 
   0   8  -4    2.88    0.39 
   0   8  -4    1.45    0.13 
  -1   8  -4    0.17    0.17 
  -2   8  -4    4.56    0.52 
  -3   8  -4    0.42    0.14 
  -4   8  -4    0.69    0.22 
  -5   8  -4    0.13    0.14 
   8   7  -4    0.00    0.24 
   7   7  -4   -0.10    0.24 
   6   7  -4    0.16    0.27 
   5   7  -4    0.24    0.28 
   4   7  -4   11.42    0.55 
   4   7  -4   11.28    0.64 
   3   7  -4    0.16    0.19 
   3   7  -4    0.12    0.11 
   2   7  -4    0.32    0.18 
   2   7  -4    0.09    0.12 
   1   7  -4    2.61    0.28 
   1   7  -4    2.87    0.37 
   0   7  -4    2.51    0.24 
   0   7  -4    2.77    0.38 
  -1   7  -4    0.17    0.13 
  -1   7  -4    0.05    0.10 
  -2   7  -4    0.88    0.21 
  -3   7  -4    0.36    0.12 
  -4   7  -4    0.67    0.19 
  -6   7  -4   -0.06    0.13 
   8   6  -4    0.04    0.27 
   7   6  -4    0.87    0.34 
   6   6  -4   -0.27    0.24 
   5   6  -4    5.50    0.54 
   4   6  -4   16.91    0.63 
   4   6  -4   16.08    0.76 
   3   6  -4    8.42    0.44 
   3   6  -4    8.94    0.55 
   2   6  -4    0.82    0.20 
   2   6  -4    0.74    0.25 
   1   6  -4    1.16    0.23 
   1   6  -4    0.60    0.18 
   0   6  -4    1.70    0.28 
   0   6  -4    1.80    0.23 
  -1   6  -4    3.24    0.39 
  -1   6  -4    3.15    0.25 
  -2   6  -4    0.31    0.15 
  -3   6  -4   -0.03    0.09 
  -4   6  -4    1.67    0.32 
  -5   6  -4    2.43    0.37 
   6  -6   4   -0.13    0.22 
   8   5  -4   -0.11    0.24 
   7   5  -4    0.28    0.27 
   6   5  -4    0.55    0.30 
   5   5  -4    0.91    0.32 
   4   5  -4    0.12    0.06 
   4   5  -4    0.07    0.25 
   3   5  -4   17.98    0.74 
   3   5  -4   17.93    0.62 
   2   5  -4    4.93    0.36 
   2   5  -4    5.13    0.32 
   1   5  -4    8.73    0.43 
   1   5  -4    8.81    0.45 
   0   5  -4    8.48    0.41 
   0   5  -4    8.57    0.46 
  -1   5  -4    0.08    0.06 
  -1   5  -4    0.09    0.12 
   1  -5   4    0.10    0.08 
  -2   5  -4    1.30    0.25 
   2  -5   4    1.16    0.18 
  -3   5  -4    0.93    0.21 
  -4   5  -4    0.25    0.14 
  -5   5  -4    1.47    0.28 
   6  -5   4    3.17    0.42 
   7  -5   4    0.46    0.17 
   8   4  -4    0.19    0.25 
   7   4  -4   -0.17    0.23 
   6   4  -4   17.47    0.84 
   5   4  -4    1.26    0.33 
   4   4  -4    3.50    0.21 
   4   4  -4    3.57    0.42 
   3   4  -4    9.43    0.38 
   3   4  -4    9.51    0.54 
   2   4  -4    6.63    0.34 
   2   4  -4    6.33    0.41 
   1   4  -4   34.66    0.96 
   1   4  -4   34.48    0.95 
   0   4  -4    3.44    0.26 
   0   4  -4    3.05    0.24 
  -1   4  -4    0.94    0.19 
  -1   4  -4    1.13    0.17 
   1  -4   4    0.65    0.09 
  -2   4  -4    2.29    0.30 
   2  -4   4    2.05    0.18 
  -3   4  -4   20.36    0.82 
  -4   4  -4    1.44    0.26 
  -5   4  -4    0.17    0.10 
   6  -4   4    1.13    0.26 
   7  -4   4    0.72    0.18 
   9   3  -4    0.11    0.33 
   8   3  -4    0.10    0.25 
   7   3  -4    0.74    0.31 
   6   3  -4    2.63    0.41 
   5   3  -4   -0.15    0.22 
   4   3  -4    3.35    0.17 
   4   3  -4    4.03    0.41 
   3   3  -4    4.62    0.39 
   3   3  -4    4.84    0.23 
   2   3  -4    2.67    0.28 
   2   3  -4    2.65    0.18 
   1   3  -4    0.78    0.14 
   1   3  -4    0.46    0.15 
   0   3  -4  129.21    2.65 
   0   3  -4  126.97    2.56 
  -1   3  -4    2.07    0.19 
  -1   3  -4    1.96    0.24 
  -2   3  -4   42.30    1.17 
  -3   3  -4    0.14    0.07 
  -4   3  -4   11.85    0.60 
   5  -3   4    8.50    0.50 
   6  -3   4    0.10    0.13 
   7  -3   4    0.16    0.12 
   8  -3   4    0.37    0.22 
   9   2  -4    0.07    0.29 
   8   2  -4    1.17    0.39 
   7   2  -4   -0.04    0.27 
   6   2  -4    6.42    0.53 
   5   2  -4    1.21    0.32 
   4   2  -4    0.47    0.26 
   3   2  -4    0.67    0.23 
   3   2  -4    0.79    0.08 
   2   2  -4    2.91    0.28 
   2   2  -4    2.65    0.16 
   1   2  -4    3.46    0.26 
   1   2  -4    3.44    0.21 
   0   2  -4   43.81    1.04 
   0   2  -4   41.72    1.02 
  -1   2  -4   29.99    0.84 
  -1   2  -4   29.59    0.81 
  -2   2  -4    7.69    0.39 
  -3   2  -4    6.85    0.39 
   4  -2   4    3.36    0.28 
   5  -2   4    0.75    0.20 
   6  -2   4   12.66    0.58 
   7  -2   4    0.28    0.14 
   8  -2   4    0.31    0.18 
   9  -2   4    1.08    0.28 
   9   1  -4    0.22    0.31 
   8   1  -4   -0.38    0.22 
   7   1  -4    1.74    0.39 
   6   1  -4    4.03    0.45 
   5   1  -4    4.51    0.44 
   4   1  -4    1.24    0.27 
   3   1  -4   58.71    1.43 
   2   1  -4    2.04    0.24 
   1   1  -4    0.11    0.05 
   1   1  -4   -0.04    0.12 
   0   1  -4    3.67    0.23 
   0   1  -4    3.82    0.17 
   0   1  -4    3.89    0.22 
  -1   1  -4    2.99    0.21 
  -1   1  -4    2.68    0.19 
   2  -1   4   10.68    0.42 
   3  -1   4   25.37    0.73 
   4  -1   4    4.80    0.30 
   5  -1   4    2.57    0.28 
   6  -1   4    0.10    0.13 
   7  -1   4    4.49    0.35 
   8  -1   4    0.25    0.20 
   9  -1   4    0.58    0.26 
   8   0  -4    0.19    0.26 
   7   0  -4    0.16    0.25 
   6   0  -4    2.77    0.40 
   5   0  -4    0.71    0.27 
   4   0  -4   10.68    0.53 
   3   0  -4   13.61    0.54 
   2   0  -4    1.30    0.20 
   1   0  -4   58.47    1.27 
   1   0  -4   56.61    1.29 
  -1   0   4   57.26    1.09 
   0   0  -4   88.60    1.83 
   0   0  -4   89.47    1.82 
   0   0   4   88.06    1.67 
  -1   0  -4   38.68    0.91 
   1   0   4   37.30    0.85 
   2   0   4   18.59    0.55 
   3   0   4   20.62    0.63 
   4   0   4    1.11    0.17 
   5   0   4   -0.08    0.09 
   6   0   4    4.61    0.35 
   7   0   4    5.58    0.47 
   7   0   4    6.28    0.39 
   8   0   4    0.21    0.25 
   9   0   4    0.19    0.25 
   8  -1  -4    0.14    0.26 
   7  -1  -4    0.07    0.22 
   6  -1  -4    2.43    0.38 
   5  -1  -4   17.30    0.73 
   4  -1  -4    0.82    0.24 
   3  -1  -4    4.52    0.31 
   3  -1  -4    4.52    0.31 
   2  -1  -4    0.28    0.14 
  -2   1   4    0.47    0.04 
   1  -1  -4   49.50    1.16 
   1  -1  -4   49.50    1.11 
  -1   1   4   48.46    0.95 
   0  -1  -4  389.86    7.42 
   0  -1  -4  390.10    7.64 
   0   1   4  410.32    6.79 
  -1  -1  -4    7.25    0.28 
  -1  -1  -4    7.81    0.32 
   1   1   4    6.99    0.28 
   2   1   4    0.08    0.08 
   3   1   4    0.10    0.08 
   4   1   4   32.01    0.86 
   5   1   4    0.30    0.12 
   6   1   4    6.51    0.39 
   7   1   4    0.05    0.18 
   7   1   4    0.27    0.14 
   8   1   4    1.41    0.33 
   9   1   4    0.59    0.28 
   8  -2  -4   -0.28    0.19 
   7  -2  -4    0.10    0.23 
   6  -2  -4    0.90    0.29 
   5  -2  -4   14.21    0.65 
   4  -2  -4    0.06    0.18 
   3  -2  -4    1.55    0.22 
  -3   2   4    1.44    0.09 
   2  -2  -4    3.83    0.29 
   2  -2  -4    3.41    0.24 
  -2   2   4    3.92    0.16 
   1  -2  -4   -0.11    0.10 
   1  -2  -4    0.02    0.12 
  -1   2   4    0.12    0.04 
   0  -2  -4   58.83    1.35 
   0  -2  -4   57.27    1.20 
   0   2   4   57.83    1.17 
  -1  -2  -4   61.56    1.31 
  -1  -2  -4   62.84    1.46 
   1   2   4   63.65    1.29 
   2   2   4    0.36    0.10 
   3   2   4    0.83    0.15 
   4   2   4   17.50    0.57 
   5   2   4    2.89    0.24 
   6   2   4    1.10    0.22 
   6   2   4    0.92    0.26 
   7   2   4    8.69    0.57 
   7   2   4    8.76    0.48 
   8   2   4    0.35    0.18 
   9   2   4    0.09    0.18 
   8  -3  -4    0.31    0.20 
   7  -3  -4    0.25    0.23 
   6  -3  -4    0.00    0.20 
   5  -3  -4    6.96    0.45 
   4  -3  -4    6.21    0.40 
   4  -3  -4    6.47    0.49 
   3  -3  -4    7.74    0.37 
   3  -3  -4    6.76    0.45 
  -3   3   4    7.65    0.29 
   2  -3  -4   64.11    1.61 
   2  -3  -4   67.05    1.43 
  -2   3   4   65.49    1.34 
   1  -3  -4    0.03    0.14 
   1  -3  -4    0.10    0.11 
  -1   3   4    0.09    0.04 
   0  -3  -4    5.97    0.20 
   0  -3  -4    6.23    0.34 
   0   3   4    5.98    0.27 
  -1  -3  -4   40.80    1.09 
   1   3   4   41.65    0.96 
   2   3   4   40.69    0.97 
   3   3   4    5.38    0.30 
   4   3   4    5.92    0.33 
   5   3   4    3.67    0.35 
   5   3   4    3.11    0.27 
   6   3   4   -0.06    0.17 
   6   3   4    0.09    0.16 
   7   3   4    6.01    0.47 
   7   3   4    5.79    0.39 
   8   3   4    0.34    0.20 
   9   3   4    0.25    0.16 
   7  -4  -4    0.52    0.28 
   6  -4  -4    0.21    0.18 
   6  -4  -4    0.28    0.27 
   5  -4  -4    2.22    0.32 
   5  -4  -4    2.17    0.39 
   4  -4  -4    4.73    0.35 
   4  -4  -4    4.98    0.45 
   3  -4  -4    0.57    0.26 
   3  -4  -4    0.28    0.16 
  -3   4   4    0.40    0.08 
   2  -4  -4   15.73    0.47 
   2  -4  -4   14.66    0.62 
   1  -4  -4    0.30    0.10 
   1  -4  -4    0.27    0.20 
  -1   4   4    0.40    0.08 
   0  -4  -4   18.62    0.69 
   0   4   4   19.38    0.58 
  -1  -4  -4   32.26    0.99 
   1   4   4   33.75    0.86 
   2   4   4    4.97    0.29 
   3   4   4   29.28    0.84 
   4   4   4    0.35    0.13 
   4   4   4    0.53    0.16 
   5   4   4    1.07    0.21 
   5   4   4    0.87    0.18 
   6   4   4    1.04    0.25 
   6   4   4    1.00    0.23 
   7   4   4    8.91    0.56 
   7   4   4    8.61    0.50 
   8   4   4    3.11    0.42 
   9   4   4    0.21    0.14 
   7  -5  -4    0.19    0.29 
   6  -5  -4   -0.03    0.25 
   5  -5  -4    0.93    0.33 
   4  -5  -4    0.32    0.26 
   3  -5  -4    0.56    0.18 
   3  -5  -4    0.96    0.31 
  -3   5   4    0.76    0.11 
   2  -5  -4   10.35    0.37 
   2  -5  -4    9.79    0.57 
  -2   5   4   10.38    0.43 
   1  -5  -4   23.51    0.84 
  -1   5   4   23.72    0.71 
   0  -5  -4    1.59    0.29 
   0   5   4    1.74    0.21 
  -1  -5  -4    2.54    0.33 
   1   5   4    2.22    0.23 
   2   5   4    0.11    0.10 
   2   5   4    0.13    0.05 
   3   5   4    3.28    0.20 
   3   5   4    3.09    0.26 
   4   5   4    0.78    0.16 
   4   5   4    0.76    0.18 
   5   5   4   10.31    0.51 
   5   5   4   10.05    0.49 
   6   5   4    1.12    0.26 
   6   5   4    0.93    0.23 
   7   5   4    1.87    0.32 
   7   5   4    2.02    0.30 
   8   5   4    4.26    0.41 
   8   5   4    4.38    0.33 
   9   5   4    0.27    0.16 
   6  -6  -4    0.00    0.27 
   5  -6  -4    0.43    0.31 
   4  -6  -4    1.51    0.37 
   3  -6  -4    0.85    0.32 
  -3   6   4    1.32    0.21 
   2  -6  -4   -0.31    0.28 
  -1   6   4   11.27    0.50 
   0  -6  -4    4.61    0.43 
   0   6   4    4.49    0.30 
  -1  -6  -4    2.45    0.36 
   1   6   4    2.01    0.24 
   2   6   4   11.25    0.51 
   2   6   4   12.32    0.34 
   3   6   4    0.28    0.16 
   3   6   4    0.31    0.10 
   4   6   4    0.50    0.19 
   5   6   4    0.32    0.17 
   5   6   4    0.08    0.17 
   6   6   4    1.41    0.27 
   6   6   4    1.38    0.25 
   7   6   4    0.12    0.15 
   7   6   4    0.07    0.13 
   8   6   4    3.87    0.45 
   8   6   4    3.17    0.36 
   9   6   4    0.08    0.14 
   6  -7  -4    0.04    0.27 
   5  -7  -4   -0.19    0.25 
   4  -7  -4    0.79    0.36 
   3  -7  -4    0.10    0.28 
  -3   7   4    0.18    0.10 
   2  -7  -4    0.52    0.31 
  -2   7   4    1.12    0.20 
   1  -7  -4    1.24    0.36 
  -1   7   4    1.64    0.25 
   0  -7  -4    0.25    0.31 
   0   7   4    0.02    0.09 
  -1  -7  -4   -0.20    0.24 
   1   7   4    0.06    0.11 
   2   7   4    4.31    0.33 
   3   7   4    2.54    0.32 
   4   7   4    0.44    0.18 
   4   7   4    0.45    0.15 
   5   7   4   -0.02    0.15 
   5   7   4    0.39    0.13 
   6   7   4    3.03    0.37 
   6   7   4    3.24    0.31 
   7   7   4    2.13    0.34 
   7   7   4    2.02    0.32 
   8   7   4    0.34    0.12 
   8   7   4    0.12    0.14 
   9   7   4    0.39    0.20 
   5  -8  -4   -0.10    0.30 
   4  -8  -4   -0.05    0.29 
   3  -8  -4    0.71    0.34 
  -3   8   4    0.39    0.12 
   2  -8  -4    4.69    0.53 
  -2   8   4    4.70    0.36 
   1  -8  -4   -0.17    0.27 
  -1   8   4    0.12    0.12 
   0  -8  -4   12.38    0.69 
   0   8   4   12.55    0.62 
  -1  -8  -4    4.53    0.51 
   1   8   4    3.70    0.33 
   2   8   4    0.20    0.15 
   3   8   4    6.64    0.46 
   4   8   4    1.68    0.28 
   5   8   4    0.04    0.14 
   6   8   4    0.24    0.14 
   6   8   4    0.01    0.12 
   7   8   4    1.29    0.27 
   7   8   4    1.30    0.27 
   8   8   4    1.75    0.26 
   8   8   4    1.45    0.29 
   9   8   4    0.04    0.14 
   4  -9  -4    0.27    0.33 
   3  -9  -4    0.63    0.34 
  -3   9   4    0.04    0.11 
   2  -9  -4    3.47    0.53 
  -2   9   4    2.73    0.36 
   1  -9  -4    7.86    0.62 
  -1   9   4    8.33    0.52 
   0  -9  -4    0.06    0.27 
   0   9   4    0.22    0.13 
  -1  -9  -4    0.15    0.24 
   1   9   4    0.22    0.13 
   2   9   4    0.13    0.12 
   3   9   4    2.27    0.34 
   4   9   4    1.30    0.27 
   5   9   4    4.13    0.45 
   6   9   4    0.42    0.19 
   7   9   4    0.41    0.17 
   8   9   4    0.68    0.15 
   3 -10  -4    0.69    0.35 
  -3  10   4    1.07    0.19 
   2 -10  -4    0.45    0.30 
  -2  10   4    0.18    0.10 
   1 -10  -4    4.07    0.55 
  -1  10   4    3.59    0.43 
   0 -10  -4    0.92    0.34 
   0  10   4    1.09    0.26 
  -1 -10  -4    1.07    0.33 
   1  10   4    0.67    0.18 
   2  10   4    0.11    0.11 
   3  10   4    1.33    0.29 
   4  10   4    1.44    0.30 
   5  10   4    1.95    0.34 
   6  10   4    0.31    0.17 
   7  10   4    1.10    0.23 
  -2  11   4    0.37    0.13 
   1 -11  -4    0.99    0.28 
  -1  11   4    0.27    0.14 
   0 -11  -4    0.65    0.23 
   0  11   4    0.31    0.15 
  -1 -11  -4    1.56    0.32 
   1  11   4    1.10    0.22 
   2  11   4    0.54    0.17 
   3  11   4    0.15    0.16 
   4  11   4    0.28    0.17 
   5  11   4   -0.22    0.13 
   6  11   4    1.67    0.32 
   0  12   4    0.53    0.19 
   1  12   4    0.47    0.14 
   2  12   4    0.39    0.17 
   3  12   4   -0.04    0.13 
   4  12   4    0.25    0.15 
   5  12   4    0.58    0.20 
   2  11  -5    0.37    0.15 
   1  11  -5   -0.02    0.15 
   4  10  -5    0.68    0.16 
   3  10  -5    0.00    0.14 
   2  10  -5   -0.01    0.13 
   1  10  -5    0.38    0.18 
   0  10  -5    0.21    0.14 
  -1  10  -5    2.21    0.43 
  -2  10  -5    0.88    0.25 
   6   9  -5    1.13    0.26 
   5   9  -5    0.62    0.20 
   4   9  -5    0.62    0.17 
   4   9  -5    0.23    0.13 
   3   9  -5    0.91    0.16 
   3   9  -5    0.12    0.13 
   2   9  -5   -0.05    0.12 
   1   9  -5    2.08    0.38 
   0   9  -5    0.53    0.19 
  -1   9  -5    0.21    0.16 
  -2   9  -5    3.35    0.47 
  -3   9  -5   -0.05    0.11 
   7   8  -5    0.47    0.29 
   6   8  -5    1.31    0.34 
   5   8  -5    1.93    0.38 
   4   8  -5    1.42    0.24 
   4   8  -5    1.63    0.32 
   3   8  -5    1.05    0.25 
   3   8  -5    0.77    0.19 
   2   8  -5    0.69    0.18 
   2   8  -5    0.42    0.17 
   1   8  -5    0.03    0.12 
   1   8  -5    0.34    0.09 
   0   8  -5    1.61    0.33 
   0   8  -5    1.65    0.23 
  -1   8  -5    0.63    0.23 
  -1   8  -5    0.79    0.15 
  -2   8  -5    0.84    0.20 
  -3   8  -5    1.16    0.25 
  -4   8  -5    0.11    0.14 
  -5   8  -5    0.20    0.17 
   7   7  -5    0.57    0.32 
   6   7  -5    0.35    0.28 
   5   7  -5    0.10    0.25 
   4   7  -5    0.17    0.10 
   4   7  -5    0.00    0.24 
   3   7  -5    4.48    0.40 
   3   7  -5    3.54    0.38 
   2   7  -5    0.27    0.14 
   2   7  -5    0.04    0.16 
   1   7  -5    0.75    0.21 
   1   7  -5    0.75    0.19 
   0   7  -5    2.92    0.26 
   0   7  -5    3.19    0.42 
  -1   7  -5    0.17    0.17 
  -1   7  -5    0.26    0.11 
  -2   7  -5   -0.01    0.11 
  -3   7  -5    0.70    0.18 
  -4   7  -5    1.10    0.23 
  -5   7  -5    0.64    0.19 
   6  -7   5    1.53    0.37 
   8   6  -5    1.03    0.40 
   7   6  -5    0.67    0.31 
   6   6  -5    0.25    0.30 
   5   6  -5    0.27    0.28 
   4   6  -5    1.44    0.35 
   4   6  -5    1.49    0.22 
   3   6  -5    3.10    0.40 
   3   6  -5    2.62    0.30 
   2   6  -5    8.08    0.50 
   2   6  -5    7.06    0.44 
   1   6  -5    4.39    0.34 
   1   6  -5    4.63    0.37 
   0   6  -5    1.59    0.25 
   0   6  -5    1.50    0.28 
  -1   6  -5    0.25    0.15 
  -1   6  -5   -0.14    0.08 
  -2   6  -5    0.29    0.14 
  -3   6  -5    0.61    0.18 
  -4   6  -5    0.46    0.15 
  -5   6  -5    2.83    0.39 
   6  -6   5    0.72    0.27 
   8   5  -5   -0.19    0.25 
   7   5  -5    0.37    0.30 
   6   5  -5    0.43    0.32 
   5   5  -5    8.57    0.59 
   4   5  -5    1.21    0.17 
   4   5  -5    0.76    0.33 
   3   5  -5    1.64    0.22 
   3   5  -5    1.32    0.32 
   2   5  -5   13.22    0.55 
   2   5  -5   12.79    0.60 
   1   5  -5    9.40    0.48 
   1   5  -5    9.45    0.48 
   0   5  -5    0.07    0.11 
   0   5  -5   -0.05    0.09 
  -1   5  -5    1.20    0.25 
  -1   5  -5    1.36    0.21 
  -2   5  -5    0.68    0.19 
  -3   5  -5    0.02    0.11 
  -4   5  -5    0.32    0.15 
  -5   5  -5    0.03    0.10 
   6  -5   5    2.43    0.38 
   7  -5   5    0.83    0.22 
   8   4  -5    0.00    0.30 
   7   4  -5    0.00    0.23 
   6   4  -5    0.82    0.33 
   5   4  -5    0.78    0.32 
   4   4  -5    0.28    0.07 
   4   4  -5    0.09    0.27 
   3   4  -5    5.73    0.45 
   3   4  -5    5.48    0.29 
   2   4  -5    3.63    0.25 
   2   4  -5    3.63    0.36 
   1   4  -5    0.91    0.21 
   1   4  -5    1.03    0.18 
   0   4  -5    2.09    0.24 
   0   4  -5    2.07    0.27 
  -1   4  -5   16.24    0.61 
  -1   4  -5   15.66    0.67 
  -2   4  -5    8.17    0.48 
  -2   4  -5    7.80    0.42 
   2  -4   5    7.71    0.27 
  -3   4  -5    9.84    0.57 
  -4   4  -5    0.95    0.23 
   5  -4   5    0.34    0.21 
   6  -4   5    0.39    0.18 
   7  -4   5    0.07    0.13 
   8  -4   5    0.53    0.17 
   8   3  -5    0.82    0.37 
   7   3  -5    0.18    0.27 
   6   3  -5    5.65    0.56 
   5   3  -5    1.33    0.36 
   4   3  -5    0.37    0.30 
   3   3  -5    0.81    0.29 
   3   3  -5    0.84    0.11 
   2   3  -5    6.83    0.32 
   2   3  -5    7.14    0.44 
   1   3  -5    0.21    0.07 
   1   3  -5    0.26    0.17 
   0   3  -5   30.89    0.89 
   0   3  -5   31.33    0.91 
  -1   3  -5    0.27    0.11 
  -1   3  -5    0.38    0.14 
  -2   3  -5    0.14    0.08 
  -2   3  -5    0.15    0.08 
  -3   3  -5   14.82    0.68 
   4  -3   5    4.49    0.39 
   5  -3   5    1.31    0.27 
   6  -3   5    0.42    0.19 
   7  -3   5    0.19    0.14 
   8  -3   5    0.28    0.16 
   8   2  -5    0.65    0.33 
   7   2  -5   -0.18    0.27 
   6   2  -5    2.80    0.42 
   5   2  -5    0.27    0.29 
   4   2  -5   -0.01    0.25 
   3   2  -5    3.92    0.36 
   3   2  -5    3.73    0.17 
   2   2  -5    2.80    0.31 
   2   2  -5    2.83    0.17 
   1   2  -5   12.70    0.51 
   1   2  -5   12.65    0.44 
   0   2  -5   11.42    0.45 
   0   2  -5   11.44    0.46 
  -1   2  -5   13.38    0.53 
  -1   2  -5   13.09    0.50 
  -2   2  -5   17.97    0.65 
  -2   2  -5   18.63    0.69 
   3  -2   5    0.00    0.11 
   4  -2   5    0.53    0.17 
   5  -2   5    5.58    0.40 
   6  -2   5    0.11    0.13 
   7  -2   5    0.35    0.16 
   8  -2   5    0.44    0.22 
   8   1  -5   -0.02    0.29 
   7   1  -5    0.37    0.31 
   6   1  -5    0.00    0.26 
   5   1  -5    0.33    0.29 
   4   1  -5    0.31    0.26 
   3   1  -5    0.78    0.23 
   2   1  -5   74.07    1.72 
  -2  -1   5   73.97    1.39 
   1   1  -5   23.48    0.71 
   1   1  -5   24.23    0.62 
  -1  -1   5   23.46    0.58 
   0   1  -5    4.92    0.29 
   0   1  -5    4.95    0.21 
   0  -1   5    4.49    0.24 
  -1   1  -5   60.35    1.40 
   1  -1   5   59.94    1.31 
  -2   1  -5    0.32    0.11 
   2  -1   5    0.45    0.12 
   3  -1   5    0.24    0.12 
   4  -1   5    2.78    0.25 
   5  -1   5    3.18    0.33 
   6  -1   5    5.58    0.40 
   7  -1   5    0.45    0.17 
   8  -1   5    0.11    0.20 
   9  -1   5    0.80    0.29 
   8   0  -5   -0.35    0.24 
   7   0  -5    0.60    0.31 
   6   0  -5    1.71    0.35 
   5   0  -5    0.68    0.28 
   4   0  -5    0.16    0.24 
   3   0  -5    0.04    0.19 
   2   0  -5    1.73    0.25 
  -2   0   5    1.76    0.08 
   1   0  -5    1.87    0.22 
   1   0  -5    1.84    0.17 
  -1   0   5    1.65    0.11 
   0   0  -5   35.63    0.90 
   0   0  -5   36.59    0.86 
   0   0   5   35.61    0.81 
  -1   0  -5   36.78    0.92 
   1   0   5   35.68    0.86 
   2   0   5    0.15    0.09 
   3   0   5   12.75    0.49 
   4   0   5    0.15    0.09 
   5   0   5    0.05    0.11 
   6   0   5    5.89    0.40 
   7   0   5    0.76    0.19 
   8   0   5    1.36    0.22 
   8   0   5    0.80    0.28 
   9   0   5    0.27    0.25 
   8  -1  -5   -0.12    0.26 
   7  -1  -5   -0.03    0.24 
   6  -1  -5    2.44    0.39 
   5  -1  -5    8.79    0.54 
   4  -1  -5    8.27    0.48 
   3  -1  -5    0.86    0.22 
   2  -1  -5    0.87    0.19 
   2  -1  -5    0.89    0.20 
  -2   1   5    0.88    0.06 
   1  -1  -5   40.86    0.99 
   1  -1  -5   40.64    1.01 
  -1   1   5   38.77    0.83 
   0  -1  -5  143.39    2.93 
   0  -1  -5  142.69    2.84 
   0   1   5  143.56    2.61 
  -1  -1  -5    0.97    0.16 
  -1  -1  -5    0.93    0.13 
   1   1   5    0.92    0.13 
   2   1   5   12.79    0.45 
   3   1   5    2.73    0.22 
   4   1   5   14.86    0.56 
   5   1   5    3.90    0.29 
   6   1   5    0.37    0.18 
   7   1   5    7.26    0.45 
   8   1   5    0.76    0.29 
   8   1   5    0.42    0.16 
   9   1   5   -0.01    0.18 
   8  -2  -5    0.06    0.25 
   7  -2  -5    0.00    0.21 
   6  -2  -5    0.79    0.29 
   5  -2  -5    1.39    0.31 
   4  -2  -5    4.99    0.40 
   3  -2  -5    5.88    0.38 
   3  -2  -5    5.71    0.39 
  -3   2   5    5.77    0.19 
   2  -2  -5    2.32    0.28 
   2  -2  -5    2.26    0.25 
  -2   2   5    2.13    0.11 
   1  -2  -5    2.58    0.25 
   1  -2  -5    2.55    0.23 
  -1   2   5    2.38    0.14 
   0  -2  -5    0.34    0.10 
   0  -2  -5    0.36    0.16 
   0   2   5    0.35    0.09 
  -1  -2  -5   15.83    0.47 
  -1  -2  -5   15.98    0.57 
   1   2   5   15.97    0.49 
   2   2   5   29.60    0.77 
   3   2   5   16.06    0.55 
   4   2   5    0.98    0.19 
   5   2   5    0.23    0.12 
   6   2   5    0.36    0.18 
   7   2   5    0.03    0.12 
   7   2   5    0.05    0.14 
   8   2   5    1.31    0.25 
   8   2   5    1.21    0.28 
   9   2   5    0.75    0.24 
   7  -3  -5    0.38    0.27 
   7  -3  -5   -0.09    0.19 
   6  -3  -5    0.41    0.28 
   6  -3  -5    0.82    0.29 
   5  -3  -5    0.93    0.30 
   5  -3  -5    0.77    0.25 
   4  -3  -5    0.59    0.28 
   4  -3  -5    0.53    0.23 
   3  -3  -5   -0.11    0.19 
   3  -3  -5   -0.10    0.17 
   2  -3  -5    3.56    0.32 
   2  -3  -5    3.91    0.27 
  -2   3   5    4.09    0.19 
   1  -3  -5   -0.17    0.16 
   1  -3  -5    0.11    0.11 
  -1   3   5    0.08    0.03 
   0  -3  -5    0.21    0.17 
   0  -3  -5    0.11    0.06 
   0   3   5    0.17    0.07 
  -1  -3  -5   78.17    1.85 
   1   3   5   78.50    1.62 
   2   3   5    2.93    0.23 
   3   3   5   17.29    0.59 
   4   3   5    0.02    0.09 
   5   3   5    3.05    0.27 
   6   3   5    0.47    0.20 
   7   3   5    1.67    0.28 
   7   3   5    2.77    0.40 
   8   3   5    0.80    0.24 
   8   3   5    0.94    0.22 
   9   3   5   -0.15    0.15 
   7  -4  -5   -0.05    0.22 
   6  -4  -5   -0.23    0.24 
   5  -4  -5    0.24    0.25 
   5  -4  -5    0.22    0.21 
   4  -4  -5   -0.22    0.23 
   4  -4  -5    0.13    0.19 
   3  -4  -5    1.95    0.34 
   3  -4  -5    2.27    0.26 
  -3   4   5    1.85    0.14 
   2  -4  -5    0.05    0.16 
   2  -4  -5   -0.01    0.22 
  -2   4   5    0.19    0.04 
   1  -4  -5    0.17    0.11 
   1  -4  -5    0.12    0.19 
  -1   4   5    0.22    0.06 
   0  -4  -5    7.40    0.44 
   0  -4  -5    8.13    0.24 
   0   4   5    8.24    0.35 
  -1  -4  -5   18.33    0.72 
   1   4   5   19.08    0.60 
  -2  -4  -5  116.42    2.65 
   2   4   5  115.67    2.34 
   3   4   5   14.73    0.56 
   4   4   5    3.63    0.29 
   5   4   5   -0.06    0.12 
   5   4   5   -0.01    0.14 
   6   4   5    0.35    0.18 
   6   4   5    0.25    0.18 
   7   4   5    0.98    0.25 
   7   4   5    0.83    0.23 
   8   4   5    1.30    0.29 
   8   4   5    1.43    0.26 
   9   4   5    0.26    0.14 
   7  -5  -5    0.47    0.33 
   6  -5  -5    0.33    0.32 
   5  -5  -5    0.17    0.27 
   4  -5  -5    0.47    0.31 
   3  -5  -5    1.20    0.33 
  -3   5   5    1.34    0.18 
   2  -5  -5    0.11    0.15 
   2  -5  -5    0.02    0.25 
  -2   5   5    0.07    0.05 
   1  -5  -5    2.41    0.35 
   1  -5  -5    2.78    0.15 
  -1   5   5    3.01    0.21 
   0  -5  -5    0.64    0.25 
   0   5   5    0.68    0.13 
  -1  -5  -5    1.25    0.29 
   1   5   5    1.33    0.19 
  -2  -5  -5    3.62    0.39 
   2   5   5    3.07    0.25 
   3   5   5    1.84    0.16 
   3   5   5    2.19    0.26 
   4   5   5    2.63    0.31 
   4   5   5    2.48    0.25 
   5   5   5    3.33    0.31 
   5   5   5    4.55    0.36 
   6   5   5   17.09    0.72 
   6   5   5   15.77    0.70 
   7   5   5    0.69    0.22 
   7   5   5    0.76    0.22 
   8   5   5    0.26    0.16 
   8   5   5    0.15    0.15 
   9   5   5   -0.01    0.13 
   6  -6  -5   -0.07    0.27 
   5  -6  -5   -0.01    0.26 
   4  -6  -5    0.16    0.28 
   3  -6  -5    0.51    0.31 
   2  -6  -5    0.13    0.28 
  -2   6   5    0.37    0.08 
   1  -6  -5    2.61    0.37 
  -1   6   5    2.65    0.22 
   0  -6  -5    6.36    0.50 
   0   6   5    5.96    0.35 
  -1  -6  -5    4.85    0.48 
   1   6   5    3.61    0.28 
  -2  -6  -5    5.19    0.48 
   2   6   5    5.57    0.36 
   2   6   5    5.66    0.19 
   3   6   5    0.62    0.21 
   3   6   5    0.85    0.13 
   4   6   5   14.71    0.66 
   4   6   5   16.38    0.57 
   5   6   5   19.89    0.73 
   5   6   5   21.43    0.81 
   6   6   5    0.11    0.12 
   6   6   5   -0.01    0.14 
   7   6   5    0.06    0.14 
   7   6   5    0.14    0.16 
   8   6   5    0.54    0.17 
   8   6   5    0.85    0.23 
   9   6   5    0.34    0.18 
   6  -7  -5   -0.28    0.27 
   5  -7  -5   -0.21    0.26 
   4  -7  -5    2.29    0.46 
   3  -7  -5    1.64    0.42 
  -3   7   5    2.31    0.28 
   2  -7  -5    1.48    0.38 
  -2   7   5    2.07    0.27 
   1  -7  -5    1.66    0.38 
  -1   7   5    1.84    0.28 
   0  -7  -5    5.04    0.50 
   0   7   5    5.47    0.36 
  -1  -7  -5    2.69    0.44 
   1   7   5    3.03    0.33 
  -2  -7  -5    5.19    0.50 
   2   7   5    5.73    0.39 
   3   7   5    0.04    0.16 
   4   7   5    3.61    0.24 
   4   7   5    2.73    0.36 
   5   7   5    2.49    0.35 
   6   7   5    0.74    0.19 
   6   7   5    1.28    0.27 
   7   7   5    0.99    0.23 
   7   7   5    1.12    0.25 
   8   7   5    0.35    0.18 
   8   7   5    0.16    0.15 
   9   7   5    0.67    0.20 
   5  -8  -5    0.58    0.36 
   4  -8  -5   -0.17    0.31 
   3  -8  -5    0.40    0.33 
  -3   8   5    0.15    0.09 
   2  -8  -5    1.94    0.43 
  -2   8   5    2.40    0.32 
   1  -8  -5    2.51    0.45 
  -1   8   5    3.38    0.37 
   0  -8  -5   -0.11    0.25 
   0   8   5    0.06    0.10 
  -1  -8  -5    2.23    0.43 
   1   8   5    3.09    0.35 
  -2  -8  -5    1.57    0.39 
   2   8   5    1.20    0.26 
   3   8   5    4.09    0.42 
   4   8   5    1.23    0.26 
   5   8   5    1.05    0.25 
   6   8   5    0.76    0.24 
   7   8   5    0.77    0.19 
   7   8   5    0.67    0.21 
   8   8   5    0.43    0.15 
   8   8   5    0.48    0.15 
   9   8   5    0.12    0.14 
   4  -9  -5    0.38    0.36 
   3  -9  -5    0.31    0.33 
   2  -9  -5    0.66    0.34 
  -2   9   5    0.36    0.12 
   1  -9  -5   -0.23    0.27 
  -1   9   5   -0.04    0.10 
   0  -9  -5    1.81    0.42 
   0   9   5    1.49    0.26 
  -1  -9  -5    1.16    0.35 
   1   9   5    0.74    0.18 
   2   9   5    2.23    0.33 
   3   9   5    0.14    0.17 
   4   9   5    0.26    0.16 
   5   9   5    1.60    0.30 
   6   9   5    1.13    0.27 
   7   9   5   -0.06    0.12 
   8   9   5    0.51    0.16 
   3 -10  -5    0.47    0.34 
   2 -10  -5   -0.11    0.27 
  -2  10   5    0.42    0.14 
   1 -10  -5    0.64    0.34 
  -1  10   5    0.31    0.14 
   0 -10  -5    0.34    0.28 
   0  10   5    0.22    0.11 
  -1 -10  -5    1.01    0.34 
   1  10   5    0.87    0.20 
   2  10   5    0.33    0.14 
   3  10   5    0.26    0.16 
   4  10   5    1.83    0.33 
   5  10   5    0.21    0.18 
   6  10   5    0.77    0.22 
   7  10   5    0.10    0.15 
   2 -11  -5    0.14    0.27 
  -2  11   5    0.29    0.12 
   1 -11  -5    1.07    0.34 
  -1  11   5    1.00    0.24 
   0 -11  -5    2.02    0.37 
   0  11   5    0.94    0.21 
  -1 -11  -5    0.54    0.25 
   1  11   5    0.24    0.12 
   2  11   5    0.43    0.16 
   3  11   5    0.22    0.16 
   4  11   5    1.40    0.31 
   5  11   5    1.51    0.32 
   6  11   5    0.11    0.17 
   0 -12  -5    1.91    0.25 
   0  12   5    0.35    0.14 
   1  12   5    0.44    0.15 
   2  12   5    1.16    0.25 
   3  12   5    0.39    0.19 
   4  12   5    0.82    0.26 
   5  12   5    1.71    0.34 
   3  10  -6    0.23    0.15 
   2  10  -6    0.30    0.18 
   1  10  -6    1.03    0.26 
   0  10  -6    0.08    0.15 
  -1  10  -6    0.40    0.20 
   5   9  -6    0.68    0.19 
   4   9  -6    0.90    0.19 
   3   9  -6    0.72    0.13 
   3   9  -6    0.14    0.15 
   2   9  -6    0.13    0.17 
   1   9  -6    0.91    0.24 
   0   9  -6    1.33    0.33 
  -1   9  -6    0.31    0.21 
  -2   9  -6    0.35    0.18 
  -3   9  -6    1.22    0.27 
   6   8  -6    1.65    0.39 
   5   8  -6    0.23    0.19 
   4   8  -6    0.33    0.18 
   3   8  -6    0.38    0.14 
   3   8  -6    1.20    0.27 
   2   8  -6    2.59    0.38 
   2   8  -6    2.69    0.33 
   1   8  -6    0.56    0.14 
   1   8  -6    0.53    0.22 
   0   8  -6    0.22    0.17 
   0   8  -6    0.40    0.12 
  -1   8  -6    0.01    0.12 
  -1   8  -6    0.26    0.09 
  -2   8  -6    0.36    0.15 
  -3   8  -6    0.19    0.12 
  -4   8  -6    2.25    0.38 
   7   7  -6    0.23    0.26 
   6   7  -6    0.17    0.25 
   5   7  -6    0.43    0.28 
   4   7  -6    0.65    0.27 
   3   7  -6    0.15    0.19 
   3   7  -6    0.15    0.10 
   2   7  -6    0.81    0.19 
   2   7  -6    1.26    0.27 
   1   7  -6    0.68    0.22 
   1   7  -6    0.63    0.17 
   0   7  -6   18.21    0.72 
   0   7  -6   16.24    0.81 
  -1   7  -6    1.66    0.32 
  -1   7  -6    1.60    0.27 
  -2   7  -6    0.54    0.22 
  -3   7  -6    1.58    0.29 
  -4   7  -6    0.07    0.13 
  -5   7  -6    2.39    0.39 
   7   6  -6    0.38    0.33 
   6   6  -6    0.07    0.27 
   5   6  -6    0.68    0.33 
   4   6  -6    2.00    0.39 
   3   6  -6    0.26    0.23 
   3   6  -6    0.13    0.11 
   2   6  -6    0.64    0.18 
   2   6  -6    0.41    0.22 
   1   6  -6   12.74    0.65 
   1   6  -6   12.45    0.59 
   0   6  -6    0.26    0.15 
   0   6  -6    0.34    0.17 
  -1   6  -6   20.09    0.78 
  -1   6  -6   18.92    0.87 
  -2   6  -6    0.38    0.18 
  -3   6  -6    0.81    0.24 
  -4   6  -6    0.85    0.25 
  -5   6  -6    1.03    0.20 
   6  -6   6    2.53    0.43 
   8   5  -6    0.44    0.35 
   7   5  -6   -0.15    0.24 
   6   5  -6    1.23    0.36 
   5   5  -6    0.96    0.33 
   4   5  -6    3.48    0.45 
   3   5  -6    0.74    0.14 
   3   5  -6    0.52    0.27 
   2   5  -6    0.10    0.21 
   2   5  -6    0.33    0.12 
   1   5  -6    0.79    0.20 
   1   5  -6    0.49    0.22 
   0   5  -6    4.53    0.38 
   0   5  -6    4.97    0.37 
  -1   5  -6   11.10    0.54 
  -1   5  -6   11.06    0.62 
  -2   5  -6    0.07    0.12 
  -2   5  -6   -0.21    0.08 
  -3   5  -6   10.78    0.64 
  -4   5  -6    0.28    0.12 
   5  -5   6    0.14    0.21 
   6  -5   6    0.51    0.21 
   7  -5   6    0.43    0.19 
   8   4  -6    0.47    0.36 
   7   4  -6   -0.10    0.23 
   6   4  -6    0.23    0.28 
   5   4  -6    2.87    0.45 
   4   4  -6   -0.02    0.26 
   3   4  -6    1.44    0.19 
   3   4  -6    1.21    0.32 
   2   4  -6    4.34    0.41 
   2   4  -6    4.67    0.29 
   1   4  -6    0.55    0.12 
   1   4  -6    0.26    0.20 
   0   4  -6    0.06    0.07 
   0   4  -6   -0.02    0.11 
  -1   4  -6   -0.05    0.09 
  -1   4  -6    0.30    0.14 
  -2   4  -6   26.49    0.92 
  -2   4  -6   24.32    0.96 
  -3   4  -6   18.17    0.83 
  -4   4  -6   23.13    0.98 
   5  -4   6   -0.05    0.15 
   6  -4   6    0.34    0.17 
   7  -4   6    1.16    0.24 
   8   3  -6    0.73    0.40 
   7   3  -6    0.54    0.37 
   6   3  -6    0.24    0.29 
   5   3  -6    0.00    0.28 
   4   3  -6    5.21    0.51 
   3   3  -6    5.41    0.45 
   3   3  -6    5.85    0.27 
   2   3  -6    0.68    0.12 
   2   3  -6    0.36    0.24 
   1   3  -6    9.47    0.50 
   1   3  -6    9.64    0.43 
   1   3  -6    9.89    0.29 
   0   3  -6    0.12    0.13 
   0   3  -6    0.29    0.11 
  -1   3  -6   10.26    0.48 
  -1   3  -6   11.33    0.54 
  -2   3  -6    1.49    0.27 
  -2   3  -6    1.62    0.24 
  -3   3  -6    0.34    0.13 
   4  -3   6   14.96    0.69 
   5  -3   6    0.71    0.22 
   6  -3   6    1.48    0.26 
   7  -3   6    0.07    0.14 
   8  -3   6    0.86    0.21 
   8   2  -6    0.90    0.38 
   7   2  -6    0.15    0.30 
   6   2  -6    0.58    0.32 
   5   2  -6    0.18    0.27 
   4   2  -6    1.37    0.36 
   3   2  -6   -0.04    0.22 
   2   2  -6    6.35    0.28 
   2   2  -6    5.88    0.41 
   1   2  -6    0.41    0.19 
   1   2  -6    0.50    0.10 
   1   2  -6    0.70    0.13 
   0   2  -6    0.13    0.11 
   0   2  -6    0.04    0.06 
   0   2  -6    0.08    0.04 
  -1   2  -6   17.18    0.65 
  -1   2  -6   17.16    0.62 
  -2   2  -6    6.22    0.37 
   2  -2   6    6.29    0.37 
   3  -2   6    0.65    0.20 
   4  -2   6    0.54    0.18 
   5  -2   6   40.75    1.22 
   6  -2   6    0.05    0.11 
   7  -2   6    0.46    0.17 
   8  -2   6    0.53    0.16 
   8   1  -6    0.93    0.39 
   7   1  -6    0.24    0.31 
   6   1  -6    0.01    0.25 
   5   1  -6    0.57    0.28 
   4   1  -6    4.14    0.45 
   3   1  -6    0.16    0.25 
   2   1  -6    0.60    0.22 
  -2  -1   6    0.65    0.08 
   1   1  -6   16.29    0.60 
   1   1  -6   16.64    0.50 
  -1  -1   6   15.97    0.47 
   0   1  -6    3.05    0.20 
   0   1  -6    3.24    0.26 
   0  -1   6    3.12    0.21 
  -1   1  -6    6.44    0.35 
   1  -1   6    7.05    0.33 
  -2   1  -6    0.11    0.08 
   2  -1   6    0.12    0.09 
   3  -1   6    3.81    0.29 
   4  -1   6    3.35    0.30 
   5  -1   6    0.30    0.16 
   6  -1   6    0.15    0.15 
   7  -1   6    0.35    0.17 
   8  -1   6    0.86    0.19 
   9  -1   6    1.08    0.32 
   8   0  -6    0.37    0.31 
   7   0  -6    0.68    0.33 
   6   0  -6    0.47    0.28 
   5   0  -6    2.93    0.40 
   4   0  -6    5.84    0.47 
   3   0  -6    1.25    0.27 
   2   0  -6   14.34    0.58 
   2   0  -6   14.37    0.54 
  -2   0   6   13.83    0.35 
   1   0  -6   27.41    0.81 
   1   0  -6   27.48    0.75 
  -1   0   6   27.18    0.65 
   0   0  -6   12.27    0.47 
   0   0  -6   12.59    0.43 
   0   0   6   12.58    0.42 
  -1   0  -6    4.82    0.28 
  -1   0  -6    4.51    0.24 
   1   0   6    4.58    0.26 
  -2   0  -6    6.24    0.34 
   2   0   6    7.26    0.35 
   3   0   6   30.91    0.88 
   4   0   6    0.20    0.11 
   5   0   6   -0.08    0.12 
   6   0   6    3.85    0.34 
   7   0   6    0.46    0.17 
   8   0   6    1.98    0.30 
   9   0   6    0.38    0.19 
   8  -1  -6   -0.39    0.22 
   7  -1  -6    0.19    0.26 
   6  -1  -6   -0.13    0.23 
   5  -1  -6    4.24    0.44 
   4  -1  -6    0.10    0.25 
   3  -1  -6   10.32    0.54 
   3  -1  -6   11.21    0.54 
   2  -1  -6    3.90    0.33 
   2  -1  -6    3.39    0.29 
  -2   1   6    3.72    0.14 
   1  -1  -6    0.41    0.15 
   1  -1  -6    0.20    0.15 
  -1   1   6    0.32    0.07 
   0  -1  -6   35.00    0.92 
   0  -1  -6   36.42    0.91 
   0   1   6   34.05    0.82 
  -1  -1  -6    0.14    0.12 
  -1  -1  -6    0.05    0.07 
   1   1   6    0.16    0.09 
   2   1   6   11.21    0.44 
   3   1   6    2.03    0.24 
   4   1   6   19.28    0.68 
   5   1   6    0.29    0.15 
   6   1   6    1.02    0.23 
   7   1   6    1.06    0.24 
   8   1   6    0.93    0.21 
   8   1   6    0.97    0.30 
   9   1   6    0.82    0.27 
   8  -2  -6    0.61    0.30 
   8  -2  -6    0.61    0.23 
   7  -2  -6   -0.16    0.21 
   6  -2  -6    0.66    0.30 
   5  -2  -6    7.19    0.50 
   4  -2  -6    7.04    0.49 
   4  -2  -6    7.20    0.51 
   3  -2  -6    3.81    0.36 
   3  -2  -6    3.12    0.36 
   2  -2  -6    7.88    0.45 
   2  -2  -6    7.77    0.42 
  -2   2   6    7.92    0.26 
   1  -2  -6    6.01    0.33 
   1  -2  -6    5.48    0.34 
  -1   2   6    5.70    0.24 
   0  -2  -6    2.26    0.20 
   0  -2  -6    2.48    0.27 
   0   2   6    2.06    0.17 
  -1  -2  -6    0.56    0.18 
  -1  -2  -6    0.50    0.11 
   1   2   6    0.40    0.12 
   2   2   6   -0.03    0.07 
   3   2   6    4.83    0.31 
   4   2   6   17.22    0.63 
   5   2   6   22.71    0.79 
   6   2   6    1.85    0.29 
   7   2   6    2.57    0.34 
   8   2   6    0.52    0.19 
   8   2   6    0.30    0.16 
   9   2   6    0.51    0.21 
   7  -3  -6    0.92    0.28 
   7  -3  -6    0.76    0.29 
   6  -3  -6    0.73    0.28 
   6  -3  -6    0.70    0.28 
   5  -3  -6    2.09    0.34 
   5  -3  -6    1.62    0.36 
   4  -3  -6   -0.20    0.20 
   4  -3  -6    0.17    0.25 
   3  -3  -6   11.43    0.52 
   3  -3  -6   11.15    0.60 
   2  -3  -6    2.50    0.32 
   2  -3  -6    3.23    0.30 
  -2   3   6    2.82    0.16 
   1  -3  -6    5.12    0.29 
   1  -3  -6    5.26    0.36 
  -1   3   6    5.00    0.23 
   0  -3  -6    0.23    0.19 
   0  -3  -6    0.32    0.09 
   0   3   6    0.46    0.10 
  -1  -3  -6   44.07    1.22 
  -1  -3  -6   43.55    1.02 
   1   3   6   44.36    1.06 
   2   3   6   32.15    0.88 
   3   3   6    3.43    0.26 
   4   3   6    1.37    0.23 
   5   3   6   14.34    0.62 
   6   3   6   -0.10    0.13 
   7   3   6    4.34    0.45 
   7   3   6    3.36    0.38 
   8   3   6    0.28    0.17 
   8   3   6    0.33    0.17 
   9   3   6    0.18    0.15 
   7  -4  -6    0.21    0.29 
   6  -4  -6    0.10    0.25 
   5  -4  -6    0.24    0.27 
   4  -4  -6    0.95    0.33 
   4  -4  -6    1.02    0.25 
   3  -4  -6    0.41    0.21 
   3  -4  -6   -0.12    0.23 
   2  -4  -6    2.99    0.37 
   2  -4  -6    2.95    0.29 
  -2   4   6    3.03    0.19 
   1  -4  -6    7.15    0.47 
   1  -4  -6    7.57    0.32 
  -1   4   6    7.59    0.32 
   0  -4  -6    0.38    0.22 
   0  -4  -6    0.34    0.07 
   0   4   6    0.47    0.10 
  -1  -4  -6   11.85    0.57 
   1   4   6   11.03    0.45 
  -2  -4  -6   98.16    2.34 
   2   4   6   96.17    2.05 
   3   4   6   18.41    0.65 
   4   4   6    1.36    0.25 
   5   4   6    0.02    0.16 
   6   4   6    7.88    0.48 
   7   4   6    2.26    0.37 
   7   4   6    2.30    0.34 
   8   4   6    0.30    0.18 
   8   4   6    0.33    0.16 
   9   4   6    0.01    0.13 
   6  -5  -6   -0.20    0.26 
   5  -5  -6    0.16    0.29 
   4  -5  -6    0.80    0.33 
   3  -5  -6    0.46    0.30 
   2  -5  -6    3.54    0.44 
  -2   5   6    1.68    0.19 
   1  -5  -6    0.17    0.08 
   1  -5  -6    0.20    0.26 
  -1   5   6    0.25    0.07 
   0  -5  -6    1.39    0.31 
   0   5   6    1.49    0.20 
  -1  -5  -6   26.15    0.96 
   1   5   6   27.56    0.82 
  -2  -5  -6    0.02    0.20 
   2   5   6    0.11    0.10 
   3   5   6    6.37    0.39 
   4   5   6    1.07    0.23 
   5   5   6    1.17    0.27 
   5   5   6    1.12    0.23 
   6   5   6    3.55    0.39 
   6   5   6    3.44    0.33 
   7   5   6    0.43    0.19 
   7   5   6    0.20    0.21 
   8   5   6    0.29    0.15 
   8   5   6    0.35    0.18 
   9   5   6    0.22    0.14 
   6  -6  -6    0.11    0.31 
   5  -6  -6    0.07    0.29 
   4  -6  -6    0.21    0.29 
   3  -6  -6    0.06    0.28 
   2  -6  -6    1.53    0.37 
  -2   6   6    1.63    0.22 
   1  -6  -6    2.39    0.41 
  -1   6   6    2.88    0.23 
   0  -6  -6    1.02    0.34 
   0   6   6    1.21    0.21 
  -1  -6  -6    0.28    0.28 
   1   6   6    0.53    0.17 
  -2  -6  -6    4.79    0.49 
   2   6   6    5.58    0.37 
   3   6   6    0.60    0.11 
   3   6   6    0.09    0.13 
   4   6   6    0.00    0.15 
   4   6   6    0.26    0.11 
   5   6   6   -0.09    0.15 
   5   6   6    0.17    0.13 
   6   6   6    0.28    0.18 
   6   6   6    0.15    0.14 
   7   6   6    0.91    0.23 
   7   6   6    0.95    0.24 
   8   6   6    0.63    0.20 
   8   6   6    0.38    0.18 
   9   6   6    0.26    0.19 
   5  -7  -6   -0.13    0.30 
   4  -7  -6   -0.05    0.25 
   3  -7  -6    0.55    0.34 
   2  -7  -6    0.93    0.34 
  -2   7   6    1.42    0.22 
   1  -7  -6    1.23    0.36 
  -1   7   6    1.32    0.22 
   0  -7  -6    1.05    0.35 
   0   7   6    1.46    0.22 
  -1  -7  -6   10.21    0.68 
   1   7   6   10.29    0.52 
  -2  -7  -6    5.18    0.51 
   2   7   6    4.88    0.37 
   3   7   6    1.63    0.27 
   4   7   6    0.18    0.19 
   5   7   6    0.17    0.17 
   5   7   6    0.25    0.07 
   6   7   6    0.22    0.18 
   6   7   6    0.02    0.10 
   7   7   6    0.49    0.17 
   7   7   6    0.35    0.21 
   8   7   6    0.06    0.11 
   8   7   6    0.56    0.20 
   9   7   6   -0.08    0.13 
   5  -8  -6   -0.48    0.27 
   4  -8  -6    0.35    0.38 
   3  -8  -6    0.00    0.30 
   2  -8  -6    1.11    0.38 
  -2   8   6    1.27    0.21 
   1  -8  -6    3.12    0.49 
  -1   8   6    2.89    0.34 
   0  -8  -6    2.15    0.44 
   0   8   6    1.95    0.28 
  -1  -8  -6    0.76    0.31 
   1   8   6    0.46    0.17 
  -2  -8  -6   -0.14    0.22 
   2   8   6    0.17    0.13 
   3   8   6    2.77    0.36 
   4   8   6    0.36    0.19 
   5   8   6    0.44    0.18 
   6   8   6    0.34    0.18 
   7   8   6    0.70    0.22 
   8   8   6    0.12    0.13 
   8   8   6   -0.17    0.08 
   4  -9  -6    0.02    0.29 
   3  -9  -6    0.05    0.30 
   2  -9  -6    0.03    0.29 
  -2   9   6    0.24    0.12 
   1  -9  -6    0.22    0.31 
  -1   9   6    0.30    0.13 
   0  -9  -6    1.17    0.40 
   0   9   6    0.85    0.20 
  -1  -9  -6    0.56    0.31 
   1   9   6    0.93    0.19 
  -2  -9  -6    0.53    0.29 
   2   9   6    0.52    0.15 
   3   9   6    7.14    0.49 
   4   9   6    1.72    0.33 
   5   9   6    0.11    0.14 
   6   9   6    0.35    0.16 
   7   9   6    0.69    0.22 
   8   9   6    0.60    0.19 
   3 -10  -6    0.44    0.34 
   2 -10  -6    1.14    0.42 
  -2  10   6    1.07    0.19 
   1 -10  -6    0.30    0.31 
  -1  10   6    0.33    0.11 
   0 -10  -6    0.19    0.29 
   0  10   6    0.00    0.09 
  -1 -10  -6    0.45    0.32 
   1  10   6    0.39    0.14 
   2  10   6    0.27    0.14 
   3  10   6    0.49    0.16 
   4  10   6    1.00    0.26 
   5  10   6    0.03    0.15 
   6  10   6    0.84    0.22 
   7  10   6    0.83    0.23 
   1 -11  -6    0.26    0.27 
  -1  11   6    0.22    0.11 
   0 -11  -6    0.76    0.30 
   0  11   6    0.30    0.13 
  -1 -11  -6    0.58    0.24 
   2  11   6    0.78    0.15 
   3  11   6    0.19    0.11 
   4  11   6    0.51    0.19 
   5  11   6    0.01    0.12 
   6  11   6    0.12    0.17 
   1  12   6    0.19    0.12 
   2  12   6    0.70    0.19 
   3  12   6    0.90    0.22 
   4  12   6    0.07    0.13 
   3  10  -7    0.11    0.15 
   2  10  -7    0.25    0.17 
   1  10  -7    0.23    0.18 
   0  10  -7    1.06    0.24 
   5   9  -7    0.81    0.19 
   4   9  -7    0.74    0.17 
   3   9  -7    0.68    0.16 
   3   9  -7    2.40    0.22 
   2   9  -7    1.35    0.19 
   2   9  -7    1.14    0.25 
   1   9  -7    0.27    0.17 
   1   9  -7    0.58    0.09 
   0   9  -7    0.09    0.19 
  -1   9  -7    0.40    0.22 
  -2   9  -7    0.64    0.24 
   6   8  -7    0.98    0.26 
   5   8  -7    0.60    0.24 
   4   8  -7    0.49    0.17 
   3   8  -7    0.23    0.11 
   3   8  -7    0.55    0.17 
   2   8  -7    1.72    0.27 
   2   8  -7    1.04    0.24 
   1   8  -7    0.31    0.15 
   1   8  -7    0.15    0.09 
   0   8  -7    0.28    0.16 
   0   8  -7    0.38    0.10 
  -1   8  -7    0.57    0.12 
  -1   8  -7    0.47    0.19 
  -2   8  -7    0.52    0.25 
  -3   8  -7    0.50    0.19 
  -4   8  -7    0.61    0.21 
   6   7  -7    0.17    0.27 
   5   7  -7    0.53    0.25 
   4   7  -7    0.64    0.25 
   3   7  -7    0.88    0.28 
   3   7  -7    0.72    0.17 
   2   7  -7    0.28    0.13 
   2   7  -7    0.23    0.16 
   1   7  -7    3.76    0.45 
   1   7  -7    3.31    0.31 
   0   7  -7    0.20    0.11 
   0   7  -7    0.31    0.14 
  -1   7  -7    1.88    0.29 
  -1   7  -7    1.52    0.32 
  -2   7  -7    1.04    0.26 
  -3   7  -7   -0.09    0.10 
  -4   7  -7    0.56    0.19 
  -5   7  -7   -0.07    0.12 
   7   6  -7    0.35    0.31 
   6   6  -7   -0.32    0.22 
   5   6  -7    0.23    0.25 
   4   6  -7    2.76    0.44 
   3   6  -7    0.09    0.22 
   3   6  -7    0.18    0.10 
   2   6  -7    0.94    0.26 
   2   6  -7    0.96    0.22 
   1   6  -7    1.95    0.32 
   1   6  -7    1.99    0.31 
   0   6  -7    4.81    0.50 
   0   6  -7    5.05    0.39 
  -1   6  -7    0.27    0.14 
  -1   6  -7    0.18    0.16 
  -2   6  -7   -0.01    0.13 
  -2   6  -7    0.11    0.09 
  -3   6  -7    0.04    0.11 
  -4   6  -7    0.39    0.16 
   5  -6   7    0.30    0.28 
   6  -6   7    0.29    0.21 
   7   5  -7    0.75    0.37 
   6   5  -7    2.05    0.44 
   5   5  -7    2.97    0.48 
   4   5  -7    0.31    0.26 
   3   5  -7   23.80    0.81 
   3   5  -7   23.36    0.93 
   2   5  -7    5.23    0.37 
   2   5  -7    5.10    0.46 
   1   5  -7    0.17    0.18 
   1   5  -7    0.77    0.22 
   0   5  -7    0.68    0.20 
   0   5  -7    0.58    0.21 
  -1   5  -7    2.51    0.32 
  -1   5  -7    2.46    0.37 
  -2   5  -7    5.56    0.47 
  -2   5  -7    5.95    0.42 
  -3   5  -7    3.74    0.47 
  -4   5  -7    2.48    0.39 
   5  -5   7    0.63    0.25 
   6  -5   7    0.17    0.19 
   7   4  -7    1.18    0.42 
   6   4  -7    0.34    0.30 
   5   4  -7    1.21    0.39 
   4   4  -7   10.97    0.66 
   3   4  -7   11.62    0.67 
   3   4  -7   11.25    0.46 
   2   4  -7   10.55    0.60 
   2   4  -7   10.23    0.47 
   1   4  -7    1.61    0.23 
   1   4  -7    1.45    0.27 
   0   4  -7    0.11    0.16 
   0   4  -7    0.11    0.12 
  -1   4  -7    3.10    0.30 
  -1   4  -7    3.07    0.38 
  -2   4  -7    7.02    0.46 
  -2   4  -7    6.89    0.50 
  -3   4  -7    4.28    0.49 
   4  -4   7    0.04    0.16 
   5  -4   7    1.69    0.34 
   6  -4   7    0.67    0.22 
   7  -4   7    1.68    0.31 
   8   3  -7    0.31    0.36 
   7   3  -7   -0.26    0.31 
   6   3  -7    0.42    0.35 
   5   3  -7    0.22    0.30 
   4   3  -7    0.50    0.33 
   3   3  -7    0.55    0.32 
   3   3  -7    0.55    0.10 
   2   3  -7   20.49    0.81 
   2   3  -7   21.51    0.68 
   1   3  -7    9.79    0.45 
   1   3  -7    9.13    0.49 
   0   3  -7    4.37    0.36 
   0   3  -7    4.62    0.32 
  -1   3  -7    3.76    0.38 
  -1   3  -7    4.33    0.34 
  -2   3  -7    0.07    0.11 
  -2   3  -7    0.14    0.13 
   3  -3   7    6.11    0.44 
   4  -3   7   -0.04    0.16 
   5  -3   7    0.94    0.24 
   6  -3   7    0.10    0.14 
   7  -3   7    0.87    0.22 
   8  -3   7    0.50    0.17 
   8   2  -7    0.05    0.36 
   7   2  -7    0.00    0.34 
   6   2  -7    0.30    0.31 
   5   2  -7    6.07    0.52 
   4   2  -7    1.35    0.38 
   3   2  -7    6.37    0.52 
   2   2  -7    3.33    0.39 
   2   2  -7    3.21    0.24 
  -2  -2   7    3.28    0.20 
   1   2  -7    9.59    0.50 
   1   2  -7    9.01    0.33 
  -1  -2   7    9.54    0.39 
   0   2  -7   45.32    1.23 
   0  -2   7   45.90    1.14 
  -1   2  -7   14.91    0.61 
   1  -2   7   15.20    0.59 
  -2   2  -7    1.17    0.23 
   2  -2   7    0.91    0.21 
   3  -2   7    7.15    0.43 
   4  -2   7    0.04    0.15 
   5  -2   7    5.61    0.43 
   6  -2   7    1.59    0.29 
   7  -2   7    0.16    0.15 
   8  -2   7    1.74    0.32 
   8   1  -7    0.01    0.33 
   7   1  -7    0.05    0.29 
   6   1  -7    1.44    0.36 
   5   1  -7    2.90    0.45 
   4   1  -7    1.29    0.37 
   3   1  -7    1.34    0.32 
   2   1  -7    0.12    0.09 
   2   1  -7    0.17    0.23 
  -2  -1   7    0.36    0.07 
   1   1  -7    0.10    0.17 
   1   1  -7    0.24    0.13 
  -1  -1   7    0.22    0.06 
   0   1  -7    5.83    0.36 
   0   1  -7    5.78    0.28 
   0  -1   7    6.02    0.30 
  -1   1  -7   57.65    1.44 
   1  -1   7   56.79    1.33 
  -2   1  -7   12.84    0.57 
   2  -1   7   13.43    0.54 
   3  -1   7    8.70    0.46 
   4  -1   7    0.94    0.22 
   5  -1   7    0.01    0.12 
   6  -1   7    0.23    0.15 
   7  -1   7    0.00    0.13 
   8  -1   7    0.13    0.15 
   8   0  -7   -0.21    0.26 
   7   0  -7    0.01    0.26 
   6   0  -7    0.02    0.24 
   5   0  -7    0.61    0.29 
   4   0  -7    5.60    0.51 
   3   0  -7    6.33    0.42 
   3   0  -7    6.16    0.46 
   2   0  -7   -0.14    0.20 
   2   0  -7    0.16    0.16 
  -2   0   7    0.23    0.05 
   1   0  -7   24.87    0.74 
   1   0  -7   24.79    0.79 
  -1   0   7   24.89    0.64 
   0   0  -7  113.14    2.43 
   0   0  -7  113.95    2.41 
   0   0   7  113.84    2.22 
  -1   0  -7    2.62    0.20 
  -1   0  -7    2.76    0.24 
   1   0   7    3.37    0.23 
  -2   0  -7   15.53    0.61 
   2   0   7   15.60    0.57 
   3   0   7    4.97    0.33 
   4   0   7    7.47    0.43 
   5   0   7    0.08    0.15 
   6   0   7    0.18    0.16 
   7   0   7    0.73    0.21 
   8   0   7    0.18    0.15 
   9   0   7    1.38    0.32 
   7  -1  -7    0.24    0.28 
   6  -1  -7   -0.15    0.25 
   5  -1  -7    5.50    0.48 
   4  -1  -7    0.03    0.27 
   4  -1  -7    0.03    0.22 
   3  -1  -7    0.35    0.23 
   3  -1  -7   -0.07    0.25 
   2  -1  -7   41.14    1.14 
   2  -1  -7   40.04    1.13 
  -2   1   7   39.68    0.84 
   1  -1  -7   79.45    1.81 
   1  -1  -7   79.25    1.84 
  -1   1   7   79.10    1.57 
   0  -1  -7    1.44    0.22 
   0  -1  -7    1.69    0.21 
   0   1   7    1.96    0.19 
  -1  -1  -7    9.22    0.40 
  -1  -1  -7    8.99    0.41 
   1   1   7    8.48    0.37 
  -2  -1  -7    9.78    0.44 
   2   1   7    8.78    0.40 
   3   1   7    7.98    0.40 
   4   1   7   15.59    0.62 
   5   1   7    0.21    0.15 
   6   1   7    0.16    0.16 
   7   1   7    0.47    0.17 
   8   1   7    0.46    0.17 
   9   1   7    0.60    0.25 
   7  -2  -7    0.60    0.31 
   7  -2  -7    0.51    0.24 
   6  -2  -7    0.09    0.25 
   6  -2  -7   -0.08    0.19 
   5  -2  -7    3.82    0.46 
   5  -2  -7    4.14    0.44 
   4  -2  -7    2.92    0.39 
   4  -2  -7    3.32    0.41 
   3  -2  -7    0.94    0.29 
   3  -2  -7    1.27    0.31 
   2  -2  -7    6.10    0.40 
   2  -2  -7    5.95    0.40 
  -2   2   7    6.32    0.23 
   1  -2  -7    6.41    0.40 
   1  -2  -7    6.17    0.36 
  -1   2   7    6.66    0.27 
   0  -2  -7    0.03    0.17 
   0  -2  -7    0.02    0.09 
   0   2   7    0.18    0.07 
  -1  -2  -7    0.85    0.21 
  -1  -2  -7    0.77    0.14 
   1   2   7    0.99    0.16 
   2   2   7   21.55    0.68 
   3   2   7    5.15    0.32 
   4   2   7    2.46    0.30 
   5   2   7   11.11    0.56 
   6   2   7    1.49    0.29 
   7   2   7    0.83    0.22 
   8   2   7    0.37    0.16 
   9   2   7    0.35    0.18 
   7  -3  -7    0.11    0.22 
   6  -3  -7   -0.04    0.21 
   6  -3  -7   -0.32    0.19 
   5  -3  -7    0.92    0.31 
   5  -3  -7    0.29    0.26 
   4  -3  -7    7.51    0.54 
   4  -3  -7    7.98    0.51 
   3  -3  -7    2.09    0.37 
   3  -3  -7    1.97    0.32 
   2  -3  -7    0.67    0.27 
   2  -3  -7    0.31    0.22 
   1  -3  -7    0.01    0.13 
   1  -3  -7   -0.11    0.20 
  -1   3   7    0.13    0.05 
   0  -3  -7    0.07    0.09 
   0  -3  -7    0.00    0.19 
   0   3   7    0.23    0.07 
  -1  -3  -7   85.97    1.87 
  -1  -3  -7   88.44    2.10 
   1   3   7   87.70    1.83 
  -2  -3  -7    3.78    0.34 
   2   3   7    3.66    0.27 
   3   3   7    0.33    0.13 
   4   3   7    6.41    0.41 
   5   3   7   12.78    0.60 
   6   3   7    3.73    0.39 
   7   3   7    1.80    0.32 
   8   3   7    0.37    0.20 
   8   3   7   -0.04    0.10 
   9   3   7    0.43    0.16 
   9   3   7    0.14    0.14 
   7  -4  -7    0.16    0.28 
   6  -4  -7    0.19    0.24 
   5  -4  -7   -0.18    0.19 
   4  -4  -7    6.31    0.44 
   4  -4  -7    8.09    0.59 
   3  -4  -7    0.51    0.25 
   3  -4  -7    0.51    0.28 
   2  -4  -7    1.03    0.23 
   2  -4  -7    1.12    0.34 
  -2   4   7    1.01    0.12 
   1  -4  -7    2.74    0.38 
   1  -4  -7    2.53    0.22 
   0  -4  -7    3.18    0.37 
   0  -4  -7    2.84    0.18 
   0   4   7    3.28    0.22 
  -1  -4  -7   25.16    0.92 
  -1  -4  -7   25.10    0.67 
   1   4   7   24.87    0.76 
  -2  -4  -7    9.12    0.55 
   2   4   7    9.16    0.44 
   3   4   7    2.70    0.30 
   4   4   7    0.38    0.19 
   5   4   7    1.16    0.28 
   6   4   7    9.04    0.54 
   7   4   7    0.10    0.14 
   7   4   7    0.20    0.18 
   8   4   7    2.68    0.39 
   8   4   7    2.72    0.39 
   9   4   7    0.53    0.17 
   9   4   7    0.12    0.16 
   6  -5  -7   -0.16    0.27 
   5  -5  -7    0.46    0.31 
   4  -5  -7    0.38    0.32 
   3  -5  -7    1.44    0.38 
   2  -5  -7    2.97    0.44 
  -2   5   7    2.93    0.20 
   1  -5  -7    3.80    0.45 
  -1   5   7    3.65    0.24 
   0  -5  -7    2.37    0.13 
   0  -5  -7    2.26    0.39 
   0   5   7    2.78    0.22 
  -1  -5  -7    5.29    0.49 
   1   5   7    5.77    0.35 
  -2  -5  -7   45.34    1.42 
   2   5   7   45.70    1.21 
   3   5   7    0.15    0.14 
   4   5   7    8.22    0.49 
   5   5   7    9.09    0.53 
   6   5   7    0.63    0.23 
   6   5   7    0.74    0.19 
   7   5   7    0.19    0.13 
   7   5   7    0.25    0.16 
   8   5   7    2.71    0.40 
   8   5   7    2.48    0.38 
   9   5   7    0.14    0.14 
   9   5   7    0.22    0.14 
   6  -6  -7    0.07    0.32 
   5  -6  -7    0.07    0.29 
   4  -6  -7    0.08    0.31 
   3  -6  -7    2.59    0.46 
   2  -6  -7    0.06    0.26 
  -2   6   7    0.16    0.06 
   1  -6  -7    7.22    0.55 
  -1   6   7    7.83    0.40 
   0  -6  -7    2.88    0.45 
   0   6   7    2.95    0.26 
  -1  -6  -7    5.50    0.53 
   1   6   7    4.86    0.35 
  -2  -6  -7    6.18    0.55 
   2   6   7    6.96    0.44 
   3   6   7    0.47    0.19 
   4   6   7    1.31    0.28 
   5   6   7    0.47    0.22 
   5   6   7    0.54    0.17 
   6   6   7    3.35    0.42 
   6   6   7    3.69    0.32 
   7   6   7    0.22    0.17 
   7   6   7    0.34    0.14 
   8   6   7    3.53    0.44 
   8   6   7    3.48    0.45 
   9   6   7    2.12    0.37 
   9   6   7    2.84    0.36 
   5  -7  -7    0.69    0.39 
   4  -7  -7    1.32    0.43 
   3  -7  -7    0.08    0.34 
   2  -7  -7    3.49    0.48 
  -2   7   7    3.78    0.28 
   1  -7  -7    0.51    0.32 
  -1   7   7    0.77    0.17 
   0  -7  -7    1.57    0.39 
   0   7   7    1.64    0.26 
  -1  -7  -7    6.29    0.61 
   1   7   7    5.05    0.37 
  -2  -7  -7    1.10    0.38 
   2   7   7    0.97    0.23 
   3   7   7    2.15    0.32 
   4   7   7   -0.01    0.15 
   5   7   7    3.64    0.42 
   5   7   7    3.10    0.24 
   6   7   7    0.03    0.09 
   6   7   7    0.12    0.15 
   7   7   7    0.66    0.23 
   7   7   7    0.47    0.16 
   8   7   7    0.13    0.13 
   8   7   7    0.30    0.17 
   9   7   7    0.83    0.23 
   9   7   7    1.00    0.21 
   4  -8  -7    0.50    0.40 
   3  -8  -7    1.52    0.45 
   2  -8  -7    0.09    0.28 
  -2   8   7    0.29    0.10 
   1  -8  -7    0.15    0.32 
  -1   8   7    0.62    0.15 
   0  -8  -7    0.14    0.29 
   0   8   7    0.40    0.12 
  -1  -8  -7    0.00    0.27 
   1   8   7    0.02    0.11 
  -2  -8  -7    1.11    0.37 
   2   8   7    0.70    0.19 
   3   8   7    1.89    0.31 
   4   8   7    0.19    0.19 
   5   8   7    0.11    0.15 
   6   8   7    0.46    0.20 
   7   8   7    0.76    0.22 
   8   8   7    0.15    0.17 
   3  -9  -7    0.60    0.40 
   2  -9  -7    0.41    0.35 
  -2   9   7    0.59    0.11 
   1  -9  -7    0.62    0.35 
  -1   9   7    1.05    0.21 
   0  -9  -7   -0.15    0.28 
   0   9   7    0.06    0.10 
  -1  -9  -7    0.25    0.27 
   1   9   7    0.33    0.14 
  -2  -9  -7    0.67    0.32 
   2   9   7    1.07    0.23 
   3   9   7    2.21    0.34 
   4   9   7    1.41    0.31 
   5   9   7    0.12    0.16 
   6   9   7    0.26    0.16 
   7   9   7    0.18    0.17 
   8   9   7    1.55    0.33 
   2 -10  -7    0.02    0.32 
   1 -10  -7    1.27    0.40 
  -1  10   7    1.48    0.25 
   0 -10  -7    0.38    0.32 
   0  10   7    0.32    0.16 
  -1 -10  -7    1.24    0.39 
   1  10   7    0.63    0.17 
   2  10   7    1.26    0.23 
   3  10   7   -0.01    0.12 
   4  10   7    1.47    0.31 
   5  10   7   -0.19    0.12 
   6  10   7    0.46    0.23 
   7  10   7    1.56    0.30 
   1 -11  -7    1.25    0.41 
  -1  11   7    0.73    0.17 
   0 -11  -7    2.04    0.45 
   0  11   7    1.95    0.30 
  -1 -11  -7    0.34    0.26 
   1  11   7    0.12    0.11 
   2  11   7    0.87    0.20 
   3  11   7    0.39    0.13 
   4  11   7    0.47    0.22 
   5  11   7    0.28    0.18 
   6  11   7    0.31    0.22 
  -1 -12  -7    1.46    0.33 
   1  12   7    0.65    0.17 
   2  12   7    0.16    0.15 
   3  12   7    0.92    0.23 
   4  12   7    0.39    0.18 
   4   9  -8    2.64    0.25 
   3   9  -8    1.32    0.19 
   2   9  -8    0.09    0.13 
   1   9  -8   -0.09    0.17 
   0   9  -8    0.27    0.18 
  -1   9  -8    0.32    0.18 
  -2   9  -8    0.34    0.23 
   5   8  -8    0.83    0.25 
   4   8  -8    0.86    0.19 
   2   8  -8    0.97    0.18 
   2   8  -8    0.57    0.19 
   1   8  -8    0.39    0.21 
   1   8  -8    0.80    0.16 
   0   8  -8    1.95    0.29 
   0   8  -8    2.07    0.38 
  -1   8  -8    0.50    0.13 
  -1   8  -8    0.24    0.15 
  -2   8  -8    0.49    0.19 
  -3   8  -8    1.16    0.27 
   6   7  -8    0.51    0.27 
   5   7  -8    3.47    0.49 
   4   7  -8    2.30    0.39 
   3   7  -8    0.46    0.21 
   2   7  -8    0.94    0.21 
   2   7  -8    1.19    0.25 
   1   7  -8    7.03    0.47 
   1   7  -8    6.12    0.49 
   0   7  -8    0.35    0.12 
   0   7  -8   -0.01    0.14 
  -1   7  -8    0.55    0.20 
  -1   7  -8    0.95    0.21 
  -2   7  -8    0.44    0.20 
  -3   7  -8    2.29    0.39 
  -4   7  -8    0.88    0.23 
   6   6  -8    0.56    0.32 
   5   6  -8    1.09    0.31 
   4   6  -8    1.05    0.32 
   3   6  -8    1.96    0.37 
   2   6  -8    0.99    0.22 
   2   6  -8    0.53    0.22 
   1   6  -8    0.67    0.22 
   1   6  -8    0.96    0.23 
   0   6  -8    0.09    0.12 
   0   6  -8    0.05    0.13 
  -1   6  -8    0.52    0.17 
  -1   6  -8    0.04    0.13 
  -2   6  -8    1.64    0.33 
  -2   6  -8    1.56    0.29 
  -3   6  -8    0.93    0.26 
  -4   6  -8    1.28    0.29 
   5  -6   8   -0.14    0.20 
   7   5  -8    0.15    0.35 
   6   5  -8    0.03    0.27 
   5   5  -8    0.32    0.29 
   4   5  -8    0.82    0.31 
   3   5  -8    0.56    0.23 
   2   5  -8    0.91    0.26 
   2   5  -8    1.30    0.23 
   1   5  -8    0.92    0.25 
   1   5  -8    0.87    0.22 
   0   5  -8    0.18    0.14 
   0   5  -8    0.06    0.12 
  -1   5  -8    0.15    0.12 
  -1   5  -8    0.16    0.14 
  -2   5  -8    1.16    0.29 
  -2   5  -8    1.46    0.30 
  -3   5  -8    0.13    0.16 
   4  -5   8    0.44    0.26 
   5  -5   8    0.05    0.19 
   6  -5   8    0.54    0.23 
   7   4  -8    0.42    0.32 
   6   4  -8    0.49    0.32 
   5   4  -8    0.71    0.32 
   4   4  -8    0.49    0.29 
   3   4  -8    5.49    0.46 
   2   4  -8   11.10    0.64 
   2   4  -8   10.14    0.49 
   1   4  -8    4.97    0.37 
   1   4  -8    4.32    0.40 
   0   4  -8    2.61    0.35 
   0   4  -8    2.22    0.32 
  -1   4  -8    0.07    0.12 
  -1   4  -8    0.16    0.14 
  -2   4  -8    0.62    0.19 
  -2   4  -8    0.62    0.22 
   3  -4   8    2.46    0.38 
   4  -4   8    0.48    0.23 
   5  -4   8    0.25    0.18 
   6  -4   8    0.30    0.17 
   7  -4   8    0.04    0.13 
   7   3  -8    0.79    0.39 
   6   3  -8    0.09    0.32 
   5   3  -8    0.14    0.31 
   4   3  -8    3.46    0.48 
   3   3  -8    1.46    0.35 
   2   3  -8    0.05    0.06 
   2   3  -8    0.03    0.24 
   1   3  -8    1.38    0.29 
   1   3  -8    1.53    0.22 
   0   3  -8    2.95    0.33 
   0   3  -8    3.01    0.34 
  -1   3  -8    0.93    0.22 
  -1   3  -8    0.86    0.23 
  -2   3  -8    0.43    0.19 
   2  -3   8    1.01    0.25 
   3  -3   8    8.28    0.52 
   4  -3   8    0.44    0.20 
   5  -3   8    2.49    0.39 
   6  -3   8    1.95    0.33 
   7  -3   8    0.52    0.19 
   7   2  -8    0.06    0.34 
   6   2  -8    0.76    0.39 
   5   2  -8    0.08    0.26 
   4   2  -8    1.82    0.40 
   3   2  -8    0.67    0.31 
   2   2  -8    0.60    0.17 
   2   2  -8    0.31    0.26 
  -2  -2   8    0.84    0.12 
   1   2  -8    0.88    0.25 
   1   2  -8    1.07    0.16 
  -1  -2   8    1.04    0.17 
   0   2  -8    0.46    0.20 
   0  -2   8    0.64    0.14 
  -1   2  -8   19.72    0.74 
   1  -2   8   18.47    0.68 
  -2   2  -8    2.05    0.29 
   2  -2   8    1.71    0.28 
   3  -2   8    6.90    0.45 
   4  -2   8   40.82    1.25 
   5  -2   8    9.66    0.57 
   6  -2   8    0.29    0.16 
   7  -2   8    0.03    0.12 
   8  -2   8    0.27    0.18 
   7   1  -8   -0.13    0.28 
   6   1  -8    0.28    0.32 
   5   1  -8    0.67    0.32 
   4   1  -8    1.76    0.39 
   3   1  -8    0.10    0.29 
   3   1  -8    0.11    0.18 
   2   1  -8    0.34    0.26 
  -2  -1   8    0.32    0.07 
   1   1  -8    0.40    0.23 
   1   1  -8    0.35    0.16 
  -1  -1   8    0.59    0.09 
   0   1  -8    3.39    0.33 
   0   1  -8    3.25    0.25 
   0  -1   8    3.49    0.24 
  -1   1  -8    3.69    0.31 
   1  -1   8    3.29    0.26 
  -2   1  -8    3.16    0.31 
   2  -1   8    2.82    0.30 
   3  -1   8    0.44    0.16 
   4  -1   8    3.24    0.37 
   5  -1   8    1.23    0.27 
   6  -1   8    0.20    0.15 
   7  -1   8    0.04    0.17 
   8  -1   8    0.57    0.19 
   7   0  -8    1.00    0.38 
   6   0  -8    0.40    0.31 
   5   0  -8    4.42    0.52 
   4   0  -8    0.36    0.30 
   4   0  -8    0.29    0.20 
   3   0  -8    0.42    0.30 
   3   0  -8    0.32    0.22 
   2   0  -8    1.25    0.24 
   2   0  -8    1.28    0.30 
  -2   0   8    1.70    0.11 
   1   0  -8    3.75    0.36 
  -1   0   8    3.99    0.22 
   0   0  -8    5.95    0.34 
   0   0  -8    5.72    0.38 
   0   0   8    6.96    0.33 
  -1   0  -8   -0.01    0.10 
  -1   0  -8   -0.08    0.08 
   1   0   8    0.08    0.07 
  -2   0  -8    8.02    0.44 
   2   0   8    8.43    0.42 
   3   0   8    7.36    0.43 
   4   0   8    5.70    0.41 
   5   0   8    0.04    0.14 
   6   0   8    0.05    0.14 
   7   0   8    2.99    0.39 
   8   0   8    0.19    0.16 
   7  -1  -8    0.44    0.31 
   7  -1  -8    0.86    0.26 
   6  -1  -8    0.56    0.32 
   6  -1  -8    0.43    0.25 
   5  -1  -8    0.77    0.27 
   5  -1  -8    0.86    0.34 
   4  -1  -8    0.73    0.28 
   4  -1  -8    1.11    0.34 
   3  -1  -8    0.04    0.23 
   3  -1  -8    0.38    0.30 
   2  -1  -8    0.81    0.24 
   2  -1  -8    0.74    0.27 
  -2   1   8    1.19    0.08 
   1  -1  -8    1.35    0.25 
   1  -1  -8    1.34    0.26 
  -1   1   8    1.64    0.14 
   0  -1  -8    1.28    0.21 
   0  -1  -8    1.38    0.24 
   0   1   8    1.49    0.17 
  -1  -1  -8    0.95    0.18 
  -1  -1  -8    0.96    0.19 
   1   1   8    1.01    0.17 
  -2  -1  -8    0.15    0.10 
   2   1   8    0.12    0.08 
   3   1   8    1.01    0.20 
   4   1   8    4.79    0.37 
   5   1   8    2.35    0.32 
   6   1   8    0.58    0.21 
   7   1   8    3.34    0.41 
   9   1   8    0.06    0.16 
   9   1   8    0.09    0.13 
   7  -2  -8    0.18    0.26 
   7  -2  -8   -0.01    0.18 
   6  -2  -8    0.52    0.30 
   6  -2  -8    0.43    0.24 
   5  -2  -8    4.86    0.49 
   5  -2  -8    4.51    0.51 
   4  -2  -8    0.21    0.27 
   4  -2  -8    0.08    0.25 
   3  -2  -8    1.16    0.31 
   3  -2  -8    1.25    0.31 
   2  -2  -8    0.40    0.24 
   2  -2  -8    0.63    0.26 
  -2   2   8    0.88    0.07 
   1  -2  -8    1.14    0.28 
   1  -2  -8    1.46    0.25 
  -1   2   8    1.32    0.15 
   0  -2  -8    6.41    0.42 
   0  -2  -8    6.10    0.34 
   0   2   8    6.47    0.31 
  -1  -2  -8    1.62    0.20 
  -1  -2  -8    1.57    0.26 
   1   2   8    1.65    0.21 
  -2  -2  -8    8.87    0.42 
   2   2   8    8.10    0.41 
   3   2   8    0.58    0.18 
   4   2   8   12.64    0.59 
   5   2   8    4.68    0.39 
   6   2   8    0.76    0.22 
   7   2   8    3.53    0.42 
   8   2   8    2.64    0.39 
   9   2   8    0.33    0.17 
   9   2   8    0.51    0.17 
   7  -3  -8   -0.07    0.26 
   6  -3  -8    0.51    0.26 
   5  -3  -8    1.68    0.35 
   5  -3  -8    1.55    0.37 
   4  -3  -8    3.90    0.47 
   4  -3  -8    4.33    0.45 
   3  -3  -8    4.61    0.42 
   3  -3  -8    4.87    0.50 
   2  -3  -8    0.31    0.22 
   2  -3  -8    0.05    0.26 
  -2   3   8    0.35    0.04 
   1  -3  -8    3.14    0.29 
   1  -3  -8    3.43    0.41 
  -1   3   8    3.38    0.20 
   0  -3  -8    0.15    0.23 
   0  -3  -8   -0.03    0.08 
   0   3   8    0.20    0.07 
  -1  -3  -8   11.45    0.45 
  -1  -3  -8   11.84    0.60 
   1   3   8   11.69    0.48 
  -2  -3  -8    3.74    0.38 
   2   3   8    4.09    0.29 
   3   3   8    0.13    0.13 
   4   3   8    8.19    0.48 
   5   3   8    0.33    0.19 
   6   3   8    1.13    0.27 
   7   3   8    0.96    0.27 
   8   3   8    2.38    0.37 
   9   3   8    0.32    0.14 
   9   3   8    0.17    0.16 
   6  -4  -8   -0.03    0.24 
   5  -4  -8    0.33    0.28 
   4  -4  -8    2.02    0.40 
   3  -4  -8    1.00    0.31 
   3  -4  -8    1.09    0.26 
   2  -4  -8    0.08    0.26 
   2  -4  -8    0.19    0.20 
  -2   4   8    0.41    0.06 
   1  -4  -8   -0.04    0.11 
   1  -4  -8   -0.08    0.23 
  -1   4   8   -0.01    0.03 
   0  -4  -8    1.29    0.32 
   0  -4  -8    1.24    0.15 
   0   4   8    1.29    0.17 
  -1  -4  -8   14.87    0.50 
  -1  -4  -8   11.87    0.67 
   1   4   8   15.08    0.57 
  -2  -4  -8   13.33    0.67 
   2   4   8   12.79    0.56 
   3   4   8    3.82    0.32 
   4   4   8    1.27    0.28 
   5   4   8    4.34    0.43 
   6   4   8    0.03    0.15 
   7   4   8    0.55    0.23 
   8   4   8    0.33    0.14 
   8   4   8    0.29    0.19 
   9   4   8    0.42    0.15 
   9   4   8   -0.07    0.12 
   6  -5  -8   -0.06    0.28 
   5  -5  -8   -0.14    0.21 
   4  -5  -8    0.46    0.31 
   3  -5  -8    0.18    0.29 
   2  -5  -8    1.16    0.35 
  -2   5   8    1.28    0.15 
   1  -5  -8    0.10    0.28 
  -1   5   8    0.22    0.06 
   0  -5  -8    7.62    0.29 
   0  -5  -8    7.93    0.58 
   0   5   8    7.04    0.37 
  -1  -5  -8   -0.20    0.24 
   1   5   8    0.11    0.14 
  -2  -5  -8   34.28    1.21 
   2   5   8   35.04    1.05 
   3   5   8    5.76    0.41 
   4   5   8    2.16    0.33 
   5   5   8    4.34    0.38 
   6   5   8    0.24    0.18 
   7   5   8    0.38    0.17 
   7   5   8    0.19    0.21 
   8   5   8    1.71    0.32 
   8   5   8    1.78    0.33 
   9   5   8    0.29    0.16 
   9   5   8    0.40    0.19 
   5  -6  -8   -0.22    0.30 
   4  -6  -8    0.01    0.29 
   3  -6  -8    0.50    0.37 
   2  -6  -8    1.32    0.37 
  -2   6   8    1.81    0.21 
   1  -6  -8    0.09    0.25 
  -1   6   8    0.13    0.09 
   0  -6  -8    1.09    0.37 
   0   6   8    1.12    0.20 
  -1  -6  -8    3.68    0.47 
   1   6   8    3.44    0.34 
  -2  -6  -8    6.48    0.57 
   2   6   8    6.03    0.41 
   3   6   8   10.88    0.56 
   4   6   8    0.88    0.24 
   5   6   8    0.93    0.25 
   6   6   8    2.95    0.34 
   6   6   8    2.94    0.41 
   7   6   8    0.45    0.21 
   7   6   8    0.59    0.16 
   8   6   8    0.78    0.19 
   8   6   8    0.62    0.23 
   9   6   8    0.45    0.20 
   9   6   8    0.45    0.19 
   5  -7  -8    0.48    0.39 
   4  -7  -8   -0.07    0.31 
   3  -7  -8    0.68    0.38 
   2  -7  -8    1.54    0.40 
   1  -7  -8    2.96    0.49 
  -1   7   8    1.88    0.24 
   0  -7  -8    1.96    0.46 
   0   7   8    1.84    0.26 
  -1  -7  -8    0.90    0.36 
   1   7   8    1.13    0.22 
  -2  -7  -8    0.31    0.27 
   2   7   8   -0.10    0.11 
   3   7   8    0.94    0.23 
   4   7   8   -0.07    0.13 
   5   7   8    5.05    0.43 
   6   7   8    0.52    0.13 
   6   7   8    0.31    0.19 
   7   7   8    2.10    0.36 
   7   7   8    2.22    0.31 
   8   7   8    2.61    0.41 
   8   7   8    2.32    0.35 
   9   7   8    0.23    0.15 
   4  -8  -8    0.05    0.35 
   3  -8  -8    0.33    0.35 
   2  -8  -8   -0.21    0.32 
   1  -8  -8    0.15    0.30 
  -1   8   8    0.16    0.11 
   0  -8  -8    2.35    0.48 
   0   8   8    1.53    0.24 
  -1  -8  -8    0.96    0.38 
   1   8   8    1.35    0.24 
  -2  -8  -8    0.25    0.26 
   2   8   8    0.32    0.14 
   3   8   8    2.68    0.36 
   4   8   8   -0.08    0.10 
   5   8   8    1.58    0.33 
   6   8   8    5.23    0.54 
   7   8   8    0.13    0.17 
   8   8   8    0.80    0.25 
   3  -9  -8   -0.17    0.32 
   2  -9  -8    0.25    0.37 
   1  -9  -8    0.79    0.37 
  -1   9   8    1.24    0.22 
   0  -9  -8    1.30    0.40 
   0   9   8    0.95    0.20 
  -1  -9  -8    0.43    0.33 
   1   9   8    0.28    0.12 
  -2  -9  -8    1.42    0.41 
   2   9   8    1.42    0.27 
   3   9   8    0.42    0.14 
   4   9   8    0.53    0.18 
   5   9   8    0.09    0.18 
   6   9   8    3.07    0.44 
   7   9   8    1.09    0.29 
   8   9   8   -0.03    0.15 
   2 -10  -8    0.40    0.36 
   1 -10  -8    0.37    0.34 
  -1  10   8    0.04    0.09 
   0 -10  -8    0.50    0.32 
   0  10   8    0.45    0.12 
  -1 -10  -8    0.40    0.29 
   1  10   8    0.14    0.10 
  -2 -10  -8    1.41    0.38 
   2  10   8    1.13    0.23 
   3  10   8    0.28    0.14 
   4  10   8    1.64    0.30 
   5  10   8    0.36    0.21 
   6  10   8    0.26    0.18 
   7  10   8    0.69    0.23 
   0 -11  -8    0.56    0.28 
   0  11   8    0.04    0.11 
  -1 -11  -8    0.39    0.28 
   1  11   8   -0.04    0.12 
   2  11   8    0.70    0.18 
   3  11   8    2.48    0.36 
   4  11   8    0.09    0.12 
   5  11   8    0.72    0.22 
   6  11   8    0.23    0.19 
   3  12   8    0.42    0.15 
   2   9  -9    0.54    0.18 
   2   9  -9    1.12    0.16 
   1   9  -9    0.16    0.17 
   0   9  -9    0.67    0.22 
   4   8  -9    1.12    0.19 
   3   8  -9    0.68    0.16 
   2   8  -9    0.21    0.12 
   2   8  -9    0.79    0.14 
   1   8  -9    0.14    0.15 
   1   8  -9    0.75    0.14 
   0   8  -9    1.44    0.25 
   0   8  -9    1.40    0.31 
  -1   8  -9    0.69    0.16 
  -1   8  -9    0.61    0.20 
  -2   8  -9    0.22    0.17 
  -3   8  -9    0.37    0.21 
   5   7  -9    0.64    0.22 
   4   7  -9    0.73    0.22 
   3   7  -9    0.91    0.19 
   2   7  -9   -0.03    0.10 
   2   7  -9    0.49    0.14 
   1   7  -9    2.11    0.33 
   1   7  -9    1.30    0.27 
   0   7  -9    1.62    0.30 
   0   7  -9    1.63    0.28 
  -1   7  -9    0.22    0.18 
  -1   7  -9    0.30    0.10 
  -2   7  -9    1.38    0.33 
  -3   7  -9    0.51    0.25 
   4  -7   9    0.18    0.29 
   6   6  -9    0.96    0.37 
   5   6  -9    3.17    0.50 
   4   6  -9    0.23    0.18 
   3   6  -9    0.62    0.25 
   2   6  -9    0.13    0.14 
   2   6  -9    0.44    0.15 
   1   6  -9    0.10    0.14 
   1   6  -9    0.26    0.14 
   0   6  -9    0.06    0.12 
   0   6  -9    0.17    0.12 
  -1   6  -9    0.38    0.15 
  -1   6  -9    0.42    0.17 
  -2   6  -9    0.63    0.22 
  -2   6  -9    0.25    0.14 
  -3   6  -9   -0.01    0.17 
   4  -6   9    0.71    0.30 
   5  -6   9    1.35    0.34 
   6   5  -9    0.81    0.36 
   5   5  -9    0.51    0.26 
   4   5  -9    0.86    0.30 
   3   5  -9    0.15    0.22 
   2   5  -9    0.26    0.21 
   2   5  -9    0.18    0.11 
   1   5  -9    1.24    0.24 
   1   5  -9    1.40    0.29 
   0   5  -9    0.50    0.19 
   0   5  -9    0.53    0.21 
  -1   5  -9    5.88    0.58 
  -1   5  -9    5.66    0.43 
  -2   5  -9    1.35    0.31 
  -2   5  -9    1.50    0.29 
   3  -5   9    1.05    0.28 
   4  -5   9    0.32    0.21 
   5  -5   9    0.98    0.27 
   6  -5   9    3.27    0.48 
   7   4  -9    0.72    0.39 
   6   4  -9    0.01    0.29 
   5   4  -9    0.59    0.28 
   4   4  -9    0.74    0.30 
   3   4  -9    0.20    0.23 
   2   4  -9    0.45    0.13 
   2   4  -9    0.67    0.28 
   1   4  -9   -0.34    0.13 
   1   4  -9    0.36    0.14 
   0   4  -9    3.85    0.37 
   0   4  -9    3.36    0.40 
  -1   4  -9    0.26    0.14 
  -1   4  -9    0.58    0.19 
  -2   4  -9   11.64    0.65 
   2  -4   9   11.30    0.65 
   3  -4   9   -0.01    0.16 
   4  -4   9    0.61    0.23 
   5  -4   9    2.06    0.37 
   6  -4   9    0.36    0.19 
   7   3  -9    0.87    0.41 
   6   3  -9   -0.31    0.27 
   5   3  -9    0.21    0.32 
   4   3  -9    0.39    0.28 
   3   3  -9    0.22    0.24 
   2   3  -9    3.38    0.43 
  -2  -3   9    3.34    0.24 
   1   3  -9    0.23    0.22 
  -1  -3   9    0.41    0.13 
   0   3  -9    1.06    0.26 
   0  -3   9    1.08    0.23 
  -1   3  -9   10.36    0.58 
   1  -3   9   11.00    0.56 
  -2   3  -9    7.55    0.51 
   2  -3   9    8.74    0.51 
   3  -3   9    0.21    0.17 
   4  -3   9    1.49    0.30 
   5  -3   9    0.79    0.22 
   6  -3   9    1.80    0.33 
   7  -3   9    0.22    0.17 
   7   2  -9    0.92    0.43 
   6   2  -9   -0.16    0.28 
   5   2  -9   -0.14    0.29 
   4   2  -9    1.45    0.38 
   4   2  -9    0.81    0.23 
   3   2  -9    1.08    0.21 
   3   2  -9    1.06    0.34 
   2   2  -9   -0.04    0.12 
   2   2  -9    0.02    0.22 
   1   2  -9    3.81    0.40 
  -1  -2   9    3.12    0.23 
   0   2  -9    0.28    0.18 
   0  -2   9    0.20    0.10 
  -1   2  -9    6.59    0.44 
   1  -2   9    7.00    0.42 
  -2   2  -9    5.63    0.43 
   2  -2   9    6.00    0.41 
   3  -2   9    1.97    0.30 
   4  -2   9    2.72    0.37 
   5  -2   9    0.85    0.24 
   6  -2   9    0.34    0.22 
   7  -2   9    0.17    0.18 
   8  -2   9    0.69    0.21 
   7   1  -9    0.04    0.30 
   6   1  -9    0.39    0.16 
   6   1  -9   -0.15    0.29 
   5   1  -9    0.77    0.33 
   5   1  -9    0.65    0.24 
   4   1  -9    1.37    0.37 
   4   1  -9    1.97    0.31 
   3   1  -9    3.75    0.36 
   3   1  -9    3.83    0.44 
   2   1  -9    4.40    0.45 
   2   1  -9    3.18    0.28 
  -2  -1   9    3.61    0.20 
   1   1  -9    4.73    0.41 
   1   1  -9    4.67    0.31 
  -1  -1   9    3.89    0.24 
   0   1  -9    0.91    0.17 
   0   1  -9    1.17    0.25 
   0  -1   9    1.37    0.19 
  -1   1  -9   12.80    0.60 
   1  -1   9   11.44    0.52 
  -2   1  -9   14.05    0.65 
   2  -1   9   13.61    0.60 
   3  -1   9    0.26    0.14 
   4  -1   9    2.10    0.32 
   5  -1   9   12.31    0.65 
   6  -1   9    2.35    0.36 
   7  -1   9    0.03    0.18 
   8  -1   9    1.00    0.24 
   7   0  -9    0.46    0.20 
   7   0  -9    0.35    0.31 
   6   0  -9   -0.06    0.26 
   6   0  -9    0.21    0.18 
   5   0  -9    0.42    0.32 
   5   0  -9    0.28    0.22 
   4   0  -9    1.75    0.33 
   4   0  -9    2.12    0.40 
   3   0  -9    1.37    0.29 
   3   0  -9    1.34    0.35 
   2   0  -9   11.25    0.53 
   2   0  -9   11.24    0.61 
   1   0  -9    0.81    0.25 
  -1   0   9    1.11    0.15 
   0   0  -9    1.56    0.26 
   0   0  -9    1.53    0.24 
   0   0   9    1.78    0.21 
  -1   0  -9   15.12    0.55 
  -1   0  -9   15.04    0.63 
   1   0   9   16.07    0.60 
  -2   0  -9    5.68    0.40 
   2   0   9    5.88    0.37 
   3   0   9    0.26    0.15 
   4   0   9    3.62    0.40 
   5   0   9   -0.01    0.13 
   6   0   9    1.61    0.31 
   7   0   9    0.96    0.25 
   8   0   9   -0.04    0.15 
   7  -1  -9    0.77    0.34 
   7  -1  -9    1.14    0.32 
   6  -1  -9    0.57    0.33 
   6  -1  -9    0.31    0.23 
   5  -1  -9    0.10    0.23 
   5  -1  -9    0.01    0.28 
   4  -1  -9   -0.10    0.25 
   4  -1  -9    0.06    0.22 
   3  -1  -9    0.86    0.29 
   3  -1  -9    1.36    0.35 
   2  -1  -9    0.11    0.22 
   2  -1  -9   -0.09    0.24 
   1  -1  -9    1.46    0.27 
   1  -1  -9    0.77    0.25 
  -1   1   9    1.17    0.15 
   0  -1  -9   15.28    0.63 
   0  -1  -9   15.81    0.62 
   0   1   9   15.04    0.54 
  -1  -1  -9    0.04    0.10 
  -1  -1  -9    0.14    0.07 
   1   1   9    0.05    0.08 
  -2  -1  -9    7.55    0.45 
   2   1   9    9.61    0.46 
   3   1   9    2.64    0.31 
   4   1   9    1.65    0.27 
   5   1   9    0.65    0.20 
   6   1   9    0.32    0.17 
   7   1   9    1.27    0.28 
   8   1   9   -0.22    0.14 
   7  -2  -9    0.69    0.27 
   6  -2  -9    1.00    0.34 
   6  -2  -9    1.10    0.33 
   5  -2  -9    0.15    0.28 
   5  -2  -9    0.01    0.23 
   4  -2  -9    0.33    0.25 
   4  -2  -9   -0.04    0.24 
   3  -2  -9   -0.01    0.24 
   3  -2  -9    0.02    0.21 
   2  -2  -9    1.36    0.30 
   2  -2  -9    1.34    0.33 
   1  -2  -9    1.94    0.32 
   1  -2  -9    2.30    0.29 
  -1   2   9    2.17    0.16 
   0  -2  -9    1.81    0.32 
   0  -2  -9    1.90    0.25 
   0   2   9    1.76    0.21 
  -1  -2  -9    0.00    0.19 
  -1  -2  -9    0.20    0.11 
   1   2   9    0.29    0.09 
  -2  -2  -9    0.20    0.10 
   2   2   9    0.27    0.15 
   3   2   9    0.58    0.19 
   4   2   9   -0.05    0.13 
   5   2   9    5.57    0.44 
   6   2   9    0.70    0.23 
   7   2   9    0.10    0.19 
   8   2   9    3.27    0.43 
   9   2   9    0.49    0.20 
   6  -3  -9    0.04    0.22 
   5  -3  -9    0.67    0.26 
   5  -3  -9    0.27    0.25 
   4  -3  -9    2.32    0.38 
   4  -3  -9    1.73    0.39 
   3  -3  -9    0.38    0.27 
   3  -3  -9    0.99    0.29 
   2  -3  -9    1.16    0.27 
   2  -3  -9    0.99    0.33 
   1  -3  -9    0.04    0.25 
   1  -3  -9    0.19    0.15 
  -1   3   9    0.23    0.07 
   0  -3  -9    1.32    0.32 
   0  -3  -9    0.95    0.18 
   0   3   9    1.42    0.18 
  -1  -3  -9    4.75    0.29 
  -1  -3  -9    4.52    0.43 
   1   3   9    4.78    0.31 
  -2  -3  -9   -0.15    0.15 
   2   3   9    0.12    0.13 
   3   3   9    4.42    0.36 
   4   3   9    4.62    0.36 
   5   3   9    4.88    0.41 
   6   3   9    1.32    0.28 
   7   3   9    2.23    0.37 
   8   3   9    0.20    0.16 
   9   3   9    0.55    0.18 
   9   3   9    0.67    0.21 
   6  -4  -9   -0.02    0.22 
   5  -4  -9    0.14    0.25 
   4  -4  -9    0.14    0.25 
   3  -4  -9    2.87    0.45 
   2  -4  -9   -0.14    0.24 
   2  -4  -9    0.16    0.16 
   1  -4  -9    0.02    0.25 
   1  -4  -9   -0.05    0.12 
  -1   4   9    0.17    0.06 
   0  -4  -9    0.16    0.09 
   0  -4  -9    0.20    0.29 
   0   4   9    0.20    0.08 
  -1  -4  -9    4.79    0.50 
  -1  -4  -9    4.41    0.26 
   1   4   9    3.70    0.30 
  -2  -4  -9    4.35    0.47 
   2   4   9    3.71    0.32 
   3   4   9    1.15    0.24 
   4   4   9    7.89    0.49 
   5   4   9    0.23    0.20 
   6   4   9    0.96    0.27 
   7   4   9   -0.11    0.17 
   8   4   9    0.91    0.26 
   9   4   9    0.19    0.14 
   9   4   9    0.11    0.17 
   5  -5  -9   -0.22    0.24 
   4  -5  -9    0.09    0.29 
   3  -5  -9    0.18    0.27 
   2  -5  -9    0.13    0.28 
   1  -5  -9    0.69    0.33 
  -1   5   9    0.51    0.10 
   0  -5  -9    6.59    0.57 
   0   5   9    5.97    0.36 
  -1  -5  -9    6.05    0.58 
   1   5   9    5.64    0.37 
  -2  -5  -9   17.65    0.86 
   2   5   9   15.93    0.68 
   3   5   9    0.74    0.21 
   4   5   9    0.65    0.20 
   5   5   9   -0.03    0.15 
   6   5   9    3.99    0.45 
   7   5   9   -0.03    0.16 
   8   5   9    1.72    0.34 
   8   5   9   -0.13    0.17 
   9   5   9    0.31    0.16 
   5  -6  -9    0.23    0.29 
   4  -6  -9    0.07    0.28 
   3  -6  -9   -0.11    0.27 
   2  -6  -9    0.81    0.32 
   1  -6  -9    0.18    0.27 
  -1   6   9    0.62    0.14 
   0  -6  -9    0.93    0.35 
   0   6   9    1.11    0.20 
  -1  -6  -9    1.21    0.35 
   1   6   9    1.15    0.23 
  -2  -6  -9    3.14    0.46 
   2   6   9    2.80    0.34 
   3   6   9    9.70    0.55 
   4   6   9    1.16    0.26 
   5   6   9    7.57    0.52 
   6   6   9   -0.13    0.17 
   7   6   9    0.79    0.26 
   7   6   9    0.97    0.21 
   8   6   9    0.66    0.17 
   8   6   9    0.05    0.19 
   9   6   9    0.17    0.12 
   4  -7  -9   -0.14    0.31 
   3  -7  -9    0.02    0.29 
   2  -7  -9    0.39    0.35 
   1  -7  -9    2.81    0.51 
  -1   7   9    2.78    0.24 
   0  -7  -9    2.18    0.47 
   0   7   9    2.29    0.30 
  -1  -7  -9    1.01    0.34 
   1   7   9    1.46    0.26 
  -2  -7  -9   -0.05    0.23 
   2   7   9    0.19    0.13 
   3   7   9    2.61    0.35 
   4   7   9    0.10    0.12 
   5   7   9   -0.07    0.17 
   6   7   9    0.18    0.22 
   7   7   9    1.07    0.21 
   7   7   9    1.16    0.29 
   8   7   9    0.63    0.25 
   8   7   9    0.63    0.14 
   4  -8  -9    0.43    0.38 
   3  -8  -9    0.19    0.32 
   2  -8  -9    0.14    0.29 
   1  -8  -9    0.29    0.31 
  -1   8   9    0.69    0.14 
   0  -8  -9    0.59    0.37 
   0   8   9    0.51    0.14 
  -1  -8  -9    0.42    0.32 
   1   8   9    1.02    0.21 
  -2  -8  -9    0.06    0.27 
   2   8   9    0.06    0.12 
   3   8   9    2.38    0.35 
   4   8   9    0.37    0.17 
   5   8   9    0.20    0.19 
   6   8   9    1.53    0.33 
   7   8   9    0.33    0.20 
   8   8   9    0.98    0.24 
   3  -9  -9    0.00    0.36 
   2  -9  -9    0.12    0.33 
   1  -9  -9    0.14    0.28 
  -1   9   9    0.33    0.12 
   0  -9  -9    1.01    0.42 
   0   9   9    0.90    0.19 
  -1  -9  -9    0.30    0.30 
   1   9   9    0.28    0.14 
  -2  -9  -9    1.97    0.45 
   2   9   9    1.76    0.29 
   3   9   9   -0.02    0.09 
   4   9   9    0.52    0.16 
   5   9   9    0.37    0.24 
   6   9   9    0.43    0.21 
   7   9   9    1.35    0.30 
   1 -10  -9   -0.03    0.34 
  -1  10   9    0.51    0.11 
   0 -10  -9    0.51    0.37 
   0  10   9    0.29    0.11 
  -1 -10  -9    0.29    0.30 
   1  10   9    0.26    0.11 
  -2 -10  -9    0.47    0.29 
   2  10   9    0.15    0.13 
   3  10   9    0.42    0.16 
   4  10   9    1.21    0.25 
   5  10   9    1.32    0.29 
   6  10   9    0.70    0.24 
   0 -11  -9    0.26    0.29 
   0  11   9    0.43    0.13 
  -1 -11  -9    0.61    0.31 
   1  11   9    0.39    0.16 
   2  11   9    0.07    0.11 
   3  11   9    0.20    0.13 
   4  11   9    0.17    0.11 
   5  11   9    0.70    0.23 
   3   8 -10    1.32    0.22 
   2   8 -10    2.29    0.33 
   1   8 -10    1.80    0.33 
   1   8 -10    2.32    0.31 
   0   8 -10    0.44    0.17 
   0   8 -10    0.34    0.10 
  -1   8 -10    1.29    0.23 
  -1   8 -10    1.26    0.32 
   4   7 -10    0.86    0.21 
   3   7 -10    0.56    0.15 
   2   7 -10    0.55    0.14 
   1   7 -10    0.37    0.18 
   1   7 -10    0.84    0.18 
   0   7 -10    0.47    0.13 
   0   7 -10    0.23    0.17 
  -1   7 -10   -0.05    0.17 
  -1   7 -10    0.11    0.10 
  -2   7 -10    0.22    0.14 
  -2   7 -10   -0.21    0.15 
   3  -7  10    0.30    0.25 
   5   6 -10    0.77    0.28 
   4   6 -10    0.56    0.25 
   3   6 -10    0.50    0.15 
   2   6 -10    0.23    0.13 
   1   6 -10    1.24    0.26 
   1   6 -10    1.28    0.26 
   0   6 -10    0.62    0.17 
   0   6 -10    0.24    0.17 
  -1   6 -10    0.14    0.14 
  -1   6 -10    0.25    0.11 
  -2   6 -10    0.16    0.11 
  -2   6 -10    0.24    0.18 
   3  -6  10    0.30    0.20 
   4  -6  10    1.61    0.38 
   6   5 -10    0.59    0.29 
   5   5 -10    0.30    0.25 
   4   5 -10    1.27    0.32 
   3   5 -10    0.18    0.19 
   2   5 -10    0.00    0.15 
   1   5 -10    0.48    0.15 
   1   5 -10    0.41    0.21 
   0   5 -10    1.52    0.30 
   0   5 -10    1.87    0.34 
  -1   5 -10    1.20    0.29 
  -1   5 -10    1.07    0.25 
  -2   5 -10    0.69    0.20 
   2  -5  10    0.30    0.20 
   3  -5  10    0.09    0.15 
   4  -5  10    0.21    0.17 
   5  -5  10    1.41    0.35 
   6   4 -10    0.48    0.33 
   5   4 -10   -0.01    0.26 
   4   4 -10    0.62    0.28 
   3   4 -10    3.07    0.44 
   2   4 -10    0.42    0.21 
   1   4 -10    1.76    0.32 
  -1  -4  10    1.48    0.26 
   0   4 -10    0.41    0.19 
   0  -4  10    0.48    0.19 
  -1   4 -10    3.17    0.40 
   1  -4  10    3.15    0.40 
  -2   4 -10    1.01    0.24 
   2  -4  10    0.52    0.20 
   3  -4  10    0.11    0.15 
   4  -4  10    0.12    0.16 
   5  -4  10    1.62    0.35 
   6  -4  10    0.73    0.25 
   6   3 -10    0.32    0.31 
   5   3 -10    0.15    0.30 
   4   3 -10    1.73    0.40 
   3   3 -10    0.20    0.26 
   2   3 -10    7.80    0.55 
   1   3 -10    2.19    0.34 
  -1  -3  10    2.05    0.28 
   0   3 -10    0.46    0.20 
   0  -3  10    0.16    0.11 
  -1   3 -10   10.66    0.60 
   1  -3  10    9.85    0.55 
  -2   3 -10    5.14    0.44 
   2  -3  10    4.66    0.39 
   3  -3  10    6.81    0.49 
   4  -3  10    2.61    0.37 
   5  -3  10    0.45    0.22 
   6  -3  10    0.75    0.25 
   7  -3  10   -0.03    0.17 
   6   2 -10    0.20    0.35 
   5   2 -10    0.00    0.28 
   4   2 -10    0.03    0.28 
   3   2 -10    2.58    0.42 
   2   2 -10   18.33    0.82 
   1   2 -10   17.58    0.77 
  -1  -2  10   17.78    0.64 
   0   2 -10    8.71    0.53 
   0  -2  10    9.55    0.48 
  -1   2 -10    0.94    0.25 
   1  -2  10    1.25    0.23 
  -2   2 -10    7.92    0.52 
   2  -2  10    8.17    0.49 
   3  -2  10    0.17    0.14 
   4  -2  10    0.28    0.15 
   5  -2  10    0.07    0.17 
   6  -2  10    0.32    0.18 
   7  -2  10    0.19    0.19 
   6   1 -10    0.25    0.30 
   6   1 -10    0.22    0.17 
   5   1 -10    0.38    0.32 
   5   1 -10    0.47    0.21 
   4   1 -10    0.19    0.18 
   4   1 -10    0.12    0.29 
   3   1 -10    4.00    0.35 
   3   1 -10    4.73    0.50 
   2   1 -10   -0.08    0.14 
   2   1 -10    0.07    0.24 
   1   1 -10   13.62    0.53 
   1   1 -10   14.15    0.67 
  -1  -1  10   11.01    0.48 
   0   1 -10    7.82    0.49 
   0  -1  10    6.53    0.38 
  -1   1 -10    0.76    0.24 
   1  -1  10    0.92    0.20 
  -2   1 -10    2.24    0.34 
   2  -1  10    1.84    0.29 
   3  -1  10   -0.04    0.11 
   4  -1  10    1.65    0.30 
   5  -1  10    1.56    0.32 
   6  -1  10    0.95    0.25 
   7  -1  10    0.43    0.20 
   8  -1  10    0.49    0.21 
   6   0 -10    0.08    0.28 
   6   0 -10    0.34    0.19 
   5   0 -10    0.00    0.19 
   5   0 -10    0.30    0.30 
   4   0 -10    0.41    0.31 
   4   0 -10    0.52    0.25 
   3   0 -10    0.52    0.27 
   3   0 -10    0.14    0.20 
   2   0 -10    6.81    0.46 
   2   0 -10    7.97    0.54 
   1   0 -10    0.44    0.17 
   1   0 -10    0.31    0.24 
  -1   0  10    0.46    0.10 
   0   0 -10    0.12    0.18 
   0   0 -10    0.38    0.20 
   0   0  10    0.42    0.11 
  -1   0 -10    3.78    0.27 
  -1   0 -10    3.55    0.34 
   1   0  10    4.21    0.32 
  -2   0 -10    0.12    0.15 
   2   0  10    0.02    0.12 
   3   0  10    0.57    0.21 
   4   0  10    3.11    0.37 
   5   0  10    0.28    0.17 
   6   0  10    0.07    0.17 
   7   0  10    2.22    0.36 
   8   0  10   -0.16    0.14 
   6  -1 -10   -0.11    0.25 
   6  -1 -10    0.35    0.24 
   5  -1 -10    0.47    0.26 
   5  -1 -10    0.85    0.34 
   4  -1 -10    0.99    0.30 
   4  -1 -10    1.36    0.37 
   3  -1 -10    0.53    0.25 
   3  -1 -10    0.80    0.30 
   2  -1 -10    0.64    0.28 
   2  -1 -10    0.66    0.27 
   1  -1 -10    0.15    0.22 
   1  -1 -10    0.42    0.24 
  -1   1  10    0.41    0.10 
   0  -1 -10    7.31    0.46 
   0  -1 -10    6.79    0.44 
   0   1  10    7.05    0.37 
  -1  -1 -10    1.10    0.24 
   1   1  10    1.25    0.22 
  -2  -1 -10    5.98    0.41 
   2   1  10    5.01    0.37 
   3   1  10   19.30    0.75 
   4   1  10    1.97    0.31 
   5   1  10    0.28    0.19 
   6   1  10    0.70    0.23 
   7   1  10    1.51    0.32 
   8   1  10    0.56    0.24 
   6  -2 -10    0.27    0.23 
   6  -2 -10    0.07    0.24 
   5  -2 -10    0.49    0.29 
   5  -2 -10    0.35    0.24 
   4  -2 -10    0.15    0.25 
   4  -2 -10    0.32    0.26 
   3  -2 -10    0.31    0.24 
   3  -2 -10    0.00    0.23 
   2  -2 -10    0.89    0.28 
   2  -2 -10    0.64    0.28 
   1  -2 -10    7.02    0.50 
   1  -2 -10    8.13    0.49 
  -1   2  10    8.85    0.37 
   0  -2 -10   -0.09    0.22 
   0  -2 -10   -0.05    0.13 
   0   2  10    0.20    0.09 
  -1  -2 -10    1.97    0.26 
  -1  -2 -10    2.06    0.33 
   1   2  10    2.28    0.28 
  -2  -2 -10    0.60    0.19 
   2   2  10    0.70    0.20 
   3   2  10    2.29    0.32 
   4   2  10    1.62    0.29 
   5   2  10    5.58    0.45 
   6   2  10    1.78    0.34 
   7   2  10    3.71    0.46 
   8   2  10    0.19    0.19 
   6  -3 -10    0.29    0.24 
   5  -3 -10    0.18    0.24 
   4  -3 -10    1.08    0.33 
   4  -3 -10    1.21    0.31 
   3  -3 -10    0.10    0.24 
   3  -3 -10    0.32    0.28 
   2  -3 -10    0.01    0.21 
   2  -3 -10    0.28    0.27 
   1  -3 -10    9.67    0.48 
  -1   3  10    9.02    0.39 
   0  -3 -10    4.79    0.34 
   0  -3 -10    4.83    0.49 
   0   3  10    5.32    0.32 
  -1  -3 -10    0.39    0.26 
  -1  -3 -10    0.51    0.14 
   1   3  10    0.47    0.18 
  -2  -3 -10   -0.06    0.18 
  -2  -3 -10    0.06    0.07 
   2   3  10    0.10    0.13 
   3   3  10   -0.01    0.14 
   4   3  10   13.75    0.66 
   5   3  10   -0.13    0.14 
   6   3  10    0.05    0.16 
   7   3  10    0.20    0.21 
   8   3  10    0.65    0.23 
   5  -4 -10   -0.11    0.24 
   4  -4 -10    1.66    0.42 
   3  -4 -10    0.19    0.28 
   2  -4 -10    0.27    0.14 
   2  -4 -10    0.16    0.25 
   1  -4 -10    1.89    0.38 
   1  -4 -10    2.26    0.25 
  -1   4  10    2.16    0.17 
   0  -4 -10    8.00    0.59 
   0  -4 -10    8.09    0.39 
   0   4  10    7.50    0.40 
  -1  -4 -10    0.77    0.15 
  -1  -4 -10    0.62    0.31 
   1   4  10    0.46    0.17 
  -2  -4 -10    2.27    0.40 
   2   4  10    2.29    0.31 
   3   4  10    2.93    0.36 
   4   4  10    4.31    0.44 
   5   4  10    2.26    0.36 
   6   4  10    0.86    0.25 
   7   4  10    0.23    0.19 
   8   4  10   -0.05    0.16 
   5  -5 -10   -0.09    0.26 
   4  -5 -10    1.30    0.37 
   3  -5 -10    4.96    0.60 
   2  -5 -10    1.21    0.35 
   1  -5 -10    0.41    0.29 
   0  -5 -10    4.71    0.51 
   0   5  10    4.28    0.31 
  -1  -5 -10    0.12    0.26 
   1   5  10    0.29    0.16 
  -2  -5 -10    2.88    0.45 
   2   5  10    2.85    0.36 
   3   5  10    4.01    0.35 
   4   5  10    1.58    0.30 
   5   5  10   -0.05    0.15 
   6   5  10    2.63    0.40 
   7   5  10    0.80    0.25 
   8   5  10    1.13    0.23 
   8   5  10    1.10    0.31 
   4  -6 -10   -0.30    0.27 
   3  -6 -10    1.74    0.44 
   2  -6 -10    0.93    0.35 
   1  -6 -10    0.84    0.35 
  -1   6  10    1.00    0.14 
   0  -6 -10    0.15    0.30 
   0   6  10    0.15    0.09 
  -1  -6 -10    1.54    0.39 
   1   6  10    1.80    0.27 
  -2  -6 -10    3.61    0.50 
   2   6  10    3.90    0.39 
   3   6  10    0.62    0.20 
   4   6  10    0.26    0.17 
   5   6  10    5.20    0.46 
   6   6  10    0.56    0.24 
   7   6  10    1.61    0.34 
   8   6  10    0.52    0.16 
   8   6  10    0.62    0.27 
   4  -7 -10   -0.21    0.28 
   3  -7 -10   -0.12    0.22 
   2  -7 -10    0.04    0.25 
   1  -7 -10    1.50    0.41 
  -1   7  10    1.50    0.19 
   0  -7 -10   -0.07    0.29 
   0   7  10    0.21    0.10 
  -1  -7 -10    1.92    0.41 
   1   7  10    1.91    0.28 
  -2  -7 -10    0.69    0.30 
   2   7  10    0.34    0.16 
   3   7  10    1.83    0.31 
   4   7  10    0.84    0.22 
   5   7  10    0.00    0.16 
   6   7  10    0.92    0.29 
   7   7  10    0.22    0.20 
   8   7  10    0.61    0.21 
   3  -8 -10    0.10    0.36 
   2  -8 -10    0.72    0.37 
   1  -8 -10    0.22    0.32 
   0  -8 -10   -0.05    0.30 
   0   8  10   -0.04    0.08 
  -1  -8 -10    0.10    0.24 
   1   8  10    0.36    0.12 
  -2  -8 -10    1.02    0.34 
   2   8  10    1.58    0.28 
   3   8  10    1.47    0.29 
   4   8  10    0.57    0.19 
   5   8  10    0.04    0.18 
   6   8  10    0.92    0.29 
   7   8  10    0.23    0.20 
   2  -9 -10    0.40    0.34 
   1  -9 -10   -0.06    0.34 
   0  -9 -10    0.28    0.33 
   0   9  10    0.41    0.13 
  -1  -9 -10    0.05    0.29 
   1   9  10    0.30    0.14 
  -2  -9 -10    1.00    0.37 
   2   9  10    1.44    0.26 
   3   9  10    0.35    0.16 
   4   9  10    1.55    0.30 
   5   9  10    0.68    0.19 
   6   9  10   -0.11    0.15 
   7   9  10    0.45    0.23 
   1 -10 -10    0.74    0.39 
   0 -10 -10    0.61    0.37 
   0  10  10    0.01    0.11 
  -1 -10 -10    0.16    0.31 
   1  10  10    0.15    0.10 
  -2 -10 -10    0.53    0.32 
   2  10  10    0.44    0.15 
   3  10  10    1.64    0.29 
   4  10  10    0.05    0.12 
   5  10  10    0.65    0.19 
   6  10  10    0.40    0.20 
  -1 -11 -10    0.66    0.35 
   1  11  10    0.28    0.14 
   2  11  10    0.17    0.11 
   3  11  10    0.40    0.16 
   4  11  10    0.15    0.12 
   3   7 -11    1.55    0.24 
   2   7 -11    2.94    0.42 
   1   7 -11    0.84    0.18 
   1   7 -11    1.21    0.26 
   0   7 -11    0.36    0.12 
   0   7 -11    0.26    0.20 
  -1   7 -11    0.34    0.12 
  -1   7 -11    0.39    0.20 
  -2   7 -11    0.55    0.14 
   2  -7  11    0.51    0.27 
   4   6 -11    0.71    0.21 
   3   6 -11    0.54    0.19 
   2   6 -11    0.54    0.14 
   1   6 -11    0.29    0.12 
   1   6 -11   -0.10    0.12 
   0   6 -11    0.38    0.13 
  -1   6 -11    0.41    0.12 
   1  -6  11    0.08    0.17 
  -2   6 -11    0.06    0.10 
   2  -6  11    0.51    0.22 
   3  -6  11    0.28    0.21 
   4  -6  11    1.24    0.30 
   5   5 -11    0.34    0.24 
   4   5 -11    0.94    0.28 
   3   5 -11    0.88    0.24 
   2   5 -11    0.17    0.13 
   1   5 -11    0.65    0.20 
  -1  -5  11    0.71    0.21 
   0   5 -11    0.55    0.17 
   0  -5  11    0.62    0.22 
  -1   5 -11    0.15    0.13 
   1  -5  11    0.28    0.17 
  -2   5 -11    0.62    0.17 
   2  -5  11    0.52    0.18 
   3  -5  11    0.17    0.12 
   4  -5  11    1.63    0.31 
   5  -5  11    2.32    0.45 
   5   4 -11    0.09    0.25 
   4   4 -11    1.23    0.34 
   3   4 -11    0.61    0.23 
   2   4 -11    0.46    0.20 
   1   4 -11    0.26    0.18 
  -1  -4  11    0.41    0.16 
   0   4 -11    0.19    0.14 
   0  -4  11    0.22    0.14 
  -1   4 -11    0.62    0.18 
   1  -4  11    0.34    0.19 
  -2   4 -11    0.16    0.11 
   2  -4  11    0.27    0.15 
   3  -4  11    4.01    0.49 
   4  -4  11    0.02    0.11 
   5  -4  11    0.29    0.23 
   6  -4  11    0.00    0.19 
   6   3 -11    0.67    0.34 
   5   3 -11   -0.06    0.26 
   4   3 -11    0.44    0.29 
   3   3 -11    0.43    0.30 
   2   3 -11    0.13    0.22 
   1   3 -11    0.87    0.27 
  -1  -3  11    1.36    0.21 
   0   3 -11    0.51    0.21 
   0  -3  11    0.54    0.15 
  -1   3 -11    1.97    0.34 
   1  -3  11    2.51    0.34 
  -2   3 -11    4.47    0.41 
   2  -3  11    4.75    0.40 
   3  -3  11    0.41    0.16 
   4  -3  11    2.89    0.40 
   5  -3  11    0.70    0.27 
   6  -3  11   -0.01    0.18 
   6   2 -11    1.12    0.37 
   5   2 -11    0.27    0.28 
   4   2 -11    0.41    0.30 
   3   2 -11    1.75    0.38 
   2   2 -11    1.78    0.36 
   1   2 -11    2.75    0.39 
  -1  -2  11    2.42    0.28 
   0   2 -11    0.36    0.21 
   0  -2  11    0.27    0.11 
  -1   2 -11    0.10    0.16 
   1  -2  11    0.14    0.12 
  -2   2 -11    0.90    0.26 
   2  -2  11    1.06    0.22 
   3  -2  11    4.12    0.45 
   4  -2  11    0.36    0.16 
   5  -2  11    0.63    0.22 
   6  -2  11    0.95    0.26 
   7  -2  11    0.29    0.20 
   6   1 -11    0.64    0.31 
   5   1 -11    1.41    0.39 
   4   1 -11    0.85    0.31 
   3   1 -11   -0.09    0.23 
   2   1 -11    4.67    0.48 
   1   1 -11    1.31    0.30 
  -1  -1  11    1.05    0.16 
   0   1 -11    0.48    0.23 
   0  -1  11    0.59    0.15 
  -1   1 -11    0.08    0.15 
   1  -1  11    0.14    0.11 
  -2   1 -11    0.02    0.13 
   2  -1  11    0.20    0.12 
   3  -1  11    0.33    0.16 
   4  -1  11    5.42    0.43 
   5  -1  11    9.98    0.63 
   6  -1  11    0.03    0.17 
   7  -1  11    1.45    0.30 
   6   0 -11   -0.16    0.25 
   6   0 -11    0.07    0.18 
   5   0 -11    0.48    0.24 
   5   0 -11    0.80    0.32 
   4   0 -11    0.58    0.31 
   4   0 -11    0.15    0.20 
   3   0 -11    1.93    0.33 
   3   0 -11    2.06    0.40 
   2   0 -11    0.71    0.25 
   2   0 -11    0.61    0.26 
   1   0 -11    0.80    0.26 
   1   0 -11    1.00    0.22 
  -1   0  11    0.95    0.14 
   0   0 -11    0.47    0.21 
   0   0 -11    0.51    0.16 
   0   0  11    0.55    0.15 
  -1   0 -11    1.32    0.28 
   1   0  11    1.50    0.25 
  -2   0 -11    1.18    0.28 
   2   0  11    0.73    0.19 
   3   0  11    0.60    0.19 
   4   0  11    1.31    0.27 
   5   0  11    7.93    0.55 
   6   0  11    4.31    0.49 
   7   0  11    1.37    0.32 
   8   0  11    0.22    0.18 
   6  -1 -11    0.31    0.29 
   6  -1 -11    0.23    0.21 
   5  -1 -11    0.60    0.29 
   5  -1 -11    0.02    0.19 
   4  -1 -11    0.43    0.25 
   4  -1 -11    1.27    0.36 
   3  -1 -11    0.26    0.26 
   3  -1 -11    0.17    0.24 
   2  -1 -11    1.09    0.30 
   2  -1 -11    0.67    0.29 
   1  -1 -11    3.43    0.38 
   1  -1 -11    4.10    0.37 
  -1   1  11    3.26    0.22 
   0  -1 -11    0.90    0.25 
   0  -1 -11    0.92    0.23 
   0   1  11    0.81    0.18 
  -1  -1 -11    1.01    0.25 
  -1  -1 -11    1.11    0.21 
   1   1  11    1.23    0.24 
  -2  -1 -11    0.09    0.14 
   2   1  11    0.31    0.16 
   3   1  11    4.65    0.39 
   4   1  11    0.22    0.15 
   5   1  11    2.81    0.40 
   6   1  11    6.65    0.51 
   7   1  11    0.01    0.17 
   8   1  11    1.15    0.27 
   6  -2 -11    0.20    0.23 
   5  -2 -11    0.04    0.21 
   5  -2 -11    0.48    0.24 
   4  -2 -11    1.05    0.32 
   4  -2 -11    1.74    0.36 
   3  -2 -11    0.19    0.22 
   3  -2 -11    0.00    0.25 
   2  -2 -11    0.55    0.23 
   2  -2 -11    0.75    0.30 
   1  -2 -11    0.08    0.16 
   1  -2 -11    0.02    0.22 
   0  -2 -11    0.62    0.29 
   0  -2 -11    0.61    0.21 
   0   2  11    1.03    0.19 
  -1  -2 -11   -0.18    0.11 
  -1  -2 -11    0.11    0.20 
   1   2  11    0.09    0.13 
  -2  -2 -11    0.20    0.15 
   2   2  11    0.24    0.15 
   3   2  11    3.92    0.40 
   4   2  11    4.59    0.45 
   5   2  11    0.34    0.20 
   6   2  11    0.67    0.24 
   7   2  11    1.14    0.31 
   8   2  11    0.62    0.27 
   5  -3 -11    0.04    0.21 
   4  -3 -11    0.13    0.24 
   3  -3 -11    0.44    0.30 
   3  -3 -11    1.05    0.28 
   2  -3 -11    1.00    0.26 
   2  -3 -11    1.11    0.34 
   1  -3 -11    0.16    0.16 
   1  -3 -11    0.08    0.24 
   0  -3 -11    1.49    0.34 
   0  -3 -11    1.90    0.28 
   0   3  11    1.84    0.25 
  -1  -3 -11    0.79    0.29 
  -1  -3 -11    0.73    0.19 
   1   3  11    0.92    0.21 
  -2  -3 -11    3.45    0.41 
  -2  -3 -11    3.51    0.36 
   2   3  11    3.88    0.39 
   3   3  11    0.32    0.17 
   4   3  11    4.74    0.40 
   5   3  11    0.89    0.23 
   6   3  11    0.18    0.19 
   7   3  11    0.03    0.22 
   8   3  11    1.19    0.30 
   5  -4 -11   -0.03    0.26 
   4  -4 -11    1.56    0.38 
   3  -4 -11    0.22    0.29 
   2  -4 -11   -0.20    0.23 
   1  -4 -11    1.14    0.20 
   1  -4 -11    1.09    0.34 
   0  -4 -11    2.32    0.40 
   0  -4 -11    2.49    0.22 
   0   4  11    2.93    0.30 
  -1  -4 -11    0.25    0.08 
  -1  -4 -11    0.11    0.22 
   1   4  11   -0.03    0.11 
  -2  -4 -11    0.28    0.20 
   2   4  11    0.30    0.16 
   3   4  11    2.34    0.34 
   4   4  11   -0.10    0.14 
   5   4  11    2.04    0.34 
   6   4  11    0.13    0.17 
   7   4  11    0.33    0.21 
   8   4  11    0.74    0.27 
   4  -5 -11    0.89    0.36 
   3  -5 -11    1.10    0.37 
   2  -5 -11    0.07    0.27 
   1  -5 -11    1.86    0.42 
   0  -5 -11    1.23    0.37 
   0   5  11    1.53    0.23 
  -1  -5 -11   -0.12    0.22 
   1   5  11    0.38    0.14 
  -2  -5 -11    0.41    0.24 
   2   5  11    0.15    0.15 
   3   5  11    0.08    0.16 
   4   5  11    0.13    0.15 
   5   5  11    2.95    0.41 
   6   5  11    1.63    0.34 
   7   5  11    0.32    0.20 
   8   5  11    0.29    0.24 
   4  -6 -11    0.13    0.29 
   3  -6 -11    1.39    0.41 
   2  -6 -11    0.66    0.33 
   1  -6 -11    0.21    0.29 
   0  -6 -11   -0.08    0.27 
   0   6  11    0.03    0.09 
  -1  -6 -11    1.68    0.38 
   1   6  11    1.34    0.24 
  -2  -6 -11    0.25    0.24 
   2   6  11    0.45    0.16 
   3   6  11    3.08    0.40 
   4   6  11    0.85    0.23 
   5   6  11    0.43    0.19 
   6   6  11    1.31    0.31 
   7   6  11   -0.01    0.17 
   8   6  11    2.24    0.33 
   8   6  11    1.73    0.35 
   3  -7 -11    0.00    0.28 
   2  -7 -11   -0.12    0.25 
   1  -7 -11    0.20    0.29 
   0  -7 -11    0.35    0.29 
   0   7  11    0.01    0.09 
  -1  -7 -11    0.68    0.29 
   1   7  11    1.02    0.23 
  -2  -7 -11    0.21    0.24 
   2   7  11    0.02    0.12 
   3   7  11    4.11    0.45 
   4   7  11    1.82    0.31 
   5   7  11    0.81    0.21 
   6   7  11    1.43    0.33 
   7   7  11    0.42    0.22 
   8   7  11    1.00    0.30 
   2  -8 -11   -0.05    0.25 
   1  -8 -11    0.83    0.36 
   0  -8 -11    1.99    0.44 
   0   8  11    1.43    0.24 
  -1  -8 -11    0.08    0.20 
   1   8  11    0.09    0.13 
  -2  -8 -11    1.36    0.36 
   2   8  11    1.19    0.23 
   3   8  11    0.88    0.21 
   4   8  11    3.57    0.43 
   5   8  11    0.85    0.23 
   6   8  11    1.03    0.28 
   7   8  11    0.52    0.25 
   1  -9 -11    0.28    0.33 
   0  -9 -11    0.07    0.33 
   0   9  11    0.22    0.10 
  -1  -9 -11    0.42    0.27 
   1   9  11    0.38    0.11 
  -2  -9 -11    0.81    0.24 
   2   9  11    0.35    0.12 
   3   9  11    0.02    0.15 
   4   9  11    1.24    0.22 
   5   9  11    0.21    0.14 
   6   9  11    0.08    0.16 
   0 -10 -11    0.22    0.30 
   0  10  11    0.25    0.10 
  -1 -10 -11    0.31    0.31 
   1  10  11    0.36    0.14 
  -2 -10 -11    0.18    0.27 
   2  10  11    0.22    0.14 
   3  10  11    0.90    0.22 
   4  10  11    0.50    0.17 
   5  10  11    0.61    0.19 
   1   7 -12    0.48    0.13 
   0   7 -12    0.56    0.14 
   0  -7  12    0.57    0.22 
   3   6 -12    0.74    0.16 
   2   6 -12    0.60    0.17 
   1   6 -12    0.37    0.12 
   0   6 -12    0.38    0.12 
   0  -6  12    0.30    0.16 
  -1   6 -12    0.47    0.15 
   1  -6  12    0.28    0.19 
  -2   6 -12    0.24    0.14 
   2  -6  12    0.32    0.20 
   3  -6  12    0.77    0.25 
   4   5 -12    0.89    0.27 
   3   5 -12    0.30    0.16 
   2   5 -12    0.43    0.18 
   1   5 -12    0.54    0.13 
   0   5 -12    0.22    0.12 
   0  -5  12    0.04    0.12 
  -1   5 -12    0.43    0.12 
   1  -5  12    0.31    0.15 
  -2   5 -12    0.24    0.11 
   2  -5  12    0.19    0.15 
   3  -5  12    1.40    0.30 
   4  -5  12    0.45    0.20 
   4   4 -12    1.34    0.36 
   3   4 -12    0.83    0.28 
   2   4 -12    0.30    0.16 
   1   4 -12    0.43    0.18 
   0   4 -12    0.72    0.20 
   0  -4  12    0.27    0.14 
  -1   4 -12    0.66    0.17 
   1  -4  12    0.40    0.18 
  -2   4 -12    0.21    0.11 
   2  -4  12    0.04    0.13 
   3  -4  12    0.54    0.16 
   4  -4  12    2.43    0.38 
   5  -4  12    0.34    0.21 
   5   3 -12    0.06    0.24 
   4   3 -12    0.20    0.24 
   3   3 -12    0.57    0.26 
   2   3 -12    0.79    0.27 
   1   3 -12    1.61    0.34 
   0   3 -12    0.19    0.17 
   0  -3  12    0.03    0.11 
  -1   3 -12    0.06    0.10 
   1  -3  12    0.15    0.11 
  -2   3 -12    0.93    0.24 
   2  -3  12    0.74    0.20 
   3  -3  12    0.38    0.14 
   4  -3  12    1.41    0.26 
   5  -3  12    0.20    0.20 
   6  -3  12    0.18    0.20 
   5   2 -12    0.18    0.28 
   4   2 -12    0.43    0.28 
   3   2 -12    0.07    0.23 
   2   2 -12    0.76    0.29 
   1   2 -12    0.46    0.22 
   0   2 -12    0.30    0.22 
   0  -2  12    0.57    0.14 
  -1   2 -12    0.88    0.26 
   1  -2  12    1.02    0.21 
  -2   2 -12    1.22    0.30 
   2  -2  12    1.12    0.24 
   3  -2  12    0.84    0.20 
   4  -2  12    0.30    0.14 
   5  -2  12    0.29    0.14 
   6  -2  12    0.86    0.25 
   5   1 -12    0.43    0.32 
   4   1 -12    0.34    0.25 
   3   1 -12   -0.12    0.19 
   2   1 -12    0.65    0.27 
   1   1 -12    4.33    0.42 
   0   1 -12    0.15    0.19 
   0  -1  12    0.32    0.13 
  -1   1 -12    0.27    0.18 
   1  -1  12    0.35    0.15 
  -2   1 -12    1.76    0.34 
   2  -1  12    2.05    0.30 
   3  -1  12    2.21    0.33 
   4  -1  12    1.60    0.30 
   5  -1  12    0.10    0.13 
   6  -1  12    0.05    0.19 
   7  -1  12    1.00    0.29 
   5   0 -12    0.54    0.30 
   5   0 -12    0.56    0.18 
   4   0 -12    0.51    0.26 
   4   0 -12    0.07    0.15 
   3   0 -12    0.75    0.31 
   2   0 -12    0.88    0.29 
   1   0 -12    0.01    0.19 
   0   0 -12    1.49    0.32 
   0   0  12    1.30    0.23 
  -1   0 -12    1.81    0.32 
   1   0  12    1.90    0.28 
  -2   0 -12    3.61    0.45 
   2   0  12    3.28    0.38 
   3   0  12    1.22    0.25 
   4   0  12    0.22    0.15 
   5   0  12    1.97    0.32 
   6   0  12    0.47    0.20 
   7   0  12    0.91    0.27 
   5  -1 -12    0.03    0.21 
   5  -1 -12    0.59    0.29 
   4  -1 -12    0.13    0.23 
   3  -1 -12    0.36    0.26 
   3  -1 -12    0.03    0.20 
   2  -1 -12    1.01    0.28 
   2  -1 -12    1.37    0.32 
   1  -1 -12    0.71    0.25 
   1  -1 -12    0.91    0.25 
   0  -1 -12    3.01    0.37 
   0   1  12    3.02    0.31 
  -1  -1 -12    0.62    0.21 
  -1  -1 -12    0.92    0.14 
   1   1  12    0.54    0.17 
  -2  -1 -12    5.74    0.45 
   2   1  12    6.00    0.42 
   3   1  12    2.09    0.34 
   4   1  12    0.11    0.14 
   5   1  12    0.60    0.20 
   6   1  12    0.17    0.22 
   7   1  12    0.09    0.18 
   5  -2 -12    0.95    0.24 
   5  -2 -12    0.12    0.24 
   4  -2 -12    0.43    0.22 
   4  -2 -12   -0.01    0.22 
   3  -2 -12    0.60    0.27 
   3  -2 -12    0.11    0.26 
   2  -2 -12   -0.03    0.21 
   2  -2 -12   -0.14    0.17 
   1  -2 -12    0.15    0.17 
   1  -2 -12   -0.08    0.21 
   0  -2 -12    0.93    0.23 
   0  -2 -12    0.73    0.27 
   0   2  12    1.08    0.20 
  -1  -2 -12   -0.01    0.11 
  -1  -2 -12    0.14    0.16 
   1   2  12    0.12    0.11 
  -2  -2 -12    7.75    0.51 
   2   2  12    7.47    0.48 
   3   2  12    0.10    0.15 
   4   2  12    2.66    0.37 
   5   2  12    0.45    0.19 
   6   2  12    0.16    0.20 
   7   2  12   -0.16    0.16 
   8   2  12    0.28    0.19 
   5  -3 -12    0.17    0.25 
   4  -3 -12    0.31    0.27 
   3  -3 -12    0.88    0.21 
   3  -3 -12    0.32    0.27 
   2  -3 -12    0.14    0.24 
   2  -3 -12    0.43    0.20 
   1  -3 -12    0.77    0.21 
   1  -3 -12    0.32    0.27 
   0  -3 -12    0.08    0.23 
   0  -3 -12    0.03    0.11 
   0   3  12    0.22    0.11 
  -1  -3 -12    0.35    0.21 
  -1  -3 -12    0.32    0.15 
   1   3  12    0.37    0.14 
  -2  -3 -12    5.81    0.42 
   2   3  12    5.84    0.43 
   3   3  12    5.03    0.40 
   4   3  12   -0.01    0.14 
   5   3  12    0.41    0.17 
   6   3  12   -0.02    0.16 
   7   3  12   -0.06    0.18 
   8   3  12    0.60    0.23 
   4  -4 -12    0.33    0.30 
   3  -4 -12    0.07    0.26 
   2  -4 -12   -0.10    0.23 
   1  -4 -12    0.20    0.28 
   0  -4 -12    0.31    0.28 
   0  -4 -12    0.63    0.15 
   0   4  12    0.65    0.14 
  -1  -4 -12    0.08    0.11 
  -1  -4 -12    0.15    0.22 
   1   4  12    0.28    0.12 
  -2  -4 -12    0.08    0.18 
   2   4  12    0.09    0.15 
   3   4  12    2.21    0.34 
   4   4  12    0.06    0.15 
   5   4  12    0.37    0.18 
   6   4  12    0.21    0.19 
   7   4  12    0.36    0.22 
   8   4  12    0.20    0.21 
   4  -5 -12    0.13    0.28 
   3  -5 -12    0.27    0.29 
   2  -5 -12    0.07    0.27 
   1  -5 -12    0.43    0.30 
   0  -5 -12    0.20    0.26 
   0   5  12    0.19    0.09 
  -1  -5 -12    0.49    0.27 
   1   5  12    0.52    0.16 
  -2  -5 -12    0.08    0.19 
   2   5  12   -0.08    0.14 
   3   5  12    1.42    0.27 
   4   5  12    1.29    0.27 
   5   5  12    1.23    0.26 
   6   5  12    0.14    0.20 
   7   5  12    0.42    0.26 
   8   5  12    1.64    0.35 
   3  -6 -12   -0.11    0.27 
   2  -6 -12    0.62    0.32 
   1  -6 -12    0.03    0.24 
   0  -6 -12    0.11    0.27 
   0   6  12    0.06    0.08 
  -1  -6 -12    0.38    0.26 
   1   6  12    0.35    0.14 
  -2  -6 -12    1.41    0.36 
   2   6  12    1.44    0.27 
   3   6  12    0.27    0.18 
   4   6  12    2.18    0.35 
   5   6  12    0.08    0.16 
   6   6  12    0.22    0.20 
   7   6  12    0.20    0.20 
   3  -7 -12    0.35    0.36 
   2  -7 -12    0.26    0.27 
   1  -7 -12    0.38    0.30 
   0  -7 -12    0.12    0.24 
   0   7  12    0.33    0.09 
  -1  -7 -12    0.41    0.24 
   1   7  12    0.27    0.13 
  -2  -7 -12    2.02    0.41 
   2   7  12    2.21    0.33 
   3   7  12    4.18    0.46 
   4   7  12    0.25    0.15 
   5   7  12    0.55    0.18 
   6   7  12    0.64    0.26 
   7   7  12   -0.07    0.19 
   2  -8 -12    0.18    0.31 
   1  -8 -12    0.21    0.31 
   0  -8 -12    0.45    0.25 
  -1  -8 -12    0.01    0.16 
   1   8  12    0.22    0.09 
  -2  -8 -12    0.96    0.27 
   2   8  12    0.58    0.17 
   3   8  12    2.29    0.35 
   4   8  12    0.42    0.16 
   5   8  12    0.72    0.17 
   6   8  12    0.40    0.23 
   7   8  12    0.28    0.19 
   1  -9 -12    0.21    0.31 
   0  -9 -12    1.13    0.33 
  -1  -9 -12    0.62    0.27 
   1   9  12    0.54    0.13 
  -2  -9 -12    0.63    0.22 
   2   9  12    0.23    0.12 
   3   9  12    0.45    0.15 
   4   9  12    0.10    0.15 
   5   9  12    0.61    0.17 
   6   9  12    0.39    0.21 
  -1 -10 -12    1.09    0.41 
   1  10  12    0.42    0.13 
  -2 -10 -12    0.37    0.26 
   2  10  12    0.24    0.14 
   4  10  12   -0.07    0.15 
   1   6 -13    0.61    0.14 
   0  -6  13    0.10    0.15 
  -1   6 -13    0.81    0.18 
   1  -6  13    0.24    0.17 
   3   5 -13    0.83    0.19 
   2   5 -13    0.84    0.21 
   1   5 -13    1.21    0.24 
   0   5 -13    0.66    0.16 
   0  -5  13    0.23    0.17 
  -1   5 -13    0.26    0.13 
   1  -5  13    0.30    0.16 
  -2   5 -13    0.36    0.11 
   2  -5  13    0.36    0.19 
   3  -5  13    0.78    0.22 
   3   4 -13    0.42    0.22 
   2   4 -13    0.45    0.17 
   1   4 -13    0.34    0.14 
   0   4 -13    0.98    0.23 
   0  -4  13    0.85    0.18 
  -1   4 -13    1.78    0.32 
   1  -4  13    0.98    0.20 
  -2   4 -13    0.90    0.21 
   2  -4  13    0.94    0.22 
   3  -4  13    0.65    0.22 
   4  -4  13    1.33    0.25 
   4   3 -13    0.47    0.28 
   3   3 -13    0.70    0.25 
   2   3 -13    0.18    0.21 
   1   3 -13    0.96    0.26 
   0   3 -13    0.85    0.26 
   0  -3  13    1.20    0.20 
  -1   3 -13    0.26    0.13 
   1  -3  13    0.26    0.12 
  -2   3 -13    1.69    0.33 
   2  -3  13    1.56    0.28 
   3  -3  13    0.91    0.22 
   4  -3  13    0.28    0.13 
   5  -3  13    0.57    0.18 
   4   2 -13    0.51    0.29 
   3   2 -13    0.91    0.31 
   2   2 -13    0.63    0.24 
   1   2 -13    0.06    0.19 
   0   2 -13    0.42    0.22 
   0  -2  13    0.66    0.15 
  -1   2 -13    0.32    0.18 
   1  -2  13    1.22    0.26 
  -2   2 -13    2.01    0.39 
   2  -2  13    2.14    0.33 
   3  -2  13    0.17    0.13 
   4  -2  13    0.60    0.18 
   5  -2  13    0.84    0.21 
   6  -2  13    0.06    0.17 
   4   1 -13    0.49    0.28 
   3   1 -13    1.05    0.30 
   2   1 -13    0.60    0.26 
   1   1 -13    4.30    0.49 
   0   1 -13    3.69    0.46 
   0  -1  13    3.40    0.30 
  -1   1 -13    1.16    0.30 
   1  -1  13    1.75    0.27 
  -2   1 -13    2.01    0.35 
   2  -1  13    1.62    0.28 
   3  -1  13    1.73    0.30 
   4  -1  13    0.40    0.14 
   5  -1  13    0.67    0.18 
   6  -1  13    0.38    0.19 
   5   0 -13    0.82    0.28 
   4   0 -13    0.63    0.27 
   3   0 -13   -0.13    0.16 
   2   0 -13    1.40    0.32 
   1   0 -13    3.29    0.43 
   0   0 -13    4.02    0.47 
   0   0  13    4.65    0.34 
  -1   0 -13    3.60    0.44 
   1   0  13    3.79    0.40 
  -2   0 -13    0.08    0.14 
   2   0  13    0.34    0.15 
   3   0  13    1.54    0.29 
   4   0  13    0.31    0.15 
   5   0  13    1.14    0.25 
   6   0  13    1.47    0.32 
   4  -1 -13    0.05    0.17 
   4  -1 -13    0.59    0.26 
   3  -1 -13    0.74    0.26 
   2  -1 -13    0.21    0.20 
   1  -1 -13    0.16    0.18 
   0  -1 -13    1.65    0.33 
   0   1  13    1.43    0.22 
  -1  -1 -13    0.21    0.16 
   1   1  13    0.42    0.16 
  -2  -1 -13    0.67    0.22 
   2   1  13    0.65    0.20 
   3   1  13    0.92    0.23 
   4   1  13    0.21    0.17 
   5   1  13   -0.01    0.10 
   6   1  13    0.77    0.27 
   7   1  13    0.08    0.20 
   4  -2 -13    1.02    0.24 
   4  -2 -13    0.43    0.26 
   3  -2 -13    0.01    0.24 
   3  -2 -13    0.64    0.22 
   2  -2 -13   -0.02    0.20 
   2  -2 -13    0.04    0.16 
   1  -2 -13    0.75    0.27 
   1  -2 -13    0.67    0.23 
   0  -2 -13    0.27    0.17 
   0  -2 -13    0.54    0.20 
   0   2  13    0.21    0.11 
  -1  -2 -13    0.06    0.13 
  -1  -2 -13    0.37    0.14 
   1   2  13    0.22    0.13 
  -2  -2 -13    0.00    0.11 
   2   2  13    0.20    0.14 
   3   2  13    0.87    0.22 
   4   2  13    1.33    0.28 
   5   2  13    1.17    0.26 
   6   2  13    0.09    0.20 
   7   2  13    0.08    0.20 
   4  -3 -13   -0.29    0.21 
   3  -3 -13    0.83    0.30 
   2  -3 -13    0.07    0.22 
   1  -3 -13    1.22    0.23 
   1  -3 -13    0.87    0.30 
   0  -3 -13    0.35    0.15 
   0  -3 -13    0.44    0.24 
   0   3  13    0.45    0.10 
  -1  -3 -13   -0.03    0.10 
  -1  -3 -13    0.25    0.19 
   1   3  13    0.06    0.12 
  -2  -3 -13    0.20    0.13 
   2   3  13    0.32    0.15 
   3   3  13   -0.02    0.14 
   4   3  13    0.52    0.17 
   5   3  13   -0.01    0.13 
   6   3  13   -0.14    0.17 
   7   3  13    1.10    0.31 
   4  -4 -13    0.50    0.32 
   3  -4 -13   -0.05    0.24 
   2  -4 -13    0.24    0.28 
   1  -4 -13   -0.12    0.22 
   0  -4 -13    0.79    0.31 
  -1  -4 -13    0.28    0.23 
  -1  -4 -13    0.32    0.12 
   1   4  13    0.27    0.13 
  -2  -4 -13    0.26    0.17 
   2   4  13    0.38    0.16 
   3   4  13    1.14    0.26 
   4   4  13    0.56    0.19 
   5   4  13    0.32    0.16 
   6   4  13    0.56    0.24 
   7   4  13   -0.12    0.20 
   3  -5 -13    0.10    0.27 
   2  -5 -13   -0.08    0.23 
   1  -5 -13   -0.10    0.22 
   0  -5 -13    2.32    0.45 
  -1  -5 -13    2.79    0.47 
   1   5  13    3.52    0.39 
  -2  -5 -13    0.85    0.29 
   2   5  13    0.98    0.22 
   3   5  13    0.87    0.22 
   4   5  13    0.18    0.15 
   5   5  13    0.39    0.17 
   6   5  13    0.07    0.17 
   7   5  13    0.17    0.21 
   3  -6 -13    0.71    0.36 
   2  -6 -13    0.37    0.29 
   1  -6 -13    0.12    0.20 
   0  -6 -13    0.12    0.22 
  -1  -6 -13    1.11    0.33 
   1   6  13    0.99    0.20 
  -2  -6 -13    0.34    0.20 
   2   6  13    0.45    0.17 
   3   6  13    0.41    0.16 
   4   6  13    0.73    0.20 
   5   6  13    0.79    0.21 
   6   6  13    0.59    0.20 
   7   6  13    0.07    0.17 
   2  -7 -13    0.53    0.33 
   1  -7 -13    0.80    0.34 
   0  -7 -13    0.44    0.26 
  -1  -7 -13    0.69    0.26 
   1   7  13    0.48    0.14 
  -2  -7 -13    0.52    0.19 
   2   7  13    0.13    0.12 
   3   7  13    0.25    0.15 
   4   7  13    1.14    0.24 
   5   7  13    0.18    0.16 
   6   7  13    0.80    0.20 
   1  -8 -13    0.75    0.32 
   0  -8 -13    0.63    0.29 
  -1  -8 -13    0.33    0.21 
   1   8  13    0.09    0.09 
  -2  -8 -13    0.64    0.22 
   2   8  13    0.19    0.12 
   3   8  13    0.27    0.14 
   4   8  13    0.37    0.15 
   5   8  13    0.51    0.21 
   6   8  13   -0.03    0.17 
   0  -9 -13    0.66    0.26 
  -1  -9 -13    0.63    0.29 
   1   9  13    0.23    0.11 
  -2  -9 -13    0.74    0.23 
   2   9  13    0.66    0.15 
   3   9  13    0.56    0.17 
   4   9  13   -0.07    0.13 
   5   9  13    0.46    0.18 
   0   5 -14    0.56    0.18 
  -1   5 -14    0.29    0.14 
   1  -5  14    0.16    0.15 
   2   4 -14    0.73    0.25 
   1   4 -14    0.67    0.19 
   0   4 -14    0.31    0.12 
  -1   4 -14    0.31    0.13 
   1  -4  14    0.28    0.14 
  -2   4 -14    0.52    0.17 
   2  -4  14    0.51    0.21 
   3  -4  14    0.26    0.17 
   3   3 -14    0.27    0.23 
   2   3 -14    0.36    0.23 
   1   3 -14   -0.04    0.12 
   0   3 -14    0.49    0.19 
  -1   3 -14    0.20    0.14 
   1  -3  14    0.25    0.13 
  -2   3 -14    0.32    0.13 
   2  -3  14   -0.09    0.10 
   3  -3  14    0.36    0.17 
   4  -3  14    0.10    0.18 
   3   2 -14    0.62    0.24 
   2   2 -14    0.32    0.20 
   1   2 -14    0.23    0.18 
   0   2 -14    1.05    0.28 
  -1   2 -14    0.35    0.20 
   1  -2  14    0.22    0.14 
  -2   2 -14    0.54    0.22 
   2  -2  14    0.28    0.14 
   3  -2  14    0.14    0.15 
   4  -2  14    1.26    0.24 
   5  -2  14    0.36    0.17 
   4   1 -14    0.67    0.24 
   3   1 -14    0.44    0.23 
   2   1 -14    0.59    0.23 
   1   1 -14    0.52    0.25 
   0   1 -14    0.63    0.23 
  -1   1 -14    1.22    0.31 
   1  -1  14    1.39    0.27 
  -2   1 -14   -0.07    0.12 
   2  -1  14    0.19    0.16 
   3  -1  14    1.80    0.30 
   4  -1  14    0.56    0.19 
   5  -1  14    0.03    0.15 
   4   0 -14    0.78    0.22 
   3   0 -14    0.56    0.23 
   2   0 -14    1.85    0.34 
   1   0 -14    3.86    0.47 
   0   0 -14    4.38    0.43 
  -1   0 -14    0.07    0.16 
   1   0  14    0.26    0.13 
  -2   0 -14    0.00    0.14 
   2   0  14    0.49    0.17 
   3   0  14    0.54    0.18 
   4   0  14    0.47    0.17 
   5   0  14    0.81    0.22 
   6   0  14    0.51    0.22 
   4  -1 -14    0.51    0.21 
   3  -1 -14    1.35    0.28 
   2  -1 -14    1.26    0.29 
   1  -1 -14    0.48    0.20 
   0  -1 -14    0.31    0.15 
  -1  -1 -14    0.28    0.18 
   1   1  14    0.08    0.11 
  -2  -1 -14    0.04    0.15 
   2   1  14    0.19    0.14 
   3   1  14    0.02    0.13 
   4   1  14    1.24    0.29 
   5   1  14    0.70    0.20 
   6   1  14    2.41    0.37 
   3  -2 -14    1.14    0.20 
   3  -2 -14    0.47    0.19 
   2  -2 -14    0.67    0.19 
   1  -2 -14    1.10    0.24 
   0  -2 -14    0.18    0.14 
  -1  -2 -14    0.27    0.15 
   1   2  14    0.58    0.17 
  -2  -2 -14    1.51    0.31 
   2   2  14    1.30    0.26 
   3   2  14    0.45    0.17 
   4   2  14    0.18    0.14 
   5   2  14    0.16    0.14 
   6   2  14    2.67    0.39 
   3  -3 -14   -0.25    0.22 
   2  -3 -14    0.06    0.21 
   1  -3 -14    0.01    0.20 
   1  -3 -14    0.69    0.12 
   0  -3 -14    0.89    0.21 
   0  -3 -14    1.11    0.27 
  -1  -3 -14    0.60    0.18 
  -1  -3 -14    1.22    0.23 
   1   3  14    0.38    0.16 
  -2  -3 -14    0.25    0.14 
   2   3  14    0.11    0.14 
   3   3  14    0.14    0.13 
   4   3  14    0.03    0.13 
   5   3  14    0.48    0.17 
   6   3  14    0.22    0.14 
   3  -4 -14    0.57    0.31 
   2  -4 -14    0.37    0.26 
   1  -4 -14    0.71    0.27 
   0  -4 -14    0.18    0.19 
  -1  -4 -14    0.45    0.18 
   1   4  14    0.40    0.15 
   2   4  14    0.22    0.14 
   3   4  14    0.39    0.17 
   4   4  14    0.18    0.16 
   5   4  14    0.98    0.27 
   6   4  14    0.28    0.15 
   2  -5 -14    0.22    0.27 
   1  -5 -14    1.39    0.40 
   0  -5 -14    0.31    0.23 
  -1  -5 -14    0.50    0.20 
   1   5  14    0.19    0.13 
  -2  -5 -14    1.09    0.21 
   2   5  14    0.47    0.16 
   3   5  14    0.90    0.22 
   4   5  14    1.06    0.26 
   5   5  14   -0.14    0.14 
   6   5  14    0.79    0.20 
   2  -6 -14    0.12    0.28 
   1  -6 -14    0.17    0.25 
   0  -6 -14    0.14    0.25 
  -1  -6 -14    0.53    0.20 
   1   6  14    0.13    0.14 
  -2  -6 -14    0.59    0.21 
   2   6  14    0.24    0.13 
   3   6  14    0.27    0.17 
   4   6  14    0.33    0.19 
   5   6  14    0.42    0.18 
   6   6  14    1.87    0.34 
   1  -7 -14    0.69    0.29 
   0  -7 -14    0.29    0.24 
  -1  -7 -14    0.58    0.21 
   1   7  14    0.15    0.09 
  -2  -7 -14    0.79    0.23 
   2   7  14    0.32    0.14 
   3   7  14    0.51    0.18 
   4   7  14    0.85    0.22 
   5   7  14    0.98    0.22 
   6   7  14    0.75    0.23 
   0  -8 -14    0.64    0.25 
  -1  -8 -14    0.40    0.19 
  -2  -8 -14    0.86    0.21 
   2   8  14    0.38    0.14 
   3   8  14   -0.10    0.13 
   4   8  14    0.36    0.16 
   5   8  14    0.93    0.22 
   1   3 -15    0.38    0.19 
   0   3 -15    0.64    0.17 
  -1   3 -15    0.26    0.15 
   1  -3  15    0.24    0.11 
  -2   3 -15    0.32    0.18 
   2  -3  15    0.19    0.15 
   2   2 -15    0.65    0.23 
   1   2 -15    0.49    0.22 
   0   2 -15    0.16    0.19 
  -1   2 -15    0.52    0.18 
   1  -2  15    0.73    0.18 
  -2   2 -15    0.17    0.14 
   2  -2  15    0.29    0.16 
   3  -2  15    0.58    0.19 
   4  -2  15    0.40    0.19 
   2   1 -15    0.57    0.21 
   1   1 -15    0.73    0.21 
   0   1 -15    0.21    0.16 
  -1   1 -15   -0.10    0.11 
   1  -1  15   -0.01    0.15 
  -2   1 -15    0.98    0.28 
   2  -1  15    0.73    0.19 
   3  -1  15    1.81    0.32 
   4  -1  15    0.29    0.17 
   3   0 -15    0.63    0.18 
   2   0 -15    0.41    0.18 
   1   0 -15    0.76    0.22 
   0   0 -15    0.26    0.14 
  -1   0 -15    0.27    0.15 
   1   0  15    0.27    0.12 
  -2   0 -15    0.37    0.16 
   2   0  15    0.10    0.13 
   3   0  15    0.67    0.19 
   4   0  15    0.31    0.17 
   5   0  15    0.42    0.20 
   2  -1 -15    0.82    0.19 
   1  -1 -15    0.27    0.15 
   0  -1 -15    0.93    0.22 
  -1  -1 -15    0.06    0.12 
   1   1  15   -0.06    0.11 
  -2  -1 -15    0.26    0.20 
   2   1  15    0.32    0.17 
   3   1  15    0.51    0.17 
   4   1  15    0.20    0.16 
   5   1  15    1.03    0.24 
   2  -2 -15    0.86    0.19 
   1  -2 -15    0.65    0.15 
   0  -2 -15    0.96    0.24 
  -1  -2 -15    0.42    0.17 
   1   2  15    0.53    0.14 
  -2  -2 -15    0.99    0.25 
   2   2  15    1.26    0.27 
   3   2  15    0.18    0.13 
   4   2  15    0.18    0.15 
   5   2  15    0.87    0.23 
   6   2  15    0.65    0.23 
   0  -3 -15    0.63    0.14 
  -1  -3 -15    0.51    0.15 
   1   3  15    0.58    0.15 
  -2  -3 -15    0.41    0.18 
   2   3  15    0.19    0.14 
   3   3  15    0.87    0.21 
   4   3  15    0.03    0.12 
   5   3  15    0.66    0.22 
   6   3  15    0.89    0.25 
   2  -4 -15    0.90    0.28 
   1  -4 -15    0.55    0.21 
   0  -4 -15    0.69    0.19 
  -1  -4 -15    1.09    0.19 
   2   4  15   -0.10    0.12 
   3   4  15    3.84    0.48 
   4   4  15    0.95    0.24 
   5   4  15    0.04    0.13 
   6   4  15    0.66    0.22 
   1  -5 -15    0.86    0.27 
   0  -5 -15    0.79    0.21 
  -1  -5 -15    0.63    0.18 
   2   5  15    0.19    0.14 
   3   5  15    2.10    0.37 
   4   5  15    1.26    0.26 
   5   5  15    0.52    0.18 
   1  -6 -15    0.75    0.25 
   0  -6 -15    0.77    0.26 
  -1  -6 -15    0.62    0.19 
  -2  -6 -15    0.74    0.18 
   2   6  15    0.13    0.13 
   3   6  15    0.00    0.12 
   4   6  15    0.08    0.17 
   5   6  15    0.43    0.17 
   0  -7 -15    0.83    0.23 
  -1  -7 -15    0.74    0.22 
  -2  -7 -15    0.51    0.21 
   2   7  15    0.29    0.14 
   3   7  15    0.21    0.16 
   4   7  15    0.38    0.17 
  -1   2 -16    0.16    0.17 
   1   1 -16    0.97    0.25 
   0   1 -16    0.22    0.16 
  -1   1 -16    0.57    0.18 
  -2   1 -16    0.06    0.16 
   2  -1  16    0.14    0.13 
   3  -1  16   -0.10    0.15 
   1   0 -16    1.31    0.26 
   0   0 -16    0.47    0.24 
  -1   0 -16    0.07    0.15 
  -2   0 -16    0.37    0.21 
   2   0  16    0.81    0.22 
   3   0  16    0.92    0.23 
   1  -1 -16    0.85    0.21 
   0  -1 -16    2.24    0.35 
  -1  -1 -16    1.68    0.33 
  -2  -1 -16    0.65    0.23 
   2   1  16    0.68    0.19 
   3   1  16    0.52    0.20 
   4   1  16    0.21    0.18 
   1  -2 -16    0.81    0.15 
   0  -2 -16    1.38    0.24 
  -1  -2 -16    1.30    0.29 
  -2  -2 -16    0.53    0.18 
   2   2  16    0.72    0.19 
   3   2  16    0.35    0.19 
   4   2  16    0.36    0.17 
  -1  -3 -16    0.72    0.17 
  -2  -3 -16    0.60    0.18 
   2   3  16    0.47    0.15 
   3   3  16    0.83    0.21 
   4   3  16   -0.03    0.15 
   2   4  16    0.60    0.18 
   3   4  16    0.48    0.17 
   4   4  16    0.20    0.18 
   0  -5 -16    1.06    0.18 
   2   5  16    0.25    0.14 
   3   5  16    0.58    0.20 
   4   5  16    0.49    0.21 
  -1  -6 -16    1.02    0.22 
   2   6  16    0.42    0.14 
   3   6  16   -0.02    0.15 
  -1  -2 -17    1.36    0.29 
   0   0   0    0.00    0.00 
;
_shelx_hkl_checksum              92239
loop_
_space_group_symop_operation_xyz
'x, y, z'
'-x, -y, -z'
loop_
_atom_site_label
_atom_site_type_symbol
_atom_site_fract_x
_atom_site_fract_y
_atom_site_fract_z
_atom_site_U_iso_or_equiv
_atom_site_adp_type
_atom_site_occupancy
_atom_site_site_symmetry_order
_atom_site_calc_flag
_atom_site_refinement_flags_posn
_atom_site_refinement_flags_adp
_atom_site_refinement_flags_occupancy
_atom_site_disorder_assembly
_atom_site_disorder_group
S1 S 0.28211(17) 0.60294(11) 0.55411(9) 0.0751(4) Uani 1 1 d . . . . .
O1 O -0.0551(3) 0.6893(3) 0.8592(2) 0.0780(9) Uani 1 1 d . . . . .
O2 O 0.1445(3) 0.7925(2) 0.73693(17) 0.0518(6) Uani 1 1 d . . . . .
C1 C 0.1033(5) 0.6862(4) 0.8192(3) 0.0529(9) Uani 1 1 d . . . . .
C2 C 0.3449(4) 0.7668(3) 0.7011(2) 0.0439(8) Uani 1 1 d . . . . .
C3 C 0.4259(4) 0.6261(3) 0.7725(2) 0.0413(7) Uani 1 1 d . . . . .
C4 C 0.2774(4) 0.5801(3) 0.8431(2) 0.0446(8) Uani 1 1 d . . . . .
C5 C 0.3031(5) 0.4547(4) 0.9158(2) 0.0482(8) Uani 1 1 d . . . . .
H5 H 0.2016 0.4277 0.9616 0.058 Uiso 1 1 calc R U . . .
C6 C 0.4847(5) 0.3659(3) 0.9212(2) 0.0458(8) Uani 1 1 d . . . . .
C7 C 0.6375(5) 0.4120(3) 0.8508(3) 0.0477(8) Uani 1 1 d . . . . .
C8 C 0.6032(4) 0.5427(3) 0.7757(3) 0.0460(8) Uani 1 1 d . . . . .
H8 H 0.7020 0.5718 0.7285 0.055 Uiso 1 1 calc R U . . .
C9 C 0.5214(6) 0.2328(4) 0.9925(3) 0.0630(10) Uani 1 1 d . . . . .
H9 H 0.4227 0.2021 1.0389 0.076 Uiso 1 1 calc R U . . .
C10 C 0.6972(7) 0.1481(4) 0.9955(3) 0.0794(13) Uani 1 1 d . . . . .
H10 H 0.7184 0.0591 1.0424 0.095 Uiso 1 1 calc R U . . .
C11 C 0.8468(7) 0.1941(5) 0.9282(4) 0.0830(14) Uani 1 1 d . . . . .
H11 H 0.9678 0.1362 0.9318 0.100 Uiso 1 1 calc R U . . .
C12 C 0.8190(5) 0.3219(4) 0.8573(3) 0.0647(10) Uani 1 1 d . . . . .
H12 H 0.9208 0.3502 0.8127 0.078 Uiso 1 1 calc R U . . .
C13 C 0.4069(4) 0.9058(3) 0.7086(2) 0.0414(7) Uani 1 1 d . . . . .
C14 C 0.5859(5) 0.9000(4) 0.7261(3) 0.0570(9) Uani 1 1 d . . . . .
H14 H 0.6707 0.8090 0.7375 0.068 Uiso 1 1 calc R U . . .
C15 C 0.6398(6) 1.0292(5) 0.7267(3) 0.0690(11) Uani 1 1 d . . . . .
H15 H 0.7610 1.0246 0.7386 0.083 Uiso 1 1 calc R U . . .
C16 C 0.5175(6) 1.1633(4) 0.7101(3) 0.0669(11) Uani 1 1 d . . . . .
H16 H 0.5550 1.2501 0.7100 0.080 Uiso 1 1 calc R U . . .
C17 C 0.3399(6) 1.1694(4) 0.6938(4) 0.0736(12) Uani 1 1 d . . . . .
H17 H 0.2552 1.2607 0.6835 0.088 Uiso 1 1 calc R U . . .
C18 C 0.2847(5) 1.0418(4) 0.6923(3) 0.0643(10) Uani 1 1 d . . . . .
H18 H 0.1633 1.0475 0.6802 0.077 Uiso 1 1 calc R U . . .
C19 C 0.3776(5) 0.7468(4) 0.5826(3) 0.0542(9) Uani 1 1 d . . . . .
H19A H 0.5115 0.7246 0.5588 0.065 Uiso 1 1 calc R U . . .
H19B H 0.3228 0.8400 0.5407 0.065 Uiso 1 1 calc R U . . .
C20 C 0.0675(6) 0.7056(4) 0.5093(3) 0.0614(10) Uani 1 1 d . . . . .
F1 F 0.0065(10) 0.8421(8) 0.5268(5) 0.104(2) Uani 0.6 1 d . U P A 1
F2 F 0.0825(11) 0.7185(10) 0.4055(7) 0.104(3) Uani 0.5 1 d . U P A 1
F3 F -0.0788(11) 0.6415(9) 0.5417(8) 0.111(2) Uani 0.5 1 d . U P A 1
F1' F 0.0667(14) 0.8401(12) 0.4677(8) 0.094(3) Uani 0.4 1 d . U P A 2
F2' F 0.0374(13) 0.6465(9) 0.4312(8) 0.102(2) Uani 0.5 1 d . U P A 2
F3' F -0.0612(11) 0.6878(11) 0.5871(6) 0.107(2) Uani 0.5 1 d . U P A 2
loop_
_atom_site_aniso_label
_atom_site_aniso_U_11
_atom_site_aniso_U_22
_atom_site_aniso_U_33
_atom_site_aniso_U_23
_atom_site_aniso_U_13
_atom_site_aniso_U_12
S1 0.0932(8) 0.0496(6) 0.0906(8) -0.0071(5) -0.0455(7) -0.0114(5)
O1 0.0357(15) 0.093(2) 0.089(2) 0.0285(15) -0.0041(14) -0.0189(13)
O2 0.0342(12) 0.0582(14) 0.0572(14) 0.0119(11) -0.0096(11) -0.0135(10)
C1 0.040(2) 0.061(2) 0.057(2) 0.0085(17) -0.0102(17) -0.0201(16)
C2 0.0330(17) 0.0539(19) 0.0431(17) 0.0030(14) -0.0057(14) -0.0144(14)
C3 0.0388(18) 0.0461(17) 0.0400(16) -0.0017(14) -0.0072(14) -0.0137(14)
C4 0.0383(18) 0.0519(19) 0.0428(17) 0.0001(14) -0.0054(15) -0.0142(14)
C5 0.048(2) 0.056(2) 0.0400(17) 0.0043(15) -0.0023(15) -0.0217(16)
C6 0.054(2) 0.0482(18) 0.0344(16) -0.0062(14) -0.0099(15) -0.0081(16)
C7 0.052(2) 0.0462(18) 0.0437(18) -0.0085(15) -0.0113(16) -0.0044(15)
C8 0.0390(19) 0.0536(19) 0.0442(18) -0.0076(15) -0.0004(15) -0.0120(15)
C9 0.080(3) 0.056(2) 0.045(2) 0.0022(16) -0.0092(19) -0.008(2)
C10 0.097(4) 0.061(2) 0.059(2) 0.006(2) -0.011(3) 0.009(2)
C11 0.073(3) 0.076(3) 0.077(3) -0.004(2) -0.021(3) 0.026(2)
C12 0.054(2) 0.068(2) 0.060(2) -0.0097(19) -0.0051(19) 0.0050(19)
C13 0.0436(18) 0.0473(18) 0.0316(15) 0.0030(13) -0.0037(14) -0.0149(14)
C14 0.048(2) 0.057(2) 0.066(2) 0.0004(17) -0.0129(18) -0.0171(16)
C15 0.066(3) 0.079(3) 0.072(3) -0.006(2) -0.017(2) -0.035(2)
C16 0.087(3) 0.064(3) 0.060(2) -0.0139(19) 0.000(2) -0.039(2)
C17 0.071(3) 0.050(2) 0.094(3) -0.009(2) -0.006(2) -0.0087(19)
C18 0.054(2) 0.052(2) 0.083(3) 0.0011(19) -0.015(2) -0.0121(18)
C19 0.059(2) 0.056(2) 0.0502(19) 0.0023(16) -0.0137(17) -0.0212(17)
C20 0.065(3) 0.066(3) 0.057(2) -0.009(2) -0.003(2) -0.027(2)
F1 0.113(5) 0.070(3) 0.132(5) -0.035(4) -0.067(4) 0.020(3)
F2 0.084(4) 0.143(6) 0.069(4) -0.006(4) -0.020(3) 0.001(4)
F3 0.066(3) 0.121(5) 0.146(6) -0.001(4) -0.004(4) -0.045(3)
F1' 0.075(5) 0.069(4) 0.131(7) 0.013(5) -0.029(5) -0.015(4)
F2' 0.102(5) 0.124(5) 0.100(5) -0.044(4) -0.046(4) -0.020(4)
F3' 0.068(4) 0.155(6) 0.105(5) -0.032(4) 0.000(3) -0.037(4)
loop_
_atom_type_symbol
_atom_type_description
_atom_type_scat_dispersion_real
_atom_type_scat_dispersion_imag
_atom_type_scat_source
C C 0.0033 0.0016 'International Tables Vol C Tables 4.2.6.8 and 6.1.1.4'
H H 0.0000 0.0000 'International Tables Vol C Tables 4.2.6.8 and 6.1.1.4'
O O 0.0106 0.0060 'International Tables Vol C Tables 4.2.6.8 and 6.1.1.4'
F F 0.0171 0.0103 'International Tables Vol C Tables 4.2.6.8 and 6.1.1.4'
S S 0.1246 0.1234 'International Tables Vol C Tables 4.2.6.8 and 6.1.1.4'
loop_
_geom_angle_atom_site_label_1
_geom_angle_atom_site_label_2
_geom_angle_atom_site_label_3
_geom_angle
C20 S1 C19 101.99(17)
C1 O2 C2 111.4(2)
O1 C1 O2 120.9(3)
O1 C1 C4 130.4(3)
O2 C1 C4 108.8(3)
O2 C2 C3 103.8(2)
O2 C2 C13 107.7(2)
C3 C2 C13 116.9(3)
O2 C2 C19 107.9(3)
C3 C2 C19 112.1(3)
C13 C2 C19 108.0(2)
C8 C3 C4 119.6(3)
C8 C3 C2 132.3(3)
C4 C3 C2 108.1(3)
C5 C4 C3 122.7(3)
C5 C4 C1 129.3(3)
C3 C4 C1 108.0(3)
C4 C5 C6 119.1(3)
C4 C5 H5 120.4
C6 C5 H5 120.4
C9 C6 C5 122.3(3)
C9 C6 C7 118.8(3)
C5 C6 C7 118.9(3)
C12 C7 C8 121.9(3)
C12 C7 C6 118.3(3)
C8 C7 C6 119.8(3)
C3 C8 C7 119.9(3)
C3 C8 H8 120.1
C7 C8 H8 120.1
C10 C9 C6 121.3(4)
C10 C9 H9 119.3
C6 C9 H9 119.3
C9 C10 C11 120.0(4)
C9 C10 H10 120.0
C11 C10 H10 120.0
C12 C11 C10 121.1(4)
C12 C11 H11 119.4
C10 C11 H11 119.4
C11 C12 C7 120.5(4)
C11 C12 H12 119.7
C7 C12 H12 119.7
C18 C13 C14 118.7(3)
C18 C13 C2 119.5(3)
C14 C13 C2 121.8(3)
C13 C14 C15 120.1(3)
C13 C14 H14 120.0
C15 C14 H14 120.0
C16 C15 C14 120.7(4)
C16 C15 H15 119.6
C14 C15 H15 119.6
C17 C16 C15 119.4(4)
C17 C16 H16 120.3
C15 C16 H16 120.3
C16 C17 C18 120.5(4)
C16 C17 H17 119.7
C18 C17 H17 119.7
C17 C18 C13 120.7(4)
C17 C18 H18 119.7
C13 C18 H18 119.7
C2 C19 S1 114.8(2)
C2 C19 H19A 108.6
S1 C19 H19A 108.6
C2 C19 H19B 108.6
S1 C19 H19B 108.6
H19A C19 H19B 107.5
F3' C20 F1' 115.6(7)
F2 C20 F1 102.9(6)
F3' C20 F2' 106.8(6)
F1' C20 F2' 104.2(7)
F2 C20 F3 102.3(6)
F1 C20 F3 106.0(6)
F3' C20 S1 106.7(5)
F1' C20 S1 114.4(5)
F2 C20 S1 109.9(5)
F1 C20 S1 118.2(4)
F2' C20 S1 108.7(5)
F3 C20 S1 115.7(4)
loop_
_geom_bond_atom_site_label_1
_geom_bond_atom_site_label_2
_geom_bond_distance
S1 C20 1.772(4)
S1 C19 1.805(3)
O1 C1 1.195(4)
O2 C1 1.360(4)
O2 C2 1.452(4)
C1 C4 1.461(5)
C2 C3 1.511(4)
C2 C13 1.523(4)
C2 C19 1.532(5)
C3 C8 1.356(4)
C3 C4 1.405(4)
C4 C5 1.353(4)
C5 C6 1.402(5)
C5 H5 0.9300
C6 C9 1.401(4)
C6 C7 1.427(5)
C7 C12 1.408(5)
C7 C8 1.408(4)
C8 H8 0.9300
C9 C10 1.351(5)
C9 H9 0.9300
C10 C11 1.392(6)
C10 H10 0.9300
C11 C12 1.358(5)
C11 H11 0.9300
C12 H12 0.9300
C13 C18 1.373(5)
C13 C14 1.376(4)
C14 C15 1.380(5)
C14 H14 0.9300
C15 C16 1.361(5)
C15 H15 0.9300
C16 C17 1.360(6)
C16 H16 0.9300
C17 C18 1.373(5)
C17 H17 0.9300
C18 H18 0.9300
C19 H19A 0.9700
C19 H19B 0.9700
C20 F3' 1.272(9)
C20 F1' 1.279(11)
C20 F2 1.297(9)
C20 F1 1.301(7)
C20 F2' 1.308(9)
C20 F3 1.345(8)
loop_
_geom_hbond_atom_site_label_D
_geom_hbond_atom_site_label_H
_geom_hbond_atom_site_label_A
_geom_hbond_distance_DH
_geom_hbond_distance_HA
_geom_hbond_distance_DA
_geom_hbond_angle_DHA
C19 H19B F1' 0.97 2.27 2.820(11) 115.3
C19 H19B F1' 0.97 2.27 2.820(11) 115.3
C19 H19B F1' 0.97 2.27 2.820(11) 115.3
C19 H19B F1' 0.97 2.27 2.820(11) 115.3
C19 H19B F1' 0.97 2.27 2.820(11) 115.3
C19 H19B F1' 0.97 2.27 2.820(11) 115.3
C19 H19B F1' 0.97 2.27 2.820(11) 115.3
loop_
_geom_torsion_atom_site_label_1
_geom_torsion_atom_site_label_2
_geom_torsion_atom_site_label_3
_geom_torsion_atom_site_label_4
_geom_torsion
C2 O2 C1 O1 179.9(3)
C2 O2 C1 C4 -0.5(4)
C1 O2 C2 C3 0.7(3)
C1 O2 C2 C13 -123.9(3)
C1 O2 C2 C19 119.7(3)
O2 C2 C3 C8 177.0(3)
C13 C2 C3 C8 -64.6(5)
C19 C2 C3 C8 60.8(5)
O2 C2 C3 C4 -0.5(3)
C13 C2 C3 C4 117.9(3)
C19 C2 C3 C4 -116.7(3)
C8 C3 C4 C5 0.3(5)
C2 C3 C4 C5 178.2(3)
C8 C3 C4 C1 -177.7(3)
C2 C3 C4 C1 0.2(4)
O1 C1 C4 C5 1.9(7)
O2 C1 C4 C5 -177.6(3)
O1 C1 C4 C3 179.7(4)
O2 C1 C4 C3 0.2(4)
C3 C4 C5 C6 -0.3(5)
C1 C4 C5 C6 177.2(3)
C4 C5 C6 C9 -178.4(3)
C4 C5 C6 C7 1.0(5)
C9 C6 C7 C12 -0.7(5)
C5 C6 C7 C12 179.8(3)
C9 C6 C7 C8 177.8(3)
C5 C6 C7 C8 -1.6(5)
C4 C3 C8 C7 -0.9(5)
C2 C3 C8 C7 -178.2(3)
C12 C7 C8 C3 -179.9(3)
C6 C7 C8 C3 1.6(5)
C5 C6 C9 C10 179.2(4)
C7 C6 C9 C10 -0.2(5)
C6 C9 C10 C11 1.3(6)
C9 C10 C11 C12 -1.5(7)
C10 C11 C12 C7 0.5(7)
C8 C7 C12 C11 -177.9(4)
C6 C7 C12 C11 0.6(5)
O2 C2 C13 C18 -31.8(4)
C3 C2 C13 C18 -148.1(3)
C19 C2 C13 C18 84.5(4)
O2 C2 C13 C14 151.5(3)
C3 C2 C13 C14 35.2(4)
C19 C2 C13 C14 -92.2(4)
C18 C13 C14 C15 -0.2(5)
C2 C13 C14 C15 176.6(3)
C13 C14 C15 C16 0.0(6)
C14 C15 C16 C17 0.6(6)
C15 C16 C17 C18 -1.0(6)
C16 C17 C18 C13 0.8(6)
C14 C13 C18 C17 -0.2(6)
C2 C13 C18 C17 -177.0(3)
O2 C2 C19 S1 -55.5(3)
C3 C2 C19 S1 58.2(3)
C13 C2 C19 S1 -171.6(2)
C20 S1 C19 C2 98.1(3)
C19 S1 C20 F3' -102.5(5)
C19 S1 C20 F1' 26.6(6)
C19 S1 C20 F2 103.5(5)
C19 S1 C20 F1 -14.1(5)
C19 S1 C20 F2' 142.6(5)
C19 S1 C20 F3 -141.3(5)
