#------------------------------------------------------------------------------
#$Date: 2015-12-06 07:32:31 +0200 (Sun, 06 Dec 2015) $
#$Revision: 170764 $
#$URL: svn://www.crystallography.net/cod/cif/1/54/06/1540616.cif $
#------------------------------------------------------------------------------
#
# This file is available in the Crystallography Open Database (COD),
# http://www.crystallography.net/
#
# All data on this site have been placed in the public domain by the
# contributors.
#
data_1540616
loop_
_publ_author_name
'Wagner, Frederic'
'Harms, Klaus'
'Koert, Ulrich'
_publ_section_title
;
 Hauser-Heck: Efficient Synthesis of \g-Aryl-\b-ketoesters en Route to
 Substituted Naphthalenes.
;
_journal_issue                   22
_journal_name_full               'Organic letters'
_journal_page_first              5670
_journal_page_last               5673
_journal_paper_doi               10.1021/acs.orglett.5b02952
_journal_volume                  17
_journal_year                    2015
_chemical_formula_moiety         'C15 H16 O5'
_chemical_formula_sum            'C15 H16 O5'
_chemical_formula_weight         276.28
_chemical_name_common            FWHA041b
_space_group_crystal_system      triclinic
_space_group_IT_number           2
_space_group_name_Hall           '-P 1'
_space_group_name_H-M_alt        'P -1'
_symmetry_space_group_name_Hall  '-P 1'
_symmetry_space_group_name_H-M   'P -1'
_atom_sites_solution_hydrogens   mixed
_atom_sites_solution_primary     direct
_atom_sites_solution_secondary   difmap
_audit_creation_method           SHELXL-2014/7
_cell_angle_alpha                93.039(2)
_cell_angle_beta                 104.730(2)
_cell_angle_gamma                106.745(2)
_cell_formula_units_Z            2
_cell_length_a                   7.9292(4)
_cell_length_b                   8.4053(4)
_cell_length_c                   10.7094(5)
_cell_measurement_reflns_used    7780
_cell_measurement_temperature    100(2)
_cell_measurement_theta_max      27.4869
_cell_measurement_theta_min      2.5543
_cell_volume                     654.85(6)
_computing_cell_refinement       'BRUKER SAINT'
_computing_data_collection       'BRUKER APEX2 2014.9-0'
_computing_data_reduction        'SAINT V8.34A (Bruker AXS Inc., 2013)'
_computing_molecular_graphics    'DIAMOND (Crystal Impact)'
_computing_structure_refinement  'SHELXL-2014/7 (Sheldrick, 2014)'
_computing_structure_solution    'XT V2014/1 (Bruker AXS Inc., 2014)'
_diffrn_ambient_temperature      100(2)
_diffrn_detector_area_resol_mean 7.9
_diffrn_measured_fraction_theta_full 0.999
_diffrn_measured_fraction_theta_max 0.998
_diffrn_measurement_device_type  'Bruker D8 QUEST area detector'
_diffrn_measurement_method       '\w and \f scans'
_diffrn_radiation_type           MoK\a
_diffrn_radiation_wavelength     0.71073
_diffrn_reflns_av_R_equivalents  0.0224
_diffrn_reflns_av_unetI/netI     0.0182
_diffrn_reflns_laue_measured_fraction_full 0.999
_diffrn_reflns_laue_measured_fraction_max 0.998
_diffrn_reflns_limit_h_max       9
_diffrn_reflns_limit_h_min       -10
_diffrn_reflns_limit_k_max       10
_diffrn_reflns_limit_k_min       -10
_diffrn_reflns_limit_l_max       13
_diffrn_reflns_limit_l_min       -13
_diffrn_reflns_number            14228
_diffrn_reflns_point_group_measured_fraction_full 0.999
_diffrn_reflns_point_group_measured_fraction_max 0.998
_diffrn_reflns_theta_full        25.242
_diffrn_reflns_theta_max         27.530
_diffrn_reflns_theta_min         2.554
_diffrn_source                   'microfocus sealed X-ray tube'
_exptl_absorpt_coefficient_mu    0.105
_exptl_absorpt_correction_T_max  0.99
_exptl_absorpt_correction_T_min  0.93
_exptl_absorpt_correction_type   multi-scan
_exptl_absorpt_process_details   'SADABS V2014/5 (Bruker AXS Inc.)'
_exptl_crystal_colour            colourless
_exptl_crystal_density_diffrn    1.401
_exptl_crystal_density_method    'not measured'
_exptl_crystal_description       nugget
_exptl_crystal_F_000             292
_exptl_crystal_size_max          0.43
_exptl_crystal_size_mid          0.24
_exptl_crystal_size_min          0.11
_refine_diff_density_max         0.375
_refine_diff_density_min         -0.215
_refine_diff_density_rms         0.044
_refine_ls_extinction_method     none
_refine_ls_goodness_of_fit_ref   1.038
_refine_ls_hydrogen_treatment    mixed
_refine_ls_matrix_type           full
_refine_ls_number_parameters     188
_refine_ls_number_reflns         3010
_refine_ls_number_restraints     0
_refine_ls_restrained_S_all      1.038
_refine_ls_R_factor_all          0.0442
_refine_ls_R_factor_gt           0.0353
_refine_ls_shift/su_max          0.000
_refine_ls_shift/su_mean         0.000
_refine_ls_structure_factor_coef Fsqd
_refine_ls_weighting_details
'w=1/[\s^2^(Fo^2^)+(0.0560P)^2^+0.1765P] where P=(Fo^2^+2Fc^2^)/3'
_refine_ls_weighting_scheme      calc
_refine_ls_wR_factor_gt          0.0954
_refine_ls_wR_factor_ref         0.1016
_reflns_Friedel_coverage         0.000
_reflns_number_gt                2563
_reflns_number_total             3010
_reflns_threshold_expression     'I > 2\s(I)'
_cod_data_source_file            ol5b02952_si_001.cif
_cod_data_source_block           39
_cod_database_code               1540616
_shelx_shelxl_version_number     2014/7
_shelx_space_group_comment
; 
The symmetry employed for this shelxl refinement is uniquely defined 
by the following loop, which should always be used as a source of 
symmetry information in preference to the above space-group names. 
They are only intended as comments. 
;
_shelx_estimated_absorpt_t_min   0.956
_shelx_estimated_absorpt_t_max   0.989
_shelx_res_file
; 
  
    FWHA041b_0m.res created by SHELXL-2014/7 
  
  
TITL FWHA041b_0m_a.res in P-1 
REM Old TITL FWHA041b_0m in P-1 
  
REM SHELXT solution in P-1 
REM R1 0.113,  Rweak 0.003,  Alpha 0.072,  Orientation as input 
REM Formula found by SHELXT:  C15 O5 
  
CELL  0.71073   7.9292    8.4053   10.7094   93.039  104.730  106.745 
ZERR    2.000   0.0004    0.0004    0.0005    0.002    0.002    0.002 
LATT  1 
SFAC C H O 
UNIT 30 32 10 
TEMP -173.150 
L.S. 10 
BOND $H 
conf 
LIST 4 
acta 
FMAP 2 
PLAN 10 
htab 
HTAB O3 O1' 
temp -173.15 
size .11 .24 .43 
REM ##### 
REM ##### 
WGHT    0.056000    0.176500 
FVAR       1.04998 
C1    1    0.252250    0.584913    0.588875    11.00000    0.01152    0.01130 = 
         0.01203    0.00053    0.00267    0.00386 
AFIX  43 
H1    2    0.294149    0.696461    0.632449    11.00000   -1.20000 
AFIX   0 
C2    1    0.155743    0.456781    0.643734    11.00000    0.01199    0.01398 = 
         0.01177    0.00232    0.00500    0.00473 
O3    3   -0.009211    0.160097    0.626175    11.00000    0.02661    0.01138 = 
         0.02116    0.00145    0.01563    0.00084 
H3    2   -0.014101    0.206642    0.702419    11.00000    0.05332 
C3    1    0.090260    0.289765    0.577207    11.00000    0.01211    0.01122 = 
         0.01598    0.00378    0.00614    0.00278 
C4    1    0.125401    0.256357    0.460983    11.00000    0.01401    0.01016 = 
         0.01513    0.00005    0.00478    0.00315 
AFIX  43 
H4    2    0.080818    0.144784    0.417178    11.00000   -1.20000 
AFIX   0 
C5    1    0.271098    0.354552    0.288143    11.00000    0.01307    0.01195 = 
         0.01193    0.00022    0.00323    0.00452 
AFIX  43 
H5    2    0.230433    0.243192    0.244376    11.00000   -1.20000 
AFIX   0 
O6    3    0.422393    0.464623    0.126265    11.00000    0.02178    0.01296 = 
         0.01138    0.00084    0.00952    0.00421 
C6    1    0.371180    0.482443    0.237060    11.00000    0.01299    0.01510 = 
         0.00951    0.00161    0.00339    0.00560 
O7    3    0.527925    0.767824    0.238750    11.00000    0.02342    0.01203 = 
         0.01353    0.00194    0.00996    0.00221 
C7    1    0.431243    0.651825    0.300620    11.00000    0.01314    0.01267 = 
         0.01232    0.00387    0.00430    0.00361 
C8    1    0.391172    0.685334    0.414089    11.00000    0.01355    0.00990 = 
         0.01313    0.00042    0.00333    0.00299 
AFIX  43 
H8    2    0.431361    0.797534    0.456131    11.00000   -1.20000 
AFIX   0 
C9    1    0.289883    0.553921    0.469916    11.00000    0.01084    0.01293 = 
         0.01111    0.00216    0.00361    0.00421 
C10   1    0.227164    0.386484    0.406250    11.00000    0.01002    0.01249 = 
         0.01194    0.00162    0.00282    0.00459 
C11   1    0.369543    0.297610    0.060002    11.00000    0.02005    0.01440 = 
         0.01432   -0.00100    0.00769    0.00504 
AFIX 137 
H11A  2    0.413526    0.300460   -0.017743    11.00000   -1.50000 
H11B  2    0.235467    0.250027    0.034152    11.00000   -1.50000 
H11C  2    0.423498    0.228141    0.118288    11.00000   -1.50000 
AFIX   0 
C12   1    0.593520    0.937446    0.300868    11.00000    0.02613    0.01158 = 
         0.01852    0.00241    0.01023    0.00154 
AFIX 137 
H12A  2    0.661647    1.009483    0.249411    11.00000   -1.50000 
H12B  2    0.674672    0.944795    0.388374    11.00000   -1.50000 
H12C  2    0.489225    0.974390    0.307421    11.00000   -1.50000 
AFIX   0 
C1'   1    0.119712    0.488367    0.769922    11.00000    0.01242    0.01365 = 
         0.01245    0.00203    0.00362    0.00428 
O1'   3    0.038984    0.377501    0.823236    11.00000    0.02209    0.01469 = 
         0.01587    0.00311    0.01075    0.00281 
C2'   1    0.147747    0.681831    0.946970    11.00000    0.01757    0.01600 = 
         0.01061    0.00090    0.00737    0.00434 
AFIX  23 
H2'A  2    0.220046    0.633459    1.015157    11.00000   -1.20000 
H2'B  2    0.015918    0.630548    0.939736    11.00000   -1.20000 
AFIX   0 
O2'   3    0.183171    0.649297    0.822229    11.00000    0.01601    0.01324 = 
         0.01106    0.00052    0.00718    0.00242 
C3'   1    0.203119    0.869107    0.981396    11.00000    0.02666    0.01792 = 
         0.02035   -0.00203    0.01201    0.00239 
AFIX 137 
H3'A  2    0.179629    0.895532    1.064354    11.00000   -1.50000 
H3'B  2    0.131645    0.915583    0.912749    11.00000   -1.50000 
H3'C  2    0.334143    0.918170    0.989505    11.00000   -1.50000 
REM ##### 
AFIX   0 
HKLF 4 
  
REM  FWHA041b_0m_a.res in P-1 
REM R1 =  0.0353 for    2563 Fo > 4sig(Fo)  and  0.0442 for all    3010 data 
REM    188 parameters refined using      0 restraints 
  
END 
  
WGHT      0.0560      0.1765 
  
REM Instructions for potential hydrogen bonds 
HTAB O3 O1' 
EQIV $1 -x, -y, -z+1 
HTAB C4 O3_$1 
EQIV $2 -x+1, -y+1, -z 
HTAB C11 O6_$2 
HTAB C11 O7_$2 
EQIV $3 x, y, z+1 
HTAB C2' O6_$3 
  
REM Highest difference peak  0.375,  deepest hole -0.215,  1-sigma level  0.044 
Q1    1   0.1344  0.4669  0.6999  11.00000  0.05    0.38 
Q2    1   0.3410  0.6162  0.4381  11.00000  0.05    0.32 
Q3    1   0.2636  0.5631  0.5229  11.00000  0.05    0.32 
Q4    1   0.2626  0.3731  0.3554  11.00000  0.05    0.31 
Q5    1   0.1328  0.3741  0.6180  11.00000  0.05    0.29 
Q6    1   0.1902  0.3200  0.4372  11.00000  0.05    0.28 
Q7    1   0.3176  0.4247  0.2614  11.00000  0.05    0.26 
Q8    1   0.3858  0.5691  0.2653  11.00000  0.05    0.26 
Q9    1   0.1069  0.2755  0.5194  11.00000  0.05    0.26 
Q10   1   0.4205  0.6641  0.3592  11.00000  0.05    0.25 
;
_shelx_res_checksum              88344
_shelx_hkl_file
; 
  -1   0   0 2.09635 0.28998   4 
  -1   0   0 2.60557 0.35334   2 
  -1   0   0 2.52890 0.34671   1 
   1   0   0 1.87149 0.31503   4 
   1   0   0 2.23481 0.36432   2 
   1   0   0 2.63093 0.36176   1 
  -2   0   0 1.16032 0.49059   1 
  -2   0   0 0.25995 0.49661   2 
  -2   0   0 0.43420 0.39782   4 
   2   0   0 0.70397 0.52241   1 
   2   0   0 0.07275 0.49467   2 
   2   0   0 0.08837 0.50058   4 
  -3   0   0 148.697 3.39117   4 
  -3   0   0 151.826 3.61813   1 
  -3   0   0 150.738 3.72113   2 
   3   0   0 151.460 3.63862   4 
   3   0   0 152.260 3.66608   1 
   3   0   0 151.005 3.70112   2 
  -4   0   0 41.6514 1.69934   4 
  -4   0   0 45.2082 2.11848   2 
  -4   0   0 45.3173 1.91722   1 
   4   0   0 43.6967 2.08100   1 
   4   0   0 41.9011 2.06036   4 
  -5   0   0 362.205 8.01339   1 
  -5   0   0 373.612 8.38174   2 
  -5   0   0 375.895 7.68943   4 
   5   0   0 375.770 8.25856   4 
  -6   0   0 40.6646 2.14642   4 
  -6   0   0 39.5439 2.44810   1 
  -6   0   0 38.3993 2.91046   2 
   6   0   0 38.7669 2.96161   4 
  -7   0   0 122.579 5.13294   2 
  -7   0   0 123.203 4.28971   1 
  -7   0   0 128.003 3.93126   4 
   7   0   0 127.894 5.08826   4 
  -8   0   0 65.2131 3.63962   1 
  -8   0   0 71.0424 3.39459   4 
  -9   0   0 11.0494 2.32356   1 
  -9   1   0 116.665 4.44410   4 
  -9   1   0 118.718 5.25860   1 
  -8   1   0 126.410 6.22684   2 
  -8   1   0 128.424 4.90990   1 
  -8   1   0 123.008 4.06894   4 
  -7   1   0 183.245 5.52798   1 
  -7   1   0 182.543 4.69890   4 
  -7   1   0 177.008 5.84307   2 
   6  -1   0 12.9255 1.87810   4 
  -6   1   0 13.1039 1.47884   4 
  -6   1   0 11.1468 1.81676   2 
  -6   1   0 12.3373 1.71127   1 
   5  -1   0 69.6878 2.75914   4 
   5  -1   0 68.5351 2.77832   2 
  -5   1   0 71.4904 2.82361   2 
  -5   1   0 70.4818 2.84230   1 
  -5   1   0 68.9968 2.26026   4 
   4  -1   0 623.259 12.3553   2 
   4  -1   0 638.823 12.2229   4 
  -4   1   0 640.221 12.4146   2 
  -4   1   0 633.025 11.8037   3 
  -4   1   0 638.543 11.9077   4 
   3  -1   0 705.542 13.3611   2 
   3  -1   0 717.731 13.2050   4 
  -3   1   0 708.272 13.0216   4 
  -3   1   0 710.358 13.3691   2 
  -3   1   0 718.693 13.5387   1 
   2  -1   0 491.809 9.24558   2 
   2  -1   0 491.741 9.18403   3 
  -2   1   0 503.273 9.05784   4 
  -2   1   0 502.318 9.47462   1 
  -2   1   0 487.964 9.11652   3 
  -2   1   0 495.692 9.24538   2 
   1  -1   0 2.14178 0.58614   3 
   1  -1   0 1.66287 0.43826   2 
  -1   1   0 2.09366 0.42901   3 
  -1   1   0 1.10401 0.44219   2 
   0  -1   0 8080.71 137.718   1 
   0  -1   0 7887.68 137.686   4 
   0  -1   0 7737.69 137.819   3 
   0   1   0 7967.17 137.693   2 
   0   1   0 7662.31 137.647   3 
   0   1   0 7755.29 137.700   4 
  -1  -1   0 14.6582 0.83747   4 
   1   1   0 16.2376 0.70926   1 
   1   1   0 12.7788 0.83612   4 
  -2  -1   0 486.686 9.24549   2 
  -2  -1   0 482.049 8.86723   1 
  -2  -1   0 471.354 8.99704   4 
   2   1   0 473.187 9.13805   4 
   2   1   0 481.205 8.92828   1 
  -3  -1   0 136.642 3.33355   4 
  -3  -1   0 140.577 3.26133   1 
  -3  -1   0 138.431 3.67221   2 
   3   1   0 137.424 3.37569   1 
   3   1   0 142.286 3.61883   4 
  -4  -1   0 31.9157 1.57261   1 
  -4  -1   0 29.0960 2.28852   2 
  -4  -1   0 30.9050 1.60670   4 
   4   1   0 31.3723 2.00268   4 
   4   1   0 31.9843 1.86656   1 
  -5  -1   0 87.8872 2.87711   4 
  -5  -1   0 87.3060 2.87634   1 
  -5  -1   0 85.0551 3.48136   2 
   5   1   0 87.7773 3.23758   1 
   5   1   0 85.0832 3.50386   4 
  -6  -1   0 170.761 4.67609   1 
  -6  -1   0 172.771 5.54267   2 
  -6  -1   0 168.507 4.60258   4 
   6   1   0 174.343 5.51182   4 
  -7  -1   0 0.51772 1.43597   4 
  -7  -1   0 -0.2154 2.02893   2 
  -7  -1   0 -0.0361 1.29245   1 
   7   1   0 1.56968 2.23591   4 
  -8  -1   0 11.4029 2.11396   4 
  -8  -1   0 17.4391 2.18026   1 
   8   1   0 14.5985 3.24651   4 
  -9  -1   0 4.33144 2.04747   1 
   9   1   0 3.68190 3.74382   4 
  -9   2   0 43.6834 4.23600   1 
  -9   2   0 50.7779 3.06535   4 
  -8   2   0 6.37390 2.14288   1 
  -8   2   0 7.36572 1.34579   4 
  -8   2   0 7.62341 2.38193   2 
  -7   2   0 27.4820 2.94240   1 
  -7   2   0 28.0418 2.97687   2 
   6  -2   0 249.348 6.37026   2 
  -6   2   0 260.721 6.71952   1 
  -6   2   0 246.777 5.48361   4 
  -6   2   0 250.610 5.49711   3 
  -6   2   0 252.668 6.43531   2 
   5  -2   0 22.2627 1.85838   2 
  -5   2   0 26.0993 1.49268   3 
  -5   2   0 22.6951 1.31097   4 
  -5   2   0 24.6903 2.16878   1 
  -5   2   0 23.7644 1.87794   2 
   4  -2   0 543.210 10.7638   2 
  -4   2   0 543.520 10.4238   3 
  -4   2   0 552.144 10.7889   2 
  -4   2   0 555.246 11.2122   1 
   3  -2   0 89.8385 2.43185   2 
   3  -2   0 89.0680 2.52825   3 
  -3   2   0 88.6638 2.81115   1 
  -3   2   0 88.9324 2.34587   3 
  -3   2   0 87.9501 2.38670   2 
   2  -2   0 1348.47 24.1068   3 
   2  -2   0 1368.23 23.9147   2 
  -2   2   0 1322.90 23.8716   2 
  -2   2   0 1339.27 23.9960   3 
   1  -2   0 251.888 4.63320   4 
   1  -2   0 241.919 4.57691   2 
   1  -2   0 247.217 4.88496   3 
  -1   2   0 246.236 4.54534   2 
  -1   2   0 248.821 4.82912   3 
  -1   2   0 244.044 4.92316   1 
  -1   2   0 250.709 4.57374   4 
   0  -2   0 149.023 3.01761   2 
   0  -2   0 150.916 3.06218   4 
   0  -2   0 144.101 3.25455   1 
   0  -2   0 154.382 3.11449   3 
   0   2   0 155.189 3.02792   1 
   0   2   0 147.549 3.02321   2 
   0   2   0 156.943 3.10827   4 
   0   2   0 151.154 3.06794   3 
  -1  -2   0 58.6861 1.68008   4 
  -1  -2   0 59.8411 1.46736   3 
   1   2   0 56.4038 1.73813   4 
   1   2   0 58.3253 1.48579   3 
  -2  -2   0 10.9140 1.25666   2 
  -2  -2   0 11.1084 1.08620   4 
   2   2   0 11.1939 1.18856   4 
  -3  -2   0 92.8927 2.96625   2 
  -3  -2   0 91.6935 2.29546   1 
  -3  -2   0 90.7954 2.62191   4 
   3   2   0 84.1169 2.85785   4 
  -4  -2   0 67.2581 2.11898   1 
  -4  -2   0 63.6194 2.81961   2 
  -4  -2   0 67.2194 2.43761   4 
   4   2   0 66.0553 2.90624   4 
   4   2   0 64.3785 2.43811   1 
  -5  -2   0 73.1933 3.51241   2 
  -5  -2   0 74.4019 2.51860   1 
  -5  -2   0 74.7429 2.90196   4 
   5   2   0 75.7387 3.08050   1 
   5   2   0 76.0608 3.54936   4 
  -6  -2   0 11.9538 1.70619   1 
  -6  -2   0 18.5000 2.31713   4 
  -6  -2   0 15.5899 2.47830   2 
   6   2   0 16.0356 2.17506   1 
   6   2   0 13.9644 2.35531   4 
  -7  -2   0 29.4523 2.93711   4 
  -7  -2   0 29.3750 2.33866   1 
   7   2   0 30.2452 4.28314   4 
  -8  -2   0 21.0477 2.65369   1 
   8   2   0 29.1624 4.10701   4 
  -9   3   0 38.6672 4.48468   1 
  -9   3   0 50.6143 4.08457   4 
  -8   3   0 25.0495 3.31816   2 
  -8   3   0 25.1681 3.40530   3 
  -8   3   0 30.4206 3.61894   1 
   7  -3   0 20.8853 2.52826   2 
  -7   3   0 22.7540 1.87303   3 
  -7   3   0 25.4574 2.82523   1 
  -7   3   0 23.9764 2.64597   2 
   6  -3   0 15.6403 2.07760   2 
  -6   3   0 18.4748 2.03981   2 
  -6   3   0 16.9853 2.47552   1 
  -6   3   0 17.6439 1.57457   3 
   5  -3   0 2.97701 0.98729   2 
  -5   3   0 3.14254 1.23636   1 
  -5   3   0 2.82457 0.97792   2 
  -5   3   0 4.14510 0.86972   3 
   4  -3   0 38.1126 1.98705   3 
   4  -3   0 40.4934 1.81545   2 
  -4   3   0 42.2554 1.72693   3 
  -4   3   0 41.7445 1.75588   2 
  -4   3   0 40.5485 2.33140   1 
   3  -3   0 61.2441 2.21059   3 
   3  -3   0 60.5336 1.91900   2 
  -3   3   0 60.1101 1.79517   2 
  -3   3   0 59.5905 1.96875   3 
  -3   3   0 55.9980 2.43967   1 
   2  -3   0 602.267 11.5185   3 
   2  -3   0 619.121 11.1026   2 
  -2   3   0 611.012 11.3709   3 
  -2   3   0 596.815 10.9914   2 
  -2   3   0 605.809 11.6201   1 
   1  -3   0 255.631 4.93847   4 
   1  -3   0 257.994 5.26272   3 
  -1   3   0 253.044 4.77586   2 
  -1   3   0 257.161 4.90396   4 
  -1   3   0 255.701 5.14375   3 
  -1   3   0 250.521 5.19957   1 
   0  -3   0 300.444 5.96406   3 
   0  -3   0 297.697 5.90001   1 
   0  -3   0 298.221 5.88027   4 
   0  -3   0 313.803 5.78321   2 
   0   3   0 301.875 5.94819   4 
   0   3   0 297.734 5.88418   3 
   0   3   0 306.019 5.80744   1 
  -1  -3   0 50.1197 1.42990   1 
  -1  -3   0 51.8563 1.73385   4 
  -1  -3   0 49.8833 1.69786   2 
  -1  -3   0 51.9359 1.59703   3 
   1   3   0 50.1397 1.56561   3 
   1   3   0 51.5283 1.87329   4 
  -2  -3   0 29.1340 1.51994   4 
  -2  -3   0 28.9717 1.72991   2 
  -2  -3   0 29.0795 1.19519   3 
  -2  -3   0 26.6863 1.56396   2 
   2   3   0 28.9308 1.64960   4 
   2   3   0 30.7589 1.35064   3 
  -3  -3   0 110.467 4.75682   2 
  -3  -3   0 122.776 3.36474   4 
   3   3   0 121.908 3.71706   4 
  -4  -3   0 9.11136 1.32133   4 
  -4  -3   0 6.13489 1.45017   2 
   4   3   0 6.62879 1.49790   4 
  -5  -3   0 14.9658 2.32788   2 
  -5  -3   0 12.6899 1.63653   4 
   5   3   0 10.4348 2.12856   4 
  -6  -3   0 228.084 6.18868   4 
  -6  -3   0 231.619 7.31453   2 
   6   3   0 230.282 7.34868   4 
  -7  -3   0 8.85676 2.58601   2 
   7   3   0 3.15187 2.98374   4 
  -8  -3   0 116.586 6.11274   2 
   8   3   0 94.2732 7.43134   4 
  -9   4   0 2.61292 2.76271   3 
  -9   4   0 -3.3043 2.50348   1 
  -8   4   0 28.4787 2.26026   3 
  -8   4   0 32.0691 3.27410   2 
  -8   4   0 26.8738 3.75760   1 
   7  -4   0 36.7587 2.84389   2 
  -7   4   0 40.2767 2.79597   2 
  -7   4   0 37.7661 2.23815   3 
  -7   4   0 34.7458 3.82970   1 
   6  -4   0 2.22541 1.29163   2 
  -6   4   0 -0.8197 1.47584   1 
  -6   4   0 2.02514 0.98180   3 
  -6   4   0 -0.3795 1.03372   2 
   5  -4   0 110.826 3.36070   2 
  -5   4   0 113.142 3.26146   3 
  -5   4   0 108.060 4.09983   1 
  -5   4   0 110.578 3.21308   2 
   4  -4   0 15.7600 1.33091   2 
   4  -4   0 16.7190 1.77884   3 
  -4   4   0 17.1709 1.44404   3 
  -4   4   0 17.9958 2.01153   1 
  -4   4   0 17.7364 1.29165   2 
   3  -4   0 684.584 13.1271   3 
   3  -4   0 673.824 12.4953   2 
  -3   4   0 659.096 12.7657   3 
  -3   4   0 669.492 12.3556   2 
  -3   4   0 674.061 13.2095   1 
   2  -4   0 85.3163 2.13872   2 
   2  -4   0 87.3201 2.27177   4 
   2  -4   0 89.7839 2.72279   3 
  -2   4   0 85.8479 2.50031   3 
  -2   4   0 85.6238 2.67857   1 
  -2   4   0 85.8782 1.99708   2 
  -2   4   0 89.2279 2.08503   4 
   1  -4   0 1065.62 19.0738   3 
   1  -4   0 1022.85 18.6591   4 
   1  -4   0 1034.59 18.4528   2 
  -1   4   0 1027.52 18.4658   2 
  -1   4   0 1004.41 18.8207   3 
  -1   4   0 1025.36 18.8650   1 
  -1   4   0 1053.08 18.6740   4 
   0  -4   0 48.0903 1.71560   4 
   0  -4   0 49.3787 1.74917   1 
   0  -4   0 49.8937 1.87468   3 
   0  -4   0 50.6677 1.55962   2 
   0   4   0 48.2251 1.82341   4 
   0   4   0 48.8071 1.69529   3 
   0   4   0 49.7724 1.60383   1 
  -1  -4   0 392.713 7.64973   1 
  -1  -4   0 408.922 7.85670   3 
  -1  -4   0 402.067 7.95855   4 
  -1  -4   0 391.064 7.87894   2 
   1   4   0 399.770 7.58445   1 
   1   4   0 399.101 8.18425   4 
   1   4   0 394.466 7.79274   3 
  -2  -4   0 320.389 6.86802   2 
  -2  -4   0 323.440 6.42803   3 
  -2  -4   0 312.453 6.74388   4 
  -2  -4   0 320.850 7.04541   2 
   2   4   0 317.320 6.51258   3 
   2   4   0 310.616 7.09022   4 
  -3  -4   0 13.9772 1.37751   3 
  -3  -4   0 15.6452 1.69853   4 
  -3  -4   0 13.7659 1.72088   2 
  -3  -4   0 10.8744 1.43079   2 
   3   4   0 10.1579 1.56233   4 
  -4  -4   0 1632.50 30.7067   2 
  -4  -4   0 1644.80 30.4834   2 
  -4  -4   0 1610.39 30.0078   4 
   4   4   0 1618.01 30.8042   4 
  -5  -4   0 497.244 10.7941   4 
  -5  -4   0 505.796 11.7569   2 
  -5  -4   0 505.926 11.5076   2 
   5   4   0 499.055 11.8196   4 
  -6  -4   0 -0.8268 2.22935   2 
   6   4   0 -0.8078 2.63833   4 
  -7  -4   0 47.1929 4.76446   2 
   7   4   0 45.0343 5.77658   4 
  -9   5   0 -3.5066 2.70328   1 
  -9   5   0 2.76042 2.24549   2 
  -9   5   0 1.14020 1.73092   3 
  -8   5   0 9.43537 1.60459   3 
  -8   5   0 6.59891 2.65754   1 
  -8   5   0 6.51107 1.85301   2 
   7  -5   0 6.90760 1.76023   2 
  -7   5   0 6.68474 2.24529   1 
  -7   5   0 5.62725 1.38216   3 
  -7   5   0 4.44338 1.48148   2 
  -7   5   0 8.54203 2.11836   1 
   6  -5   0 2.75021 1.33554   2 
   6  -5   0 5.76583 1.83424   3 
  -6   5   0 2.92328 1.19614   3 
  -6   5   0 3.16281 1.63900   1 
  -6   5   0 3.35955 1.87172   1 
   5  -5   0 172.763 5.18742   3 
   5  -5   0 178.345 4.48173   2 
  -5   5   0 172.224 5.25853   1 
  -5   5   0 172.144 4.52296   3 
  -5   5   0 179.822 5.60783   1 
  -5   5   0 173.079 4.28497   2 
   4  -5   0 14.5185 1.45784   2 
   4  -5   0 15.0856 1.74313   3 
  -4   5   0 16.3496 1.61030   3 
  -4   5   0 15.8743 1.23386   2 
  -4   5   0 16.1120 1.86682   1 
  -4   5   0 17.7793 2.26789   1 
   3  -5   0 1337.91 23.8249   2 
   3  -5   0 1354.09 24.7602   3 
  -3   5   0 1335.79 23.6212   2 
  -3   5   0 1333.37 24.3283   3 
  -3   5   0 1258.38 25.2976   1 
   2  -5   0 16.7127 1.07612   2 
   2  -5   0 16.9292 1.95439   3 
   2  -5   0 15.8721 1.29167   4 
  -2   5   0 17.2150 0.91530   2 
  -2   5   0 16.3413 1.11889   4 
  -2   5   0 18.3476 1.52685   1 
  -2   5   0 16.8235 1.39123   3 
   1  -5   0 790.626 14.7111   4 
   1  -5   0 811.594 15.1706   3 
   1  -5   0 792.754 14.4163   2 
  -1   5   0 788.341 14.8391   1 
  -1   5   0 784.150 14.4857   2 
  -1   5   0 786.899 14.8638   3 
  -1   5   0 789.473 14.7254   4 
   0  -5   0 160.953 3.58873   2 
   0  -5   0 160.637 3.82959   4 
   0  -5   0 159.806 4.04794   3 
   0  -5   0 150.853 3.82670   1 
   0   5   0 155.308 3.94549   4 
   0   5   0 150.619 3.78396   3 
   0   5   0 159.044 3.64966   1 
  -1  -5   0 180.404 4.35971   3 
  -1  -5   0 177.173 4.22797   2 
  -1  -5   0 178.246 4.36231   4 
   1   5   0 177.303 4.23297   3 
   1   5   0 177.574 4.64837   4 
  -2  -5   0 2.31320 1.02250   3 
  -2  -5   0 2.79222 1.07293   4 
  -2  -5   0 0.87733 0.93398   2 
  -2  -5   0 1.42374 1.32889   2 
   2   5   0 2.68307 1.15866   4 
   2   5   0 2.58758 0.99457   3 
  -3  -5   0 434.906 8.58302   3 
  -3  -5   0 422.941 9.23256   2 
  -3  -5   0 417.116 9.06637   4 
  -3  -5   0 426.814 9.65661   2 
   3   5   0 412.471 8.79376   3 
   3   5   0 412.672 9.70217   4 
  -4  -5   0 2481.10 45.2329   2 
  -4  -5   0 2467.66 45.5917   2 
  -4  -5   0 2406.34 44.8293   4 
   4   5   0 2511.41 45.8857   4 
  -5  -5   0 35.2137 4.46854   2 
  -5  -5   0 45.0623 3.58864   2 
   5   5   0 44.9346 4.48680   4 
  -6  -5   0 4.67163 2.45107   2 
   6   5   0 6.00795 3.15542   4 
  -9   6   0 1.22757 2.65448   2 
  -9   6   0 3.25810 1.67143   3 
  -9   6   0 2.98136 3.14631   1 
   8  -6   0 6.03832 1.99419   2 
  -8   6   0 11.5935 3.05061   1 
  -8   6   0 4.19653 1.52168   3 
  -8   6   0 6.33364 2.11827   2 
   7  -6   0 75.5272 3.54449   2 
  -7   6   0 69.4444 3.54448   3 
  -7   6   0 71.0267 3.31701   2 
  -7   6   0 75.1616 4.39154   1 
  -7   6   0 67.8203 4.73162   1 
   6  -6   0 75.6655 3.11856   2 
   6  -6   0 68.8858 4.07592   3 
  -6   6   0 65.7730 6.68344   1 
  -6   6   0 73.6996 3.11708   3 
  -6   6   0 73.5330 2.83073   2 
  -6   6   0 75.9736 3.95391   1 
   5  -6   0 749.086 15.7313   3 
   5  -6   0 776.729 14.6307   2 
  -5   6   0 758.061 16.2060   1 
  -5   6   0 755.653 15.6805   1 
  -5   6   0 759.539 14.3254   2 
  -5   6   0 769.187 14.9809   3 
   4  -6   0 6.17406 1.62294   3 
   4  -6   0 5.36656 1.05688   2 
  -4   6   0 6.78715 1.20737   3 
  -4   6   0 5.74733 1.52892   1 
  -4   6   0 6.42395 0.86186   2 
  -4   6   0 4.66959 1.69043   1 
   3  -6   0 146.311 3.86648   4 
   3  -6   0 155.063 3.60486   2 
   3  -6   0 146.844 4.59066   3 
  -3   6   0 155.885 3.51373   4 
  -3   6   0 152.300 3.31846   2 
  -3   6   0 146.960 4.06864   3 
  -3   6   0 155.181 4.46561   1 
   2  -6   0 10.3042 1.46596   4 
   2  -6   0 11.3999 1.61208   3 
   2  -6   0 9.73410 1.14091   2 
  -2   6   0 10.8959 1.02655   2 
  -2   6   0 11.4952 1.30280   4 
  -2   6   0 9.58545 1.22426   3 
   1  -6   0 57.8716 1.89847   2 
   1  -6   0 58.6218 2.26292   4 
   1  -6   0 56.9703 2.73678   3 
  -1   6   0 57.2860 2.30509   4 
  -1   6   0 58.2522 2.30452   3 
  -1   6   0 59.2487 2.29077   1 
   0  -6   0 140.895 4.13554   3 
   0  -6   0 139.102 3.79372   4 
   0  -6   0 144.104 3.47069   2 
   0   6   0 136.373 3.79028   3 
   0   6   0 137.435 4.00993   4 
   0   6   0 138.470 3.52948   1 
  -1  -6   0 19.8518 1.96082   4 
  -1  -6   0 18.2721 2.14287   3 
  -1  -6   0 19.1383 1.69420   2 
   1   6   0 14.6496 1.76907   3 
   1   6   0 18.1037 2.09213   4 
  -2  -6   0 21.3165 2.30691   4 
  -2  -6   0 25.0232 2.24287   2 
  -2  -6   0 24.5521 2.86114   2 
  -2  -6   0 28.1453 2.41410   3 
   2   6   0 25.8946 2.21154   3 
   2   6   0 26.9666 2.78390   4 
  -3  -6   0 252.909 7.20833   2 
  -3  -6   0 268.551 6.26395   3 
  -3  -6   0 251.191 6.58783   4 
  -3  -6   0 259.105 6.59076   2 
   3   6   0 263.399 7.39407   4 
   3   6   0 258.928 6.42105   3 
  -4  -6   0 118.476 4.63221   2 
  -4  -6   0 117.334 5.71082   2 
   4   6   0 114.820 5.47175   4 
  -5  -6   0 2.02585 2.28927   2 
   5   6   0 0.11797 2.90320   4 
  -6  -6   0 2.74073 3.03867   2 
   6   6   0 7.26088 3.88800   4 
  -9   7   0 -3.0868 3.33407   1 
  -9   7   0 -3.4207 2.71405   2 
  -9   7   0 4.27621 2.05935   3 
   8  -7   0 8.56068 2.24831   2 
  -8   7   0 9.19703 2.18362   2 
  -8   7   0 6.61046 2.90589   1 
  -8   7   0 6.63539 1.77200   3 
   7  -7   0 55.4043 3.38039   2 
   7  -7   0 52.3791 4.85939   3 
  -7   7   0 59.1592 2.98450   2 
  -7   7   0 60.8962 5.01224   1 
  -7   7   0 56.1060 3.17116   3 
   6  -7   0 6.71006 1.55669   2 
   6  -7   0 10.0334 2.66158   3 
  -6   7   0 9.82676 1.67250   3 
  -6   7   0 8.49487 2.36174   1 
  -6   7   0 8.58410 1.39210   2 
  -6   7   0 7.59009 2.56270   1 
   5  -7   0 85.4618 4.43440   3 
   5  -7   0 83.6068 2.99627   2 
  -5   7   0 85.6558 4.68719   1 
  -5   7   0 81.0751 4.06542   1 
  -5   7   0 84.9119 2.57029   2 
  -5   7   0 75.3075 3.96351   3 
   4  -7   0 6.96565 1.21792   2 
   4  -7   0 6.99248 1.94725   3 
  -4   7   0 7.39081 1.29662   3 
  -4   7   0 7.53196 1.88566   1 
  -4   7   0 4.61604 1.95809   1 
  -4   7   0 6.40381 0.93078   2 
   3  -7   0 79.3271 3.04345   4 
   3  -7   0 83.5805 3.86559   3 
  -3   7   0 82.2003 2.30711   2 
  -3   7   0 83.9925 2.62828   4 
  -3   7   0 81.6376 3.45201   1 
  -3   7   0 80.4271 3.08702   3 
   2  -7   0 135.496 4.65733   3 
   2  -7   0 131.720 3.33249   2 
  -2   7   0 132.722 3.93428   3 
  -2   7   0 134.136 4.07953   1 
  -2   7   0 132.047 3.70262   4 
  -2   7   0 133.224 3.34142   2 
   1  -7   0 42.6398 2.95614   3 
   1  -7   0 42.0860 1.90929   2 
   1  -7   0 44.2106 2.47384   4 
  -1   7   0 40.8984 2.32948   3 
  -1   7   0 42.6257 2.46531   4 
  -1   7   0 40.8840 2.32695   1 
   0  -7   0 42.3484 2.05602   2 
   0  -7   0 37.8959 2.52073   4 
   0  -7   0 43.2500 2.99941   3 
   0   7   0 40.6732 2.20559   1 
   0   7   0 37.3109 2.38633   3 
   0   7   0 41.7045 2.69211   4 
  -1  -7   0 98.3417 4.07148   2 
  -1  -7   0 103.108 3.75940   4 
  -1  -7   0 105.741 3.98920   3 
  -1  -7   0 101.414 3.32330   2 
   1   7   0 95.6071 3.61898   3 
   1   7   0 98.3037 4.11561   4 
  -2  -7   0 4.12327 1.56785   2 
  -2  -7   0 1.32738 2.09965   2 
  -2  -7   0 6.02136 1.74551   4 
  -2  -7   0 1.75808 1.81422   3 
   2   7   0 3.75285 1.61165   3 
   2   7   0 4.81844 2.10163   4 
  -3  -7   0 25.0173 2.51929   3 
  -3  -7   0 27.2821 3.29810   2 
   3   7   0 25.8054 3.30059   3 
   3   7   0 28.3194 3.31447   4 
  -4  -7   0 6.29720 2.44860   2 
   4   7   0 4.97423 3.02817   4 
  -5  -7   0 -2.1352 2.90838   2 
   5   7   0 -0.4096 3.62836   4 
  -8   8   0 20.1063 2.88479   2 
  -8   8   0 12.7632 2.31661   3 
  -8   8   0 16.3538 3.86322   1 
   7  -8   0 23.8130 3.03218   2 
  -7   8   0 23.2332 2.99298   3 
  -7   8   0 26.9536 2.49145   2 
  -7   8   0 20.6674 3.75287   1 
   6  -8   0 34.2858 2.71212   2 
  -6   8   0 30.1924 2.87815   3 
  -6   8   0 31.9170 4.44195   1 
  -6   8   0 27.6416 2.05747   2 
   5  -8   0 45.3782 2.49719   2 
   5  -8   0 39.3066 4.37513   3 
  -5   8   0 44.6215 3.85408   1 
  -5   8   0 40.6752 2.92611   3 
  -5   8   0 39.8175 4.37884   1 
   4  -8   0 94.5832 4.96374   3 
  -4   8   0 82.7618 5.02909   1 
  -4   8   0 87.5031 4.16199   1 
  -4   8   0 90.1103 3.60289   3 
   3  -8   0 42.8685 3.83019   3 
   3  -8   0 38.0677 2.93594   4 
  -3   8   0 38.8057 2.62850   3 
  -3   8   0 41.0615 2.38753   4 
  -3   8   0 38.9261 1.89832   2 
  -3   8   0 35.7775 3.07774   1 
   2  -8   0 41.4792 2.08959   2 
   2  -8   0 45.4357 2.98707   4 
   2  -8   0 35.3921 3.63408   3 
  -2   8   0 43.9064 2.90198   1 
  -2   8   0 47.1726 2.72126   4 
  -2   8   0 43.5045 2.84467   3 
   1  -8   0 53.1870 3.88327   3 
   1  -8   0 52.2023 3.17648   4 
   1  -8   0 50.6370 2.31020   2 
  -1   8   0 54.9893 2.96626   1 
  -1   8   0 53.8644 3.07240   4 
   0  -8   0 9.88151 1.47887   2 
   0  -8   0 5.91038 1.85727   4 
   0  -8   0 9.60515 2.32777   3 
   0   8   0 10.1457 1.83702   3 
   0   8   0 10.2459 1.67676   1 
   0   8   0 8.90660 1.92268   4 
  -1  -8   0 64.6021 4.31805   3 
  -1  -8   0 78.8705 4.26620   2 
  -1  -8   0 74.1790 3.90891   4 
  -1  -8   0 68.4712 3.17308   2 
   1   8   0 78.0369 4.40585   4 
   1   8   0 71.4597 3.62908   3 
  -2  -8   0 20.8464 2.85409   3 
  -2  -8   0 12.7288 2.11108   2 
  -2  -8   0 14.1688 3.07644   2 
   2   8   0 16.1567 2.42533   3 
   2   8   0 17.5165 2.93641   4 
  -3  -8   0 43.5264 5.95970   2 
  -3  -8   0 53.0437 5.02343   3 
  -3  -8   0 59.1675 4.03028   2 
   3   8   0 52.2404 4.62390   3 
   3   8   0 56.4889 5.46097   4 
  -4  -8   0 26.8382 3.59814   2 
   4   8   0 32.4804 4.48641   4 
   4   8   0 29.8325 3.87363   3 
   7  -9   0 0.46997 2.07247   2 
  -7   9   0 -2.2145 1.97342   3 
  -7   9   0 1.92171 3.44766   1 
  -6   9   0 9.32528 2.18036   3 
  -6   9   0 8.00457 3.36861   1 
  -5   9   0 0.78370 2.99396   1 
  -5   9   0 1.11037 1.85600   3 
  -4   9   0 8.49491 1.81402   3 
  -4   9   0 0.75581 2.40250   1 
  -4   9   0 4.19067 2.91091   1 
   3  -9   0 40.0346 3.72831   4 
  -3   9   0 38.6073 3.68773   1 
  -3   9   0 44.7306 2.98927   4 
  -3   9   0 47.4217 3.27432   3 
   2  -9   0 37.6757 2.35889   2 
   2  -9   0 40.0451 3.75644   4 
  -2   9   0 38.9991 3.18928   3 
  -2   9   0 40.3321 3.37513   1 
  -2   9   0 45.1230 3.18126   4 
   1  -9   0 2.85154 1.43460   2 
   1  -9   0 1.88181 2.42387   4 
   1  -9   0 6.32456 2.85837   3 
  -1   9   0 4.87823 2.19956   4 
  -1   9   0 3.11092 1.88772   3 
  -1   9   0 7.08808 2.02414   1 
   0  -9   0 0.03532 2.92549   3 
   0  -9   0 0.27597 2.38233   4 
   0  -9   0 1.07001 1.61447   2 
   0  -9   0 4.43781 2.50080   2 
   0   9   0 -3.1572 1.81714   1 
   0   9   0 -1.5697 2.14768   4 
   0   9   0 1.28194 2.08537   3 
  -1  -9   0 301.730 7.39398   2 
  -1  -9   0 299.475 8.73396   2 
  -1  -9   0 286.593 8.91573   3 
   1   9   0 317.415 8.94748   4 
   1   9   0 304.827 8.10513   3 
  -2  -9   0 26.1419 2.97340   2 
  -2  -9   0 28.4456 4.11250   3 
  -2  -9   0 38.9293 4.62175   2 
   2   9   0 31.7926 4.09660   4 
   2   9   0 31.5323 3.54266   3 
  -6  10   0 58.7839 6.89583   1 
  -6  10   0 65.7671 4.30256   3 
  -5  10   0 3.36340 2.14571   3 
  -5  10   0 0.56037 3.84415   1 
   4 -10   0 8.54086 3.19894   4 
  -4  10   0 9.01182 2.09941   4 
  -4  10   0 5.37670 3.66419   1 
   3 -10   0 2.20575 2.96168   4 
  -3  10   0 7.59725 2.79320   1 
  -3  10   0 0.48577 2.09954   4 
  -3  10   0 2.16067 3.40315   1 
  -3  10   0 4.35275 2.22463   3 
   2 -10   0 2.99989 3.06354   4 
  -2  10   0 2.29600 2.24525   3 
  -2  10   0 5.26180 2.76359   1 
  -2  10   0 9.45804 2.45076   4 
   1 -10   0 226.572 5.97560   2 
  -1  10   0 247.248 7.62194   4 
  -1  10   0 237.749 7.20125   3 
  -1  10   0 228.914 6.91505   1 
   0 -10   0 81.3745 4.10899   2 
   0  10   0 91.8863 5.84694   4 
   0  10   0 78.3148 5.15154   3 
   1  10  -1 91.7720 6.49135   4 
   1  10  -1 90.5058 5.84313   3 
  -1 -10   1 86.1208 4.90323   2 
   0  10  -1 15.2869 3.17326   3 
   0  10  -1 21.0370 3.51951   4 
   0 -10   1 12.8297 2.47699   2 
  -1  10  -1 214.899 7.24149   4 
  -1  10  -1 217.787 6.51495   1 
  -1  10  -1 221.480 7.68894   1 
  -1  10  -1 220.284 7.07289   3 
   1 -10   1 200.068 7.17614   4 
   1 -10   1 211.002 5.92300   2 
  -2  10  -1 1.47697 2.14150   3 
  -2  10  -1 5.52834 2.57405   1 
   2 -10   1 1.38069 1.84069   2 
   2 -10   1 -2.9229 2.82641   4 
  -3  10  -1 9.38401 2.34103   3 
  -3  10  -1 13.2704 3.66023   1 
  -3  10  -1 12.5860 2.95481   1 
  -3  10  -1 8.05333 2.40204   4 
   3 -10   1 11.3219 2.13047   2 
   3 -10   1 8.06441 2.85156   4 
  -4  10  -1 11.9108 2.54872   3 
  -4  10  -1 14.6207 3.89385   1 
  -5  10  -1 18.1287 2.70453   3 
  -5  10  -1 19.4970 4.28819   1 
  -6  10  -1 5.81922 4.26789   1 
  -6  10  -1 7.41136 2.48034   3 
   3   9  -1 -0.5842 3.86584   4 
   2   9  -1 32.5014 4.65579   3 
   2   9  -1 35.5803 5.13953   4 
  -2  -9   1 38.0727 3.79417   2 
  -2  -9   1 33.1105 4.26352   2 
   1   9  -1 84.1104 5.28365   4 
   1   9  -1 75.1291 4.50711   3 
  -1  -9   1 65.9736 3.75874   2 
  -1  -9   1 79.2436 7.01630   3 
  -1  -9   1 75.0891 5.37436   2 
   0   9  -1 26.5199 3.50328   3 
   0   9  -1 33.9514 3.94969   4 
   0  -9   1 29.8308 3.62743   4 
   0  -9   1 35.0949 4.97388   3 
   0  -9   1 28.7559 2.80305   2 
  -1   9  -1 31.2421 3.21040   3 
  -1   9  -1 37.3962 4.30543   1 
  -1   9  -1 33.1127 3.54836   4 
  -1   9  -1 26.0378 3.18418   1 
   1  -9   1 32.0695 2.68472   2 
   1  -9   1 30.7061 3.46445   4 
  -2   9  -1 1.26727 2.05925   1 
  -2   9  -1 3.42868 2.56179   1 
  -2   9  -1 1.03039 1.76050   3 
  -2   9  -1 5.56801 1.89220   4 
   2  -9   1 2.61705 1.48789   2 
   2  -9   1 5.54606 2.07034   4 
  -3   9  -1 17.0211 2.19000   2 
  -3   9  -1 15.6221 3.41529   1 
  -3   9  -1 19.9942 2.40187   3 
  -3   9  -1 23.6071 2.79168   4 
  -3   9  -1 19.3663 2.62988   1 
   3  -9   1 18.7897 2.44317   2 
   3  -9   1 18.2191 2.31214   4 
  -4   9  -1 25.3004 2.94244   3 
  -4   9  -1 19.0205 2.09666   2 
  -4   9  -1 15.5023 2.79966   1 
  -4   9  -1 19.9535 3.37687   1 
   4  -9   1 20.0229 2.08908   2 
  -5   9  -1 36.2610 2.42083   2 
  -5   9  -1 40.2727 5.28834   1 
  -5   9  -1 45.4603 3.25637   3 
   5  -9   1 34.9114 3.07863   2 
  -6   9  -1 25.6511 4.02915   1 
  -6   9  -1 32.2511 2.57848   2 
  -6   9  -1 36.2537 3.25228   3 
   6  -9   1 34.5184 3.32152   2 
  -7   9  -1 20.6607 2.59929   3 
  -7   9  -1 14.6433 3.93510   1 
   7  -9   1 22.4000 2.83301   2 
   4   8  -1 10.3618 4.05601   3 
   4   8  -1 0.19479 3.59985   4 
  -4  -8   1 4.95652 3.71665   3 
  -4  -8   1 8.12657 2.70742   2 
   3   8  -1 7.42773 3.61253   3 
   3   8  -1 4.40606 3.17927   4 
  -3  -8   1 -0.3489 2.07334   2 
  -3  -8   1 -0.0705 2.61394   3 
  -3  -8   1 7.66727 3.47636   2 
   2   8  -1 10.5525 2.79986   4 
  -2  -8   1 7.50328 2.46020   3 
  -2  -8   1 10.8858 2.99651   2 
  -2  -8   1 9.75319 2.01669   2 
   1   8  -1 9.99731 2.40827   4 
  -1  -8   1 8.60475 1.70460   2 
  -1  -8   1 10.8578 1.98767   4 
  -1  -8   1 11.2384 2.37211   3 
   0   8  -1 5.33162 1.87052   1 
   0   8  -1 7.24734 1.96226   4 
   0  -8   1 5.84108 1.46150   2 
   0  -8   1 7.03797 1.65434   4 
   0  -8   1 4.81203 2.07043   3 
  -1   8  -1 53.3783 2.85056   1 
  -1   8  -1 45.7357 3.71804   3 
  -1   8  -1 52.1551 3.19084   4 
   1  -8   1 52.7526 2.48870   2 
   1  -8   1 53.7241 2.94339   4 
   1  -8   1 54.1697 3.76010   3 
  -2   8  -1 30.2305 3.69121   1 
  -2   8  -1 29.0969 2.53510   4 
  -2   8  -1 31.1685 2.56958   3 
  -2   8  -1 31.9287 2.14871   2 
  -2   8  -1 29.4426 2.79305   1 
   2  -8   1 37.8835 3.47822   3 
   2  -8   1 32.3061 2.13115   2 
   2  -8   1 30.4114 2.66992   4 
  -3   8  -1 14.5531 1.71496   2 
  -3   8  -1 21.3054 2.36161   1 
  -3   8  -1 20.0172 2.11979   4 
  -3   8  -1 12.8086 2.51627   1 
  -3   8  -1 18.4011 2.26311   3 
   3  -8   1 16.5708 1.99375   2 
   3  -8   1 16.9895 2.57402   3 
   3  -8   1 15.2236 1.78632   4 
  -4   8  -1 58.6688 2.36314   2 
  -4   8  -1 59.8827 4.50314   1 
  -4   8  -1 59.9432 3.99732   1 
  -4   8  -1 66.6134 3.08630   3 
   4  -8   1 65.9134 2.88188   2 
   4  -8   1 59.2965 4.42665   3 
  -5   8  -1 30.4713 2.61384   3 
  -5   8  -1 32.7741 3.86095   1 
  -5   8  -1 35.1277 4.18053   1 
  -5   8  -1 29.7676 2.12652   2 
   5  -8   1 29.4364 2.69126   2 
   5  -8   1 21.2647 3.05784   3 
  -6   8  -1 -0.6618 1.34409   2 
  -6   8  -1 -0.3079 2.63289   1 
  -6   8  -1 0.36380 1.54553   3 
  -7   8  -1 75.6526 5.78025   1 
  -7   8  -1 76.4589 3.79867   3 
  -7   8  -1 72.6333 3.52747   2 
   7  -8   1 70.6633 4.13535   2 
  -8   8  -1 1.67649 1.86503   3 
  -8   8  -1 3.04745 2.44591   2 
  -8   8  -1 2.20494 3.59399   1 
   8  -8   1 -4.6269 2.45825   2 
   5   7  -1 -2.2300 3.56396   4 
  -5  -7   1 -1.7224 2.64406   2 
   4   7  -1 11.5432 3.05033   4 
   4   7  -1 8.63439 2.72863   3 
  -4  -7   1 3.72601 2.30131   3 
  -4  -7   1 5.86281 2.31982   2 
   3   7  -1 6.02082 2.58082   4 
   3   7  -1 4.99644 2.15717   3 
  -3  -7   1 7.62402 2.69264   2 
  -3  -7   1 6.60999 2.07812   3 
   2   7  -1 229.252 6.85367   4 
   2   7  -1 222.967 6.09921   3 
  -2  -7   1 227.226 5.83866   2 
  -2  -7   1 233.593 6.12367   3 
  -2  -7   1 219.591 6.04399   4 
   1   7  -1 437.372 9.94923   4 
   1   7  -1 424.522 9.39131   3 
  -1  -7   1 419.642 9.24056   4 
  -1  -7   1 436.139 9.04996   2 
  -1  -7   1 435.757 9.51452   3 
   0   7  -1 71.7342 3.03559   3 
   0   7  -1 67.6955 3.27689   4 
   0  -7   1 74.3015 2.91426   4 
   0  -7   1 73.3811 3.48505   3 
   0  -7   1 71.1938 2.64459   2 
  -1   7  -1 89.3852 3.27946   3 
  -1   7  -1 95.6484 3.36757   4 
  -1   7  -1 95.4000 3.21502   1 
  -1   7  -1 90.6531 3.01171   2 
   1  -7   1 93.2012 3.11436   4 
   1  -7   1 91.9908 2.84867   2 
   1  -7   1 91.8894 3.75884   3 
  -2   7  -1 105.263 3.48657   3 
  -2   7  -1 103.426 3.61249   1 
  -2   7  -1 105.417 2.95840   2 
  -2   7  -1 104.497 3.21657   4 
  -2   7  -1 100.854 4.22308   1 
   2  -7   1 103.143 3.99195   3 
   2  -7   1 104.817 3.06308   2 
   2  -7   1 108.647 3.27837   4 
  -3   7  -1 18.9804 2.56425   1 
  -3   7  -1 18.3690 1.49333   2 
  -3   7  -1 20.5991 1.87462   3 
  -3   7  -1 19.4370 2.37560   1 
   3  -7   1 17.2251 1.76622   2 
   3  -7   1 22.3170 2.73688   3 
  -4   7  -1 2.43522 1.67663   1 
  -4   7  -1 1.05748 1.84442   1 
  -4   7  -1 3.21671 1.20235   3 
  -4   7  -1 2.10519 0.95468   2 
   4  -7   1 1.76842 1.73541   3 
   4  -7   1 -0.4411 1.12427   2 
  -5   7  -1 118.803 5.48673   3 
  -5   7  -1 124.207 3.49959   2 
  -5   7  -1 124.824 4.95480   1 
   5  -7   1 132.004 4.03315   2 
   5  -7   1 124.197 5.11731   3 
  -6   7  -1 4.34044 1.46769   3 
  -6   7  -1 6.27776 1.49079   2 
  -6   7  -1 6.22751 2.27514   1 
  -6   7  -1 4.14263 2.48070   1 
   6  -7   1 -1.2592 2.32941   3 
   6  -7   1 4.88040 1.67419   2 
  -7   7  -1 344.065 8.06046   2 
  -7   7  -1 351.967 10.1399   1 
  -7   7  -1 348.786 8.17226   3 
   7  -7   1 335.315 9.59819   3 
   7  -7   1 356.733 8.49307   2 
  -8   7  -1 37.9686 3.14539   3 
  -8   7  -1 26.9250 3.71765   2 
  -8   7  -1 35.2397 5.02447   1 
   8  -7   1 32.2487 3.99258   2 
  -9   7  -1 14.3799 4.15555   1 
  -9   7  -1 25.0505 3.20454   3 
   9  -7   1 23.6613 3.41920   2 
   6   6  -1 17.3100 4.24652   4 
  -6  -6   1 8.08446 3.14576   2 
   5   6  -1 12.8856 3.20941   4 
  -5  -6   1 4.73137 2.43986   2 
   4   6  -1 22.4864 2.57747   3 
   4   6  -1 28.9003 3.93201   4 
  -4  -6   1 26.9183 2.65338   3 
  -4  -6   1 20.2320 2.46228   2 
  -4  -6   1 19.5204 3.02718   2 
  -4  -6   1 20.0988 2.53660   4 
   3   6  -1 103.956 3.99759   3 
   3   6  -1 96.3352 4.58979   4 
  -3  -6   1 102.818 3.56026   3 
  -3  -6   1 103.733 3.87031   2 
  -3  -6   1 97.0891 3.88023   4 
  -3  -6   1 99.7415 4.56531   2 
   2   6  -1 3454.00 62.4362   4 
   2   6  -1 3435.36 61.6979   3 
  -2  -6   1 3407.17 61.6576   4 
  -2  -6   1 3435.20 61.6213   2 
  -2  -6   1 3535.03 61.4972   3 
   1   6  -1 478.314 9.89863   3 
   1   6  -1 464.925 10.2512   4 
  -1  -6   1 474.458 9.64012   2 
  -1  -6   1 483.299 9.80290   4 
  -1  -6   1 487.104 9.86711   3 
   0   6  -1 6.35750 1.24608   4 
   0   6  -1 8.08758 1.02846   1 
   0   6  -1 6.56319 1.18528   3 
   0  -6   1 8.01126 1.15021   4 
   0  -6   1 10.0247 1.33939   2 
   0  -6   1 9.73402 1.39862   3 
  -1   6  -1 72.4968 2.60847   3 
  -1   6  -1 67.5269 2.47995   4 
  -1   6  -1 68.7089 2.27850   2 
  -1   6  -1 71.9175 2.48927   1 
   1  -6   1 71.1707 2.26404   2 
   1  -6   1 70.9097 2.32874   4 
   1  -6   1 73.7548 2.94922   3 
  -2   6  -1 81.1279 2.98878   1 
  -2   6  -1 78.6204 2.67474   3 
  -2   6  -1 76.6754 2.24865   2 
  -2   6  -1 76.8881 2.39308   4 
   2  -6   1 73.8834 3.04613   3 
   2  -6   1 77.8024 2.41861   2 
   2  -6   1 79.3412 2.41714   4 
  -3   6  -1 513.668 10.8060   1 
  -3   6  -1 513.761 9.76012   2 
  -3   6  -1 506.681 11.1677   1 
  -3   6  -1 504.865 10.3341   3 
   3  -6   1 516.831 10.0594   2 
   3  -6   1 510.600 10.8036   3 
  -4   6  -1 0.54113 0.99032   3 
  -4   6  -1 0.32806 1.57340   1 
  -4   6  -1 1.04842 1.40433   1 
  -4   6  -1 2.07487 0.83441   2 
   4  -6   1 3.75002 1.37480   3 
   4  -6   1 -0.1075 1.00246   2 
  -5   6  -1 549.438 10.7304   2 
  -5   6  -1 528.259 11.9585   1 
  -5   6  -1 527.090 12.3132   1 
  -5   6  -1 538.151 10.9806   3 
   5  -6   1 545.270 11.0432   2 
   5  -6   1 539.298 11.7919   3 
  -6   6  -1 11.7990 1.64928   2 
  -6   6  -1 13.0608 2.50037   1 
  -6   6  -1 14.1671 1.90736   3 
   6  -6   1 13.7037 1.94718   2 
   6  -6   1 12.9511 2.31621   3 
  -7   6  -1 90.8242 5.17933   1 
  -7   6  -1 85.6906 3.74858   2 
  -7   6  -1 86.7198 3.37518   3 
   7  -6   1 83.7163 3.97275   2 
   7  -6   1 84.8130 4.60157   3 
  -8   6  -1 -0.2655 1.42138   3 
  -8   6  -1 6.99240 2.76540   1 
   8  -6   1 -0.0718 2.25092   2 
  -9   6  -1 3.80255 1.77045   3 
  -9   6  -1 6.61336 3.26979   1 
   9  -6   1 10.2072 2.86659   2 
   7   5  -1 19.4322 4.52535   4 
  -7  -5   1 8.41686 3.24329   2 
   6   5  -1 111.732 6.47936   4 
  -6  -5   1 116.004 5.36276   2 
   5   5  -1 23.0724 3.21847   4 
  -5  -5   1 24.6840 3.09280   2 
  -5  -5   1 21.7150 2.53161   2 
  -5  -5   1 39.2853 5.04119   4 
   4   5  -1 -0.5999 1.97407   4 
   4   5  -1 -1.2409 1.65845   3 
  -4  -5   1 -2.6605 1.39260   2 
  -4  -5   1 0.19834 1.54573   4 
  -4  -5   1 -0.1534 1.91206   2 
  -4  -5   1 0.00700 1.18902   3 
   3   5  -1 654.399 14.0549   4 
   3   5  -1 665.800 13.2759   3 
  -3  -5   1 667.907 13.3676   4 
  -3  -5   1 682.512 13.8828   2 
  -3  -5   1 679.752 12.8194   3 
  -3  -5   1 658.584 13.4108   2 
   2   5  -1 1540.68 28.8141   3 
   2   5  -1 1537.14 29.4176   4 
  -2  -5   1 1605.20 28.9221   4 
  -2  -5   1 1614.11 28.6083   3 
  -2  -5   1 1595.94 28.9146   2 
   1   5  -1 18.5396 1.56313   3 
   1   5  -1 18.9910 1.83729   4 
  -1  -5   1 17.0027 1.38375   2 
  -1  -5   1 18.0820 1.57844   3 
  -1  -5   1 19.5847 1.55429   4 
   0   5  -1 317.535 6.53155   2 
   0   5  -1 313.994 6.28210   1 
   0   5  -1 304.667 6.57895   3 
   0   5  -1 304.105 6.69929   4 
   0  -5   1 321.030 6.37491   2 
   0  -5   1 320.110 6.69922   3 
   0  -5   1 311.181 6.43407   4 
  -1   5  -1 348.237 6.85048   2 
  -1   5  -1 341.260 7.15763   3 
  -1   5  -1 337.413 6.99402   4 
  -1   5  -1 347.926 7.16747   1 
   1  -5   1 346.657 6.85467   2 
   1  -5   1 348.589 6.84521   4 
   1  -5   1 358.395 7.38263   3 
  -2   5  -1 76.4157 2.44963   3 
  -2   5  -1 79.0597 2.97062   1 
  -2   5  -1 75.8466 2.08462   4 
  -2   5  -1 74.9445 2.68503   1 
  -2   5  -1 75.9681 2.06159   2 
   2  -5   1 75.8201 2.23035   2 
  -3   5  -1 204.983 4.75086   3 
  -3   5  -1 201.076 5.49235   1 
  -3   5  -1 200.004 4.36406   2 
   3  -5   1 205.106 4.62196   2 
   3  -5   1 198.939 5.05053   3 
  -4   5  -1 128.900 3.58681   3 
  -4   5  -1 134.900 4.54792   1 
  -4   5  -1 133.510 3.43902   2 
   4  -5   1 138.753 3.71759   2 
   4  -5   1 134.500 4.13056   3 
  -5   5  -1 171.804 4.42376   3 
  -5   5  -1 177.618 5.65812   1 
  -5   5  -1 175.632 4.47659   2 
   5  -5   1 172.137 5.07883   3 
   5  -5   1 173.881 4.70026   2 
  -6   5  -1 1.73896 1.25966   2 
  -6   5  -1 0.38127 1.03682   3 
  -6   5  -1 -0.9339 1.80162   1 
   6  -5   1 1.20188 1.37780   2 
   6  -5   1 -0.1976 1.58998   3 
  -7   5  -1 26.0867 2.06504   3 
  -7   5  -1 30.4277 2.87336   2 
  -7   5  -1 27.2403 3.68795   1 
   7  -5   1 27.7245 2.90483   2 
  -8   5  -1 6.12543 2.47273   1 
  -8   5  -1 4.90773 2.34186   2 
  -8   5  -1 5.99606 1.41141   3 
   8  -5   1 5.46969 2.16087   2 
  -9   5  -1 15.9256 3.46005   1 
  -9   5  -1 10.0157 1.86374   3 
   7   4  -1 30.6147 4.30879   4 
  -7  -4   1 34.5244 4.28340   2 
   6   4  -1 155.842 6.68082   4 
  -6  -4   1 163.950 5.80831   2 
   5   4  -1 -1.5677 1.90565   4 
  -5  -4   1 -1.0534 1.82621   2 
  -5  -4   1 2.29718 1.56807   4 
   4   4  -1 327.706 7.33161   3 
   4   4  -1 328.376 8.25978   4 
  -4  -4   1 327.148 6.63575   3 
  -4  -4   1 323.262 7.67366   2 
  -4  -4   1 317.118 7.47470   4 
  -4  -4   1 330.316 8.03011   2 
   3   4  -1 12.2163 1.40765   3 
   3   4  -1 10.0586 1.59512   4 
  -3  -4   1 10.4665 1.26440   3 
  -3  -4   1 12.7929 1.59241   2 
  -3  -4   1 12.9317 1.71654   4 
   2   4  -1 60.8825 2.58678   4 
   2   4  -1 60.3761 2.20753   3 
  -2  -4   1 59.5790 2.70302   4 
  -2  -4   1 61.2917 1.98897   3 
  -2  -4   1 59.4600 2.21410   2 
   1   4  -1 273.981 5.77051   3 
   1   4  -1 270.718 6.04702   4 
  -1  -4   1 272.341 5.70664   2 
  -1  -4   1 269.148 5.62452   3 
  -1  -4   1 279.311 5.79328   4 
   0   4  -1 2.76090 0.70075   3 
   0   4  -1 2.64748 0.58877   1 
   0   4  -1 3.30901 0.66052   2 
   0   4  -1 2.04445 0.70844   4 
   0  -4   1 5.24877 0.83490   3 
   0  -4   1 2.76751 0.67449   4 
   0  -4   1 3.24913 0.66459   2 
  -1   4  -1 88.2466 2.16498   2 
  -1   4  -1 83.9918 2.50145   1 
  -1   4  -1 84.7756 2.38484   3 
  -1   4  -1 84.8236 2.22827   4 
   1  -4   1 88.1669 2.22962   2 
   1  -4   1 90.0777 2.54599   3 
   1  -4   1 87.3886 2.14276   4 
  -2   4  -1 115.125 2.95193   3 
  -2   4  -1 114.442 3.44408   1 
  -2   4  -1 115.424 2.68000   2 
   2  -4   1 114.565 2.82927   2 
   2  -4   1 114.291 3.12886   3 
  -3   4  -1 15.4901 1.21080   3 
  -3   4  -1 12.1787 1.78762   1 
  -3   4  -1 16.1535 1.15353   2 
   3  -4   1 16.1823 1.30199   2 
   3  -4   1 16.3934 1.48520   3 
  -4   4  -1 124.312 3.24448   3 
  -4   4  -1 117.408 4.05843   1 
  -4   4  -1 121.021 3.28317   2 
   4  -4   1 126.590 3.67036   3 
   4  -4   1 123.465 3.46776   2 
  -5   4  -1 10.1781 1.17002   3 
  -5   4  -1 11.1366 1.77816   1 
  -5   4  -1 9.15223 1.22984   2 
   5  -4   1 10.3574 1.82445   3 
   5  -4   1 10.1518 1.42325   2 
  -6   4  -1 14.8509 2.25680   1 
  -6   4  -1 14.7430 1.96182   2 
  -6   4  -1 15.0320 1.63708   3 
   6  -4   1 17.2889 2.02968   2 
  -7   4  -1 0.50238 0.97314   3 
  -7   4  -1 2.71802 1.88441   1 
  -7   4  -1 -2.3679 1.26640   2 
   7  -4   1 2.30532 1.71270   2 
  -8   4  -1 8.47485 1.31715   3 
  -8   4  -1 5.62233 2.38960   1 
  -8   4  -1 3.22111 1.96208   2 
   8  -4   1 6.55587 2.23888   2 
  -9   4  -1 14.7615 3.22746   1 
   8   3  -1 1.98779 3.92608   4 
  -8  -3   1 7.18910 2.90837   2 
   7   3  -1 10.4389 3.22140   4 
  -7  -3   1 12.2082 2.54871   2 
   6   3  -1 96.4454 4.89937   4 
  -6  -3   1 89.1202 4.73765   2 
  -6  -3   1 90.7350 3.87547   4 
  -6  -3   1 92.5845 4.20822   2 
   5   3  -1 40.5438 3.33004   4 
  -5  -3   1 43.4665 2.81044   2 
  -5  -3   1 36.8944 2.51999   4 
  -5  -3   1 39.4029 3.11766   2 
   4   3  -1 -1.7727 1.14576   4 
  -4  -3   1 0.82781 0.67090   3 
  -4  -3   1 0.66926 1.09337   2 
  -4  -3   1 -0.4917 1.13001   2 
  -4  -3   1 -0.5723 0.91602   4 
   3   3  -1 199.982 4.57977   3 
   3   3  -1 190.040 5.07339   4 
  -3  -3   1 189.680 4.74726   4 
  -3  -3   1 200.467 4.13710   3 
  -3  -3   1 186.437 4.74907   2 
   2   3  -1 70.2071 2.23118   3 
   2   3  -1 72.1377 2.58961   4 
  -2  -3   1 73.0911 1.98706   3 
  -2  -3   1 70.4076 2.30300   4 
  -2  -3   1 73.2821 2.30804   2 
   1   3  -1 11.2221 1.01832   3 
   1   3  -1 13.0323 1.06358   2 
   1   3  -1 10.2066 1.13675   4 
  -1  -3   1 10.6366 1.06808   4 
  -1  -3   1 11.3196 0.95852   2 
  -1  -3   1 12.2687 0.90106   3 
   0   3  -1 107.643 2.48680   1 
   0   3  -1 108.283 2.54748   2 
   0   3  -1 111.380 2.65115   3 
   0  -3   1 109.831 2.61841   3 
   0  -3   1 112.099 2.52998   2 
   0  -3   1 109.159 2.54878   4 
  -1   3  -1 44.5268 1.27262   2 
  -1   3  -1 40.1135 1.68583   1 
  -1   3  -1 41.5897 1.39662   3 
  -1   3  -1 40.4415 1.21241   4 
   1  -3   1 42.4751 1.49859   3 
   1  -3   1 43.3662 1.16356   4 
   1  -3   1 44.2610 1.33597   2 
  -2   3  -1 67.0954 1.83405   2 
  -2   3  -1 62.3902 2.34583   1 
   2  -3   1 66.5877 2.03185   3 
   2  -3   1 66.9662 1.90713   2 
  -3   3  -1 100.208 2.62781   3 
  -3   3  -1 103.116 2.74819   2 
  -3   3  -1 101.008 3.28178   1 
   3  -3   1 103.369 2.87499   3 
   3  -3   1 105.901 2.85633   2 
  -4   3  -1 946.217 17.1483   3 
  -4   3  -1 919.341 17.4789   2 
  -4   3  -1 936.072 18.1741   1 
   4  -3   1 925.801 17.4621   3 
   4  -3   1 934.856 17.5831   2 
  -5   3  -1 -1.4734 1.16353   1 
  -5   3  -1 1.65410 0.74410   3 
   5  -3   1 -0.0963 0.98338   2 
   5  -3   1 0.71898 0.96896   3 
  -6   3  -1 199.483 5.60359   2 
  -6   3  -1 208.827 6.12098   1 
  -6   3  -1 209.385 4.72807   3 
   6  -3   1 209.447 5.71604   2 
  -7   3  -1 15.5521 2.39788   1 
  -7   3  -1 11.9020 1.53426   3 
  -7   3  -1 13.9803 2.00972   2 
   7  -3   1 15.8543 2.24309   2 
  -8   3  -1 76.7546 4.51397   1 
  -8   3  -1 65.3818 4.23934   2 
  -9   3  -1 30.8075 4.30651   1 
   8   2  -1 39.0130 5.55403   4 
  -8  -2   1 46.7949 4.29538   2 
   7   2  -1 8.18950 2.69468   4 
  -7  -2   1 10.2798 1.89608   4 
  -7  -2   1 10.4736 2.28564   2 
  -7  -2   1 6.69351 4.02409   2 
   6   2  -1 12.2159 2.34824   4 
  -6  -2   1 13.9797 2.32089   2 
  -6  -2   1 13.8232 1.82316   4 
   5   2  -1 17.8653 2.54757   4 
  -5  -2   1 20.9147 2.44737   2 
  -5  -2   1 19.2482 1.93544   4 
   4   2  -1 321.064 7.51856   4 
  -4  -2   1 324.958 7.42300   2 
  -4  -2   1 322.543 7.00066   4 
   3   2  -1 152.347 3.71114   3 
   3   2  -1 151.332 4.12197   4 
  -3  -2   1 152.608 3.79563   4 
  -3  -2   1 153.010 3.35276   3 
  -3  -2   1 152.922 3.91216   2 
   2   2  -1 17.0711 1.38096   4 
   2   2  -1 15.4446 1.14803   3 
  -2  -2   1 17.8738 0.98362   3 
  -2  -2   1 16.7261 1.15820   2 
  -2  -2   1 16.9241 1.14927   4 
   1   2  -1 284.478 5.62329   2 
   1   2  -1 283.564 5.73302   4 
   1   2  -1 288.200 5.53201   3 
  -1  -2   1 287.757 5.56263   2 
  -1  -2   1 280.110 5.42040   3 
  -1  -2   1 271.903 5.58832   4 
   0   2  -1 579.051 10.4703   2 
   0   2  -1 583.085 10.5494   3 
   0  -2   1 576.942 10.4640   4 
   0  -2   1 568.649 10.5080   3 
   0  -2   1 583.037 10.4725   2 
  -1   2  -1 129.499 2.79569   3 
  -1   2  -1 135.082 2.78631   2 
  -1   2  -1 130.377 3.09670   1 
   1  -2   1 133.817 2.84707   3 
   1  -2   1 134.546 2.82243   2 
  -2   2  -1 7984.60 145.400   3 
  -2   2  -1 8190.46 147.048   1 
  -2   2  -1 8331.04 146.177   2 
   2  -2   1 8089.01 146.280   2 
   2  -2   1 8284.96 145.724   3 
   2  -2   1 8333.87 147.290   1 
  -3   2  -1 12.8247 0.94893   3 
  -3   2  -1 9.82300 1.43370   1 
  -3   2  -1 9.91192 1.12122   2 
   3  -2   1 12.7384 1.15294   3 
   3  -2   1 12.0469 1.50995   1 
   3  -2   1 8.93692 1.20678   2 
  -4   2  -1 288.526 6.72608   1 
  -4   2  -1 288.518 5.72567   3 
  -4   2  -1 293.126 6.38324   2 
   4  -2   1 293.711 6.77512   1 
   4  -2   1 278.441 6.02474   3 
   4  -2   1 281.990 6.39985   2 
  -5   2  -1 376.001 8.59420   1 
  -5   2  -1 379.124 8.31367   2 
   5  -2   1 371.805 8.30395   2 
  -6   2  -1 200.746 4.45409   4 
  -6   2  -1 203.178 5.83654   1 
  -6   2  -1 197.977 5.61810   2 
   6  -2   1 197.287 5.62825   2 
  -7   2  -1 12.3035 1.57669   4 
  -7   2  -1 11.8904 2.04202   1 
  -7   2  -1 10.6452 2.02816   2 
   7  -2   1 8.41393 1.96761   2 
  -8   2  -1 2.01280 1.89110   1 
  -8   2  -1 6.88712 2.63485   2 
  -8   2  -1 2.38287 1.17597   4 
  -9   2  -1 94.2783 3.78898   4 
  -9   2  -1 106.532 5.28437   1 
  -9  -1   1 -1.6319 2.63895   2 
  -9  -1   1 2.23632 2.00413   1 
   8   1  -1 3.46778 2.79040   4 
  -8  -1   1 7.13859 1.91252   4 
  -8  -1   1 3.03710 1.58241   1 
   7   1  -1 18.2199 2.76771   4 
  -7  -1   1 20.8649 2.23524   1 
  -7  -1   1 21.4564 2.77116   2 
  -7  -1   1 21.2681 2.46926   4 
   6   1  -1 159.590 5.43601   4 
  -6  -1   1 171.248 4.68769   4 
  -6  -1   1 166.191 4.45045   1 
  -6  -1   1 176.506 5.44982   2 
   5   1  -1 486.679 10.5923   4 
  -5  -1   1 498.064 10.0136   4 
  -5  -1   1 484.121 10.4931   2 
  -5  -1   1 481.789 9.75392   1 
   4   1  -1 14.2983 1.71909   4 
  -4  -1   1 16.0179 1.34147   4 
  -4  -1   1 16.1829 1.23052   1 
  -4  -1   1 17.9240 1.69678   2 
   3   1  -1 851.983 15.7179   3 
   3   1  -1 869.017 16.1753   4 
  -3  -1   1 856.776 15.9107   4 
  -3  -1   1 860.208 16.0682   2 
  -3  -1   1 849.461 15.5530   3 
  -3  -1   1 833.930 15.4819   1 
   2   1  -1 252.389 5.38144   4 
   2   1  -1 260.535 5.16015   3 
  -2  -1   1 256.819 5.03759   3 
  -2  -1   1 247.918 5.23124   4 
   1   1  -1 276.728 5.31677   2 
   1   1  -1 277.832 5.45393   4 
  -1  -1   1 273.863 5.38460   4 
  -1  -1   1 274.423 5.24178   3 
   0   1  -1 45.1917 1.07641   2 
   0   1  -1 43.6632 1.13345   3 
   0  -1   1 43.5373 1.11134   3 
   0  -1   1 45.6885 1.09347   2 
   0  -1   1 42.3584 1.10242   1 
   0  -1   1 44.2303 1.13715   4 
  -1   1  -1 3.88761 0.61495   1 
  -1   1  -1 4.31900 0.51216   3 
  -1   1  -1 4.96934 0.72622   2 
   1  -1   1 5.38475 0.70895   2 
   1  -1   1 5.35533 0.58072   3 
   1  -1   1 4.44169 0.65933   1 
  -3   1  -1 1.09002 0.45710   4 
  -3   1  -1 1.89281 0.78517   1 
  -3   1  -1 0.71091 0.67806   2 
   3  -1   1 0.91350 0.60532   4 
   3  -1   1 -0.1786 0.74513   1 
   3  -1   1 0.18418 0.63153   2 
  -4   1  -1 0.75425 0.85441   2 
  -4   1  -1 1.04057 0.86763   1 
  -4   1  -1 1.36087 0.55656   4 
   4  -1   1 1.23990 1.01426   1 
   4  -1   1 0.44758 0.81839   2 
   4  -1   1 -0.6732 0.73064   4 
  -5   1  -1 52.4910 2.59770   1 
  -5   1  -1 53.3948 1.88405   4 
  -5   1  -1 55.4032 2.70867   2 
   5  -1   1 53.3363 2.65982   2 
   5  -1   1 55.3757 2.46137   4 
  -6   1  -1 17.0696 1.56309   4 
  -6   1  -1 19.9863 2.30310   1 
  -6   1  -1 18.3138 2.54463   2 
   6  -1   1 17.0166 2.28241   4 
   6  -1   1 18.9225 2.36351   2 
  -7   1  -1 129.349 5.17188   2 
  -7   1  -1 132.989 3.73920   4 
  -7   1  -1 132.467 4.74025   1 
   7  -1   1 126.396 4.83419   4 
  -8   1  -1 49.2585 2.77199   4 
  -8   1  -1 46.9129 3.54022   1 
  -9   1  -1 31.5959 4.01813   1 
  -9   1  -1 25.4617 3.16941   4 
  -9   0   1 11.9797 2.70816   1 
  -8   0   1 43.9339 3.04275   4 
  -8   0   1 42.0244 3.10087   1 
   7   0  -1 312.193 8.37801   4 
  -7   0   1 330.061 7.71760   1 
  -7   0   1 321.331 8.37623   2 
  -7   0   1 310.131 7.32354   4 
   6   0  -1 207.618 5.96570   4 
  -6   0   1 209.837 5.90529   2 
  -6   0   1 203.837 5.35887   1 
  -6   0   1 214.442 5.24567   4 
   5   0  -1 366.647 8.35511   4 
  -5   0   1 375.241 8.31809   2 
  -5   0   1 372.378 7.97677   1 
  -5   0   1 374.425 7.86294   4 
   4   0  -1 71.1040 2.69901   4 
  -4   0   1 69.8828 2.33002   4 
  -4   0   1 70.8412 2.57280   2 
  -4   0   1 72.3668 2.40211   1 
   3   0  -1 409.124 8.29290   4 
  -3   0   1 412.405 8.00807   3 
  -3   0   1 413.495 8.19655   2 
  -3   0   1 411.107 8.03870   1 
  -3   0   1 412.931 8.12229   4 
   2   0  -1 2226.16 40.2794   3 
   2   0  -1 2227.32 40.4009   4 
  -2   0   1 2317.78 41.1495   4 
  -2   0   1 2354.19 40.6466   3 
   1   0  -1 348.561 6.41537   2 
   1   0  -1 349.465 6.56621   3 
   1   0  -1 342.972 6.33735   1 
  -1   0   1 340.775 6.31751   1 
  -1   0   1 345.441 6.55005   3 
  -1   0   1 341.797 6.39200   2 
  -1   0  -1 27.7100 0.84690   4 
  -1   0  -1 26.5621 1.26802   1 
  -1   0  -1 25.6906 1.08327   2 
   1   0   1 26.7438 1.11341   2 
   1   0   1 27.9517 0.85545   4 
   1   0   1 26.6533 1.13417   1 
  -2   0  -1 2894.84 52.5799   2 
  -2   0  -1 2977.90 53.2464   1 
  -2   0  -1 2999.59 52.5009   4 
   2   0   1 2856.64 52.0616   1 
   2   0   1 3081.81 52.8667   4 
   2   0   1 2650.59 51.3461   2 
  -3   0  -1 50.0170 1.92000   1 
  -3   0  -1 50.2293 1.60885   4 
  -3   0  -1 50.9312 2.02063   2 
   3   0   1 48.1202 1.98984   2 
   3   0   1 51.0021 1.77711   4 
   3   0   1 49.6421 2.04652   1 
  -4   0  -1 108.501 3.38669   2 
  -4   0  -1 105.711 3.19731   1 
  -4   0  -1 107.345 2.77764   4 
   4   0   1 104.635 3.35432   2 
   4   0   1 105.380 3.10666   4 
   4   0   1 111.334 3.40103   1 
  -5   0  -1 56.0957 2.13349   4 
  -5   0  -1 57.4900 2.87153   2 
  -5   0  -1 54.9921 2.54127   1 
   5   0   1 53.3440 2.65237   4 
   5   0   1 53.3925 2.72875   2 
   5   0   1 56.0101 2.89873   1 
  -6   0  -1 24.3387 2.26745   1 
  -6   0  -1 28.0791 2.85386   2 
  -6   0  -1 26.2005 1.87588   4 
   6   0   1 23.5146 2.71773   4 
   6   0   1 26.2984 3.02389   1 
  -7   0  -1 17.4647 2.50742   1 
  -7   0  -1 20.6768 2.76106   2 
  -7   0  -1 16.3119 2.06508   4 
   7   0   1 16.7921 2.45741   4 
  -8   0  -1 54.7696 4.38064   1 
  -8   0  -1 66.2789 3.29781   4 
   8   0   1 67.7159 8.12607   4 
  -9   0  -1 -1.1365 2.15535   1 
   9   0   1 -6.6658 3.37445   4 
  -9   1   1 63.5858 4.15951   1 
  -9   1   1 59.5816 3.52703   4 
  -8   1   1 32.0982 2.59629   4 
  -8   1   1 32.8115 3.77331   2 
  -8   1   1 33.9299 3.15833   1 
  -7   1   1 57.8103 2.69136   4 
  -7   1   1 58.7865 3.48513   2 
  -7   1   1 56.1259 3.23339   1 
  -6   1   1 2.84117 1.19001   3 
  -6   1   1 4.83675 1.36710   1 
  -6   1   1 2.18997 0.93086   4 
  -6   1   1 2.53143 1.28149   2 
  -6   1   1 4.28937 1.08922   3 
  -5   1   1 41.0025 2.19925   2 
  -5   1   1 40.1863 1.86557   4 
  -5   1   1 38.6060 2.07526   3 
  -5   1   1 38.7279 2.22804   1 
  -5   1   1 39.1920 1.89738   3 
  -4   1   1 1000.07 18.3103   3 
  -4   1   1 973.137 18.1259   3 
  -4   1   1 985.993 18.4902   1 
  -4   1   1 982.012 18.1816   4 
  -4   1   1 976.228 18.3587   2 
  -3   1   1 1.17093 0.68294   3 
  -3   1   1 1.45862 0.71533   1 
  -3   1   1 1.89798 0.59741   2 
  -3   1   1 2.10050 0.66907   4 
  -2   1   1 606.482 10.9643   4 
  -2   1   1 583.865 10.7417   2 
  -2   1   1 577.504 10.9087   1 
   1  -1  -1 940.487 16.8196   4 
  -1   1   1 939.791 16.7889   4 
   0  -1  -1 637.676 11.3367   3 
   0  -1  -1 637.640 11.3177   1 
   0  -1  -1 633.902 11.3472   4 
   0  -1  -1 613.190 11.2347   2 
   0   1   1 640.391 11.3187   1 
   0   1   1 605.894 11.2307   2 
   0   1   1 648.015 11.3116   3 
  -1  -1  -1 229.160 4.39770   4 
  -1  -1  -1 216.578 4.53374   2 
  -1  -1  -1 232.552 4.43016   1 
   1   1   1 223.173 4.44445   1 
   1   1   1 220.561 4.53660   2 
   1   1   1 228.600 4.41434   4 
  -2  -1  -1 89.1849 2.21900   4 
  -2  -1  -1 87.1041 2.50735   2 
  -2  -1  -1 91.4459 2.29284   1 
   2   1   1 87.6985 2.37221   1 
   2   1   1 91.0108 2.33055   4 
   2   1   1 89.8334 2.52443   2 
  -3  -1  -1 4.34367 0.76190   4 
  -3  -1  -1 4.76736 0.80343   1 
  -3  -1  -1 3.99955 0.92570   2 
   3   1   1 4.70980 0.85961   4 
   3   1   1 3.65062 0.92864   1 
   3   1   1 3.76468 0.94742   2 
  -4  -1  -1 1.34559 0.78629   4 
  -4  -1  -1 0.02522 0.77201   1 
  -4  -1  -1 -0.3426 0.97659   2 
   4   1   1 0.16586 1.02221   1 
   4   1   1 -0.7880 0.90698   4 
  -5  -1  -1 78.1301 2.87027   1 
  -5  -1  -1 81.6047 3.52719   2 
  -5  -1  -1 78.9274 2.73158   4 
   5   1   1 76.7742 3.28919   4 
   5   1   1 83.3061 3.35821   1 
  -6  -1  -1 38.3805 2.30644   4 
  -6  -1  -1 39.4292 3.33838   2 
  -6  -1  -1 41.8590 2.48690   1 
   6   1   1 41.7059 3.24638   4 
   6   1   1 44.2298 3.37039   1 
  -7  -1  -1 35.7796 4.17465   2 
  -7  -1  -1 32.1145 2.61944   4 
  -7  -1  -1 36.5795 2.73016   1 
   7   1   1 36.5242 3.92253   4 
  -8  -1  -1 24.2143 3.12477   4 
   8   1   1 22.1336 3.64226   4 
 -10   2   1 4.22711 2.73128   1 
  -9   2   1 30.7630 2.88161   4 
  -9   2   1 29.2254 3.29312   1 
  -9   2   1 32.1730 4.11200   1 
  -8   2   1 16.8700 2.58901   2 
  -8   2   1 12.7218 1.64856   4 
  -8   2   1 14.5975 2.00596   3 
  -8   2   1 16.4511 2.14792   3 
  -8   2   1 14.8147 2.38958   1 
  -7   2   1 140.793 4.85194   2 
  -7   2   1 138.859 4.91776   1 
  -7   2   1 141.610 3.95808   3 
  -7   2   1 135.697 4.61355   3 
  -7   2   1 140.920 3.98499   4 
  -6   2   1 64.1757 2.42590   4 
  -6   2   1 64.8457 2.94899   3 
  -6   2   1 61.0439 3.15311   1 
  -6   2   1 62.2343 2.91134   2 
  -6   2   1 58.4287 2.46126   3 
  -5   2   1 58.3559 2.75129   1 
  -5   2   1 64.5710 2.36650   3 
  -5   2   1 61.4469 2.23781   4 
  -5   2   1 62.1706 2.47392   2 
   4  -2  -1 43.4973 1.77878   2 
  -4   2   1 40.3667 1.85854   3 
  -4   2   1 41.7782 1.77605   2 
  -4   2   1 40.7239 1.79475   4 
   3  -2  -1 38.0806 1.38369   2 
  -3   2   1 35.2516 1.64684   3 
  -3   2   1 39.4894 1.60325   4 
  -3   2   1 38.6164 1.41128   2 
  -3   2   1 37.8113 1.65184   1 
   2  -2  -1 396.881 7.58988   4 
   2  -2  -1 395.454 7.20990   2 
   2  -2  -1 386.469 7.75050   3 
  -2   2   1 400.177 7.70275   1 
  -2   2   1 397.919 7.48504   4 
  -2   2   1 395.757 7.67817   3 
  -2   2   1 389.415 7.20859   2 
   1  -2  -1 341.386 6.59479   1 
   1  -2  -1 338.910 6.64580   3 
   1  -2  -1 342.571 6.49707   4 
  -1   2   1 337.452 6.51990   1 
  -1   2   1 343.141 6.41502   4 
  -1   2   1 342.889 6.58802   3 
   0  -2  -1 738.961 13.2510   2 
   0  -2  -1 728.872 13.3333   1 
   0  -2  -1 739.803 13.3909   3 
   0  -2  -1 737.670 13.3781   4 
   0   2   1 746.915 13.3274   1 
   0   2   1 730.029 13.3060   3 
   0   2   1 747.941 13.3569   4 
  -1  -2  -1 290.729 5.54292   3 
  -1  -2  -1 298.802 5.79074   4 
  -1  -2  -1 295.067 5.64526   1 
  -1  -2  -1 279.922 5.85473   2 
   1   2   1 298.399 5.72847   1 
   1   2   1 298.792 5.84343   4 
  -2  -2  -1 77.4638 2.06979   1 
  -2  -2  -1 78.2782 2.22298   4 
  -2  -2  -1 76.5111 2.47494   2 
   2   2   1 73.7629 2.32532   4 
   2   2   1 78.7129 2.25569   1 
  -3  -2  -1 -0.9887 0.79594   2 
  -3  -2  -1 0.76655 0.58090   1 
  -3  -2  -1 0.63840 0.64405   4 
   3   2   1 1.58181 0.80076   1 
   3   2   1 -0.2246 0.70599   4 
  -4  -2  -1 57.7975 2.85437   2 
  -4  -2  -1 55.9912 2.27865   4 
  -4  -2  -1 56.2678 2.11108   1 
   4   2   1 60.3933 2.54764   1 
   4   2   1 55.0894 2.67040   4 
  -5  -2  -1 29.8725 1.88679   1 
  -5  -2  -1 30.7317 2.93408   2 
  -5  -2  -1 33.5371 2.12109   4 
   5   2   1 31.3517 2.58437   1 
   5   2   1 26.1069 2.71537   4 
  -6  -2  -1 8.09260 2.18732   2 
  -6  -2  -1 11.6351 1.52556   1 
  -6  -2  -1 14.0065 1.74720   4 
   6   2   1 13.7334 2.40896   1 
   6   2   1 13.6895 2.36358   4 
  -7  -2  -1 47.0216 3.18311   4 
  -7  -2  -1 48.2043 2.80820   1 
   7   2   1 44.7576 4.57866   4 
   7   2   1 49.6860 4.78169   1 
  -8  -2  -1 138.516 4.83713   1 
   8   2   1 145.629 7.48438   4 
 -10   3   1 2.21794 3.55300   4 
 -10   3   1 1.62494 2.97087   1 
  -9   3   1 6.22857 1.57850   3 
  -9   3   1 7.51315 2.40761   4 
  -9   3   1 11.4383 2.78858   3 
  -9   3   1 8.55637 1.72500   4 
  -9   3   1 14.9182 2.78814   1 
  -8   3   1 8.39559 2.14219   2 
  -8   3   1 9.13288 2.31221   1 
  -8   3   1 4.37382 1.39523   3 
  -8   3   1 7.26660 1.34698   4 
  -8   3   1 5.90161 1.87151   4 
  -8   3   1 6.41689 2.07932   3 
  -8   3   1 5.36509 2.19807   1 
  -7   3   1 -0.1431 1.48127   2 
  -7   3   1 1.48027 0.95937   4 
  -7   3   1 0.73686 1.47099   4 
  -7   3   1 0.20579 1.60140   1 
  -7   3   1 0.33805 1.09748   3 
  -6   3   1 53.3083 2.62817   4 
  -6   3   1 56.7105 3.18700   1 
  -6   3   1 52.9418 2.44567   3 
  -6   3   1 54.9823 2.28794   4 
  -6   3   1 54.6577 2.62312   2 
   5  -3  -1 159.853 4.09579   2 
  -5   3   1 155.926 4.09183   2 
  -5   3   1 160.224 4.16080   3 
  -5   3   1 157.108 3.93414   4 
  -5   3   1 162.268 4.09620   4 
  -5   3   1 162.807 4.80184   1 
   4  -3  -1 11.0892 1.17489   2 
  -4   3   1 11.6973 1.42614   1 
  -4   3   1 12.5593 1.11133   2 
  -4   3   1 11.8081 1.39690   3 
  -4   3   1 9.22189 1.24428   4 
   3  -3  -1 320.609 6.54497   4 
   3  -3  -1 318.325 6.89284   3 
   3  -3  -1 320.765 6.20205   2 
  -3   3   1 322.491 6.19395   2 
  -3   3   1 325.813 6.35971   4 
  -3   3   1 322.440 6.83349   1 
  -3   3   1 319.843 6.68355   3 
   2  -3  -1 239.742 4.99147   4 
   2  -3  -1 237.579 5.26258   3 
  -2   3   1 236.735 5.10448   3 
  -2   3   1 247.806 4.80185   4 
  -2   3   1 238.440 5.15488   1 
   1  -3  -1 1281.00 22.7345   4 
   1  -3  -1 1292.37 22.9650   3 
   1  -3  -1 1256.62 22.8924   1 
  -1   3   1 1252.69 22.5784   4 
  -1   3   1 1223.17 22.7774   3 
  -1   3   1 1291.35 22.7882   1 
   0  -3  -1 3.95786 0.62121   4 
   0  -3  -1 3.84518 0.63256   1 
   0  -3  -1 5.07338 0.74946   3 
   0  -3  -1 5.14509 0.68020   2 
   0  -3  -1 4.05096 0.60466   2 
   0   3   1 5.09805 0.68513   4 
   0   3   1 4.14889 0.61935   3 
   0   3   1 4.48446 0.62712   1 
  -1  -3  -1 1361.13 24.5219   4 
  -1  -3  -1 1353.61 24.2968   1 
  -1  -3  -1 1393.94 24.3335   3 
  -1  -3  -1 1378.24 24.6259   2 
   1   3   1 1326.97 24.1746   3 
   1   3   1 1342.56 24.5852   4 
   1   3   1 1364.78 24.3618   1 
  -2  -3  -1 1.79036 0.56248   1 
  -2  -3  -1 -0.3687 0.76898   2 
  -2  -3  -1 0.55491 0.63329   4 
   2   3   1 0.77775 0.74370   4 
   2   3   1 1.37460 0.69459   1 
  -3  -3  -1 148.039 4.43031   2 
  -3  -3  -1 152.405 3.52669   1 
  -3  -3  -1 152.191 3.89325   4 
   3   3   1 151.025 3.85455   1 
   3   3   1 145.135 4.16393   4 
  -4  -3  -1 174.570 4.14105   1 
  -4  -3  -1 178.962 5.24995   2 
  -4  -3  -1 174.112 4.54676   4 
   4   3   1 169.573 4.59472   1 
   4   3   1 162.158 4.98433   4 
  -5  -3  -1 10.9713 2.25519   2 
  -5  -3  -1 13.8815 1.59904   1 
  -5  -3  -1 14.6134 2.12571   4 
   5   3   1 16.3183 2.32376   4 
   5   3   1 16.0660 2.09056   1 
  -6  -3  -1 1127.52 23.8754   2 
  -6  -3  -1 1199.19 22.2520   1 
  -6  -3  -1 1184.28 22.7655   4 
   6   3   1 1223.77 24.0137   4 
   6   3   1 1202.60 22.9853   1 
  -7  -3  -1 286.491 6.88113   1 
   7   3   1 283.034 8.53688   1 
   7   3   1 292.337 9.28207   4 
  -8  -3  -1 6.03347 1.90633   1 
   8   3   1 -1.6987 4.03226   4 
 -10   4   1 12.6020 3.44214   1 
 -10   4   1 8.27671 2.41690   3 
  -9   4   1 34.8944 4.44763   1 
  -9   4   1 29.4005 3.70276   3 
  -9   4   1 32.5951 3.87143   2 
  -9   4   1 25.1596 2.62934   3 
  -8   4   1 11.8159 2.69871   1 
  -8   4   1 14.6079 1.79451   3 
  -8   4   1 14.4235 2.20523   2 
  -8   4   1 8.71755 2.42955   1 
  -7   4   1 1.93204 1.88393   1 
  -7   4   1 -0.0190 1.17214   3 
  -7   4   1 0.55346 1.33538   2 
  -7   4   1 -0.6150 1.73166   1 
   6  -4  -1 8.44267 1.39421   2 
  -6   4   1 8.62990 1.36980   3 
  -6   4   1 8.44726 1.90872   1 
  -6   4   1 4.91776 1.59738   1 
   5  -4  -1 1.88585 0.90155   2 
  -5   4   1 1.16503 0.77297   2 
  -5   4   1 1.60500 1.12311   1 
  -5   4   1 0.99766 0.95643   3 
  -5   4   1 2.96129 1.37877   1 
   4  -4  -1 6.73272 0.87279   2 
   4  -4  -1 9.52771 1.39478   3 
  -4   4   1 7.72994 1.10482   3 
  -4   4   1 6.15729 0.82333   4 
  -4   4   1 5.09521 0.72347   2 
   3  -4  -1 557.904 10.8113   4 
   3  -4  -1 557.707 11.2809   3 
  -3   4   1 577.211 10.4732   4 
  -3   4   1 562.284 11.1812   1 
  -3   4   1 547.539 10.9646   3 
   2  -4  -1 7.25416 1.13000   3 
   2  -4  -1 8.09376 1.19247   4 
  -2   4   1 7.46967 0.94412   3 
  -2   4   1 7.63217 0.94709   1 
  -2   4   1 7.38455 0.87186   4 
   1  -4  -1 2899.41 50.6515   3 
   1  -4  -1 2862.99 50.3565   4 
   1  -4  -1 2827.29 50.5719   1 
  -1   4   1 2860.83 50.3665   1 
  -1   4   1 2833.58 50.3826   3 
  -1   4   1 2787.73 50.1830   4 
   0  -4  -1 45.6343 1.48010   2 
   0  -4  -1 44.1719 1.86667   3 
   0  -4  -1 43.3560 1.73169   4 
   0  -4  -1 46.1049 1.69876   1 
   0   4   1 43.6179 1.64373   3 
   0   4   1 41.8332 1.74086   4 
   0   4   1 45.4753 1.60864   1 
  -1  -4  -1 502.682 9.74786   2 
  -1  -4  -1 506.571 9.81348   4 
  -1  -4  -1 489.092 9.83372   2 
  -1  -4  -1 501.642 9.66669   3 
  -1  -4  -1 501.146 9.54098   1 
   1   4   1 502.304 9.47858   3 
   1   4   1 491.864 9.90836   4 
   1   4   1 498.273 9.56016   1 
  -2  -4  -1 191.010 4.87340   2 
  -2  -4  -1 191.978 4.26503   3 
  -2  -4  -1 189.224 4.59244   4 
  -2  -4  -1 189.781 4.16547   1 
   2   4   1 188.239 4.36881   1 
   2   4   1 188.843 4.84692   4 
  -3  -4  -1 109.656 3.91221   2 
  -3  -4  -1 105.169 2.83269   1 
  -3  -4  -1 107.390 3.41506   4 
   3   4   1 108.095 3.24547   1 
   3   4   1 109.218 3.77647   4 
  -4  -4  -1 3.91627 1.91276   2 
  -4  -4  -1 4.04265 1.40040   4 
  -4  -4  -1 4.14099 0.96434   1 
   4   4   1 1.33610 1.54244   4 
  -5  -4  -1 317.425 8.79925   2 
  -5  -4  -1 312.552 7.71102   4 
   5   4   1 333.163 8.73885   4 
   6   4   1 1300.89 26.3703   4 
  -7  -4  -1 15.1378 3.51360   2 
   7   4   1 9.40220 3.79971   4 
  -9   5   1 277.615 6.96582   3 
  -9   5   1 256.941 7.67821   2 
  -9   5   1 284.009 9.21886   1 
  -8   5   1 31.7702 3.96576   1 
  -8   5   1 43.1240 3.18125   2 
  -8   5   1 49.4967 4.47989   1 
  -8   5   1 45.4262 2.89783   3 
  -7   5   1 14.5034 2.37026   1 
  -7   5   1 16.4375 2.12306   2 
  -7   5   1 21.1543 2.67450   1 
  -7   5   1 16.9114 1.88361   3 
   6  -5  -1 10.7542 1.47029   2 
  -6   5   1 13.9105 1.91350   3 
  -6   5   1 9.76264 1.87763   1 
  -6   5   1 9.08965 1.26856   2 
  -6   5   1 10.1647 2.15921   1 
   5  -5  -1 211.333 4.81045   2 
   5  -5  -1 199.444 5.83465   3 
  -5   5   1 214.362 6.21809   1 
  -5   5   1 205.502 4.63983   2 
  -5   5   1 206.729 5.26132   3 
  -5   5   1 210.145 5.74060   1 
   4  -5  -1 133.115 4.30196   3 
   4  -5  -1 130.416 3.14654   2 
  -4   5   1 130.101 3.76728   3 
  -4   5   1 133.178 4.06825   1 
  -4   5   1 135.139 3.11270   4 
   3  -5  -1 1626.32 29.4094   4 
   3  -5  -1 1644.89 30.0396   3 
  -3   5   1 1601.42 29.5681   3 
  -3   5   1 1615.07 28.9185   4 
   2  -5  -1 52.2236 2.07743   4 
   2  -5  -1 41.2539 2.77879   3 
  -2   5   1 53.4103 1.79071   4 
  -2   5   1 51.3865 2.11171   3 
  -2   5   1 53.8228 2.14131   1 
   1  -5  -1 188.448 4.44164   4 
   1  -5  -1 186.098 4.76190   3 
   1  -5  -1 190.106 4.65809   1 
   1  -5  -1 190.609 3.82818   2 
  -1   5   1 189.223 4.43217   3 
  -1   5   1 187.678 4.38790   1 
  -1   5   1 192.755 4.33161   4 
   0  -5  -1 20.9409 1.50231   2 
   0  -5  -1 22.4647 1.48534   1 
   0  -5  -1 21.7330 1.24593   2 
   0  -5  -1 22.0935 1.82094   3 
   0  -5  -1 23.8256 1.94325   4 
   0   5   1 23.8122 1.39590   1 
   0   5   1 21.5651 1.43286   3 
   0   5   1 22.4881 1.60838   4 
  -1  -5  -1 61.6981 2.40243   4 
  -1  -5  -1 56.9371 2.06599   1 
  -1  -5  -1 61.0061 2.51423   2 
  -1  -5  -1 58.1919 2.19751   2 
  -1  -5  -1 62.0824 2.42311   3 
   1   5   1 59.3401 2.12514   3 
   1   5   1 59.6806 2.55696   4 
   1   5   1 59.5069 2.15248   1 
  -2  -5  -1 141.518 4.02490   2 
  -2  -5  -1 143.699 4.04994   4 
  -2  -5  -1 140.571 4.28144   2 
  -2  -5  -1 142.077 3.81052   3 
   2   5   1 135.940 4.31000   4 
   2   5   1 136.942 3.60195   3 
  -3  -5  -1 11.7567 1.57027   4 
  -3  -5  -1 11.2638 2.05274   2 
  -3  -5  -1 11.2727 1.72934   2 
   3   5   1 13.3205 1.96421   4 
  -4  -5  -1 -1.8862 2.20399   2 
  -4  -5  -1 0.07316 1.49548   4 
  -4  -5  -1 -1.9721 1.62900   2 
   4   5   1 -2.0769 1.75451   4 
  -5  -5  -1 117.627 6.24078   2 
  -5  -5  -1 125.557 5.21790   2 
   5   5   1 135.160 5.97472   4 
  -6  -5  -1 50.3159 4.89544   2 
   6   5   1 47.9346 5.60446   4 
  -9   6   1 23.7740 3.08460   3 
  -9   6   1 29.3465 4.14192   1 
  -9   6   1 23.7584 2.90681   2 
  -8   6   1 -1.8151 1.46643   3 
  -8   6   1 1.41983 1.74199   2 
  -8   6   1 1.00204 2.53896   1 
  -7   6   1 8.02830 1.55376   2 
  -7   6   1 6.26846 2.07802   1 
  -7   6   1 5.88702 2.34660   1 
   6  -6  -1 34.3365 2.21459   2 
   6  -6  -1 35.0733 3.51241   3 
  -6   6   1 32.1860 1.97736   2 
  -6   6   1 32.7926 2.48966   3 
  -6   6   1 36.6195 3.19986   1 
   5  -6  -1 100.232 2.90698   2 
   5  -6  -1 102.980 4.38972   3 
  -5   6   1 102.673 3.55712   3 
  -5   6   1 98.0178 4.01443   1 
  -5   6   1 98.4834 2.67126   2 
   4  -6  -1 28.5000 2.78926   3 
   4  -6  -1 28.6836 2.15467   4 
  -4   6   1 27.4629 1.44717   4 
  -4   6   1 28.4974 2.10638   3 
  -4   6   1 28.2205 2.38585   1 
   3  -6  -1 61.4908 3.17168   3 
   3  -6  -1 62.7255 2.63738   4 
  -3   6   1 66.5064 2.11502   4 
  -3   6   1 63.4014 2.77322   1 
  -3   6   1 65.7432 2.67218   3 
   2  -6  -1 41.5319 2.74298   3 
   2  -6  -1 44.5771 2.26681   4 
  -2   6   1 44.5714 2.23407   3 
  -2   6   1 48.1588 2.30406   1 
  -2   6   1 46.8113 1.96239   4 
   1  -6  -1 198.410 5.27904   3 
   1  -6  -1 200.921 4.91404   4 
   1  -6  -1 196.113 4.15740   2 
   1  -6  -1 195.163 5.07195   1 
  -1   6   1 199.707 4.73574   1 
  -1   6   1 191.793 4.72858   4 
  -1   6   1 200.870 4.82352   3 
   0  -6  -1 194.991 4.74431   2 
   0  -6  -1 201.109 5.26139   3 
   0  -6  -1 197.113 4.94422   1 
   0  -6  -1 200.216 4.41871   2 
   0  -6  -1 196.174 4.95857   4 
   0   6   1 199.408 4.66981   1 
   0   6   1 192.510 4.97281   4 
   0   6   1 194.988 4.71679   3 
  -1  -6  -1 65.4891 2.87444   4 
  -1  -6  -1 66.1652 2.99621   2 
  -1  -6  -1 68.0809 2.56603   2 
  -1  -6  -1 68.2252 3.04601   3 
  -1  -6  -1 66.7823 2.55265   1 
   1   6   1 62.5301 2.51333   1 
   1   6   1 65.8312 2.57643   3 
   1   6   1 64.9851 3.02154   4 
  -2  -6  -1 16.2920 2.16614   2 
  -2  -6  -1 19.5665 2.45600   3 
  -2  -6  -1 14.2224 1.75504   4 
  -2  -6  -1 12.5579 1.62712   2 
  -2  -6  -1 11.9645 1.60647   1 
   2   6   1 13.8857 1.61961   1 
   2   6   1 11.4162 1.81875   4 
   2   6   1 16.2013 1.94635   3 
  -3  -6  -1 111.731 4.28030   4 
  -3  -6  -1 102.673 4.57064   3 
  -3  -6  -1 107.072 4.79838   2 
  -3  -6  -1 110.807 4.10730   2 
   3   6   1 105.852 3.72068   3 
   3   6   1 112.903 4.74059   4 
  -4  -6  -1 11.9451 2.26869   2 
  -4  -6  -1 16.8403 3.26440   2 
   4   6   1 13.4107 2.76131   4 
  -5  -6  -1 37.9647 4.22200   2 
   5   6   1 39.6614 5.24680   4 
  -9   7   1 3.35718 3.30347   2 
  -9   7   1 1.96245 1.90150   3 
  -9   7   1 -5.4660 3.36946   1 
  -8   7   1 2.92662 2.99791   1 
  -8   7   1 2.09280 1.84207   3 
  -8   7   1 0.27480 1.78651   2 
  -7   7   1 -0.8469 1.55690   3 
  -7   7   1 0.65387 1.31115   2 
  -7   7   1 0.24913 2.52768   1 
   6  -7  -1 14.4500 1.97645   2 
   6  -7  -1 10.1276 2.75053   3 
  -6   7   1 14.9769 1.59612   2 
  -6   7   1 8.68444 2.24109   1 
  -6   7   1 14.9327 2.72568   1 
  -6   7   1 11.4202 1.84653   3 
   5  -7  -1 26.7343 3.02175   3 
  -5   7   1 34.2140 3.06626   1 
   4  -7  -1 96.8481 4.52723   3 
   4  -7  -1 102.136 3.75392   4 
  -4   7   1 100.588 3.63315   3 
  -4   7   1 104.181 2.88808   4 
  -4   7   1 106.010 3.99765   1 
   3  -7  -1 70.4481 3.21237   4 
   3  -7  -1 72.5812 3.87502   3 
  -3   7   1 71.4165 2.49561   4 
  -3   7   1 69.3399 2.97558   3 
  -3   7   1 71.1550 3.23750   1 
   2  -7  -1 136.425 4.20862   4 
   2  -7  -1 133.243 4.80544   3 
  -2   7   1 130.635 3.99617   3 
  -2   7   1 136.592 4.08539   1 
  -2   7   1 134.096 3.78016   4 
   1  -7  -1 13.0651 2.10650   3 
   1  -7  -1 12.6029 1.36825   2 
   1  -7  -1 16.2439 2.37310   4 
   1  -7  -1 14.7510 1.85337   2 
  -1   7   1 17.3316 1.87490   3 
  -1   7   1 15.6343 2.02314   4 
  -1   7   1 15.5290 1.99458   1 
   0  -7  -1 59.4410 2.86935   2 
   0  -7  -1 58.3839 3.04899   4 
   0  -7  -1 58.4773 2.25327   2 
   0  -7  -1 60.0442 3.45403   3 
   0  -7  -1 59.3636 2.84631   1 
   0   7   1 59.4881 3.01553   4 
   0   7   1 53.2704 2.60819   1 
   0   7   1 56.7546 2.70913   3 
  -1  -7  -1 79.7693 3.08959   1 
  -1  -7  -1 75.4975 3.52982   4 
  -1  -7  -1 75.1130 3.63634   2 
  -1  -7  -1 78.5017 3.86301   3 
  -1  -7  -1 76.1739 2.95389   2 
   1   7   1 76.7387 5.53264   4 
   1   7   1 66.7202 3.54211   1 
   1   7   1 75.2756 3.16757   3 
  -2  -7  -1 7.00409 1.88872   4 
  -2  -7  -1 9.31850 1.86897   2 
  -2  -7  -1 9.96634 2.26657   3 
  -2  -7  -1 7.59547 2.44217   2 
   2   7   1 11.4820 2.28258   4 
   2   7   1 12.8394 1.90710   3 
  -3  -7  -1 113.167 5.86927   2 
  -3  -7  -1 116.114 4.79440   3 
   3   7   1 118.192 4.58926   3 
   3   7   1 121.044 5.62236   4 
  -4  -7  -1 -0.7936 2.37697   2 
   4   7   1 9.05007 3.07373   4 
  -5  -7  -1 28.7994 3.64260   2 
   5   7   1 22.5494 4.53273   4 
  -8   8   1 -0.4293 1.87276   3 
  -8   8   1 0.91435 3.27593   1 
  -7   8   1 7.65547 3.20333   1 
  -7   8   1 9.83135 2.08730   3 
  -6   8   1 4.91154 1.80485   3 
  -6   8   1 2.63351 2.85950   1 
   5  -8  -1 3.00280 2.69998   3 
  -5   8   1 2.81252 1.58511   3 
  -5   8   1 1.54853 2.13520   1 
   4  -8  -1 10.5716 2.67507   3 
   4  -8  -1 11.3870 2.15576   4 
  -4   8   1 11.1477 2.13760   1 
  -4   8   1 10.8264 1.73418   3 
  -4   8   1 13.0137 1.87427   4 
   3  -8  -1 3.15006 1.78045   4 
   3  -8  -1 1.84438 2.27549   3 
  -3   8   1 1.55650 1.69873   1 
  -3   8   1 0.98043 1.41973   3 
  -3   8   1 2.45015 1.21252   4 
   2  -8  -1 1.03485 1.74146   4 
   2  -8  -1 5.07523 2.32340   3 
  -2   8   1 2.72344 1.66720   3 
  -2   8   1 2.94573 1.34328   4 
  -2   8   1 4.41043 1.62722   1 
   1  -8  -1 59.2201 2.32816   2 
   1  -8  -1 58.3955 3.67734   4 
   1  -8  -1 61.8413 2.93361   2 
   1  -8  -1 62.7627 4.20806   3 
  -1   8   1 65.5640 3.22989   4 
  -1   8   1 58.1574 3.40150   3 
  -1   8   1 62.7174 3.17789   1 
   0  -8  -1 68.4725 3.86887   4 
   0  -8  -1 59.9589 4.36344   3 
   0  -8  -1 60.8958 2.64006   2 
   0   8   1 59.5390 3.14621   1 
   0   8   1 58.1961 3.64985   4 
   0   8   1 62.5323 3.24396   3 
  -1  -8  -1 2.31998 2.04119   4 
  -1  -8  -1 -1.5102 1.48874   2 
  -1  -8  -1 -0.6965 2.30588   2 
  -1  -8  -1 -1.3321 2.53730   3 
   1   8   1 0.95967 2.06288   4 
   1   8   1 -0.8752 1.86777   1 
   1   8   1 -3.2205 1.64729   3 
  -2  -8  -1 -1.3408 2.75898   3 
  -2  -8  -1 -0.1284 1.82409   2 
  -2  -8  -1 -5.2032 3.00043   2 
   2   8   1 3.11323 2.06898   3 
   2   8   1 -1.9377 2.39857   4 
  -3  -8  -1 302.756 8.03703   2 
  -3  -8  -1 289.709 9.49949   2 
  -3  -8  -1 304.201 8.59962   3 
   3   8   1 298.220 9.35245   4 
   3   8   1 285.394 8.04836   3 
  -8   9   1 40.2395 4.00377   3 
  -8   9   1 52.4191 6.86569   1 
  -7   9   1 6.16174 3.83678   1 
  -7   9   1 1.67843 2.03801   3 
  -6   9   1 13.4710 2.28558   3 
  -6   9   1 12.9535 3.65994   1 
  -5   9   1 55.1690 5.44243   1 
  -5   9   1 57.5082 3.60070   3 
   4  -9  -1 123.123 5.38127   4 
  -4   9   1 134.385 4.07169   4 
  -4   9   1 124.624 5.25326   1 
  -4   9   1 128.723 4.69737   3 
   3  -9  -1 15.5327 2.71729   4 
  -3   9   1 20.1019 2.60641   4 
  -3   9   1 14.9839 2.51449   1 
  -3   9   1 19.6847 2.82944   3 
   2  -9  -1 12.0164 4.25076   3 
  -2   9   1 12.4301 2.02426   3 
  -2   9   1 12.6534 2.32474   1 
  -2   9   1 13.3087 1.98043   4 
   1  -9  -1 2.48766 2.59580   4 
   1  -9  -1 -0.6936 2.93863   3 
  -1   9   1 5.55312 2.07444   4 
  -1   9   1 5.32581 2.05734   1 
  -1   9   1 3.89361 2.02414   3 
   0  -9  -1 13.4836 1.92965   2 
   0  -9  -1 12.7346 2.73684   2 
   0  -9  -1 8.26216 3.35479   3 
   0   9   1 8.50925 2.43007   4 
   0   9   1 13.7140 2.36998   1 
   0   9   1 10.9676 2.20411   3 
  -1  -9  -1 239.598 6.32944   2 
  -1  -9  -1 254.093 8.00219   2 
  -1  -9  -1 229.096 8.28584   3 
   1   9   1 251.536 8.04981   4 
   1   9   1 237.572 6.98720   3 
  -2  -9  -1 71.0078 6.58340   3 
  -2  -9  -1 70.7908 4.39161   2 
  -2  -9  -1 59.0235 7.02731   2 
   2   9   1 67.6432 5.06679   3 
   2   9   1 78.0225 5.99222   4 
  -6  10   1 122.352 5.31143   3 
  -6  10   1 118.448 7.82000   1 
  -5  10   1 50.9288 4.05408   3 
  -5  10   1 56.7677 6.58296   1 
   4 -10  -1 40.4923 4.37044   4 
  -4  10   1 51.2567 3.51003   4 
  -4  10   1 47.0263 3.77773   3 
   3 -10  -1 -2.2344 3.18156   4 
  -3  10   1 2.73675 2.12337   4 
  -3  10   1 4.02991 2.17485   3 
  -3  10   1 -3.7966 4.33154   1 
   2 -10  -1 1.42151 3.13685   4 
  -2  10   1 -1.4356 2.25853   3 
  -2  10   1 2.47562 2.76155   1 
  -2  10   1 5.96222 2.35112   4 
  -1  10   1 35.4729 4.52719   1 
  -1  10   1 42.1510 4.13372   3 
   0 -10  -1 7.67682 2.97955   2 
   0  10   1 10.2232 3.39346   4 
   0  10   1 13.3010 2.95223   3 
   1  10  -2 5.28914 3.28457   3 
   1  10  -2 11.3973 3.84621   4 
  -1 -10   2 5.40753 2.51579   2 
   0  10  -2 25.8017 3.63977   4 
   0  10  -2 22.8091 3.43298   3 
   0 -10   2 20.4151 3.18193   2 
  -1  10  -2 69.9577 4.69303   3 
  -1  10  -2 74.7072 4.99175   4 
  -1  10  -2 63.2579 4.58730   1 
  -1  10  -2 72.9625 5.74100   1 
   1 -10   2 77.6570 3.98037   2 
   1 -10   2 61.4083 4.93979   4 
  -2  10  -2 30.4670 4.09537   1 
  -2  10  -2 39.2652 4.03337   3 
  -2  10  -2 33.5498 4.08499   4 
  -2  10  -2 37.3997 4.32273   1 
   2 -10   2 29.8333 3.41467   2 
   2 -10   2 31.2774 4.37787   4 
  -3  10  -2 11.9235 2.17650   2 
  -3  10  -2 9.86214 3.65597   1 
  -3  10  -2 13.1640 2.52379   3 
  -3  10  -2 6.16302 2.97485   1 
   3 -10   2 12.4399 2.37252   2 
  -4  10  -2 6.39422 1.98044   2 
  -4  10  -2 2.72378 3.53955   1 
  -4  10  -2 -1.2352 2.11478   3 
   4 -10   2 0.87730 2.28891   2 
  -5  10  -2 9.64148 4.11241   1 
  -5  10  -2 2.07557 2.23928   3 
   5 -10   2 6.83373 2.59599   2 
  -6  10  -2 11.1739 4.49804   1 
  -6  10  -2 8.02420 2.56957   3 
   3   9  -2 2.96535 3.84551   4 
   3   9  -2 5.98397 3.72240   3 
  -3  -9   2 2.83006 2.66941   2 
   2   9  -2 2.71948 3.31451   4 
   2   9  -2 0.23879 2.91410   3 
  -2  -9   2 3.96576 2.30910   2 
   1   9  -2 3.46656 2.66719   3 
   1   9  -2 7.04688 2.83406   4 
   0   9  -2 3.34529 2.21782   3 
   0   9  -2 4.57522 2.44826   4 
   0  -9   2 8.71074 1.87578   2 
   0  -9   2 1.22101 2.02325   4 
  -1   9  -2 -2.0874 1.78999   1 
  -1   9  -2 2.94757 2.01931   3 
  -1   9  -2 0.65815 2.02968   4 
  -1   9  -2 -3.8647 2.45107   1 
   1  -9   2 -2.8057 1.52237   2 
   1  -9   2 1.99080 1.88812   4 
  -2   9  -2 48.7355 3.48749   3 
  -2   9  -2 44.5778 3.01714   2 
  -2   9  -2 51.7823 3.68395   1 
  -2   9  -2 50.8885 4.40345   1 
  -2   9  -2 46.2397 3.56103   4 
   2  -9   2 49.0110 3.01162   2 
   2  -9   2 38.2175 3.38952   4 
  -3   9  -2 18.1406 2.44921   2 
  -3   9  -2 13.7988 3.21040   1 
  -3   9  -2 18.8402 2.71335   1 
  -3   9  -2 18.9694 2.28272   3 
   3  -9   2 16.2526 2.16364   2 
  -4   9  -2 24.1723 3.48480   1 
  -4   9  -2 22.6550 3.21529   1 
  -4   9  -2 15.7344 2.18301   3 
  -4   9  -2 20.1696 2.43301   2 
   4  -9   2 23.0815 3.07205   2 
  -5   9  -2 7.11972 3.37696   1 
  -5   9  -2 3.58902 1.98013   3 
  -5   9  -2 4.94356 1.67866   2 
   5  -9   2 5.90817 2.28845   2 
  -6   9  -2 14.3038 2.39991   3 
  -6   9  -2 17.4377 2.10260   2 
  -6   9  -2 12.3950 3.68513   1 
   6  -9   2 14.3166 2.69267   2 
  -7   9  -2 14.5799 2.63409   3 
  -7   9  -2 9.22457 3.94000   1 
   7  -9   2 15.2575 3.02710   2 
   4   8  -2 -3.4172 3.32856   3 
   4   8  -2 1.28513 3.66948   4 
  -4  -8   2 -8.2014 3.13943   3 
  -4  -8   2 2.45772 2.65450   2 
   3   8  -2 0.28578 2.61557   3 
   3   8  -2 -0.4341 3.00704   4 
  -3  -8   2 2.72903 2.10996   2 
  -3  -8   2 -0.7410 2.62273   3 
  -3  -8   2 0.24305 3.35642   2 
   2   8  -2 -0.0046 2.21105   3 
   2   8  -2 3.11008 2.50875   4 
  -2  -8   2 -0.2645 2.28118   3 
  -2  -8   2 -0.6711 2.19672   4 
   1   8  -2 17.6035 2.72446   4 
   1   8  -2 19.9650 2.46911   3 
  -1  -8   2 24.9482 2.55130   2 
  -1  -8   2 23.4442 2.64522   3 
  -1  -8   2 21.6497 2.90695   4 
   0   8  -2 354.590 8.63244   4 
   0   8  -2 346.322 8.34413   3 
   0  -8   2 347.908 8.59237   3 
   0  -8   2 343.684 7.72178   2 
   0  -8   2 336.968 7.79508   4 
  -1   8  -2 518.134 10.6994   1 
  -1   8  -2 527.317 11.2490   4 
  -1   8  -2 515.935 11.2426   3 
  -1   8  -2 519.329 10.7777   2 
  -1   8  -2 523.754 11.4007   1 
   1  -8   2 519.985 11.6073   3 
   1  -8   2 517.430 10.6390   4 
   1  -8   2 518.496 10.6578   2 
  -2   8  -2 64.5635 3.28314   2 
  -2   8  -2 74.9432 3.52497   1 
  -2   8  -2 74.4227 3.28731   4 
  -2   8  -2 79.3797 4.31385   1 
  -2   8  -2 71.9092 3.31833   3 
   2  -8   2 71.4475 3.99732   3 
   2  -8   2 64.4502 3.42980   4 
   2  -8   2 71.4098 3.00155   2 
  -3   8  -2 108.689 4.97955   1 
  -3   8  -2 107.120 3.97787   3 
  -3   8  -2 110.829 4.49167   1 
   3  -8   2 111.130 3.73206   2 
   3  -8   2 100.690 4.74958   3 
  -4   8  -2 46.4707 3.94511   1 
  -4   8  -2 59.7720 7.08472   1 
  -4   8  -2 53.5558 3.09941   3 
  -4   8  -2 55.6348 2.56886   2 
   4  -8   2 49.0588 4.14553   3 
   4  -8   2 58.6046 3.12765   2 
  -5   8  -2 0.33923 2.51617   1 
  -5   8  -2 2.20910 1.52924   3 
  -5   8  -2 -2.8326 2.24792   1 
  -5   8  -2 2.12301 1.43481   2 
   5  -8   2 2.42788 1.85057   2 
   5  -8   2 1.26917 2.46164   3 
  -6   8  -2 -0.6229 2.75031   1 
  -6   8  -2 0.01111 1.60263   2 
  -6   8  -2 -1.2347 1.65612   3 
   6  -8   2 -3.1485 1.96622   2 
  -7   8  -2 88.5788 6.37867   1 
  -7   8  -2 109.408 4.37427   2 
  -7   8  -2 100.466 4.35446   3 
   7  -8   2 101.477 4.78235   2 
  -8   8  -2 5.72925 2.81996   2 
  -8   8  -2 4.27186 2.12390   3 
  -8   8  -2 -0.8021 3.52153   1 
   8  -8   2 4.61839 2.91699   2 
   5   7  -2 20.2196 3.79832   3 
   5   7  -2 23.5527 4.13153   4 
  -5  -7   2 17.7347 2.86319   3 
  -5  -7   2 14.7174 2.95453   2 
   4   7  -2 11.2638 2.87301   3 
   4   7  -2 10.6708 3.24128   4 
  -4  -7   2 10.0852 2.24912   3 
  -4  -7   2 11.4687 2.39924   2 
   3   7  -2 -1.5488 2.02037   3 
   3   7  -2 1.19435 2.39189   4 
  -3  -7   2 1.56606 1.62020   2 
  -3  -7   2 0.98765 1.83529   3 
  -3  -7   2 -1.1271 1.80705   4 
   2   7  -2 61.2094 6.54672   4 
   2   7  -2 79.7975 3.75537   3 
  -2  -7   2 73.3287 3.25650   2 
  -2  -7   2 79.6516 3.61043   3 
  -2  -7   2 77.9343 3.56896   4 
   1   7  -2 156.966 4.81971   3 
   1   7  -2 153.948 5.25108   4 
  -1  -7   2 155.255 4.74490   3 
  -1  -7   2 153.014 4.48559   4 
  -1  -7   2 160.400 4.43110   2 
   0   7  -2 3446.44 61.6967   2 
   0   7  -2 3434.08 61.9807   3 
   0   7  -2 3470.12 62.1454   4 
   0  -7   2 3446.87 61.4422   4 
   0  -7   2 3443.37 61.4760   2 
   0  -7   2 3497.16 61.9716   3 
  -1   7  -2 337.857 7.69557   3 
  -1   7  -2 342.053 7.65738   4 
  -1   7  -2 343.047 7.36543   1 
  -1   7  -2 331.511 7.91821   1 
  -1   7  -2 328.381 7.28181   2 
   1  -7   2 336.302 7.27418   2 
   1  -7   2 341.038 7.93040   3 
  -2   7  -2 41.3478 2.44866   3 
  -2   7  -2 44.6989 2.12367   2 
  -2   7  -2 46.2316 2.83446   1 
  -2   7  -2 47.8187 3.22837   1 
  -2   7  -2 43.7549 2.37594   4 
   2  -7   2 47.0191 2.97424   3 
   2  -7   2 47.4576 2.11035   4 
   2  -7   2 42.5176 2.28902   2 
  -3   7  -2 18.4042 2.64747   1 
  -3   7  -2 27.8651 3.03605   1 
  -3   7  -2 21.0091 2.03296   3 
  -3   7  -2 18.9242 1.74450   2 
   3  -7   2 16.4669 1.98036   2 
   3  -7   2 15.4773 2.07228   3 
  -4   7  -2 31.1353 3.21241   1 
  -4   7  -2 42.6323 3.58875   1 
  -4   7  -2 33.5912 2.35148   3 
  -4   7  -2 29.6666 2.44575   2 
   4  -7   2 24.7010 2.60058   3 
   4  -7   2 31.9881 2.49014   2 
  -5   7  -2 250.065 7.88877   1 
  -5   7  -2 254.764 5.98067   2 
  -5   7  -2 252.625 7.50958   1 
   5  -7   2 262.883 6.54169   2 
   5  -7   2 254.053 7.28065   3 
  -6   7  -2 6.18379 2.49814   1 
  -6   7  -2 4.85448 1.46194   3 
  -6   7  -2 9.05864 1.75438   2 
   6  -7   2 7.85650 2.44414   3 
   6  -7   2 3.91062 1.91150   2 
  -7   7  -2 213.229 6.13544   2 
  -7   7  -2 219.534 7.98504   1 
  -7   7  -2 228.889 5.92417   3 
   7  -7   2 219.075 6.49508   2 
   7  -7   2 200.957 7.41127   3 
  -8   7  -2 7.77964 2.68594   2 
  -8   7  -2 3.81116 3.15689   1 
  -8   7  -2 5.42459 1.83779   3 
   8  -7   2 7.06715 2.70190   2 
   6   6  -2 22.6498 4.16269   4 
  -6  -6   2 20.0359 3.24538   2 
   5   6  -2 16.8014 3.38628   4 
   5   6  -2 15.9484 3.07501   3 
  -5  -6   2 16.6369 2.62615   2 
  -5  -6   2 17.3626 2.16052   3 
   4   6  -2 161.065 5.61932   3 
   4   6  -2 163.008 6.37491   4 
  -4  -6   2 160.725 6.11278   2 
  -4  -6   2 164.269 5.33303   4 
  -4  -6   2 160.859 5.23821   2 
  -4  -6   2 157.850 4.65061   3 
   3   6  -2 4.20863 1.85467   3 
  -3  -6   2 3.48601 1.43233   3 
  -3  -6   2 3.14515 1.54142   4 
  -3  -6   2 3.06993 1.46189   2 
   2   6  -2 6.42143 1.67824   3 
   2   6  -2 9.30395 2.03860   4 
  -2  -6   2 9.61759 1.53651   3 
  -2  -6   2 8.05874 1.60390   4 
  -2  -6   2 5.32933 1.37212   2 
   1   6  -2 563.637 11.6791   3 
   1   6  -2 561.160 12.0391   4 
  -1  -6   2 576.669 11.3750   2 
  -1  -6   2 572.420 11.4183   4 
  -1  -6   2 593.654 11.5418   3 
   0   6  -2 1043.90 19.9795   4 
   0   6  -2 1050.67 19.2431   1 
   0   6  -2 1036.22 19.8764   3 
   0   6  -2 1020.00 19.5973   1 
   0   6  -2 1056.45 19.6582   2 
   0  -6   2 1081.27 19.5684   2 
   0  -6   2 1071.43 19.8582   3 
  -1   6  -2 32.4438 2.02147   4 
  -1   6  -2 34.7670 1.72719   2 
  -1   6  -2 30.5443 1.96380   1 
  -1   6  -2 32.3575 1.96513   3 
  -1   6  -2 32.0082 2.39833   1 
   1  -6   2 34.5747 1.81424   2 
   1  -6   2 32.7130 1.64287   4 
   1  -6   2 34.2358 2.21794   3 
  -2   6  -2 148.675 3.60631   2 
  -2   6  -2 142.927 4.66782   1 
  -2   6  -2 144.099 4.52519   1 
  -2   6  -2 145.237 4.00501   3 
   2  -6   2 150.116 4.28937   3 
   2  -6   2 147.604 3.81879   2 
  -3   6  -2 140.199 3.91143   3 
  -3   6  -2 140.827 4.73787   1 
  -3   6  -2 142.091 3.58920   2 
   3  -6   2 140.841 4.31509   3 
   3  -6   2 140.669 3.87819   2 
  -4   6  -2 49.9530 2.21777   2 
  -4   6  -2 50.1840 3.39215   1 
  -4   6  -2 51.8000 2.37134   3 
   4  -6   2 54.7347 2.63307   2 
   4  -6   2 49.8033 2.96373   3 
  -5   6  -2 23.3059 3.23492   1 
  -5   6  -2 28.5611 2.00923   3 
  -5   6  -2 27.9920 2.22470   2 
   5  -6   2 26.4766 2.50383   2 
   5  -6   2 22.0333 2.78879   3 
  -6   6  -2 100.257 3.74697   2 
  -6   6  -2 94.4438 4.88469   1 
  -6   6  -2 96.8123 3.34689   3 
   6  -6   2 99.4623 4.05665   2 
   6  -6   2 92.9604 4.36177   3 
  -7   6  -2 21.7890 3.23943   1 
  -7   6  -2 21.8983 2.53033   2 
  -7   6  -2 22.5495 2.21065   3 
   7  -6   2 23.2446 2.69875   2 
   7  -6   2 26.8276 3.75163   3 
  -8   6  -2 2.87886 2.33927   2 
  -8   6  -2 0.74189 2.68730   1 
  -8   6  -2 4.31065 1.55928   3 
   8  -6   2 0.25240 2.27932   2 
  -9   6  -2 3.11939 1.90273   3 
  -9   6  -2 6.86250 3.71170   1 
   9  -6   2 10.5534 3.11412   2 
   7   5  -2 7.53891 4.11589   4 
  -7  -5   2 6.35290 2.80848   2 
   6   5  -2 257.049 8.89264   4 
  -6  -5   2 242.894 7.39050   2 
   5   5  -2 37.6318 3.70840   3 
   5   5  -2 35.4479 4.12735   4 
  -5  -5   2 34.8645 2.40519   3 
  -5  -5   2 33.1019 3.34220   4 
  -5  -5   2 34.9287 3.17921   2 
  -5  -5   2 32.7851 4.11088   2 
   4   5  -2 192.186 5.63638   3 
  -4  -5   2 194.044 5.55382   4 
  -4  -5   2 193.342 5.53183   2 
  -4  -5   2 193.670 4.76241   3 
  -4  -5   2 195.375 6.07747   2 
   3   5  -2 2.28558 1.62223   4 
   3   5  -2 3.67106 1.55892   3 
  -3  -5   2 4.64693 1.33385   2 
  -3  -5   2 4.44823 1.37985   4 
  -3  -5   2 4.38586 1.11887   3 
   2   5  -2 359.024 7.86476   3 
   2   5  -2 360.291 8.36898   4 
  -2  -5   2 364.630 7.76796   4 
  -2  -5   2 361.177 7.69740   2 
  -2  -5   2 346.820 7.72901   3 
   1   5  -2 106.261 3.53402   4 
   1   5  -2 105.504 3.22914   2 
   1   5  -2 107.756 3.24063   3 
  -1  -5   2 105.471 2.99601   2 
   0   5  -2 76.9440 2.40457   2 
   0   5  -2 74.7596 2.53437   1 
   0   5  -2 73.2098 2.66842   4 
   0   5  -2 75.5543 2.58053   3 
   0  -5   2 80.3008 2.35161   4 
   0  -5   2 75.6932 2.35668   2 
  -1   5  -2 126.079 3.35232   3 
  -1   5  -2 121.303 3.34973   1 
  -1   5  -2 125.008 3.60876   1 
  -1   5  -2 123.384 3.08092   2 
  -1   5  -2 122.885 3.22804   4 
   1  -5   2 125.368 2.92283   4 
   1  -5   2 124.338 3.17980   2 
  -2   5  -2 18.0987 1.38664   3 
  -2   5  -2 20.0434 1.25195   2 
  -2   5  -2 19.7498 1.90592   1 
   2  -5   2 17.9695 1.40125   2 
   2  -5   2 17.7758 1.61855   3 
  -3   5  -2 31.5127 1.58735   2 
  -3   5  -2 30.3371 2.40061   1 
  -3   5  -2 34.6712 1.71377   3 
   3  -5   2 31.0868 1.81173   2 
   3  -5   2 30.8135 2.04841   3 
  -4   5  -2 56.8516 2.21609   3 
  -4   5  -2 57.5072 2.29759   2 
  -4   5  -2 54.4471 3.17617   1 
   4  -5   2 56.7393 2.69785   3 
   4  -5   2 56.7516 2.51616   2 
  -5   5  -2 -0.1857 1.56731   1 
  -5   5  -2 3.33897 1.20162   2 
  -5   5  -2 2.93533 1.02269   3 
   5  -5   2 -0.0765 1.29309   3 
   5  -5   2 -0.0260 1.35188   2 
  -6   5  -2 11.5187 1.40748   3 
  -6   5  -2 9.34800 1.69018   2 
   6  -5   2 10.6784 1.92980   2 
   6  -5   2 12.2617 1.96931   3 
  -7   5  -2 7.99061 1.96988   2 
  -7   5  -2 4.12588 1.23279   3 
  -7   5  -2 0.98911 2.19917   1 
   7  -5   2 3.49984 1.92892   2 
   7  -5   2 3.42838 1.86560   3 
  -8   5  -2 6.31232 1.39939   3 
  -8   5  -2 8.22862 2.32256   2 
  -8   5  -2 4.33525 2.62087   1 
   8  -5   2 7.16406 2.40463   2 
  -9   5  -2 4.05649 3.01793   1 
  -9   5  -2 0.36312 1.61337   3 
   9  -5   2 -1.0725 2.71931   2 
   7   4  -2 5.64887 3.52594   4 
  -7  -4   2 1.07065 2.54013   2 
   6   4  -2 3.71697 2.55998   4 
  -6  -4   2 2.57424 3.68552   2 
  -6  -4   2 -0.8977 1.72993   2 
   5   4  -2 14.0369 2.13062   3 
   5   4  -2 12.6362 2.65945   4 
  -5  -4   2 11.5580 1.84957   4 
  -5  -4   2 13.8934 1.78466   3 
  -5  -4   2 17.0109 2.40788   2 
   4   4  -2 214.974 6.46148   4 
   4   4  -2 227.352 5.86154   3 
  -4  -4   2 232.435 5.06674   3 
  -4  -4   2 219.386 5.72960   4 
  -4  -4   2 222.491 5.77543   2 
   3   4  -2 78.2285 3.42791   4 
   3   4  -2 75.0677 2.92254   3 
  -3  -4   2 72.4530 2.81535   4 
  -3  -4   2 73.3235 2.37988   3 
  -3  -4   2 73.8700 2.78962   2 
   2   4  -2 23.3211 1.76314   3 
   2   4  -2 25.1180 2.05620   4 
  -2  -4   2 25.7380 1.43966   3 
  -2  -4   2 22.9901 1.52525   2 
   1   4  -2 204.458 5.09502   4 
   1   4  -2 218.576 4.88679   2 
   1   4  -2 212.965 4.90290   3 
  -1  -4   2 215.687 4.79352   4 
  -1  -4   2 216.212 4.69200   3 
  -1  -4   2 220.335 4.76331   2 
   0   4  -2 21.2103 1.21449   1 
   0   4  -2 18.4720 1.36477   3 
   0   4  -2 17.6314 1.45182   4 
   0   4  -2 20.2908 1.21826   2 
   0   4  -2 21.6807 1.37739   1 
   0  -4   2 20.5050 1.31026   3 
   0  -4   2 19.0551 1.22722   4 
   0  -4   2 20.3036 1.20531   2 
  -1   4  -2 12.7587 1.14002   4 
  -1   4  -2 14.5804 1.00863   2 
  -1   4  -2 14.5199 1.43969   1 
  -1   4  -2 13.3374 1.13693   3 
   1  -4   2 12.0333 0.90612   4 
   1  -4   2 13.5964 1.22551   3 
   1  -4   2 15.0981 1.13377   2 
  -2   4  -2 162.533 3.70688   2 
  -2   4  -2 164.260 4.36801   1 
  -2   4  -2 161.206 3.81225   3 
   2  -4   2 163.422 3.91709   3 
   2  -4   2 163.103 3.87140   2 
  -3   4  -2 11.2936 1.21712   2 
  -3   4  -2 11.5270 1.70723   1 
  -3   4  -2 11.3241 1.06251   3 
   3  -4   2 12.9124 1.39212   2 
   3  -4   2 12.0467 1.33966   3 
  -4   4  -2 4.75910 0.84195   3 
  -4   4  -2 3.11235 1.33310   1 
  -4   4  -2 3.00336 0.94291   2 
   4  -4   2 4.02390 1.14227   2 
   4  -4   2 4.92010 1.10971   3 
  -5   4  -2 31.1543 1.70083   3 
  -5   4  -2 33.7641 2.20436   2 
  -5   4  -2 33.9283 2.72860   1 
   5  -4   2 27.9697 2.54781   3 
   5  -4   2 25.0407 2.31930   2 
  -6   4  -2 497.174 10.6966   2 
  -6   4  -2 496.857 11.4835   1 
  -6   4  -2 488.115 9.71420   3 
   6  -4   2 482.376 10.7695   2 
   6  -4   2 475.683 10.4053   3 
  -7   4  -2 9.82990 1.23848   3 
  -7   4  -2 11.8148 2.49078   1 
  -7   4  -2 7.35099 1.76994   2 
   7  -4   2 11.7071 2.09618   2 
  -8   4  -2 77.9394 4.90506   1 
  -8   4  -2 63.9637 4.32092   2 
   8  -4   2 71.1743 4.51161   2 
  -9   4  -2 3.26633 2.80647   1 
   9  -4   2 3.62776 2.86880   2 
   8   3  -2 17.7374 4.11191   4 
  -8  -3   2 14.5535 2.87567   2 
   7   3  -2 18.6354 3.63679   4 
  -7  -3   2 18.2372 2.60014   2 
   6   3  -2 61.5864 4.46385   4 
  -6  -3   2 62.7179 4.21654   2 
  -6  -3   2 62.7678 3.45343   4 
  -6  -3   2 63.5761 3.50897   2 
   5   3  -2 27.9653 3.06597   4 
  -5  -3   2 26.8223 1.86030   3 
  -5  -3   2 27.0182 2.38878   4 
  -5  -3   2 26.8382 2.38100   2 
  -5  -3   2 27.7544 2.89220   2 
   4   3  -2 1.74445 1.36886   4 
   4   3  -2 0.26253 1.23113   3 
  -4  -3   2 1.78559 0.97622   2 
  -4  -3   2 0.73044 0.84028   3 
  -4  -3   2 0.66407 1.00601   4 
   3   3  -2 170.197 4.32759   3 
   3   3  -2 173.703 4.78687   4 
  -3  -3   2 163.551 4.22979   2 
  -3  -3   2 174.110 3.90394   3 
  -3  -3   2 153.129 4.74993   4 
   2   3  -2 373.958 7.68219   3 
   2   3  -2 376.809 8.03181   4 
  -2  -3   2 374.954 7.59898   2 
  -2  -3   2 365.255 7.66514   4 
  -2  -3   2 376.491 7.36764   3 
   1   3  -2 81.2970 2.61556   4 
   1   3  -2 82.6202 2.33555   2 
   1   3  -2 82.7249 2.42217   3 
  -1  -3   2 86.0120 2.27143   3 
  -1  -3   2 83.9302 2.27561   2 
   0   3  -2 1.69628 0.69031   4 
   0   3  -2 0.75039 0.59902   3 
   0   3  -2 1.10374 0.58371   1 
   0   3  -2 0.79876 0.46112   2 
   0  -3   2 0.09016 0.46108   4 
   0  -3   2 0.66444 0.47778   3 
   0  -3   2 1.17855 0.53771   2 
  -1   3  -2 219.492 4.44901   2 
  -1   3  -2 213.534 4.77870   1 
  -1   3  -2 211.401 4.50858   3 
   1  -3   2 214.335 4.51437   2 
   1  -3   2 216.764 4.50693   3 
  -2   3  -2 128.021 2.96495   3 
  -2   3  -2 125.024 3.04520   2 
  -2   3  -2 125.095 3.50282   1 
   2  -3   2 125.252 3.02652   3 
   2  -3   2 121.054 3.11380   2 
   2  -3   2 121.609 3.52194   1 
  -3   3  -2 44.4161 1.54803   3 
  -3   3  -2 41.8072 2.23260   1 
  -3   3  -2 42.0884 1.83823   2 
   3  -3   2 43.1275 1.91473   2 
   3  -3   2 42.8844 1.76456   3 
   3  -3   2 43.3108 2.31307   1 
  -4   3  -2 3655.30 66.2651   1 
  -4   3  -2 3747.52 65.7176   2 
  -4   3  -2 3779.50 65.9370   3 
   4  -3   2 3703.88 66.3828   1 
   4  -3   2 3677.77 65.7959   2 
   4  -3   2 3598.88 65.3075   3 
  -5   3  -2 1.24629 1.25280   1 
  -5   3  -2 3.02885 1.06515   2 
  -5   3  -2 4.46256 0.80864   3 
   5  -3   2 2.56641 1.23344   2 
   5  -3   2 4.13189 1.09943   3 
  -6   3  -2 109.236 4.09525   2 
  -6   3  -2 112.023 4.46495   1 
  -6   3  -2 113.564 2.97467   3 
   6  -3   2 106.090 4.12159   2 
  -7   3  -2 189.153 5.94774   2 
  -7   3  -2 204.120 6.40039   1 
   7  -3   2 156.610 8.44003   2 
  -8   3  -2 77.7132 4.77241   1 
   8  -3   2 79.8473 4.61448   2 
  -9   3  -2 3.21281 2.60395   1 
  -9  -2   2 3.76887 3.21329   2 
   8   2  -2 -0.6441 3.10150   4 
  -8  -2   2 0.61075 2.28726   2 
   7   2  -2 4.14744 2.54770   4 
  -7  -2   2 4.04066 1.82943   4 
  -7  -2   2 0.58146 1.81864   2 
  -7  -2   2 -0.7797 2.07253   2 
   6   2  -2 17.5369 2.55067   4 
  -6  -2   2 21.1396 2.94598   2 
  -6  -2   2 17.5045 2.10962   2 
  -6  -2   2 23.3477 2.39834   4 
   5   2  -2 39.0578 2.97488   4 
   5   2  -2 36.0154 2.54789   3 
  -5  -2   2 36.0576 2.39314   2 
  -5  -2   2 38.6451 2.37606   4 
  -5  -2   2 38.1966 1.91057   3 
  -5  -2   2 39.2622 2.70845   2 
   4   2  -2 438.417 9.03140   3 
   4   2  -2 429.645 9.58758   4 
  -4  -2   2 439.022 9.12714   4 
  -4  -2   2 434.648 9.14651   2 
  -4  -2   2 432.572 8.58293   3 
   3   2  -2 1298.82 24.5867   4 
   3   2  -2 1346.26 24.2123   3 
  -3  -2   2 1303.13 24.1833   2 
  -3  -2   2 1316.64 23.8393   3 
  -3  -2   2 1333.13 24.2968   4 
   2   2  -2 28.3917 1.67254   4 
   2   2  -2 28.7745 1.54295   3 
   2   2  -2 27.5513 1.40592   2 
  -2  -2   2 30.5114 1.36443   3 
  -2  -2   2 29.7422 1.36076   2 
  -2  -2   2 27.7945 1.51015   4 
   1   2  -2 840.422 15.5218   2 
   1   2  -2 857.314 15.6542   3 
  -1  -2   2 848.003 15.4984   3 
  -1  -2   2 861.382 15.4946   2 
  -1  -2   2 854.652 15.6525   4 
   0   2  -2 287.144 5.99076   1 
   0   2  -2 307.887 5.92198   4 
   0   2  -2 299.817 5.77960   2 
   0   2  -2 300.666 5.90268   3 
   0  -2   2 298.840 5.80794   4 
   0  -2   2 291.846 5.79199   1 
   0  -2   2 304.084 5.81908   2 
   0  -2   2 305.119 5.82472   3 
  -1   2  -2 190.930 3.87304   3 
  -1   2  -2 192.701 3.94348   2 
  -1   2  -2 184.144 4.13564   1 
   1  -2   2 183.636 4.15976   1 
   1  -2   2 189.010 3.97970   2 
   1  -2   2 187.483 3.81825   3 
  -2   2  -2 98.5928 2.58075   2 
  -2   2  -2 95.2594 2.83076   1 
  -2   2  -2 95.0404 2.26395   3 
   2  -2   2 96.9080 2.31917   3 
   2  -2   2 98.4638 2.65175   2 
   2  -2   2 96.7163 2.87894   1 
  -3   2  -2 1.00632 0.72114   2 
  -3   2  -2 2.14071 0.47899   3 
  -3   2  -2 1.19712 0.89757   1 
   3  -2   2 2.13522 0.63544   3 
   3  -2   2 -0.0905 0.92916   1 
   3  -2   2 1.10722 0.84834   2 
  -4   2  -2 9850.57 176.497   2 
  -4   2  -2 9999.99 174.451   3 
  -4   2  -2 9890.89 177.746   1 
   4  -2   2 9747.74 177.339   2 
   4  -2   2 9783.62 176.185   1 
   4  -2   2 9843.05 174.513   3 
  -5   2  -2 1.91221 1.20003   1 
  -5   2  -2 1.88905 1.13129   2 
   5  -2   2 1.75747 1.26773   2 
   5  -2   2 2.76200 1.55073   1 
  -6   2  -2 26.2448 2.60344   1 
  -6   2  -2 26.5121 2.58568   2 
   6  -2   2 23.1471 2.51641   2 
   6  -2   2 23.3731 3.29207   1 
  -7   2  -2 21.1722 2.67040   2 
  -7   2  -2 18.6986 1.69977   4 
   7  -2   2 19.4462 2.60335   2 
  -8   2  -2 11.7679 2.45485   1 
   8  -2   2 8.18123 2.48459   2 
  -9   2  -2 57.9713 4.74840   1 
  -9  -1   2 2.69936 1.77135   1 
  -9  -1   2 2.56796 2.64855   1 
  -9  -1   2 11.3693 3.13326   2 
  -8  -1   2 3.18414 2.06106   2 
  -8  -1   2 7.40066 1.97261   4 
  -8  -1   2 1.25993 1.45300   1 
  -8  -1   2 4.11983 1.72338   1 
   7   1  -2 77.6489 4.48352   4 
  -7  -1   2 72.6788 3.67198   2 
  -7  -1   2 66.5642 2.89140   1 
  -7  -1   2 64.8141 3.31020   4 
  -7  -1   2 68.4646 4.14303   2 
   6   1  -2 110.856 4.54207   4 
  -6  -1   2 108.028 3.76614   4 
  -6  -1   2 107.357 3.31119   1 
  -6  -1   2 112.856 3.96404   2 
  -6  -1   2 108.767 3.38922   3 
  -6  -1   2 105.440 4.20868   2 
   5   1  -2 869.927 17.4055   4 
  -5  -1   2 890.389 17.1444   2 
  -5  -1   2 850.740 16.3400   3 
  -5  -1   2 853.369 16.8749   2 
  -5  -1   2 879.811 16.8372   4 
   4   1  -2 413.756 9.04426   4 
   4   1  -2 421.013 8.60517   3 
  -4  -1   2 415.918 8.66794   4 
  -4  -1   2 410.908 8.61717   2 
  -4  -1   2 414.001 8.35573   3 
   3   1  -2 374.521 7.68202   3 
   3   1  -2 372.631 7.98254   4 
  -3  -1   2 373.583 7.51597   3 
  -3  -1   2 377.193 7.60671   2 
  -3  -1   2 376.141 7.76747   4 
   2   1  -2 182.658 4.09455   3 
   2   1  -2 177.830 4.22993   4 
   2   1  -2 177.643 3.92991   2 
  -2  -1   2 181.038 3.96639   3 
  -2  -1   2 179.367 3.86396   2 
  -2  -1   2 179.226 4.13086   4 
   1   1  -2 735.576 13.5729   3 
   1   1  -2 761.817 13.3742   2 
  -1  -1   2 727.120 13.3323   2 
  -1  -1   2 732.832 13.5980   4 
  -1  -1   2 732.142 13.4939   3 
   0   1  -2 2919.73 50.6588   2 
   0   1  -2 2882.84 50.3957   3 
   0  -1   2 2800.19 50.3788   2 
   0  -1   2 2735.62 49.6269   4 
   0  -1   2 2746.41 49.9459   1 
   0  -1   2 2745.63 49.9433   3 
  -1   1  -2 -0.9171 0.40290   3 
  -1   1  -2 -0.7638 0.51232   1 
  -1   1  -2 -0.3206 0.47713   2 
   1  -1   2 -0.5424 0.34247   3 
   1  -1   2 -0.4988 0.53857   1 
   1  -1   2 -0.5249 0.49343   2 
  -2   1  -2 418.453 7.58032   3 
  -2   1  -2 408.703 8.26417   1 
   2  -1   2 413.213 7.57464   3 
   2  -1   2 414.631 8.33611   1 
  -3   1  -2 55.9902 2.16130   2 
  -3   1  -2 56.8447 2.25833   1 
  -3   1  -2 58.1513 1.55024   4 
   3  -1   2 55.8148 2.38128   1 
   3  -1   2 56.1290 2.26867   2 
   3  -1   2 57.5704 1.67901   4 
  -4   1  -2 661.927 13.2901   1 
  -4   1  -2 671.807 12.2391   4 
  -4   1  -2 652.009 13.3768   2 
   4  -1   2 674.374 13.4418   1 
   4  -1   2 657.117 13.2581   2 
   4  -1   2 671.635 12.5586   4 
  -5   1  -2 37.9731 2.45312   1 
  -5   1  -2 41.9339 2.56335   2 
  -5   1  -2 39.6166 1.63212   4 
   5  -1   2 41.5314 2.57004   2 
   5  -1   2 44.8136 2.84892   1 
   5  -1   2 39.2018 2.22212   4 
  -6   1  -2 29.8645 1.82265   4 
  -6   1  -2 34.4011 2.65755   1 
  -6   1  -2 34.0165 2.88093   2 
   6  -1   2 29.4560 2.58503   4 
   6  -1   2 32.7896 2.83027   2 
   6  -1   2 34.7887 3.43048   1 
  -7   1  -2 18.2123 2.59572   2 
  -7   1  -2 22.2520 2.79257   1 
  -7   1  -2 20.1779 2.00283   4 
   7  -1   2 19.3529 2.47554   4 
   7  -1   2 22.7055 3.17986   1 
   7  -1   2 22.4901 2.78252   2 
  -8   1  -2 23.2759 2.61482   4 
  -8   1  -2 26.9536 3.41118   1 
   8  -1   2 24.4158 3.12584   4 
  -9   1  -2 2.86495 2.12128   4 
  -9   1  -2 6.94970 2.59961   1 
  -9   0   2 0.39997 2.18973   1 
  -9   0   2 2.50595 1.96096   1 
  -9   0   2 -2.8817 2.20065   2 
  -8   0   2 2.06844 1.55863   1 
  -8   0   2 2.58264 2.43813   2 
  -8   0   2 -0.8411 1.53139   4 
  -8   0   2 1.00798 1.63041   1 
  -7   0   2 130.889 4.28179   1 
  -7   0   2 132.033 4.27685   4 
  -7   0   2 134.946 5.07678   2 
  -6   0   2 68.3270 3.28516   2 
  -6   0   2 70.0625 2.91381   4 
  -6   0   2 66.0806 2.82073   1 
  -6   0   2 66.4979 2.85439   3 
  -5   0   2 46.2443 2.21258   3 
  -5   0   2 51.3770 2.49337   2 
  -5   0   2 46.9959 2.20962   1 
  -5   0   2 46.5317 2.26964   4 
  -4   0   2 75.1349 2.42596   1 
  -4   0   2 76.0789 2.58450   3 
  -4   0   2 75.5864 2.59582   2 
  -4   0   2 75.6264 2.62341   4 
  -4   0   2 76.6812 2.28078   1 
   3   0  -2 92.6893 2.74731   3 
  -3   0   2 93.2095 2.50845   2 
  -3   0   2 95.5800 2.77707   4 
  -3   0   2 91.2706 2.70851   3 
  -3   0   2 94.1669 2.32928   1 
   2   0  -2 3944.46 69.3874   1 
   2   0  -2 3833.31 68.9502   3 
  -2   0   2 3722.01 68.4315   3 
  -2   0   2 3842.53 69.1851   2 
  -2   0   2 3849.08 68.5251   1 
   1   0  -2 167.360 3.31245   1 
   1   0  -2 162.400 3.65482   3 
   1   0  -2 178.597 3.31475   2 
  -1   0   2 173.231 3.73949   4 
  -1   0   2 150.655 3.59136   2 
  -1   0   2 173.553 3.28663   1 
   0   0  -2 132.419 2.88517   4 
   0   0  -2 132.307 2.72082   2 
   0   0  -2 128.869 2.86072   3 
   0   0  -2 132.828 2.77810   1 
   0   0   2 129.613 2.79160   1 
   0   0   2 126.505 2.95334   2 
   0   0   2 128.982 2.83505   3 
  -1   0  -2 1024.66 18.6285   1 
  -1   0  -2 1024.52 18.6239   2 
  -1   0  -2 1046.24 18.3866   4 
   1   0   2 1038.30 18.6851   1 
   1   0   2 1032.38 18.3083   4 
   1   0   2 1020.86 18.6410   2 
  -2   0  -2 61.8057 1.61106   4 
  -2   0  -2 56.7451 1.98397   2 
  -2   0  -2 59.9976 2.02331   1 
   2   0   2 59.6787 2.06598   1 
   2   0   2 61.1606 2.06567   2 
   2   0   2 61.1633 1.65498   4 
  -3   0  -2 17.9480 1.05484   4 
  -3   0  -2 15.9145 1.47605   2 
  -3   0  -2 15.1416 1.43443   1 
   3   0   2 16.4810 1.59702   1 
   3   0   2 16.6709 1.22694   4 
   3   0   2 17.1666 1.49791   2 
  -4   0  -2 11.4427 1.43955   2 
  -4   0  -2 12.8490 1.11391   4 
  -4   0  -2 11.0213 1.48756   1 
   4   0   2 11.0382 1.38067   4 
   4   0   2 13.0464 1.84215   1 
   4   0   2 11.2188 1.44625   2 
  -5   0  -2 0.23539 1.10432   1 
  -5   0  -2 -0.4297 0.69967   4 
  -5   0  -2 0.13417 1.15525   2 
   5   0   2 1.18732 1.16549   4 
   5   0   2 -0.1811 1.15914   2 
   5   0   2 0.50360 1.48884   1 
  -6   0  -2 9.44615 1.96421   2 
  -6   0  -2 8.18089 1.65265   1 
  -6   0  -2 9.36275 1.32887   4 
   6   0   2 5.55055 1.79369   4 
   6   0   2 10.0418 1.96106   2 
   6   0   2 10.9580 2.30343   1 
  -7   0  -2 24.2708 2.33731   4 
  -7   0  -2 21.9285 2.69847   1 
  -7   0  -2 28.1775 3.68208   2 
   7   0   2 27.6180 2.93465   4 
   7   0   2 26.0548 3.34686   1 
  -8   0  -2 12.9710 2.29010   1 
  -8   0  -2 12.4248 2.03045   4 
   8   0   2 18.2071 3.16052   4 
 -10   1   2 4.73334 2.84230   2 
 -10   1   2 2.63429 2.70667   1 
  -9   1   2 8.05659 2.06586   4 
  -9   1   2 7.51243 2.56366   1 
  -9   1   2 6.96439 2.83251   1 
  -8   1   2 7.22066 1.94286   1 
  -8   1   2 6.23001 1.64968   4 
  -8   1   2 7.73253 1.94951   3 
  -8   1   2 9.39814 2.40607   2 
  -8   1   2 5.12149 1.84933   1 
  -7   1   2 91.3776 3.69587   3 
  -7   1   2 86.2035 3.38479   4 
  -7   1   2 88.5595 3.99064   2 
  -7   1   2 91.3007 3.81395   1 
  -7   1   2 89.7594 3.61314   1 
  -7   1   2 88.9959 3.28985   3 
  -6   1   2 27.2053 2.15656   3 
  -6   1   2 30.7925 2.27889   3 
  -6   1   2 23.4678 2.28227   1 
  -6   1   2 30.0619 2.38454   2 
  -6   1   2 30.9292 2.30850   1 
  -6   1   2 29.6711 2.09913   4 
  -5   1   2 423.539 9.06064   3 
  -5   1   2 425.602 8.99903   2 
  -5   1   2 429.621 8.96611   4 
  -5   1   2 427.505 9.09441   1 
  -5   1   2 428.758 8.85737   1 
  -4   1   2 249.710 5.75028   3 
  -4   1   2 247.477 5.42568   1 
  -4   1   2 247.642 5.50674   2 
  -4   1   2 247.961 5.63765   4 
  -3   1   2 41.3401 1.53954   1 
  -3   1   2 39.9329 1.87971   3 
   2  -1  -2 10.9643 0.89755   1 
  -2   1   2 10.9066 1.15395   4 
  -2   1   2 14.9500 0.70644   2 
  -2   1   2 10.0774 1.21829   3 
  -2   1   2 15.5198 0.84199   1 
   1  -1  -2 160.215 3.31968   1 
   1  -1  -2 164.204 3.01502   2 
  -1   1   2 154.694 3.02188   2 
  -1   1   2 156.436 3.28757   1 
   0  -1  -2 496.128 9.05503   1 
   0  -1  -2 494.787 9.13397   4 
   0  -1  -2 469.736 8.93248   2 
   0   1   2 497.556 9.08332   1 
   0   1   2 489.515 9.06321   4 
  -1  -1  -2 479.498 8.94448   1 
  -1  -1  -2 469.344 8.98538   2 
  -1  -1  -2 480.235 8.83596   4 
   1   1   2 447.388 8.95517   2 
   1   1   2 479.585 8.99120   1 
   1   1   2 477.235 8.78760   4 
  -2  -1  -2 456.976 8.82163   1 
  -2  -1  -2 458.730 8.59616   4 
  -2  -1  -2 443.141 8.98152   2 
   2   1   2 456.810 8.65176   4 
   2   1   2 440.667 8.97368   2 
   2   1   2 452.278 8.92124   1 
  -3  -1  -2 54.3431 1.84024   4 
  -3  -1  -2 54.7128 2.33250   2 
  -3  -1  -2 53.7147 2.04963   1 
   3   1   2 51.8358 2.26804   2 
   3   1   2 55.4749 2.04074   4 
   3   1   2 54.5173 2.26357   1 
  -4  -1  -2 3.74751 0.87418   4 
  -4  -1  -2 5.99620 1.32688   2 
  -4  -1  -2 5.05780 1.05215   1 
   4   1   2 5.03528 1.24823   2 
   4   1   2 3.48451 1.24935   1 
   4   1   2 4.46718 1.07888   4 
  -5  -1  -2 4.05707 1.18876   1 
  -5  -1  -2 1.61841 1.47777   2 
  -5  -1  -2 4.23974 1.03550   4 
   5   1   2 2.24648 1.32357   4 
   5   1   2 3.88768 1.41430   2 
   5   1   2 5.84014 1.73122   1 
  -6  -1  -2 28.8918 2.24892   4 
  -6  -1  -2 26.8476 2.29578   1 
  -6  -1  -2 29.4860 3.39203   2 
   6   1   2 28.7291 3.50609   1 
   6   1   2 30.5562 3.06873   4 
  -7  -1  -2 5.78223 1.66936   4 
  -7  -1  -2 6.46172 1.65423   1 
   7   1   2 7.85322 2.97497   1 
   7   1   2 8.84155 4.13169   4 
  -8  -1  -2 42.1472 3.49053   1 
   8   1   2 36.4557 5.37806   4 
 -10   2   2 5.39116 2.38356   4 
 -10   2   2 2.94300 2.71034   1 
  -9   2   2 12.4629 2.54476   1 
  -9   2   2 10.4307 1.74856   3 
  -9   2   2 5.94790 1.76129   4 
  -9   2   2 8.67278 2.52284   3 
  -9   2   2 6.19396 2.50792   1 
  -8   2   2 0.01668 1.29983   4 
  -8   2   2 2.11894 1.80165   1 
  -8   2   2 -0.2961 1.29140   3 
  -8   2   2 -0.5633 1.69990   1 
  -8   2   2 4.94077 2.01105   3 
  -8   2   2 1.02360 1.88899   2 
  -7   2   2 2.61979 1.61620   1 
  -7   2   2 0.40118 1.62475   3 
  -7   2   2 0.80860 1.51239   2 
  -7   2   2 3.09892 1.42753   1 
  -7   2   2 -0.1037 1.12575   4 
  -7   2   2 1.66021 1.19404   3 
  -6   2   2 1.43371 1.12914   4 
  -6   2   2 3.18190 1.39852   3 
  -6   2   2 3.46781 1.21024   1 
  -6   2   2 0.88568 1.30805   1 
  -6   2   2 5.22433 1.26114   3 
  -6   2   2 2.76809 1.14221   2 
  -5   2   2 15.3883 1.90012   1 
  -5   2   2 17.5666 1.58104   2 
  -5   2   2 16.0558 1.71014   3 
  -5   2   2 13.7112 1.57818   4 
  -5   2   2 16.9192 2.01146   3 
  -5   2   2 16.8980 1.58158   1 
  -5   2   2 15.1665 1.89174   4 
  -4   2   2 69.6219 2.57025   4 
  -4   2   2 69.5984 2.55673   3 
  -4   2   2 71.7891 2.44692   1 
  -4   2   2 70.2489 2.22419   2 
  -3   2   2 487.593 9.56654   1 
  -3   2   2 486.681 9.15691   2 
  -3   2   2 498.845 9.65679   4 
  -3   2   2 489.635 9.73124   3 
   2  -2  -2 59.7481 1.89369   1 
   2  -2  -2 59.4699 2.02365   4 
  -2   2   2 61.8414 1.81745   1 
  -2   2   2 61.1517 1.94396   4 
  -2   2   2 58.5323 2.03070   3 
   1  -2  -2 414.485 7.98130   4 
   1  -2  -2 412.757 7.86149   1 
  -1   2   2 412.148 7.85231   4 
  -1   2   2 401.980 7.93964   3 
  -1   2   2 411.678 7.80428   1 
   0  -2  -2 632.853 11.7572   2 
   0  -2  -2 644.779 11.9006   1 
   0  -2  -2 649.782 11.9691   3 
   0  -2  -2 656.526 12.0292   4 
   0   2   2 656.341 11.9373   1 
   0   2   2 636.149 11.7528   2 
   0   2   2 656.346 11.8695   3 
   0   2   2 643.434 11.8984   4 
  -1  -2  -2 1927.44 35.0733   2 
  -1  -2  -2 1965.09 35.0169   4 
  -1  -2  -2 1939.32 34.9519   1 
   1   2   2 2001.43 35.1109   2 
   1   2   2 1978.41 35.0555   1 
   1   2   2 2000.60 35.0015   4 
  -2  -2  -2 -0.2024 0.73638   2 
  -2  -2  -2 0.05710 0.56164   4 
  -2  -2  -2 -0.5775 0.53442   1 
   2   2   2 0.60420 0.72687   1 
   2   2   2 0.33567 0.70357   4 
   2   2   2 -0.0045 0.73965   2 
  -3  -2  -2 452.907 9.00042   1 
  -3  -2  -2 437.033 9.53623   2 
  -3  -2  -2 459.522 8.99371   4 
   3   2   2 446.535 9.16773   4 
   3   2   2 452.551 9.45333   2 
   3   2   2 449.373 9.23761   1 
  -4  -2  -2 3.25127 0.94309   4 
  -4  -2  -2 3.01776 0.94265   1 
  -4  -2  -2 1.64858 1.25979   2 
   4   2   2 2.42827 1.14973   4 
   4   2   2 3.26605 1.37380   1 
  -5  -2  -2 32.3181 2.19521   4 
  -5  -2  -2 28.3427 3.14043   2 
  -5  -2  -2 31.0938 2.10570   1 
   5   2   2 30.0946 3.01266   1 
   5   2   2 27.9605 2.68620   4 
  -6  -2  -2 95.9525 3.61427   1 
  -6  -2  -2 100.655 3.71344   4 
  -6  -2  -2 97.6723 4.99502   2 
   6   2   2 99.6356 6.07171   4 
   6   2   2 106.150 4.94009   1 
  -7  -2  -2 22.3504 3.12470   4 
  -7  -2  -2 18.9441 2.60802   1 
   7   2   2 27.7402 3.55298   4 
   7   2   2 22.7213 3.65514   1 
  -8  -2  -2 727.447 15.5484   1 
   8   2   2 773.706 17.6625   4 
 -10   3   2 31.7772 3.16341   3 
 -10   3   2 33.7854 5.04654   1 
 -10   3   2 31.3910 3.93044   4 
 -10   3   2 32.2511 3.69330   4 
  -9   3   2 15.1546 2.76067   1 
  -9   3   2 15.0046 2.95762   3 
  -9   3   2 16.2050 1.96610   3 
  -9   3   2 11.0942 2.81241   2 
  -9   3   2 14.3427 1.93015   4 
  -9   3   2 17.4377 2.68830   4 
  -9   3   2 12.8941 2.74857   1 
  -8   3   2 16.7760 1.93725   3 
  -8   3   2 15.1122 2.34018   1 
  -8   3   2 23.5871 3.02793   2 
  -8   3   2 18.8391 2.34514   4 
  -8   3   2 19.5845 2.86234   3 
  -8   3   2 15.6187 2.41556   4 
  -7   3   2 112.090 4.17355   4 
  -7   3   2 109.972 4.26869   1 
  -7   3   2 114.171 3.86818   3 
  -7   3   2 117.166 4.58486   3 
  -7   3   2 110.505 4.55455   1 
  -7   3   2 118.674 4.12745   2 
  -6   3   2 94.9574 3.40971   3 
  -6   3   2 91.7777 3.89035   1 
  -6   3   2 94.1298 3.55941   1 
  -6   3   2 96.8633 3.50959   4 
  -6   3   2 96.9172 3.30125   4 
  -6   3   2 98.9672 3.29861   2 
  -5   3   2 23.4891 1.97928   3 
  -5   3   2 21.7502 1.58975   2 
  -5   3   2 19.5915 1.81408   1 
  -5   3   2 20.2576 1.79388   4 
  -4   3   2 1.04038 0.63236   2 
  -4   3   2 1.89490 0.83280   1 
  -4   3   2 1.92477 0.95800   3 
  -4   3   2 1.50453 0.93300   4 
   3  -3  -2 -0.3327 0.82115   4 
  -3   3   2 0.46242 0.88332   3 
  -3   3   2 0.62457 0.72537   4 
  -3   3   2 1.16839 0.72254   1 
   2  -3  -2 0.89244 0.66792   1 
   2  -3  -2 0.01905 0.85470   3 
   2  -3  -2 1.81428 0.81101   4 
  -2   3   2 0.14301 0.72546   3 
  -2   3   2 0.82224 0.65373   4 
  -2   3   2 0.79216 0.64042   1 
   1  -3  -2 1192.33 22.0584   1 
   1  -3  -2 1234.89 22.2677   3 
   1  -3  -2 1205.89 22.0955   4 
  -1   3   2 1198.37 21.8972   4 
  -1   3   2 1224.61 21.9830   1 
  -1   3   2 1241.81 22.0807   3 
   0  -3  -2 7.07703 0.84952   4 
   0  -3  -2 6.49840 0.90984   2 
   0  -3  -2 9.36934 1.18819   3 
   0  -3  -2 7.29880 0.90932   1 
   0   3   2 7.43761 0.94838   1 
   0   3   2 6.97962 0.93795   3 
   0   3   2 7.01282 0.97844   4 
  -1  -3  -2 2286.83 40.5575   1 
  -1  -3  -2 2358.53 40.5200   3 
  -1  -3  -2 2267.16 40.7279   4 
  -1  -3  -2 2216.72 40.7184   2 
   1   3   2 2297.42 40.2523   3 
   1   3   2 2253.98 40.7049   4 
   1   3   2 2311.31 40.6818   1 
  -2  -3  -2 30.1156 1.43941   1 
  -2  -3  -2 30.7421 1.85993   2 
   2   3   2 32.1900 1.72677   1 
   2   3   2 27.6398 1.75316   4 
  -3  -3  -2 132.161 4.19015   2 
  -3  -3  -2 133.578 3.47805   1 
  -3  -3  -2 137.434 3.73808   4 
   3   3   2 135.348 3.82757   1 
   3   3   2 136.989 3.99837   4 
  -4  -3  -2 158.795 5.12602   2 
  -4  -3  -2 160.175 4.16960   1 
  -4  -3  -2 162.570 4.43633   4 
   4   3   2 153.889 4.78377   4 
   4   3   2 166.326 4.69382   1 
  -5  -3  -2 37.5583 2.59521   4 
  -5  -3  -2 31.7519 3.73070   2 
  -5  -3  -2 36.3057 2.25344   1 
   5   3   2 39.8137 3.40688   1 
   5   3   2 30.3260 3.30269   4 
  -6  -3  -2 0.43184 1.28214   1 
  -6  -3  -2 -0.5930 1.65340   4 
   6   3   2 -0.2392 2.54490   1 
   6   3   2 2.38326 2.31832   4 
  -7  -3  -2 219.423 6.00115   1 
   7   3   2 218.941 8.16414   4 
   7   3   2 214.900 8.32036   1 
 -10   4   2 7.42031 4.09107   3 
 -10   4   2 6.51418 2.00545   3 
 -10   4   2 13.9844 2.88078   4 
 -10   4   2 7.62844 3.28225   1 
  -9   4   2 18.9817 3.36742   1 
  -9   4   2 29.3666 3.58654   4 
  -9   4   2 19.2567 2.60569   4 
  -9   4   2 16.0421 3.24442   3 
  -9   4   2 14.1184 2.67531   2 
  -8   4   2 92.2700 4.00663   4 
  -8   4   2 88.5016 4.03891   2 
  -8   4   2 93.2477 4.87976   1 
  -8   4   2 90.5560 3.64548   3 
  -8   4   2 89.7775 4.48983   1 
  -8   4   2 93.4697 5.00094   3 
  -8   4   2 92.9842 3.53809   4 
  -7   4   2 747.566 14.9259   4 
  -7   4   2 746.444 15.5917   1 
  -7   4   2 749.970 14.9513   2 
  -7   4   2 744.194 14.7362   4 
  -7   4   2 753.861 15.0115   3 
  -6   4   2 124.171 3.79732   4 
  -6   4   2 125.453 4.31424   1 
  -6   4   2 118.773 3.79813   4 
  -6   4   2 122.922 3.62797   2 
  -6   4   2 126.810 4.05446   3 
  -6   4   2 128.881 4.71924   1 
  -5   4   2 101.079 3.52887   1 
  -5   4   2 101.283 2.81632   2 
  -5   4   2 102.204 3.12314   4 
  -5   4   2 103.992 3.51209   3 
   4  -4  -2 14.7860 1.76551   4 
  -4   4   2 14.8715 0.96315   2 
  -4   4   2 14.2018 1.45015   4 
  -4   4   2 14.2972 1.71581   3 
  -4   4   2 15.1618 1.67327   1 
   3  -4  -2 731.011 13.9557   4 
   3  -4  -2 709.970 14.2769   3 
  -3   4   2 738.152 13.5855   4 
  -3   4   2 722.966 13.9581   1 
  -3   4   2 722.410 13.9863   3 
   2  -4  -2 95.5522 3.12789   3 
   2  -4  -2 93.7173 2.88065   4 
   2  -4  -2 92.7031 2.91069   1 
  -2   4   2 94.0054 2.54248   4 
  -2   4   2 98.9667 2.78802   1 
  -2   4   2 93.0566 2.84785   3 
   1  -4  -2 2332.46 42.2569   1 
   1  -4  -2 2388.26 42.2525   4 
   1  -4  -2 2422.61 42.4459   3 
  -1   4   2 2329.83 41.9640   4 
  -1   4   2 2320.59 42.1236   3 
  -1   4   2 2389.42 42.1033   1 
   0  -4  -2 168.806 4.09334   4 
   0  -4  -2 163.268 3.77073   2 
   0  -4  -2 169.875 4.16635   3 
   0  -4  -2 167.472 3.68149   2 
   0  -4  -2 169.491 3.98310   1 
   0   4   2 168.928 3.85554   3 
   0   4   2 170.112 3.92973   1 
   0   4   2 168.463 3.97732   4 
  -1  -4  -2 135.414 3.62605   4 
  -1  -4  -2 135.491 3.52109   3 
  -1  -4  -2 134.785 3.61062   2 
  -1  -4  -2 132.776 3.33340   1 
   1   4   2 140.052 3.66613   4 
   1   4   2 135.296 3.15324   3 
   1   4   2 135.370 3.48421   1 
  -2  -4  -2 28.6516 1.53030   1 
  -2  -4  -2 31.3010 2.17274   2 
  -2  -4  -2 28.4720 1.83867   4 
   2   4   2 28.7609 2.02242   4 
   2   4   2 26.5054 1.84526   1 
  -3  -4  -2 14.6297 2.02775   2 
  -3  -4  -2 13.1159 1.43563   1 
  -3  -4  -2 13.3967 1.51772   4 
   3   4   2 14.3530 1.81479   4 
   3   4   2 17.6163 2.00373   1 
  -4  -4  -2 82.4856 2.84385   1 
  -4  -4  -2 83.5152 4.32340   2 
  -4  -4  -2 81.1107 3.40940   4 
   4   4   2 77.4243 4.01446   4 
  -5  -4  -2 65.4931 3.56344   4 
  -5  -4  -2 71.1629 2.89477   1 
  -5  -4  -2 70.6269 4.89185   2 
   5   4   2 74.4372 4.37667   4 
   5   4   2 59.6036 4.20354   1 
  -6  -4  -2 1.45700 1.51988   1 
   6   4   2 -1.3015 2.69829   4 
   6   4   2 5.14178 3.23708   1 
  -7  -4  -2 41.8321 3.35810   1 
   7   4   2 57.5186 6.50340   4 
 -10   5   2 8.93894 2.14243   3 
 -10   5   2 9.27814 3.62957   1 
  -9   5   2 141.567 4.93743   3 
  -9   5   2 143.044 6.77673   1 
  -9   5   2 143.816 5.43670   2 
  -9   5   2 137.648 7.08644   3 
  -8   5   2 104.367 4.94530   1 
  -8   5   2 113.833 5.53487   1 
  -8   5   2 107.665 4.10423   2 
  -7   5   2 29.4049 2.57668   2 
  -7   5   2 36.2967 3.23445   1 
  -7   5   2 38.1862 3.79795   1 
  -7   5   2 31.6017 2.63375   3 
  -6   5   2 3.43848 1.36736   3 
  -6   5   2 4.72233 1.23744   4 
  -6   5   2 3.06438 1.03189   2 
  -6   5   2 3.34376 1.56366   1 
  -5   5   2 13.7251 1.53066   4 
  -5   5   2 13.8246 1.97844   3 
  -5   5   2 16.1323 1.24838   2 
  -5   5   2 14.1964 1.73962   1 
   4  -5  -2 94.1631 3.77037   3 
   4  -5  -2 96.1452 3.33119   4 
  -4   5   2 99.7518 3.40295   1 
  -4   5   2 100.203 3.34139   3 
  -4   5   2 99.0677 2.78649   4 
   3  -5  -2 184.799 4.71444   4 
   3  -5  -2 183.694 5.14437   3 
  -3   5   2 183.704 4.15602   4 
  -3   5   2 178.644 4.64959   3 
  -3   5   2 180.024 4.65024   1 
   2  -5  -2 81.3860 2.82030   4 
   2  -5  -2 78.8250 2.89822   1 
  -2   5   2 81.2339 2.40506   4 
  -2   5   2 80.3187 2.66798   1 
  -2   5   2 79.0146 2.68487   3 
   1  -5  -2 -0.0643 0.74565   1 
   1  -5  -2 0.69759 0.88190   4 
   1  -5  -2 0.98846 1.08445   3 
  -1   5   2 0.20366 0.79100   3 
  -1   5   2 0.92394 0.72009   4 
  -1   5   2 -0.0914 0.72181   1 
   0  -5  -2 117.437 3.43367   4 
   0  -5  -2 115.488 2.87913   2 
   0  -5  -2 111.512 3.05980   2 
   0  -5  -2 112.419 3.23109   1 
   0  -5  -2 112.145 3.55391   3 
   0   5   2 117.381 3.12152   3 
   0   5   2 113.145 3.28732   4 
   0   5   2 119.182 3.19961   1 
  -1  -5  -2 200.116 4.76042   1 
  -1  -5  -2 202.120 4.82919   2 
  -1  -5  -2 199.799 5.05280   4 
  -1  -5  -2 205.731 5.02660   3 
  -1  -5  -2 201.158 5.00685   2 
   1   5   2 199.560 5.08651   4 
   1   5   2 199.703 4.52035   3 
   1   5   2 203.756 4.83160   1 
  -2  -5  -2 202.027 5.25390   2 
  -2  -5  -2 206.312 5.28817   4 
  -2  -5  -2 203.310 5.51829   2 
  -2  -5  -2 204.189 4.81213   1 
   2   5   2 203.079 4.62820   3 
   2   5   2 204.002 5.08246   1 
   2   5   2 202.225 5.45038   4 
  -3  -5  -2 66.0418 2.51957   1 
  -3  -5  -2 62.7864 3.13473   4 
  -3  -5  -2 68.3598 3.84997   2 
   3   5   2 68.1718 3.18693   1 
  -4  -5  -2 -2.3046 2.35230   2 
  -4  -5  -2 3.80605 1.16030   1 
  -4  -5  -2 2.49154 1.67100   4 
   4   5   2 2.42116 2.11523   4 
   4   5   2 4.13602 2.02154   1 
  -5  -5  -2 62.7302 4.52214   2 
  -5  -5  -2 61.3320 2.84565   1 
   5   5   2 60.3045 4.82934   4 
  -6  -5  -2 20.4840 3.51905   2 
   6   5   2 12.9556 3.65962   4 
  -9   6   2 80.1502 5.98381   1 
  -9   6   2 79.8886 4.22535   2 
  -9   6   2 85.4139 4.21775   3 
  -8   6   2 23.3576 2.94621   3 
  -8   6   2 20.0376 3.26732   1 
  -8   6   2 18.9223 2.67194   2 
  -7   6   2 0.75757 2.27986   1 
  -7   6   2 4.92918 1.92186   1 
  -7   6   2 1.89846 1.50761   3 
  -7   6   2 2.60191 1.33692   2 
  -6   6   2 3.08711 1.85655   1 
  -6   6   2 4.69038 1.00399   2 
  -6   6   2 6.28918 1.58459   3 
  -6   6   2 5.85790 1.17674   4 
   5  -6  -2 3.77327 1.47530   4 
   5  -6  -2 1.24631 1.81432   3 
  -5   6   2 3.49532 1.50238   1 
  -5   6   2 2.47939 1.32699   3 
  -5   6   2 3.17742 0.93143   4 
   4  -6  -2 0.84018 1.59160   3 
   4  -6  -2 0.12748 1.30722   4 
  -4   6   2 0.65048 0.80792   4 
  -4   6   2 0.82018 1.12641   1 
  -4   6   2 0.97909 1.11191   3 
   3  -6  -2 45.1012 3.09929   3 
   3  -6  -2 49.0115 2.61284   4 
  -3   6   2 47.7765 2.52390   1 
  -3   6   2 48.1994 2.48133   3 
  -3   6   2 46.6969 1.97626   4 
   2  -6  -2 277.962 6.64613   4 
   2  -6  -2 284.794 6.85360   1 
   2  -6  -2 288.478 7.11307   3 
  -2   6   2 281.344 6.13503   4 
  -2   6   2 279.704 6.46876   3 
  -2   6   2 287.720 6.47660   1 
   1  -6  -2 61.4695 2.83273   4 
   1  -6  -2 61.9674 2.76731   1 
   1  -6  -2 67.2287 3.21776   3 
  -1   6   2 64.5764 2.56313   1 
  -1   6   2 61.2749 2.54680   3 
  -1   6   2 60.8299 2.48270   4 
   0  -6  -2 143.700 4.51160   3 
   0  -6  -2 135.832 4.19806   4 
   0  -6  -2 146.549 3.51008   2 
   0  -6  -2 139.807 4.05990   1 
   0  -6  -2 143.783 3.83440   2 
   0   6   2 147.863 3.84748   3 
   0   6   2 140.097 4.08730   4 
   0   6   2 131.861 5.36118   1 
  -1  -6  -2 0.32166 1.01768   1 
  -1  -6  -2 -1.3578 1.47879   3 
  -1  -6  -2 0.06451 1.02092   2 
  -1  -6  -2 -1.6636 1.20569   4 
  -1  -6  -2 0.81955 1.46022   2 
   1   6   2 -0.0418 1.16574   4 
   1   6   2 0.36414 0.99971   3 
   1   6   2 3.16096 2.33449   1 
  -2  -6  -2 42.3427 3.38787   2 
  -2  -6  -2 35.7290 3.53066   3 
  -2  -6  -2 43.8882 2.34299   1 
  -2  -6  -2 48.6700 3.07281   4 
  -2  -6  -2 47.8228 2.76969   2 
   2   6   2 44.5560 2.37702   3 
   2   6   2 47.1653 3.29540   4 
   2   6   2 41.1862 4.55902   1 
  -3  -6  -2 62.3325 3.49254   2 
  -3  -6  -2 54.9990 3.62052   4 
  -3  -6  -2 60.9179 4.35428   2 
   3   6   2 61.8666 3.59018   1 
   3   6   2 60.1661 3.86545   4 
  -4  -6  -2 8.29428 2.44751   2 
  -4  -6  -2 5.46742 3.32626   2 
   4   6   2 4.52845 2.57391   4 
  -5  -6  -2 130.355 6.03346   2 
   5   6   2 122.080 6.76612   4 
  -9   7   2 0.12102 2.10775   3 
  -9   7   2 6.77303 3.43754   1 
  -8   7   2 45.5491 5.27336   1 
  -8   7   2 59.2899 3.72399   3 
  -8   7   2 58.5878 3.03823   2 
  -7   7   2 13.5340 2.17922   3 
  -7   7   2 14.2910 3.05463   1 
  -6   7   2 4.72492 1.67410   3 
  -6   7   2 4.55280 2.06008   1 
   5  -7  -2 9.16494 2.01160   4 
   5  -7  -2 3.50681 2.29722   3 
  -5   7   2 10.4313 1.97805   1 
  -5   7   2 8.17726 1.74796   3 
  -5   7   2 7.34265 1.14194   4 
   4  -7  -2 7.41225 1.85985   4 
   4  -7  -2 11.3607 2.34032   3 
  -4   7   2 9.57626 1.64440   3 
  -4   7   2 7.56321 1.75334   1 
  -4   7   2 8.31854 1.17177   4 
   3  -7  -2 25.8190 2.70628   4 
   3  -7  -2 27.3705 2.79572   3 
  -3   7   2 27.3161 2.54118   1 
  -3   7   2 27.6473 2.35874   3 
  -3   7   2 27.1198 1.92541   4 
   2  -7  -2 1.88966 1.59051   4 
   2  -7  -2 0.36338 1.37091   1 
   2  -7  -2 3.57733 1.91577   3 
  -2   7   2 2.23132 1.27678   3 
  -2   7   2 1.94609 1.34575   1 
  -2   7   2 3.29555 1.16610   4 
   1  -7  -2 2.19236 1.78833   3 
   1  -7  -2 0.09481 1.46029   4 
   1  -7  -2 2.74048 1.35032   1 
  -1   7   2 1.25838 1.30454   1 
  -1   7   2 2.14524 1.21061   3 
   0  -7  -2 -0.4457 1.53085   4 
   0  -7  -2 1.63282 1.02287   2 
   0  -7  -2 3.20788 1.92286   3 
   0  -7  -2 -0.2618 1.45693   2 
   0  -7  -2 1.13527 1.32591   1 
   0   7   2 1.79125 1.35589   1 
   0   7   2 1.93231 1.21560   3 
   0   7   2 2.23684 1.41786   4 
  -1  -7  -2 46.7820 3.48212   4 
  -1  -7  -2 52.3613 2.86864   1 
  -1  -7  -2 49.6359 2.64471   2 
  -1  -7  -2 43.3116 3.39280   2 
  -1  -7  -2 52.0410 3.70767   3 
   1   7   2 51.9212 2.74073   3 
   1   7   2 48.6815 3.28934   4 
   1   7   2 44.5997 3.08559   1 
  -2  -7  -2 42.0175 3.04114   2 
  -2  -7  -2 45.8385 2.79251   1 
  -2  -7  -2 40.6916 3.77316   3 
  -2  -7  -2 40.4708 4.15945   2 
   2   7   2 42.3096 3.36249   1 
   2   7   2 41.6561 2.86958   3 
   2   7   2 45.4729 3.78276   4 
  -3  -7  -2 1.43394 1.54196   1 
  -3  -7  -2 6.20116 3.22015   2 
  -3  -7  -2 1.31675 2.07289   2 
   3   7   2 2.77699 2.49887   4 
  -4  -7  -2 -0.1520 2.61100   2 
   4   7   2 3.08710 3.09916   4 
  -8   8   2 65.1278 6.10049   1 
  -8   8   2 61.3513 4.24521   3 
  -7   8   2 6.15495 3.38980   1 
  -7   8   2 0.69496 1.94478   3 
  -6   8   2 142.080 5.09598   3 
   5  -8  -2 12.7761 2.49912   4 
   5  -8  -2 15.5801 3.28207   3 
  -5   8   2 16.8570 2.45429   1 
  -5   8   2 13.5405 1.94880   4 
  -5   8   2 11.4539 2.10080   3 
   4  -8  -2 13.8882 3.01310   3 
   4  -8  -2 17.5271 2.55968   4 
  -4   8   2 13.4415 1.92977   3 
  -4   8   2 11.6050 2.25429   1 
  -4   8   2 13.6377 1.50303   4 
   3  -8  -2 135.360 5.78253   3 
   3  -8  -2 126.356 4.92080   4 
  -3   8   2 129.044 4.55344   1 
  -3   8   2 124.173 3.89358   4 
  -3   8   2 131.270 4.37225   3 
   2  -8  -2 210.746 6.89670   3 
   2  -8  -2 205.241 6.17274   4 
  -2   8   2 205.805 5.90680   3 
  -2   8   2 213.980 5.54468   4 
  -2   8   2 214.036 5.76546   1 
   1  -8  -2 32.7962 3.05982   1 
   1  -8  -2 30.2092 3.97021   3 
   1  -8  -2 26.8310 3.41357   4 
  -1   8   2 27.0643 2.98941   3 
  -1   8   2 22.7944 2.66961   1 
   0  -8  -2 9.14820 2.74521   3 
   0  -8  -2 11.8404 2.09067   2 
   0  -8  -2 11.2284 1.49826   2 
   0  -8  -2 8.26706 1.88153   1 
   0  -8  -2 4.81564 2.31068   4 
   0   8   2 11.5383 2.09121   4 
   0   8   2 9.81866 1.97305   1 
   0   8   2 8.50002 1.76035   3 
  -1  -8  -2 -0.5134 2.47699   2 
  -1  -8  -2 2.96377 1.69916   2 
  -1  -8  -2 0.70193 1.80303   1 
  -1  -8  -2 5.24599 2.88827   3 
   1   8   2 3.81975 2.16866   4 
   1   8   2 1.98367 1.70690   3 
   1   8   2 5.23520 2.16357   1 
  -2  -8  -2 4.61963 3.24201   2 
  -2  -8  -2 14.4409 3.28152   3 
  -2  -8  -2 6.24640 2.26436   2 
  -2  -8  -2 12.3100 2.07053   1 
   2   8   2 11.2280 2.83789   4 
   2   8   2 11.5917 2.27670   3 
   2   8   2 7.01517 2.57243   1 
  -3  -8  -2 183.587 8.22022   2 
  -3  -8  -2 179.260 6.43184   2 
   3   8   2 190.236 7.79154   4 
  -8   9   2 103.714 5.20131   3 
  -8   9   2 89.7395 7.72808   1 
  -7   9   2 8.93747 2.33370   3 
  -7   9   2 3.33817 3.75756   1 
  -6   9   2 1.65227 2.02694   3 
   5  -9  -2 11.4340 2.92469   4 
  -5   9   2 6.44403 1.55539   4 
  -5   9   2 5.49404 2.01372   3 
   4  -9  -2 179.272 6.65983   4 
  -4   9   2 183.488 5.65369   3 
  -4   9   2 179.944 5.02973   4 
  -4   9   2 172.387 6.01379   1 
   3  -9  -2 60.8635 4.77868   4 
  -3   9   2 57.9153 3.60958   3 
  -3   9   2 54.7869 4.03139   1 
  -3   9   2 60.8193 3.29236   4 
   2  -9  -2 56.3316 4.65777   4 
  -2   9   2 50.6373 3.37771   4 
  -2   9   2 50.7058 3.35321   3 
  -2   9   2 47.6487 3.75101   1 
   1  -9  -2 1.41945 2.76034   4 
   1  -9  -2 -2.8325 3.26689   3 
  -1   9   2 0.89282 1.90257   3 
  -1   9   2 -3.8659 1.99413   1 
  -1   9   2 3.63660 2.00699   4 
   0  -9  -2 0.57214 2.56869   2 
   0  -9  -2 -4.3900 3.40385   3 
   0  -9  -2 1.82885 1.56330   2 
   0   9   2 -0.5938 1.99045   3 
   0   9   2 -0.0991 2.36089   1 
   0   9   2 2.75489 2.41694   4 
  -1  -9  -2 43.2686 3.44614   2 
  -1  -9  -2 57.5060 7.27619   2 
  -1  -9  -2 64.4096 6.31812   3 
   1   9   2 62.9250 5.09829   4 
   1   9   2 55.2877 4.33518   3 
   1   9   2 48.1909 4.84924   1 
  -2  -9  -2 44.7855 4.31209   2 
   2   9   2 44.3959 5.95242   4 
   2   9   2 31.9181 3.48687   3 
  -6  10   2 7.39743 4.37744   1 
  -6  10   2 4.28721 2.52966   3 
   5 -10  -2 38.3839 6.28577   4 
  -5  10   2 41.4568 3.37405   4 
  -5  10   2 38.2252 3.96417   3 
   4 -10  -2 100.427 6.84416   4 
  -4  10   2 107.472 4.90513   3 
  -4  10   2 106.787 4.36027   4 
   3 -10  -2 -0.6291 3.41545   4 
  -3  10   2 2.43283 2.06398   4 
  -3  10   2 2.96615 2.10493   3 
  -2  10   2 -0.8876 2.32457   4 
  -2  10   2 3.46095 2.86330   1 
  -2  10   2 3.85779 2.42793   3 
  -1  10   2 51.2606 5.03045   4 
  -1  10   2 52.0490 4.92297   1 
  -1  10   2 51.1707 4.51619   3 
   0  10   2 45.1774 4.74320   3 
   0  10   2 56.6039 5.52513   4 
   1  10  -3 12.3367 3.69975   3 
   1  10  -3 11.1931 3.82019   4 
  -1 -10   3 13.1236 2.87841   2 
   0  10  -3 11.4209 3.22648   3 
   0  10  -3 3.57018 3.21098   4 
   0 -10   3 5.83228 2.39513   2 
  -1  10  -3 8.20649 2.86736   3 
  -1  10  -3 3.95704 2.99357   4 
  -1  10  -3 0.43542 2.95180   1 
   1 -10   3 3.48213 2.28074   2 
   1 -10   3 1.91456 2.77502   4 
  -2  10  -3 -3.2443 3.37360   1 
  -2  10  -3 3.65332 2.65381   4 
  -2  10  -3 4.23492 2.86406   1 
  -2  10  -3 -2.4047 2.53164   3 
  -2  10  -3 5.07872 2.55863   2 
   2 -10   3 -0.5407 2.74214   4 
   2 -10   3 5.35446 2.26055   2 
  -3  10  -3 6.74036 2.34253   2 
  -3  10  -3 7.08870 2.65842   3 
  -3  10  -3 5.44381 3.63678   1 
  -3  10  -3 6.44265 3.20027   1 
   3 -10   3 3.42617 2.46760   2 
  -4  10  -3 83.4438 4.06083   2 
  -4  10  -3 81.9381 6.77802   1 
  -4  10  -3 81.5427 4.71478   3 
   4 -10   3 87.9338 4.85280   2 
  -5  10  -3 5.96760 4.02329   1 
  -5  10  -3 1.80360 2.39747   3 
   5 -10   3 7.22721 2.93737   2 
   3   9  -3 3.09644 3.84559   3 
   3   9  -3 -1.6779 3.90376   4 
  -3  -9   3 -2.7762 2.59424   2 
   2   9  -3 -3.6677 3.26169   4 
   2   9  -3 1.77487 3.14526   3 
  -2  -9   3 1.31369 2.30108   2 
   1   9  -3 0.88243 2.51907   3 
   1   9  -3 -2.0004 2.81959   4 
  -1  -9   3 1.84775 1.86163   2 
  -1  -9   3 2.26145 2.65010   4 
   0   9  -3 1.54377 2.54146   4 
   0   9  -3 1.81163 2.26754   3 
   0  -9   3 0.93505 1.93872   4 
   0  -9   3 0.16297 1.69589   2 
  -1   9  -3 37.7064 3.31202   1 
  -1   9  -3 32.2963 3.41470   2 
  -1   9  -3 42.8102 3.92408   4 
  -1   9  -3 31.5944 3.52299   3 
  -1   9  -3 34.6702 4.38015   1 
   1  -9   3 39.4629 3.17063   4 
   1  -9   3 39.6427 3.00658   2 
  -2   9  -3 413.734 9.87752   3 
  -2   9  -3 398.433 9.03774   2 
  -2   9  -3 399.479 9.47951   1 
  -2   9  -3 409.595 9.48188   4 
  -2   9  -3 429.259 10.3285   1 
   2  -9   3 396.858 8.84881   4 
   2  -9   3 407.002 9.22132   2 
  -3   9  -3 435.555 10.2814   3 
  -3   9  -3 443.222 9.52491   2 
  -3   9  -3 436.930 10.6121   1 
   3  -9   3 444.636 9.93358   2 
  -4   9  -3 81.5430 4.07466   3 
  -4   9  -3 91.2292 5.41153   1 
  -4   9  -3 85.3954 3.69636   2 
  -4   9  -3 92.9582 5.86688   1 
   4  -9   3 83.0898 4.30787   2 
  -5   9  -3 82.0435 4.22595   3 
  -5   9  -3 88.8045 6.24778   1 
  -5   9  -3 86.3656 3.83857   2 
   5  -9   3 86.8429 4.60040   2 
  -6   9  -3 18.6715 4.01321   1 
  -6   9  -3 14.6203 2.50161   2 
  -6   9  -3 17.2867 2.52481   3 
   6  -9   3 15.2851 3.12510   2 
  -7   9  -3 3.23864 4.08752   1 
  -7   9  -3 3.15640 2.22731   3 
   7  -9   3 0.84741 3.14943   2 
   4   8  -3 85.7284 6.91658   4 
   4   8  -3 73.2959 6.32891   3 
  -4  -8   3 75.4380 4.82521   2 
  -4  -8   3 76.8162 5.28351   3 
   3   8  -3 20.8778 3.29747   3 
   3   8  -3 18.3285 3.59460   4 
  -3  -8   3 16.1840 2.43108   2 
  -3  -8   3 15.9959 2.77005   3 
   2   8  -3 5.14704 2.77942   4 
   2   8  -3 6.57690 2.54276   3 
  -2  -8   3 5.40157 2.30131   3 
  -2  -8   3 4.77695 2.06267   4 
  -2  -8   3 7.73094 1.89781   2 
   1   8  -3 -0.5124 1.88705   3 
  -1  -8   3 -0.1588 1.52405   2 
  -1  -8   3 0.24231 1.74726   4 
  -1  -8   3 1.28973 2.13518   3 
   0   8  -3 96.4957 4.48013   4 
   0   8  -3 95.3678 4.02860   2 
   0   8  -3 98.1992 4.22111   3 
   0  -8   3 93.4316 3.60586   2 
   0  -8   3 96.8155 4.47763   3 
   0  -8   3 101.128 3.69023   4 
  -1   8  -3 173.668 5.53726   1 
  -1   8  -3 174.348 5.43923   3 
  -1   8  -3 170.884 4.89142   1 
  -1   8  -3 165.569 4.90668   2 
  -1   8  -3 174.376 5.44951   4 
   1  -8   3 176.587 5.71815   3 
   1  -8   3 173.236 4.60993   4 
   1  -8   3 170.548 4.87364   2 
  -2   8  -3 2599.67 47.2320   1 
  -2   8  -3 2643.56 46.7673   1 
  -2   8  -3 2578.32 46.9606   3 
  -2   8  -3 2556.66 46.4000   4 
  -2   8  -3 2563.40 46.2019   2 
   2  -8   3 2573.02 45.8154   4 
   2  -8   3 2529.01 47.1576   3 
   2  -8   3 2503.09 46.4054   2 
  -3   8  -3 227.937 6.56218   1 
  -3   8  -3 220.040 6.89973   1 
  -3   8  -3 213.958 5.44025   2 
  -3   8  -3 215.111 5.96293   3 
   3  -8   3 207.193 6.54327   3 
   3  -8   3 214.263 5.87672   2 
  -4   8  -3 64.2979 4.95187   1 
  -4   8  -3 61.7102 2.99192   2 
  -4   8  -3 65.4846 3.28976   3 
  -4   8  -3 70.0466 4.47371   1 
   4  -8   3 59.3811 4.21943   3 
   4  -8   3 66.7004 3.62694   2 
  -5   8  -3 9.14738 2.91559   1 
  -5   8  -3 5.90518 2.77360   1 
  -5   8  -3 3.73212 1.67511   3 
  -5   8  -3 0.23685 1.54639   2 
   5  -8   3 3.66139 2.01718   2 
  -6   8  -3 8.73753 2.10557   2 
  -6   8  -3 7.21653 1.91831   3 
  -6   8  -3 10.8165 3.14310   1 
   6  -8   3 10.9956 2.61675   2 
  -7   8  -3 102.579 4.49797   3 
  -7   8  -3 108.526 6.60195   1 
  -7   8  -3 113.651 4.89409   2 
   7  -8   3 116.975 5.71830   2 
   5   7  -3 8.49510 3.87121   4 
   5   7  -3 8.67100 3.79578   3 
  -5  -7   3 8.55135 2.71213   3 
  -5  -7   3 11.5468 2.71780   2 
   4   7  -3 22.4888 3.68824   4 
  -4  -7   3 24.5641 3.29661   2 
  -4  -7   3 22.5130 2.57057   3 
   3   7  -3 26.8299 3.62617   3 
   3   7  -3 22.0233 3.19221   4 
  -3  -7   3 19.7286 2.74559   2 
  -3  -7   3 18.5619 2.39040   4 
  -3  -7   3 26.2311 3.01739   3 
   2   7  -3 173.241 9.40860   4 
   2   7  -3 172.765 5.64209   3 
  -2  -7   3 172.431 5.14414   4 
  -2  -7   3 178.795 5.03506   2 
  -2  -7   3 169.893 5.08925   3 
   1   7  -3 4.82494 1.95717   4 
   1   7  -3 5.45235 1.68754   3 
   1   7  -3 3.99650 1.63922   2 
  -1  -7   3 3.49407 1.41065   4 
  -1  -7   3 0.64355 1.33304   2 
  -1  -7   3 4.59434 1.63599   3 
   0   7  -3 20.8721 2.93562   4 
   0   7  -3 34.9644 2.48712   2 
   0   7  -3 26.5988 2.63661   3 
   0  -7   3 25.8104 2.23045   4 
   0  -7   3 22.5291 2.63639   3 
   0  -7   3 30.8627 2.27686   2 
  -1   7  -3 293.344 6.71693   2 
  -1   7  -3 291.790 7.18093   1 
  -1   7  -3 299.886 6.82810   1 
  -1   7  -3 292.420 7.03827   4 
  -1   7  -3 300.968 7.18955   3 
   1  -7   3 297.037 7.16899   3 
   1  -7   3 289.160 6.75558   2 
   1  -7   3 304.328 6.36403   4 
  -2   7  -3 502.903 11.0958   1 
  -2   7  -3 507.853 10.1335   2 
  -2   7  -3 490.940 10.6218   3 
  -2   7  -3 505.271 10.7549   1 
   2  -7   3 492.114 10.7957   3 
   2  -7   3 510.120 10.4154   2 
  -3   7  -3 41.2305 3.46995   1 
  -3   7  -3 50.1811 3.41402   1 
  -3   7  -3 45.7234 2.61193   3 
  -3   7  -3 47.6145 2.38675   2 
   3  -7   3 43.9308 2.76090   2 
   3  -7   3 45.1454 3.14968   3 
  -4   7  -3 44.2408 3.84001   1 
  -4   7  -3 50.9580 2.59757   2 
  -4   7  -3 47.9959 2.79894   3 
   4  -7   3 48.1454 3.38951   3 
   4  -7   3 53.5313 3.10897   2 
  -5   7  -3 54.8225 4.26021   1 
  -5   7  -3 51.1874 2.83759   2 
  -5   7  -3 50.1966 2.88917   3 
   5  -7   3 55.9991 3.37882   2 
   5  -7   3 50.4207 3.89669   3 
  -6   7  -3 26.9085 2.71591   3 
  -6   7  -3 36.6781 3.17002   2 
  -6   7  -3 40.9615 4.53363   1 
   6  -7   3 33.7238 3.47782   2 
   6  -7   3 33.0036 3.93136   3 
  -7   7  -3 1.82376 2.14194   2 
  -7   7  -3 -2.8035 2.76998   1 
  -7   7  -3 0.14221 1.44574   3 
   7  -7   3 0.50079 2.20835   2 
   7  -7   3 0.49764 2.73226   3 
  -8   7  -3 64.2494 3.56805   3 
  -8   7  -3 63.5297 5.95573   1 
   8  -7   3 65.7717 5.12821   2 
   6   6  -3 6.54281 3.77831   4 
   6   6  -3 0.57922 3.34559   3 
  -6  -6   3 0.86724 2.62789   2 
  -6  -6   3 -1.2166 2.20403   3 
   5   6  -3 7.10103 3.21127   4 
   5   6  -3 0.36932 2.76292   3 
  -5  -6   3 9.28970 1.92389   3 
  -5  -6   3 8.26029 2.21040   2 
   4   6  -3 388.795 10.4398   4 
   4   6  -3 396.641 9.68410   3 
  -4  -6   3 402.563 8.59312   3 
  -4  -6   3 370.096 9.17756   4 
  -4  -6   3 390.855 9.16385   2 
   3   6  -3 16.8555 2.28718   3 
   3   6  -3 15.7637 3.28623   4 
  -3  -6   3 16.1526 2.23500   2 
  -3  -6   3 16.0741 2.00602   4 
  -3  -6   3 17.3485 2.26422   3 
   2   6  -3 158.112 5.43300   4 
   2   6  -3 162.974 5.01233   3 
  -2  -6   3 158.709 4.65885   4 
  -2  -6   3 160.182 4.49706   2 
  -2  -6   3 164.694 4.48330   3 
   1   6  -3 12.5337 1.96130   4 
   1   6  -3 14.4278 1.78289   3 
   1   6  -3 14.2083 1.99730   2 
  -1  -6   3 13.7169 1.57395   4 
  -1  -6   3 13.6168 1.71172   2 
  -1  -6   3 12.8257 1.51112   3 
   0   6  -3 236.141 5.94503   4 
   0   6  -3 228.161 5.47131   2 
   0   6  -3 230.598 5.80852   3 
   0  -6   3 235.506 5.45567   2 
   0  -6   3 228.216 5.25565   4 
   0  -6   3 235.887 5.64226   3 
  -1   6  -3 110.730 3.54373   3 
  -1   6  -3 108.743 3.42379   4 
  -1   6  -3 107.945 3.65196   1 
  -1   6  -3 110.065 3.18034   2 
  -1   6  -3 111.699 3.41138   1 
   1  -6   3 106.173 3.25276   2 
   1  -6   3 101.104 3.45486   3 
   1  -6   3 107.854 2.86075   4 
  -2   6  -3 49.0927 2.90096   1 
  -2   6  -3 50.4233 2.10654   2 
  -2   6  -3 52.2429 2.41725   3 
   2  -6   3 50.3993 2.35981   2 
   2  -6   3 50.8736 2.60816   3 
  -3   6  -3 28.1701 1.95797   3 
  -3   6  -3 18.9697 2.68802   1 
  -3   6  -3 25.7392 2.85671   2 
   3  -6   3 26.9133 2.10040   2 
   3  -6   3 30.2367 2.38053   3 
  -4   6  -3 28.7705 2.07115   2 
  -4   6  -3 26.0553 3.00453   1 
  -4   6  -3 26.9308 2.04024   3 
   4  -6   3 27.2714 2.49031   2 
   4  -6   3 34.2335 2.65166   3 
  -5   6  -3 21.1444 2.38704   2 
  -5   6  -3 24.9614 3.29336   1 
  -5   6  -3 20.8888 2.05022   3 
   5  -6   3 25.2880 2.69430   2 
   5  -6   3 21.7615 2.77664   3 
  -6   6  -3 37.5459 2.50029   3 
  -6   6  -3 41.0850 4.02793   1 
  -6   6  -3 35.1786 2.98771   2 
   6  -6   3 35.6967 3.31720   3 
   6  -6   3 45.1566 3.44039   2 
  -7   6  -3 0.30753 1.38670   3 
  -7   6  -3 -1.4455 1.95962   2 
  -7   6  -3 2.56061 2.39990   1 
   7  -6   3 4.88674 2.17454   2 
   7  -6   3 4.05206 2.49998   3 
  -8   6  -3 3.73977 1.51260   3 
  -8   6  -3 2.15256 2.73904   1 
   8  -6   3 4.00689 2.62934   2 
   7   5  -3 46.2984 6.75200   4 
  -7  -5   3 48.2133 4.77444   2 
   6   5  -3 43.8514 4.70471   3 
   6   5  -3 43.2259 5.22344   4 
  -6  -5   3 34.8447 2.85849   3 
  -6  -5   3 32.7950 3.78533   2 
   5   5  -3 10.8667 2.55267   3 
   5   5  -3 3.82071 2.72863   4 
  -5  -5   3 7.57173 1.58049   3 
  -5  -5   3 8.30947 1.97603   2 
  -5  -5   3 8.42075 2.43976   2 
  -5  -5   3 6.38245 1.99384   4 
   4   5  -3 3.47811 1.96194   3 
  -4  -5   3 2.15982 1.49313   2 
  -4  -5   3 2.68915 1.28409   3 
  -4  -5   3 4.08541 1.71608   4 
   3   5  -3 21.3535 2.76595   4 
   3   5  -3 20.7334 2.55449   3 
  -3  -5   3 20.5500 2.26550   4 
  -3  -5   3 20.7837 2.00098   2 
  -3  -5   3 19.2747 1.84018   3 
   2   5  -3 327.391 8.03032   4 
   2   5  -3 331.616 7.55608   2 
   2   5  -3 343.253 7.74143   3 
  -2  -5   3 340.637 7.34318   2 
  -2  -5   3 334.183 7.13017   3 
  -2  -5   3 330.692 7.38107   4 
   1   5  -3 73.7810 2.86740   3 
   1   5  -3 74.3638 3.08403   4 
  -1  -5   3 72.9899 2.72760   4 
  -1  -5   3 78.5400 2.60351   3 
  -1  -5   3 75.6759 2.58132   2 
   0   5  -3 53.6299 1.96727   1 
   0   5  -3 50.0065 2.33769   4 
   0   5  -3 51.7126 2.07477   2 
   0   5  -3 51.0837 2.27995   3 
   0  -5   3 56.8446 2.18608   3 
   0  -5   3 51.2850 2.05654   2 
   0  -5   3 50.1261 1.95650   4 
  -1   5  -3 47.6993 2.34826   1 
  -1   5  -3 48.8992 1.86433   2 
  -1   5  -3 50.1813 2.07066   4 
  -1   5  -3 46.1124 2.12257   3 
   1  -5   3 46.2548 2.06626   3 
   1  -5   3 49.2419 2.00427   2 
   1  -5   3 47.1173 1.65914   4 
  -2   5  -3 0.73832 1.11807   1 
  -2   5  -3 1.06917 0.81112   3 
  -2   5  -3 0.82773 0.68666   2 
   2  -5   3 1.62110 0.91454   3 
   2  -5   3 0.92129 0.84854   2 
  -3   5  -3 0.66394 1.24355   1 
  -3   5  -3 1.04180 0.82316   3 
  -3   5  -3 1.32514 0.84393   2 
   3  -5   3 1.75817 1.05906   3 
   3  -5   3 2.01701 1.05968   2 
  -4   5  -3 74.0999 3.60349   1 
  -4   5  -3 75.5300 2.68502   3 
  -4   5  -3 74.6914 2.80401   2 
   4  -5   3 72.4246 3.04520   2 
   4  -5   3 75.0687 2.99663   3 
  -5   5  -3 0.27528 1.20844   2 
  -5   5  -3 0.42714 0.95636   3 
  -5   5  -3 -3.0818 1.50890   1 
   5  -5   3 0.47026 1.35495   3 
   5  -5   3 -3.2051 1.28976   2 
  -6   5  -3 14.8952 2.07681   2 
  -6   5  -3 13.3698 1.83496   3 
  -6   5  -3 16.2070 2.55436   1 
   6  -5   3 14.5791 2.15427   2 
   6  -5   3 14.1387 2.02272   3 
  -7   5  -3 6.13039 2.48333   1 
  -7   5  -3 4.30239 1.30099   3 
  -7   5  -3 5.55256 2.24653   2 
   7  -5   3 6.74744 2.04308   3 
   7  -5   3 2.75121 2.03869   2 
  -8   5  -3 284.258 9.02406   1 
  -8   5  -3 276.204 6.57791   3 
   8  -5   3 284.383 8.53783   2 
  -9   5  -3 9.56075 3.48712   1 
   8   4  -3 6.11321 4.31383   4 
  -8  -4   3 -1.1835 2.94306   2 
   7   4  -3 -4.8891 3.16344   4 
  -7  -4   3 0.64761 2.50284   2 
   6   4  -3 13.3564 2.80804   3 
   6   4  -3 21.1685 3.29419   4 
  -6  -4   3 14.5095 2.31015   2 
  -6  -4   3 15.8064 2.24768   3 
  -6  -4   3 12.8936 3.56401   4 
  -6  -4   3 18.8570 3.57489   2 
   5   4  -3 24.5579 2.59821   3 
   5   4  -3 26.2936 3.69088   4 
  -5  -4   3 28.9340 2.21810   3 
  -5  -4   3 25.8919 2.82204   4 
   4   4  -3 26.3209 2.76054   3 
   4   4  -3 29.7082 3.06000   4 
  -4  -4   3 31.6173 2.30725   2 
  -4  -4   3 31.7490 1.98862   3 
  -4  -4   3 29.4252 2.43235   4 
   3   4  -3 62.0436 3.21900   4 
   3   4  -3 56.9191 2.86826   3 
  -3  -4   3 60.3083 2.50617   2 
  -3  -4   3 56.8035 2.53023   3 
  -3  -4   3 63.3873 2.71906   4 
   2   4  -3 34.4414 2.30841   4 
   2   4  -3 38.6958 2.18650   3 
  -2  -4   3 35.8234 1.79662   2 
  -2  -4   3 40.3702 1.81314   3 
   1   4  -3 446.415 9.24826   3 
   1   4  -3 440.339 9.41737   4 
   1   4  -3 454.701 9.07581   2 
  -1  -4   3 458.874 9.07717   4 
  -1  -4   3 463.872 8.98989   3 
  -1  -4   3 456.951 8.99807   2 
   0   4  -3 273.171 6.02242   4 
   0   4  -3 279.155 6.04170   3 
   0   4  -3 278.055 5.78719   2 
   0   4  -3 272.157 5.75297   1 
   0  -4   3 279.009 5.83931   2 
   0  -4   3 273.838 5.69429   4 
   0  -4   3 272.767 5.79751   3 
  -1   4  -3 125.795 3.14551   2 
  -1   4  -3 128.733 3.36621   3 
  -1   4  -3 124.479 3.48058   1 
   1  -4   3 131.365 3.32146   2 
   1  -4   3 126.714 2.83261   4 
   1  -4   3 128.201 3.23554   3 
  -2   4  -3 4.43624 0.81172   3 
  -2   4  -3 4.53342 0.78689   2 
  -2   4  -3 5.16557 1.09478   1 
   2  -4   3 4.04011 0.87361   3 
   2  -4   3 4.52420 0.90640   2 
  -3   4  -3 48.9750 2.59732   1 
  -3   4  -3 50.2247 1.93794   3 
  -3   4  -3 57.5012 2.16443   2 
   3  -4   3 50.8292 2.11441   3 
   3  -4   3 52.0410 2.32216   2 
  -4   4  -3 22.3985 1.88182   2 
  -4   4  -3 21.7563 1.51868   3 
  -4   4  -3 20.8884 2.35574   1 
   4  -4   3 20.8388 1.99150   2 
   4  -4   3 22.6121 1.74840   3 
  -5   4  -3 35.4479 2.87168   1 
  -5   4  -3 34.7293 2.45654   2 
  -5   4  -3 32.4901 1.81354   3 
   5  -4   3 33.1166 2.69445   2 
   5  -4   3 31.3876 3.81036   3 
  -6   4  -3 1744.82 32.9951   2 
  -6   4  -3 1792.43 31.9092   3 
   6  -4   3 1725.32 32.4829   3 
   6  -4   3 1791.99 33.3287   2 
  -7   4  -3 0.59428 2.05395   1 
  -7   4  -3 7.15577 2.24716   2 
   7  -4   3 3.76708 2.06884   2 
  -8   4  -3 66.1124 4.81156   1 
   8  -4   3 66.1130 4.93130   2 
  -9   4  -3 91.9277 5.87876   1 
   9  -4   3 93.4805 6.02518   2 
   8   3  -3 10.0581 3.97718   4 
  -8  -3   3 12.4980 2.90796   2 
   7   3  -3 7.41149 3.15865   4 
  -7  -3   3 12.0986 2.35741   2 
   6   3  -3 -3.0832 2.19268   4 
   6   3  -3 -0.6594 1.99776   3 
  -6  -3   3 0.46375 1.93783   2 
  -6  -3   3 -0.3926 1.27187   3 
  -6  -3   3 1.36326 1.59588   2 
  -6  -3   3 0.03883 1.56833   4 
   5   3  -3 7.79286 1.76693   3 
   5   3  -3 4.87926 1.89595   4 
  -5  -3   3 4.79981 1.26682   3 
  -5  -3   3 5.57841 1.35889   2 
  -5  -3   3 4.92086 1.41817   4 
   4   3  -3 41.4883 2.69236   3 
   4   3  -3 43.1624 2.96465   4 
  -4  -3   3 44.8011 2.40233   4 
  -4  -3   3 45.1715 2.08558   3 
  -4  -3   3 45.4482 2.29806   2 
   3   3  -3 19.5789 1.90607   3 
   3   3  -3 16.1354 1.99400   4 
  -3  -3   3 17.9549 1.67759   4 
  -3  -3   3 18.3220 1.46470   3 
  -3  -3   3 16.3944 1.47471   2 
   2   3  -3 716.002 13.8320   2 
   2   3  -3 708.540 14.2318   4 
   2   3  -3 722.151 13.9888   3 
  -2  -3   3 726.896 13.9226   4 
  -2  -3   3 728.963 13.6969   2 
  -2  -3   3 735.514 13.6480   3 
   1   3  -3 1593.17 28.5531   3 
   1   3  -3 1560.69 28.2797   2 
   1   3  -3 1588.63 28.6755   4 
  -1  -3   3 1597.01 28.2789   3 
  -1  -3   3 1567.71 28.3887   4 
  -1  -3   3 1520.34 28.2107   2 
   0   3  -3 11.6708 1.20069   3 
   0   3  -3 12.2435 0.99111   2 
   0   3  -3 11.3474 1.04576   1 
   0   3  -3 11.3949 1.27863   4 
   0  -3   3 9.45997 1.12093   4 
   0  -3   3 11.5172 1.19536   1 
   0  -3   3 12.1655 1.02976   3 
   0  -3   3 11.4512 1.05012   2 
  -1   3  -3 347.659 6.86035   2 
  -1   3  -3 345.807 6.92735   3 
  -1   3  -3 340.162 7.09490   1 
   1  -3   3 345.892 6.96981   2 
   1  -3   3 339.226 6.76959   3 
   1  -3   3 335.205 7.13800   1 
  -2   3  -3 185.363 4.11909   3 
  -2   3  -3 183.161 4.62968   1 
  -2   3  -3 186.601 4.27315   2 
   2  -3   3 182.318 4.68653   1 
   2  -3   3 185.312 4.05680   3 
   2  -3   3 179.879 4.37257   2 
  -3   3  -3 61.3204 2.29550   2 
  -3   3  -3 61.5640 2.64875   1 
  -3   3  -3 62.4407 1.96683   3 
   3  -3   3 62.2277 2.72494   1 
   3  -3   3 60.5216 2.45749   2 
   3  -3   3 61.8749 2.06307   3 
  -4   3  -3 19.8437 1.28361   3 
  -4   3  -3 21.3721 2.07356   1 
  -4   3  -3 22.1471 1.83945   2 
   4  -3   3 20.8116 2.28944   1 
   4  -3   3 20.9709 1.99069   2 
   4  -3   3 21.0164 1.54548   3 
  -5   3  -3 3.45747 0.83736   3 
  -5   3  -3 5.20702 1.43780   2 
  -5   3  -3 2.45825 1.35229   1 
   5  -3   3 3.42766 1.02282   3 
   5  -3   3 2.02067 1.40243   2 
   5  -3   3 3.65203 1.72390   1 
  -6   3  -3 3019.65 54.8340   1 
  -6   3  -3 2982.59 54.3083   2 
   6  -3   3 2978.52 55.0389   1 
   6  -3   3 2939.87 54.4290   2 
  -7   3  -3 8.06753 1.86368   2 
  -7   3  -3 10.8824 2.27441   1 
   7  -3   3 8.68337 2.27896   2 
  -8   3  -3 31.6489 4.01324   1 
   8  -3   3 36.2123 4.26152   2 
  -9   3  -3 3.63641 2.86995   1 
   9  -3   3 1.83700 2.95793   2 
  -9  -2   3 347.105 9.90014   2 
  -8  -2   3 14.1327 2.68533   2 
   7   2  -3 19.5511 3.01242   4 
  -7  -2   3 21.2126 2.83964   2 
  -7  -2   3 18.7702 2.39204   4 
  -7  -2   3 19.3273 2.83239   2 
   6   2  -3 12.4485 1.99622   3 
   6   2  -3 9.82306 2.29825   4 
  -6  -2   3 10.3621 1.71548   4 
  -6  -2   3 8.70035 1.56661   2 
  -6  -2   3 10.5240 1.53892   3 
  -6  -2   3 11.5329 2.01019   2 
   5   2  -3 229.123 6.61793   4 
   5   2  -3 233.691 6.11510   3 
  -5  -2   3 239.222 6.06197   4 
  -5  -2   3 230.309 5.86403   2 
  -5  -2   3 237.507 5.55024   3 
   4   2  -3 231.207 5.72667   3 
   4   2  -3 228.884 6.13965   4 
  -4  -2   3 229.457 5.67997   4 
  -4  -2   3 228.367 5.46471   2 
  -4  -2   3 229.497 5.30322   3 
   3   2  -3 1990.26 36.7265   4 
   3   2  -3 2025.16 36.4186   3 
  -3  -2   3 2009.68 36.0647   3 
  -3  -2   3 2023.95 36.4257   4 
  -3  -2   3 1988.13 36.1058   2 
   2   2  -3 552.184 10.6891   3 
   2   2  -3 526.601 10.8187   4 
   2   2  -3 547.855 10.4325   2 
  -2  -2   3 531.048 10.3926   3 
  -2  -2   3 535.732 10.3042   2 
  -2  -2   3 538.708 10.6490   4 
   1   2  -3 141.614 3.21877   2 
   1   2  -3 141.283 3.51412   3 
  -1  -2   3 138.621 3.32143   3 
  -1  -2   3 134.962 3.44692   4 
  -1  -2   3 143.626 3.22546   2 
   0   2  -3 311.939 6.10251   2 
   0   2  -3 309.022 6.28764   3 
   0   2  -3 306.861 6.08357   1 
   0  -2   3 313.428 6.14755   3 
   0  -2   3 305.447 6.17501   4 
   0  -2   3 305.350 6.15244   1 
   0  -2   3 310.766 6.15236   2 
  -1   2  -3 344.812 7.09018   1 
  -1   2  -3 349.170 6.86381   3 
  -1   2  -3 347.202 6.92541   2 
   1  -2   3 353.842 6.74416   3 
   1  -2   3 345.213 7.15810   1 
   1  -2   3 356.157 7.03164   2 
  -2   2  -3 961.576 17.3210   3 
  -2   2  -3 949.826 17.9595   1 
  -2   2  -3 962.547 17.7016   2 
   2  -2   3 934.913 17.2025   3 
   2  -2   3 959.987 17.8199   2 
   2  -2   3 959.865 18.0563   1 
  -3   2  -3 68.5860 1.93544   3 
  -3   2  -3 68.1049 2.67019   1 
  -3   2  -3 69.5911 2.50622   2 
   3  -2   3 66.9954 2.75901   1 
   3  -2   3 69.3415 2.56746   2 
   3  -2   3 66.1148 1.95129   3 
  -4   2  -3 130.070 3.89889   2 
  -4   2  -3 132.520 4.19200   1 
   4  -2   3 139.351 4.38040   1 
   4  -2   3 136.057 4.11502   2 
  -5   2  -3 26.2150 2.39821   1 
  -5   2  -3 27.7930 2.32375   2 
   5  -2   3 26.1658 2.38913   2 
   5  -2   3 27.8439 2.76223   1 
  -6   2  -3 121.309 4.62512   1 
  -6   2  -3 121.801 4.61589   2 
   6  -2   3 121.331 5.22969   1 
   6  -2   3 122.482 4.63591   2 
  -7   2  -3 29.7017 3.26540   1 
  -7   2  -3 23.4577 3.07502   2 
   7  -2   3 23.8858 2.95449   2 
   7  -2   3 36.6077 4.73017   1 
  -8   2  -3 6.70779 2.40633   1 
   8  -2   3 13.3101 2.78420   2 
  -9   2  -3 7.38203 2.92989   1 
  -9  -1   3 134.142 5.94066   2 
  -8  -1   3 -1.1881 1.84969   4 
  -8  -1   3 0.05812 1.91365   2 
  -7  -1   3 1.73986 1.51313   4 
  -7  -1   3 2.10724 1.60387   2 
  -7  -1   3 2.97336 2.11618   2 
  -7  -1   3 2.16382 1.60670   3 
  -6  -1   3 1.75663 1.21817   2 
  -6  -1   3 2.05140 1.29186   3 
  -6  -1   3 2.74759 1.49761   2 
  -6  -1   3 0.66464 1.23373   4 
   5   1  -3 213.307 5.54740   3 
  -5  -1   3 210.671 5.35539   2 
  -5  -1   3 213.606 5.25596   3 
  -5  -1   3 213.911 5.56211   4 
   4   1  -3 109.539 3.53968   3 
  -4  -1   3 110.379 3.15701   2 
  -4  -1   3 106.725 3.26432   3 
  -4  -1   3 111.692 3.49849   4 
   3   1  -3 36.9975 2.05538   3 
  -3  -1   3 41.0426 1.65168   2 
  -3  -1   3 37.3327 1.91925   3 
  -3  -1   3 38.5104 2.02141   4 
   2   1  -3 318.964 6.76679   3 
   2   1  -3 318.582 6.41204   2 
  -2  -1   3 322.681 6.34545   2 
  -2  -1   3 317.864 6.80805   4 
  -2  -1   3 324.102 6.65404   3 
   1   1  -3 212.491 4.32286   2 
   1   1  -3 210.633 4.69692   3 
   1   1  -3 214.043 4.13876   1 
  -1  -1   3 214.153 4.19546   1 
  -1  -1   3 210.528 4.32559   2 
   0   1  -3 3230.68 57.2792   2 
   0   1  -3 3362.44 57.7972   1 
   0   1  -3 3197.95 56.8747   3 
   0   1  -3 3049.66 56.1697   4 
   0  -1   3 3074.86 56.1599   4 
   0  -1   3 3173.28 56.5688   1 
   0  -1   3 3213.98 57.7414   2 
   0  -1   3 3222.03 56.4698   3 
  -1   1  -3 199.688 4.36956   2 
  -1   1  -3 203.929 4.20754   4 
  -1   1  -3 205.746 4.50053   1 
  -1   1  -3 205.388 4.23160   3 
   1  -1   3 204.504 4.07816   3 
   1  -1   3 202.695 4.04763   4 
   1  -1   3 198.656 4.42501   2 
   1  -1   3 201.565 4.53966   1 
  -2   1  -3 60.6925 2.23178   1 
  -2   1  -3 65.2224 1.78978   4 
   2  -1   3 63.3031 2.23506   2 
   2  -1   3 64.5010 1.60455   4 
   2  -1   3 65.3519 2.38701   1 
  -3   1  -3 495.708 10.2894   1 
  -3   1  -3 501.948 9.39092   4 
   3  -1   3 500.980 9.38081   4 
   3  -1   3 504.280 10.4484   1 
   3  -1   3 510.485 10.3183   2 
  -4   1  -3 1.32867 0.60842   4 
  -4   1  -3 -0.0440 0.89677   1 
  -4   1  -3 1.27098 0.98744   2 
   4  -1   3 1.31344 0.76093   4 
   4  -1   3 -1.4061 1.13388   1 
   4  -1   3 0.25220 1.06991   2 
  -5   1  -3 0.49821 1.13184   1 
  -5   1  -3 0.62406 0.70868   4 
  -5   1  -3 3.29179 1.24537   2 
   5  -1   3 2.02292 1.05631   4 
   5  -1   3 1.69285 1.29637   2 
   5  -1   3 0.43077 1.54370   1 
  -6   1  -3 1.61474 1.61716   2 
  -6   1  -3 2.14071 1.48722   1 
   6  -1   3 -2.1968 1.90959   2 
   6  -1   3 3.39988 1.53887   4 
   6  -1   3 -2.6943 1.96980   1 
  -7   1  -3 -0.5906 1.72297   1 
  -7   1  -3 1.62904 1.17555   4 
  -7   1  -3 5.09064 2.63404   2 
   7  -1   3 2.36022 2.94545   1 
   7  -1   3 2.66960 1.90052   2 
   7  -1   3 -1.0923 1.87010   4 
  -8   1  -3 0.10210 2.00784   1 
  -8   1  -3 6.44652 1.77753   4 
   8  -1   3 9.14966 2.93341   4 
  -9   0   3 0.94900 2.38309   2 
  -9   0   3 3.95606 1.90338   1 
  -9   0   3 0.33439 2.01953   1 
  -8   0   3 16.6387 2.10618   1 
  -8   0   3 18.4626 2.73346   2 
  -8   0   3 15.3313 2.23043   2 
  -8   0   3 11.0566 2.08337   4 
  -8   0   3 14.2764 2.18164   3 
  -8   0   3 18.0622 2.11981   3 
  -8   0   3 11.4829 1.79629   1 
  -7   0   3 20.3666 2.47614   4 
  -7   0   3 16.4933 2.02260   3 
  -7   0   3 17.6115 2.28950   1 
  -7   0   3 20.6301 2.47174   2 
  -7   0   3 18.5519 2.31672   2 
  -6   0   3 13.4351 1.60622   1 
  -6   0   3 18.5176 1.96430   1 
  -6   0   3 15.8845 2.26861   3 
  -6   0   3 11.5821 1.66533   4 
  -6   0   3 16.7559 1.91661   2 
  -6   0   3 12.7329 1.80489   2 
  -5   0   3 186.997 5.97940   4 
  -5   0   3 210.488 5.05364   2 
  -5   0   3 202.635 4.62407   1 
  -5   0   3 196.925 5.16222   3 
  -5   0   3 205.325 4.94056   1 
  -5   0   3 210.230 5.27403   2 
   4   0  -3 72.0413 2.80941   3 
  -4   0   3 69.3277 2.08427   1 
  -4   0   3 70.3054 2.69041   3 
  -4   0   3 73.3966 2.37195   2 
  -4   0   3 73.6725 2.76244   4 
   3   0  -3 744.785 14.2641   3 
   3   0  -3 733.289 13.6415   1 
  -3   0   3 728.691 13.7160   2 
  -3   0   3 742.311 14.2906   4 
  -3   0   3 747.409 14.2131   3 
  -3   0   3 733.540 13.4883   1 
   2   0  -3 817.275 15.2097   3 
   2   0  -3 805.530 14.6616   2 
   2   0  -3 803.746 14.5635   1 
  -2   0   3 798.633 14.5982   2 
  -2   0   3 815.256 15.1581   3 
  -2   0   3 791.124 14.4930   1 
   1   0  -3 0.31267 0.67543   4 
   1   0  -3 -0.0845 0.35589   1 
   1   0  -3 0.09628 0.35530   2 
   1   0  -3 0.00043 0.59240   3 
  -1   0   3 -0.4951 0.58345   3 
  -1   0   3 -0.3679 0.64349   4 
  -1   0   3 0.20384 0.38649   1 
  -1   0   3 -0.0614 0.36619   2 
   0   0  -3 49.1976 1.49857   2 
   0   0  -3 51.6250 1.72411   3 
   0   0  -3 51.7383 1.58149   1 
   0   0  -3 51.7880 1.77224   4 
   0   0   3 52.1064 1.68301   4 
   0   0   3 49.9818 1.66948   3 
   0   0   3 48.7049 1.60541   1 
   0   0   3 52.2679 1.58139   2 
  -1   0  -3 181.862 3.89204   4 
  -1   0  -3 179.623 4.04293   1 
  -1   0  -3 181.538 4.03797   2 
   1   0   3 175.826 4.03936   2 
   1   0   3 180.115 3.72328   4 
   1   0   3 180.248 4.12675   1 
   1   0   3 181.156 3.65278   3 
  -2   0  -3 59.4218 2.18852   2 
  -2   0  -3 60.7556 2.17221   1 
  -2   0  -3 60.9774 1.82368   4 
   2   0   3 61.4549 1.74932   4 
   2   0   3 60.4773 2.29137   1 
   2   0   3 60.5089 2.24733   2 
  -3   0  -3 268.802 6.18360   2 
  -3   0  -3 271.072 5.52482   4 
  -3   0  -3 267.233 6.10922   1 
   3   0   3 268.707 6.30054   1 
   3   0   3 268.177 5.57272   4 
   3   0   3 271.011 6.26822   2 
  -4   0  -3 155.846 4.41173   1 
  -4   0  -3 154.326 3.70501   4 
  -4   0  -3 157.248 4.57050   2 
   4   0   3 159.477 4.74402   1 
   4   0   3 153.308 4.59780   2 
   4   0   3 160.475 3.98495   4 
  -5   0  -3 32.3263 2.63354   2 
  -5   0  -3 34.9849 2.41287   1 
   5   0   3 28.9816 2.97702   1 
   5   0   3 29.2994 2.26720   4 
   5   0   3 26.5571 2.61600   2 
  -6   0  -3 8.34360 1.63856   1 
  -6   0  -3 8.59357 2.00455   2 
  -6   0  -3 4.54317 1.21457   4 
   6   0   3 7.17333 1.90528   2 
   6   0   3 7.26554 1.79363   4 
   6   0   3 7.17885 2.37295   1 
  -7   0  -3 1.61737 1.64038   1 
  -7   0  -3 3.14844 1.43573   4 
   7   0   3 -0.4312 2.07624   4 
   7   0   3 2.36393 2.21650   2 
   7   0   3 2.72155 3.12660   1 
  -8   0  -3 15.3705 2.50050   1 
  -8   0  -3 16.3185 2.34293   4 
   8   0   3 16.2398 3.48610   4 
 -10   1   3 2.86711 3.08152   2 
 -10   1   3 -3.4773 2.75363   1 
 -10   1   3 -3.7242 2.42577   1 
  -9   1   3 9.86942 2.59552   3 
  -9   1   3 8.06922 2.09473   4 
  -9   1   3 6.44009 2.31666   2 
  -9   1   3 1.62886 1.67764   3 
  -9   1   3 6.25112 2.15704   1 
  -9   1   3 7.30823 2.15835   1 
  -8   1   3 8.49561 2.02862   2 
  -8   1   3 16.8044 2.18947   4 
  -8   1   3 11.7750 2.15977   1 
  -8   1   3 12.3720 1.94044   3 
  -8   1   3 8.82386 1.81959   1 
  -8   1   3 12.6898 2.63807   2 
  -8   1   3 14.9462 2.28385   3 
  -7   1   3 0.66867 1.63508   3 
  -7   1   3 3.19678 1.27139   1 
  -7   1   3 3.18973 1.69867   2 
  -7   1   3 4.14311 1.47344   3 
  -7   1   3 2.77316 1.48263   4 
  -7   1   3 3.25683 1.33518   2 
  -7   1   3 2.43204 1.52551   1 
  -6   1   3 -0.0399 1.15043   4 
  -6   1   3 -1.1385 1.22311   3 
  -6   1   3 0.99142 1.12807   2 
  -6   1   3 1.56669 1.19513   1 
  -6   1   3 -1.1632 0.87570   1 
  -6   1   3 -0.9001 0.88518   2 
  -5   1   3 13.2807 1.44093   2 
  -5   1   3 13.4752 1.56614   4 
  -5   1   3 13.5561 1.90285   3 
  -5   1   3 14.7908 1.38252   1 
  -5   1   3 15.0876 1.37939   2 
  -4   1   3 9.76936 1.04315   2 
  -4   1   3 10.9699 1.45404   3 
  -4   1   3 10.4668 1.08646   1 
  -4   1   3 10.7682 1.35949   4 
   3  -1  -3 178.706 4.06770   1 
  -3   1   3 176.993 3.91326   1 
  -3   1   3 174.214 4.47453   4 
  -3   1   3 174.295 4.48632   3 
  -3   1   3 181.698 3.78140   2 
   2  -1  -3 47.4335 1.55173   1 
   2  -1  -3 49.9830 1.34760   2 
   2  -1  -3 47.2869 1.99073   4 
  -2   1   3 48.9655 2.03424   3 
  -2   1   3 48.9012 1.50091   1 
  -2   1   3 46.8371 1.95977   4 
  -2   1   3 48.2944 1.29247   2 
   1  -1  -3 522.767 9.48931   2 
   1  -1  -3 528.866 10.1499   4 
   1  -1  -3 516.414 9.74871   1 
  -1   1   3 526.526 10.1332   3 
  -1   1   3 513.560 9.53691   2 
  -1   1   3 528.415 9.77689   1 
  -1   1   3 524.128 10.0373   4 
   0  -1  -3 172.490 3.65925   2 
   0  -1  -3 175.566 3.77686   1 
   0  -1  -3 174.007 3.94493   4 
   0   1   3 177.538 3.84335   1 
   0   1   3 171.906 3.86361   3 
   0   1   3 171.028 3.79359   4 
   0   1   3 173.393 3.70833   2 
  -1  -1  -3 305.292 6.12498   4 
  -1  -1  -3 304.960 6.18967   1 
  -1  -1  -3 297.632 6.18391   2 
   1   1   3 304.330 6.25965   1 
   1   1   3 303.332 5.95297   4 
   1   1   3 289.842 6.18553   2 
  -2  -1  -3 296.936 6.56639   2 
  -2  -1  -3 305.969 6.24051   4 
  -2  -1  -3 307.774 6.47906   1 
   2   1   3 312.837 6.65367   1 
   2   1   3 307.270 6.17912   4 
   2   1   3 301.633 6.62067   2 
  -3  -1  -3 1354.31 26.7593   2 
  -3  -1  -3 1431.41 25.4406   4 
  -3  -1  -3 1384.26 25.7993   1 
   3   1   3 1391.99 25.4869   4 
   3   1   3 1415.10 26.1062   2 
   3   1   3 1435.22 26.0754   1 
  -4  -1  -3 0.48978 0.78317   4 
  -4  -1  -3 0.03601 1.17780   2 
  -4  -1  -3 0.37758 0.90166   1 
   4   1   3 -1.3340 0.89184   4 
   4   1   3 -0.3905 1.28176   1 
   4   1   3 -0.0040 1.15795   2 
  -5  -1  -3 115.051 3.90245   1 
  -5  -1  -3 115.048 4.46847   2 
  -5  -1  -3 115.106 3.48783   4 
   5   1   3 118.972 4.41471   2 
   5   1   3 118.117 4.61310   1 
   5   1   3 113.794 3.99314   4 
  -6  -1  -3 16.8595 2.21621   4 
  -6  -1  -3 17.8400 2.60164   2 
  -6  -1  -3 21.9727 2.43268   1 
   6   1   3 18.7673 2.34545   4 
   6   1   3 20.7647 2.66864   2 
   6   1   3 21.1812 2.94029   1 
  -7  -1  -3 1.46477 1.65942   1 
  -7  -1  -3 2.23715 1.73074   4 
   7   1   3 1.37955 3.29280   1 
   7   1   3 3.17373 2.49587   4 
  -8  -1  -3 46.5775 3.83391   1 
   8   1   3 59.0457 6.02003   4 
 -10   2   3 38.8785 4.78981   1 
 -10   2   3 32.4316 3.77155   3 
 -10   2   3 44.8661 4.53662   4 
 -10   2   3 44.7829 4.51056   2 
  -9   2   3 2.74963 1.79475   4 
  -9   2   3 1.55012 2.85548   2 
  -9   2   3 2.10466 2.19093   1 
  -9   2   3 4.28463 2.54427   3 
  -9   2   3 3.11781 1.74916   3 
  -9   2   3 3.57697 2.57181   4 
  -9   2   3 3.78324 2.26070   1 
  -9   2   3 -0.8513 2.02396   2 
  -8   2   3 92.6655 4.42087   1 
  -8   2   3 93.2788 3.90375   4 
  -8   2   3 85.2899 4.52831   3 
  -8   2   3 92.0998 4.68196   4 
  -8   2   3 87.2512 3.90731   2 
  -8   2   3 93.1101 4.06760   1 
  -8   2   3 97.7352 4.36604   2 
  -8   2   3 90.3724 3.80223   3 
  -7   2   3 51.4201 2.98818   3 
  -7   2   3 49.2187 3.19252   1 
  -7   2   3 49.0422 3.43016   4 
  -7   2   3 51.8547 2.84891   1 
  -7   2   3 52.7112 3.02900   4 
  -7   2   3 48.0960 3.42636   3 
  -7   2   3 51.9716 3.05720   2 
  -6   2   3 15.2750 1.85779   3 
  -6   2   3 16.3347 1.90334   1 
  -6   2   3 12.3741 1.79114   1 
  -6   2   3 16.7127 1.99000   4 
  -6   2   3 17.7240 2.49940   3 
  -6   2   3 14.6472 1.95526   2 
  -5   2   3 508.005 10.8388   3 
  -5   2   3 503.782 10.6018   3 
  -5   2   3 507.015 10.0135   2 
  -5   2   3 507.516 10.5887   4 
  -5   2   3 505.121 10.7142   4 
  -5   2   3 513.192 10.3206   1 
  -5   2   3 506.070 10.1519   2 
  -4   2   3 324.696 6.83003   1 
  -4   2   3 318.991 6.43811   2 
  -4   2   3 318.666 6.54674   2 
  -4   2   3 324.902 7.39235   3 
  -4   2   3 323.705 7.18438   4 
   3  -2  -3 187.335 4.43844   1 
   3  -2  -3 183.301 4.66605   4 
  -3   2   3 188.937 3.76849   2 
  -3   2   3 187.162 4.25977   1 
  -3   2   3 189.686 4.60915   4 
   2  -2  -3 44.5174 1.99119   4 
  -2   2   3 47.1815 1.61779   1 
  -2   2   3 46.8729 1.90379   4 
   1  -2  -3 2.91907 0.53916   2 
   1  -2  -3 3.12419 0.87480   4 
   1  -2  -3 3.59934 0.80239   1 
  -1   2   3 2.64730 0.61532   2 
  -1   2   3 4.59183 0.76529   1 
  -1   2   3 3.20283 0.77476   4 
  -1   2   3 2.32175 0.85867   3 
   0  -2  -3 10.3577 1.16075   4 
   0  -2  -3 10.5660 0.92883   1 
   0  -2  -3 9.21527 0.91017   2 
   0   2   3 8.02928 0.94362   2 
   0   2   3 9.22452 1.03836   1 
   0   2   3 9.58461 1.00262   4 
   0   2   3 9.72679 1.10523   3 
  -1  -2  -3 940.788 17.1215   4 
  -1  -2  -3 912.816 17.0367   1 
  -1  -2  -3 925.479 17.1125   2 
   1   2   3 930.757 17.1815   1 
   1   2   3 907.876 17.1003   2 
   1   2   3 925.090 16.9591   4 
  -2  -2  -3 8.45474 1.10653   1 
  -2  -2  -3 8.14339 1.14795   2 
  -2  -2  -3 9.62671 1.17656   4 
   2   2   3 12.1077 1.35592   1 
   2   2   3 8.63664 1.02474   4 
   2   2   3 9.12362 1.17569   2 
  -3  -2  -3 847.526 16.1286   1 
  -3  -2  -3 834.459 15.9670   4 
  -3  -2  -3 832.842 16.5118   2 
   3   2   3 856.354 16.4361   1 
   3   2   3 848.875 16.1026   4 
   3   2   3 851.190 16.5207   2 
  -4  -2  -3 17.1944 2.45894   2 
  -4  -2  -3 11.7877 1.65307   1 
  -4  -2  -3 13.3705 1.66529   4 
   4   2   3 14.2287 1.88985   1 
   4   2   3 10.9951 1.76855   2 
   4   2   3 10.3615 1.54547   4 
  -5  -2  -3 24.0362 2.17529   1 
  -5  -2  -3 25.3588 3.25135   2 
  -5  -2  -3 24.6039 2.21826   4 
   5   2   3 28.2557 3.25819   1 
   5   2   3 27.4595 2.72503   4 
  -6  -2  -3 97.9133 3.78819   1 
  -6  -2  -3 109.728 6.80236   2 
  -6  -2  -3 95.4692 3.85943   4 
   6   2   3 99.2720 4.76710   4 
   6   2   3 92.8813 5.25329   1 
  -7  -2  -3 8.31621 2.07327   1 
   7   2   3 6.48412 3.01517   4 
   7   2   3 9.57232 3.86956   1 
 -10   3   3 102.932 4.57011   3 
 -10   3   3 105.106 5.30594   2 
 -10   3   3 105.443 6.56887   3 
 -10   3   3 100.367 6.05733   4 
 -10   3   3 102.926 6.07399   1 
 -10   3   3 110.980 4.90014   4 
  -9   3   3 0.94541 2.33364   1 
  -9   3   3 1.64149 2.82477   3 
  -9   3   3 1.38797 2.42481   4 
  -9   3   3 -0.5070 1.76436   2 
  -9   3   3 1.26838 1.69608   3 
  -9   3   3 3.24768 1.73176   4 
  -9   3   3 0.55969 2.17486   1 
  -9   3   3 5.37802 2.50588   2 
  -8   3   3 21.2037 2.72844   4 
  -8   3   3 27.4890 3.14087   3 
  -8   3   3 27.9812 3.31949   4 
  -8   3   3 25.0843 3.67419   1 
  -8   3   3 25.4803 2.71976   3 
  -8   3   3 25.8221 3.04052   1 
  -8   3   3 25.8706 3.07541   2 
  -7   3   3 23.7289 2.38549   2 
  -7   3   3 26.3599 3.23586   3 
  -7   3   3 25.3105 2.96133   1 
  -7   3   3 25.1523 2.57250   3 
  -7   3   3 25.2267 2.83091   4 
  -7   3   3 27.2414 2.63557   4 
  -7   3   3 24.8846 2.59423   1 
  -6   3   3 137.152 4.42006   4 
  -6   3   3 135.228 4.37904   3 
  -6   3   3 142.847 4.34518   4 
  -6   3   3 135.701 4.86128   3 
  -6   3   3 133.185 3.89554   2 
  -6   3   3 140.470 4.24343   1 
  -5   3   3 1872.35 34.2245   1 
  -5   3   3 1861.10 33.5561   2 
  -5   3   3 1891.45 33.7167   2 
  -5   3   3 1858.25 34.2951   4 
  -5   3   3 1882.74 34.4267   3 
  -4   3   3 355.785 7.68025   4 
  -4   3   3 350.319 7.86015   3 
  -4   3   3 360.755 6.87789   2 
  -4   3   3 359.125 7.00127   2 
  -4   3   3 365.678 7.62334   1 
   3  -3  -3 164.873 4.38138   4 
   3  -3  -3 164.472 4.25013   1 
  -3   3   3 167.451 4.04431   1 
  -3   3   3 166.419 4.35308   3 
  -3   3   3 166.559 4.13186   4 
   2  -3  -3 17.3093 1.63216   4 
   2  -3  -3 20.0590 1.40318   1 
  -2   3   3 19.0086 1.45345   4 
  -2   3   3 19.1054 1.29788   1 
  -2   3   3 19.5836 1.68529   3 
   1  -3  -3 1312.64 23.5918   4 
   1  -3  -3 1280.07 23.3522   1 
  -1   3   3 1262.20 23.2552   4 
  -1   3   3 1257.03 23.2628   1 
  -1   3   3 1303.88 23.4152   3 
   0  -3  -3 3.44957 0.65919   2 
   0  -3  -3 3.47227 0.71335   1 
   0  -3  -3 3.02050 0.82702   4 
   0   3   3 3.96560 0.79511   3 
   0   3   3 4.35756 0.73234   2 
   0   3   3 3.64969 0.71961   4 
   0   3   3 3.56954 0.78556   1 
  -1  -3  -3 1720.84 31.5037   4 
  -1  -3  -3 1718.38 31.3254   1 
  -1  -3  -3 1739.88 31.4346   2 
   1   3   3 1738.43 31.4064   2 
   1   3   3 1719.38 31.3741   4 
   1   3   3 1776.75 30.9183   3 
   1   3   3 1778.74 31.5371   1 
  -2  -3  -3 117.165 3.19270   1 
  -2  -3  -3 110.111 3.54233   2 
  -2  -3  -3 117.341 3.33163   4 
   2   3   3 116.165 3.35423   4 
   2   3   3 110.560 3.43269   2 
   2   3   3 112.817 3.41366   1 
  -3  -3  -3 60.6019 2.56980   4 
  -3  -3  -3 60.8633 2.38480   1 
  -3  -3  -3 57.8586 3.07505   2 
   3   3   3 60.5913 2.72811   4 
   3   3   3 57.6003 3.28516   1 
  -4  -3  -3 20.2463 1.94079   1 
  -4  -3  -3 15.1119 2.21526   2 
  -4  -3  -3 17.6713 2.05620   4 
   4   3   3 18.0667 2.18985   1 
   4   3   3 15.8305 1.94839   4 
  -5  -3  -3 -0.8472 1.47938   4 
  -5  -3  -3 0.57834 2.19746   2 
  -5  -3  -3 -0.5039 1.19259   1 
   5   3   3 1.23936 1.85107   4 
   5   3   3 -1.8718 2.11784   1 
  -6  -3  -3 36.7503 2.93315   1 
   6   3   3 39.1210 4.43573   4 
   6   3   3 46.3187 5.10192   1 
  -7  -3  -3 97.2760 4.35945   1 
   7   3   3 94.1513 6.33778   4 
   7   3   3 103.356 7.69742   1 
 -10   4   3 -0.1092 2.28436   2 
 -10   4   3 -2.6436 4.09017   3 
 -10   4   3 -2.7731 2.08049   3 
 -10   4   3 -0.4083 3.14344   1 
 -10   4   3 -0.8194 3.43426   4 
  -9   4   3 26.7055 3.67156   2 
  -9   4   3 20.6453 2.41588   3 
  -9   4   3 21.4000 3.07330   4 
  -9   4   3 28.4738 3.66673   4 
  -9   4   3 21.5268 3.68546   3 
  -9   4   3 27.3071 3.56444   1 
  -9   4   3 20.9297 2.89641   2 
  -8   4   3 24.2682 3.09785   4 
  -8   4   3 22.2261 2.90440   1 
  -8   4   3 28.8504 3.18046   1 
  -8   4   3 19.8924 2.32371   2 
  -8   4   3 18.9758 3.11930   3 
  -8   4   3 22.5074 2.84567   4 
  -8   4   3 18.7261 2.31390   3 
  -7   4   3 256.218 6.68972   4 
  -7   4   3 257.859 6.66979   4 
  -7   4   3 254.731 6.90491   1 
  -7   4   3 267.021 6.40957   2 
  -7   4   3 267.365 6.81541   3 
  -6   4   3 173.290 5.05078   1 
  -6   4   3 175.157 4.42132   2 
  -6   4   3 172.175 4.84210   4 
  -6   4   3 172.936 5.11674   3 
  -5   4   3 47.3000 2.41455   4 
  -5   4   3 48.2211 2.49949   1 
  -5   4   3 48.9295 2.71774   3 
  -5   4   3 48.1920 1.84295   2 
  -5   4   3 49.2502 1.69647   2 
   4  -4  -3 40.2502 2.42041   4 
  -4   4   3 40.8266 2.07138   1 
  -4   4   3 42.1922 2.36673   3 
  -4   4   3 41.1100 2.09475   4 
   3  -4  -3 75.8691 2.79472   1 
   3  -4  -3 75.6542 2.87950   4 
  -3   4   3 74.3851 2.79583   3 
  -3   4   3 77.3031 2.60173   1 
  -3   4   3 75.4127 2.50260   4 
   2  -4  -3 205.960 4.91218   1 
   2  -4  -3 198.413 4.96299   4 
  -2   4   3 199.162 4.88687   3 
  -2   4   3 203.743 4.59855   4 
  -2   4   3 199.518 4.66902   1 
   1  -4  -3 172.312 4.36653   4 
   1  -4  -3 170.328 4.46044   3 
   1  -4  -3 168.891 4.18527   1 
  -1   4   3 164.470 3.98923   4 
  -1   4   3 174.336 4.10303   1 
  -1   4   3 172.158 4.18097   3 
   0  -4  -3 73.1445 2.26756   2 
   0  -4  -3 75.2657 2.44010   1 
   0  -4  -3 79.0085 2.75110   3 
   0   4   3 75.6253 2.35376   3 
   0   4   3 78.2503 2.50629   1 
   0   4   3 75.9328 2.46323   4 
  -1  -4  -3 5.22125 1.08411   2 
  -1  -4  -3 5.33791 1.16807   3 
  -1  -4  -3 4.51020 0.91358   1 
  -1  -4  -3 3.65954 1.00630   4 
   1   4   3 5.97680 0.87853   3 
   1   4   3 7.00758 1.16596   1 
   1   4   3 6.63791 1.08828   4 
  -2  -4  -3 67.7947 4.54330   2 
  -2  -4  -3 71.6310 2.53369   1 
  -2  -4  -3 72.7112 2.82839   4 
   2   4   3 78.5312 2.94749   4 
   2   4   3 69.1999 2.84087   1 
  -3  -4  -3 107.634 3.74254   4 
  -3  -4  -3 106.723 3.33853   1 
  -3  -4  -3 111.992 4.32109   2 
   3   4   3 110.274 3.88528   1 
   3   4   3 105.369 3.85322   4 
  -4  -4  -3 133.785 4.45889   4 
  -4  -4  -3 141.045 5.42356   2 
  -4  -4  -3 132.971 4.01872   1 
   4   4   3 136.196 4.85536   4 
   4   4   3 137.457 4.91693   1 
  -5  -4  -3 43.8704 4.86739   2 
  -5  -4  -3 46.4154 2.72555   1 
   5   4   3 48.7214 4.52130   1 
   5   4   3 40.9553 4.00415   4 
  -6  -4  -3 -0.6022 1.68284   1 
   6   4   3 0.28176 3.02623   4 
   6   4   3 -3.5387 3.62234   1 
 -10   5   3 0.89630 2.16238   3 
 -10   5   3 0.68092 2.33628   2 
 -10   5   3 0.72812 3.34996   1 
 -10   5   3 1.62116 2.98171   2 
 -10   5   3 1.15899 2.49107   4 
  -9   5   3 11.0367 3.03808   1 
  -9   5   3 6.84433 2.14646   4 
  -9   5   3 9.63349 3.69398   3 
  -9   5   3 8.68463 2.01231   4 
  -9   5   3 10.8604 2.42036   2 
  -9   5   3 7.95282 2.08432   3 
  -9   5   3 8.92552 1.99078   2 
  -8   5   3 13.7568 1.93207   2 
  -8   5   3 12.4001 2.01300   4 
  -8   5   3 14.4453 2.84165   1 
  -8   5   3 10.8509 2.00450   4 
  -8   5   3 13.4530 2.20423   3 
  -8   5   3 14.7924 2.61228   1 
  -7   5   3 78.5036 3.63012   3 
  -7   5   3 70.2921 4.40108   1 
  -7   5   3 74.1229 3.64580   4 
  -7   5   3 66.7588 3.79576   1 
  -7   5   3 70.5082 2.86568   2 
  -7   5   3 76.3599 3.34339   4 
  -6   5   3 9.54346 1.74360   1 
  -6   5   3 9.26366 1.48103   4 
  -6   5   3 7.56587 1.06444   2 
  -6   5   3 7.71274 1.68477   3 
   5  -5  -3 6.25351 1.62046   4 
  -5   5   3 5.24599 1.32350   1 
  -5   5   3 4.69070 1.45740   3 
  -5   5   3 3.20116 1.05840   4 
   4  -5  -3 1.31298 1.24206   4 
  -4   5   3 2.39393 1.19973   3 
  -4   5   3 -0.1106 0.90204   4 
  -4   5   3 0.82960 1.07097   1 
   3  -5  -3 4.35614 1.43610   3 
   3  -5  -3 2.29808 1.10055   1 
   3  -5  -3 3.40328 1.28646   4 
  -3   5   3 3.70773 0.93958   4 
  -3   5   3 3.66253 1.21872   3 
  -3   5   3 2.92199 1.03569   1 
   2  -5  -3 12.8733 1.66490   3 
   2  -5  -3 14.4879 1.87560   4 
   2  -5  -3 12.6224 1.63165   1 
  -2   5   3 14.3216 1.36819   4 
  -2   5   3 16.2272 1.75910   3 
  -2   5   3 13.2034 1.54368   1 
   1  -5  -3 40.1501 2.31999   4 
   1  -5  -3 37.9256 2.54521   3 
   1  -5  -3 37.3629 2.00208   1 
  -1   5   3 36.6077 1.87900   4 
  -1   5   3 39.8016 2.02137   3 
   0  -5  -3 381.088 7.90897   1 
   0  -5  -3 369.167 7.50212   2 
   0  -5  -3 372.589 7.37975   2 
   0  -5  -3 372.019 8.14740   3 
   0  -5  -3 378.340 8.17524   4 
   0   5   3 379.204 7.61029   3 
   0   5   3 322.418 9.27536   1 
   0   5   3 364.898 7.80929   4 
  -1  -5  -3 15.0052 1.73919   3 
  -1  -5  -3 15.5656 1.60841   1 
  -1  -5  -3 13.7952 1.97484   4 
  -1  -5  -3 16.3631 2.07294   2 
   1   5   3 16.2432 1.92762   4 
   1   5   3 15.4485 1.52181   3 
   1   5   3 14.8277 1.97779   1 
  -2  -5  -3 146.381 4.54725   4 
  -2  -5  -3 149.377 4.06328   1 
  -2  -5  -3 146.736 4.75970   2 
   2   5   3 150.593 4.59909   4 
   2   5   3 151.186 4.50312   1 
  -3  -5  -3 1.56369 1.12325   1 
  -3  -5  -3 3.15965 2.12352   2 
  -3  -5  -3 3.60363 1.69025   4 
   3   5   3 0.69058 1.55901   4 
   3   5   3 2.00267 1.80928   1 
  -4  -5  -3 22.2642 2.25474   1 
  -4  -5  -3 27.0423 3.31854   2 
   4   5   3 26.9263 3.54611   4 
   4   5   3 24.9283 3.70895   1 
  -5  -5  -3 33.6875 2.72795   1 
   5   5   3 43.6956 5.32440   1 
   5   5   3 39.2075 4.75641   4 
  -6  -5  -3 5.94144 2.33240   1 
   6   5   3 2.47523 3.70364   4 
  -9   6   3 17.3577 2.57571   3 
  -9   6   3 19.6553 2.78233   2 
  -9   6   3 26.2185 3.27219   2 
  -9   6   3 18.5996 3.61888   1 
  -8   6   3 0.23893 1.81466   3 
  -8   6   3 -0.2340 1.91336   4 
  -8   6   3 -0.2635 1.38391   2 
  -8   6   3 -0.0148 1.26321   2 
  -8   6   3 -4.8828 2.54634   1 
  -7   6   3 3.09990 1.04224   2 
  -7   6   3 1.79176 1.69111   3 
  -7   6   3 5.25582 1.24405   2 
  -7   6   3 1.99026 1.92379   1 
  -7   6   3 3.60030 1.39145   4 
  -6   6   3 88.8505 3.97172   1 
  -6   6   3 90.9314 3.23872   4 
  -6   6   3 90.4677 5.58828   3 
  -5   6   3 27.6674 2.51983   3 
  -5   6   3 29.9927 1.98526   4 
  -5   6   3 23.6698 2.50178   1 
   4  -6  -3 35.5087 2.91294   4 
  -4   6   3 43.1223 2.66655   3 
  -4   6   3 41.3880 2.06012   4 
  -4   6   3 41.5431 2.61562   1 
   3  -6  -3 0.91509 1.33125   1 
   3  -6  -3 -0.2590 1.37904   4 
   3  -6  -3 -0.9010 1.60809   3 
  -3   6   3 0.00741 0.86772   4 
  -3   6   3 -0.5417 1.09068   3 
  -3   6   3 0.41687 1.14022   1 
   2  -6  -3 8.85229 1.64673   4 
   2  -6  -3 5.73276 1.40457   1 
   2  -6  -3 5.73750 1.74667   3 
  -2   6   3 6.14514 1.14078   4 
  -2   6   3 6.09406 1.36003   1 
  -2   6   3 5.51691 1.31417   3 
   1  -6  -3 53.8763 2.69841   1 
   1  -6  -3 59.3656 3.30937   3 
   1  -6  -3 57.4280 3.06334   4 
  -1   6   3 57.5381 2.59117   1 
  -1   6   3 56.5009 2.59531   3 
  -1   6   3 52.2181 2.49201   4 
   0  -6  -3 -0.1925 1.14440   2 
   0  -6  -3 3.14584 1.74825   3 
   0  -6  -3 1.75697 1.44862   4 
   0  -6  -3 3.06324 0.96335   2 
   0  -6  -3 1.92341 1.09063   1 
   0   6   3 1.86155 1.22345   1 
   0   6   3 3.13740 1.29136   4 
   0   6   3 3.74354 1.12873   3 
  -1  -6  -3 -1.1287 1.09415   1 
  -1  -6  -3 -2.0144 1.66541   2 
  -1  -6  -3 1.85631 1.76934   3 
  -1  -6  -3 0.14048 1.45376   4 
  -1  -6  -3 -0.6712 1.13043   2 
   1   6   3 -0.5264 1.38111   1 
   1   6   3 0.08559 1.39030   4 
   1   6   3 1.94763 1.03708   3 
  -2  -6  -3 1.32374 1.60642   2 
  -2  -6  -3 -0.3073 1.22582   1 
  -2  -6  -3 0.37552 2.10624   2 
  -2  -6  -3 -2.1678 1.75012   4 
   2   6   3 1.43909 1.73930   1 
   2   6   3 2.33733 1.66037   4 
  -3  -6  -3 24.9967 3.21758   2 
  -3  -6  -3 23.3155 2.34014   1 
  -3  -6  -3 28.3962 3.34789   2 
   3   6   3 29.5136 3.54429   1 
   3   6   3 21.4597 2.72940   4 
  -4  -6  -3 24.1765 3.90519   2 
  -4  -6  -3 29.3846 4.13675   2 
  -4  -6  -3 17.2923 2.57295   1 
   4   6   3 25.1647 3.30659   1 
   4   6   3 22.2569 3.34266   4 
  -5  -6  -3 6.12989 1.96016   1 
  -5  -6  -3 9.22425 3.37201   2 
   5   6   3 -0.2152 3.49124   4 
  -9   7   3 6.28068 1.77132   2 
  -9   7   3 5.92272 2.39969   3 
  -9   7   3 3.49275 3.59877   1 
  -8   7   3 215.557 8.29691   1 
  -8   7   3 224.877 6.80926   3 
  -7   7   3 46.4189 3.60459   3 
  -7   7   3 50.8266 2.69212   4 
   6  -7  -3 262.033 7.27786   4 
  -6   7   3 235.584 7.12407   1 
  -6   7   3 262.914 7.04903   3 
  -6   7   3 268.012 6.00407   4 
   5  -7  -3 6.57725 2.17004   4 
  -5   7   3 5.28928 1.76252   3 
  -5   7   3 6.97304 1.31321   4 
  -5   7   3 10.0773 2.02941   1 
   4  -7  -3 246.624 7.50762   3 
   4  -7  -3 255.603 6.96352   4 
  -4   7   3 242.190 6.92561   3 
  -4   7   3 256.805 5.82205   4 
  -4   7   3 254.263 6.60361   1 
   3  -7  -3 29.1487 2.95192   3 
   3  -7  -3 23.8568 3.05649   4 
   3  -7  -3 28.6889 2.80672   1 
  -3   7   3 28.2777 2.54354   1 
  -3   7   3 26.7124 2.06692   4 
  -3   7   3 27.9663 2.54381   3 
   2  -7  -3 17.8918 2.54108   1 
   2  -7  -3 19.0965 2.33042   4 
   2  -7  -3 20.6740 2.65783   3 
  -2   7   3 18.8510 2.31510   3 
  -2   7   3 15.6784 1.96160   4 
  -2   7   3 16.6111 2.30828   1 
   1  -7  -3 208.960 6.36451   3 
   1  -7  -3 200.005 6.00239   4 
   1  -7  -3 205.549 5.75012   1 
  -1   7   3 194.450 5.37396   1 
  -1   7   3 203.791 5.36643   4 
  -1   7   3 200.128 5.26772   3 
   0  -7  -3 258.921 6.58817   1 
   0  -7  -3 266.133 7.27738   3 
   0  -7  -3 252.076 6.04092   2 
   0  -7  -3 248.497 7.02713   4 
   0  -7  -3 256.361 5.60565   2 
   0   7   3 264.197 6.14215   3 
   0   7   3 246.882 6.37108   1 
   0   7   3 243.139 7.09718   4 
  -1  -7  -3 29.4874 2.64510   1 
  -1  -7  -3 30.0063 3.39648   2 
  -1  -7  -3 32.5523 2.54083   2 
  -1  -7  -3 26.7233 3.51317   4 
  -1  -7  -3 37.1070 3.93330   3 
   1   7   3 34.3162 3.18962   1 
   1   7   3 32.3712 2.59009   3 
   1   7   3 35.9642 3.11838   4 
  -2  -7  -3 11.0558 2.03569   2 
  -2  -7  -3 6.39976 2.47005   3 
  -2  -7  -3 10.6011 1.81234   1 
  -2  -7  -3 6.03828 2.75817   2 
   2   7   3 7.21685 2.27612   1 
   2   7   3 9.30326 2.37036   4 
  -3  -7  -3 0.64517 3.50279   2 
  -3  -7  -3 -1.2167 2.22905   2 
  -3  -7  -3 3.84576 1.75478   1 
   3   7   3 5.53308 2.64025   4 
   3   7   3 3.62863 2.71586   1 
  -4  -7  -3 1.42899 2.92235   2 
  -4  -7  -3 0.47229 2.11940   1 
   4   7   3 2.82788 3.40956   4 
  -8   8   3 372.451 11.5253   1 
  -8   8   3 362.007 9.47706   3 
  -7   8   3 1.37155 2.06661   3 
  -7   8   3 -0.5693 1.30722   4 
   6  -8  -3 174.616 6.44624   4 
  -6   8   3 182.877 4.69772   4 
  -6   8   3 182.596 5.85771   3 
   5  -8  -3 -0.7765 2.26839   4 
  -5   8   3 2.19496 2.01841   1 
  -5   8   3 -0.3180 1.22251   4 
  -5   8   3 1.59246 1.78280   3 
   4  -8  -3 15.7132 2.68932   4 
   4  -8  -3 9.38130 2.91593   3 
  -4   8   3 12.7664 1.55894   4 
  -4   8   3 12.2439 2.03460   3 
  -4   8   3 14.4943 2.27264   1 
   3  -8  -3 16.3029 3.14106   3 
   3  -8  -3 14.6366 2.56293   4 
  -3   8   3 16.7289 2.32916   1 
  -3   8   3 11.5347 1.95234   3 
  -3   8   3 14.6214 1.70768   4 
   2  -8  -3 185.572 6.75483   3 
   2  -8  -3 184.744 5.95272   1 
   2  -8  -3 176.493 6.16014   4 
  -2   8   3 170.979 5.33909   1 
  -2   8   3 184.824 5.40447   4 
  -2   8   3 182.844 5.27290   3 
   1  -8  -3 44.1792 4.11198   4 
   1  -8  -3 36.7429 4.63904   3 
   1  -8  -3 38.9806 3.32158   1 
  -1   8   3 36.3550 3.15548   1 
  -1   8   3 42.9678 3.07541   4 
   0  -8  -3 41.1539 2.45277   2 
   0  -8  -3 45.2099 4.89354   3 
   0  -8  -3 43.5687 3.24273   2 
   0  -8  -3 44.6066 3.40115   1 
   0   8   3 44.1389 2.98661   3 
   0   8   3 49.6976 3.56795   4 
   0   8   3 38.3613 3.54224   1 
  -1  -8  -3 -1.7013 3.10688   3 
  -1  -8  -3 0.18567 2.55340   2 
  -1  -8  -3 3.72774 1.92108   1 
  -1  -8  -3 -3.3150 1.69573   2 
   1   8   3 0.86541 2.15037   4 
   1   8   3 2.06513 2.41257   1 
   1   8   3 -2.0786 1.77264   3 
  -2  -8  -3 -0.6514 2.26198   2 
  -2  -8  -3 -1.9033 1.95139   1 
  -2  -8  -3 5.64607 3.56485   2 
   2   8   3 1.51980 2.93603   1 
   2   8   3 0.26794 2.17972   3 
   2   8   3 0.25779 2.70282   4 
  -3  -8  -3 50.7344 4.03554   1 
  -3  -8  -3 38.5731 4.77985   2 
   3   8   3 50.7056 5.76943   4 
  -7   9   3 6.54080 2.58679   3 
   6  -9  -3 -3.7869 3.16894   4 
  -6   9   3 -0.9565 1.44890   4 
  -6   9   3 -1.6574 2.17226   3 
   5  -9  -3 5.35956 3.14632   4 
  -5   9   3 7.44890 2.25887   3 
   4  -9  -3 13.2126 3.22737   4 
  -4   9   3 16.0025 2.32261   3 
  -4   9   3 12.2384 1.93378   4 
   3  -9  -3 29.3565 3.69652   4 
  -3   9   3 25.6497 3.24062   3 
  -3   9   3 34.0369 3.00976   4 
  -3   9   3 33.2651 3.81797   1 
   2  -9  -3 71.8114 5.38259   4 
  -2   9   3 70.9149 4.35160   1 
  -2   9   3 79.5568 4.01484   3 
  -2   9   3 76.3154 3.86634   4 
   1  -9  -3 0.57378 2.34006   1 
   1  -9  -3 4.37204 3.95679   3 
  -1   9   3 6.73315 2.40401   1 
  -1   9   3 0.76604 1.92422   3 
  -1   9   3 1.86909 2.04320   4 
   0  -9  -3 0.43576 1.61766   2 
   0  -9  -3 6.54299 2.51407   1 
   0  -9  -3 2.63374 4.09003   3 
   0   9   3 2.56120 2.20951   3 
   0   9   3 6.30106 2.53971   4 
   0   9   3 -3.9611 2.67646   1 
  -1  -9  -3 58.0140 3.90949   2 
  -1  -9  -3 67.5980 7.03113   3 
  -1  -9  -3 69.1976 4.57501   1 
   1   9   3 71.1616 9.46982   1 
   1   9   3 69.9381 5.61568   4 
   1   9   3 61.9245 4.48560   3 
  -6  10   3 1.47763 2.53213   3 
  -6  10   3 3.48234 2.61339   4 
   5 -10  -3 10.1946 4.52098   4 
  -5  10   3 5.56764 2.07207   4 
  -5  10   3 8.82573 2.59595   3 
   4 -10  -3 -2.6913 3.95399   4 
  -4  10   3 1.34841 2.39360   3 
  -4  10   3 3.79861 2.10922   4 
  -3  10   3 4.71263 2.32525   4 
  -3  10   3 6.16666 2.55440   3 
  -2  10   3 67.4659 4.37166   3 
  -2  10   3 61.0654 4.55502   4 
  -1  10   3 14.0539 3.08676   4 
  -1  10   3 9.03721 2.85730   3 
   1  10  -4 -0.7757 3.69523   4 
   1  10  -4 -2.3170 3.68434   3 
  -1 -10   4 1.50375 2.77579   2 
   0  10  -4 0.97488 3.39718   4 
   0  10  -4 3.88535 3.20173   3 
   0 -10   4 -1.1542 4.49323   4 
   0 -10   4 -1.7913 2.41333   2 
  -1  10  -4 2.28010 2.86676   3 
  -1  10  -4 1.39958 2.98567   2 
   1 -10   4 -2.4480 2.46561   4 
   1 -10   4 -1.2257 2.37919   2 
  -2  10  -4 5.29178 3.04852   1 
  -2  10  -4 2.81104 2.69420   3 
  -2  10  -4 4.38401 2.64833   2 
  -2  10  -4 3.81365 3.96588   1 
   2 -10   4 4.17462 2.51484   2 
  -3  10  -4 58.3297 5.57820   1 
  -3  10  -4 64.0142 6.22449   1 
  -3  10  -4 53.2857 4.51313   3 
   3 -10   4 49.3394 6.10919   2 
  -4  10  -4 353.925 9.70069   3 
  -4  10  -4 351.272 8.71522   2 
  -4  10  -4 386.496 11.1178   1 
   4 -10   4 341.090 9.91178   2 
  -5  10  -4 308.953 10.6641   1 
  -5  10  -4 294.073 8.80303   3 
   5 -10   4 304.158 8.88782   2 
   3   9  -4 12.5957 4.37456   4 
   3   9  -4 13.1840 4.10694   3 
  -3  -9   4 18.9783 3.09831   2 
   2   9  -4 64.5328 5.70915   3 
   2   9  -4 70.4920 6.18668   4 
  -2  -9   4 71.7904 4.56843   2 
   1   9  -4 9.80991 3.11752   4 
   1   9  -4 7.38580 2.99053   3 
  -1  -9   4 9.22376 2.22607   2 
  -1  -9   4 6.30831 2.46078   4 
   0   9  -4 6.01956 2.63508   2 
   0   9  -4 7.99985 2.52806   3 
  -1   9  -4 5.24407 2.14581   2 
  -1   9  -4 5.30252 2.20633   1 
  -1   9  -4 4.04890 2.23636   3 
  -1   9  -4 4.45004 2.39557   4 
  -1   9  -4 5.57598 2.60364   1 
   1  -9   4 1.78390 1.90253   2 
   1  -9   4 6.80307 1.77168   4 
  -2   9  -4 59.5023 4.43103   1 
  -2   9  -4 53.9747 4.74334   1 
  -2   9  -4 56.6255 4.04268   3 
  -2   9  -4 56.6121 3.62877   2 
   2  -9   4 62.2155 3.64226   2 
  -3   9  -4 121.758 5.04364   3 
  -3   9  -4 127.210 6.26540   1 
  -3   9  -4 124.042 5.80641   1 
  -3   9  -4 119.114 4.46964   2 
   3  -9   4 120.504 4.87419   2 
  -4   9  -4 1453.35 27.0210   2 
  -4   9  -4 1442.74 27.9382   3 
  -4   9  -4 1358.50 28.4197   1 
  -4   9  -4 1486.54 28.9759   1 
   4  -9   4 1462.69 27.7307   2 
  -5   9  -4 132.309 7.15119   1 
  -5   9  -4 136.381 5.34876   3 
  -5   9  -4 132.349 5.01039   2 
   5  -9   4 120.075 9.00202   2 
  -6   9  -4 39.8226 4.88547   1 
  -6   9  -4 36.7985 4.25530   2 
  -6   9  -4 44.5420 4.11241   3 
   6  -9   4 58.2351 5.21717   2 
   4   8  -4 127.359 7.65242   4 
   4   8  -4 123.605 7.19264   3 
  -4  -8   4 126.528 5.55494   2 
   3   8  -4 8.39746 3.19583   3 
   3   8  -4 12.0661 3.46390   4 
  -3  -8   4 7.75252 2.31858   2 
   2   8  -4 35.3761 4.27558   3 
   2   8  -4 41.7086 4.73928   4 
  -2  -8   4 35.2637 3.23072   2 
  -2  -8   4 40.3616 3.60472   4 
  -2  -8   4 36.7416 3.80814   3 
   1   8  -4 3.61219 3.23028   4 
   1   8  -4 13.6904 2.50336   3 
   1   8  -4 13.1296 2.52293   2 
  -1  -8   4 13.6803 2.05151   4 
  -1  -8   4 8.20122 2.93874   2 
  -1  -8   4 11.3388 2.35363   3 
   0   8  -4 176.602 5.92096   4 
   0   8  -4 165.946 5.32803   2 
   0   8  -4 167.117 5.66839   3 
   0  -8   4 176.882 4.87541   4 
   0  -8   4 162.589 5.48188   3 
   0  -8   4 167.526 5.05391   2 
  -1   8  -4 32.0333 3.03808   1 
  -1   8  -4 28.6557 3.29057   4 
  -1   8  -4 31.0237 3.34343   1 
  -1   8  -4 24.2381 3.00176   3 
  -1   8  -4 26.1190 2.76885   2 
   1  -8   4 29.6555 2.40113   4 
   1  -8   4 26.4534 2.59196   2 
   1  -8   4 28.8684 3.31027   3 
  -2   8  -4 43.3669 3.24654   3 
  -2   8  -4 39.0513 3.95368   1 
  -2   8  -4 48.8942 2.91557   2 
  -2   8  -4 36.6372 3.67922   1 
   2  -8   4 46.2770 3.03857   2 
   2  -8   4 41.3404 3.71625   3 
  -3   8  -4 101.178 4.90858   1 
  -3   8  -4 103.124 4.24123   3 
  -3   8  -4 105.238 3.79143   2 
  -3   8  -4 106.931 5.10451   1 
   3  -8   4 101.185 4.80608   3 
   3  -8   4 101.676 4.22699   2 
  -4   8  -4 193.076 5.88281   3 
  -4   8  -4 195.981 5.44604   2 
  -4   8  -4 203.808 7.11399   1 
   4  -8   4 207.504 6.13034   2 
  -5   8  -4 37.2602 4.78197   1 
  -5   8  -4 38.3961 3.18532   3 
  -5   8  -4 30.9146 3.12570   2 
   5  -8   4 40.7577 3.75514   2 
  -6   8  -4 9.92714 2.09652   3 
  -6   8  -4 11.2142 3.35897   1 
  -6   8  -4 8.20331 2.34489   2 
   6  -8   4 6.60736 2.75055   2 
  -7   8  -4 17.9940 2.50590   3 
   7  -8   4 18.8617 3.61216   2 
   5   7  -4 12.4937 3.96271   4 
   5   7  -4 6.32613 3.89351   3 
  -5  -7   4 8.04813 2.92423   2 
  -5  -7   4 6.41433 2.50341   3 
   4   7  -4 13.9336 3.59508   4 
   4   7  -4 17.7703 3.34483   3 
  -4  -7   4 8.90068 2.23631   2 
  -4  -7   4 13.0099 2.41666   3 
   3   7  -4 7.10294 2.79332   4 
   3   7  -4 4.55066 2.46077   3 
  -3  -7   4 9.14498 2.26363   4 
  -3  -7   4 7.08455 1.90521   2 
  -3  -7   4 6.55676 1.96578   3 
   2   7  -4 394.224 11.2652   4 
  -2  -7   4 406.260 9.21529   4 
  -2  -7   4 412.699 9.17648   2 
  -2  -7   4 409.358 9.11038   3 
   1   7  -4 -0.0040 1.88131   4 
   1   7  -4 4.32341 1.92114   3 
   1   7  -4 0.68872 1.64650   2 
  -1  -7   4 2.60291 1.43832   2 
  -1  -7   4 2.98723 1.58809   3 
  -1  -7   4 2.22850 1.51667   4 
   0   7  -4 42.8220 3.25702   4 
   0   7  -4 36.8983 2.97532   3 
   0   7  -4 45.6411 2.73417   2 
   0  -7   4 45.3609 2.62019   2 
   0  -7   4 38.9067 2.87278   3 
   0  -7   4 42.3975 2.48415   4 
  -1   7  -4 22.5621 2.53703   3 
  -1   7  -4 27.1080 2.27319   2 
  -1   7  -4 21.5993 2.75341   1 
  -1   7  -4 24.7557 2.70434   4 
   1  -7   4 26.3353 1.90266   4 
   1  -7   4 31.2985 2.34305   2 
   1  -7   4 17.9871 2.55410   3 
  -2   7  -4 95.9445 3.77387   3 
  -2   7  -4 99.3762 3.37295   2 
  -2   7  -4 93.8242 4.23229   1 
   2  -7   4 98.8586 3.61354   2 
   2  -7   4 96.6277 3.89272   3 
  -3   7  -4 65.3564 3.98952   3 
  -3   7  -4 75.6619 4.09014   1 
  -3   7  -4 73.6093 3.00031   2 
   3  -7   4 76.6238 3.40128   2 
   3  -7   4 71.7657 3.63603   3 
  -4   7  -4 13.3761 2.50535   1 
  -4   7  -4 15.4411 1.77187   2 
  -4   7  -4 12.8015 2.05957   3 
   4  -7   4 16.6565 2.23890   2 
   4  -7   4 12.7175 2.26777   3 
  -5   7  -4 5.67117 1.80466   2 
  -5   7  -4 -0.1249 2.35599   1 
  -5   7  -4 1.06375 1.44664   3 
   5  -7   4 5.90503 2.17526   3 
   5  -7   4 1.89038 1.89612   2 
  -6   7  -4 21.6743 2.63194   3 
  -6   7  -4 26.3855 2.78309   2 
  -6   7  -4 34.9473 4.43456   1 
   6  -7   4 23.2476 3.03292   3 
   6  -7   4 31.1576 3.84058   2 
  -7   7  -4 14.6240 2.06153   3 
  -7   7  -4 16.3605 3.44759   1 
  -7   7  -4 14.7324 3.69440   2 
   7  -7   4 11.3229 2.95250   2 
   7  -7   4 4.71306 2.93366   3 
  -8   7  -4 8.36368 2.18830   3 
  -8   7  -4 8.37489 3.56938   1 
   8  -7   4 8.29440 3.32978   2 
   6   6  -4 5.36607 3.96108   4 
   6   6  -4 7.45512 3.68276   3 
  -6  -6   4 6.84111 2.59666   2 
  -6  -6   4 2.70198 2.34339   3 
   5   6  -4 71.4051 5.48176   3 
   5   6  -4 69.7561 5.75330   4 
  -5  -6   4 72.8570 4.02415   2 
  -5  -6   4 64.0098 3.61028   3 
   4   6  -4 34.5276 4.39751   4 
   4   6  -4 32.8106 3.91347   3 
  -4  -6   4 35.1762 3.48284   4 
  -4  -6   4 28.1848 2.74843   3 
  -4  -6   4 34.2712 2.99364   2 
   3   6  -4 21.0426 2.58958   3 
   3   6  -4 14.5880 3.75921   4 
  -3  -6   4 15.3715 2.07394   4 
  -3  -6   4 17.3303 2.25110   2 
  -3  -6   4 13.4604 1.75129   3 
   2   6  -4 13.7462 2.28546   4 
   2   6  -4 17.9049 2.20450   3 
   2   6  -4 17.9183 2.47882   2 
  -2  -6   4 14.3205 1.71975   3 
  -2  -6   4 14.7721 1.90105   4 
  -2  -6   4 16.6882 2.04669   2 
   1   6  -4 24.4240 2.22283   2 
   1   6  -4 27.0240 2.87292   4 
   1   6  -4 25.3689 2.47937   3 
  -1  -6   4 24.3165 2.15572   3 
  -1  -6   4 24.1851 2.21091   4 
  -1  -6   4 25.2715 2.09833   2 
   0   6  -4 262.168 6.60104   3 
   0   6  -4 262.998 6.19461   2 
   0   6  -4 265.966 6.04662   1 
   0   6  -4 271.311 6.65788   4 
   0  -6   4 271.491 6.30466   3 
   0  -6   4 267.299 5.92249   4 
   0  -6   4 269.527 6.25148   2 
  -1   6  -4 45.4237 2.54750   3 
  -1   6  -4 47.7211 2.23751   2 
  -1   6  -4 44.8118 2.68269   1 
  -1   6  -4 47.6486 2.55114   4 
   1  -6   4 48.1622 1.90032   4 
   1  -6   4 46.4551 2.39718   2 
   1  -6   4 46.6952 2.48232   3 
  -2   6  -4 37.5391 2.11385   2 
  -2   6  -4 36.4744 2.80740   1 
  -2   6  -4 37.8675 2.34719   3 
   2  -6   4 43.2212 2.37658   2 
   2  -6   4 36.1476 2.42901   3 
  -3   6  -4 1.58573 1.15126   2 
  -3   6  -4 2.03827 1.62466   1 
  -3   6  -4 1.78348 1.16704   3 
   3  -6   4 3.96457 1.30793   2 
   3  -6   4 3.77942 1.40944   3 
  -4   6  -4 0.25661 1.18654   2 
  -4   6  -4 1.23162 1.11856   3 
  -4   6  -4 1.71375 1.74747   1 
   4  -6   4 1.56535 1.62491   2 
   4  -6   4 2.08540 1.50919   3 
  -5   6  -4 13.6617 2.48507   1 
  -5   6  -4 9.98888 1.73035   2 
  -5   6  -4 14.5874 1.98657   3 
   5  -6   4 7.47160 1.86249   3 
   5  -6   4 13.3568 2.20637   2 
  -6   6  -4 17.6796 2.85007   1 
  -6   6  -4 17.8064 2.24148   3 
  -6   6  -4 21.1974 3.07012   2 
   6  -6   4 16.0960 3.06870   2 
   6  -6   4 18.4561 2.47171   3 
  -7   6  -4 13.2613 2.95380   1 
  -7   6  -4 10.5969 2.91627   3 
  -7   6  -4 7.94245 2.78487   2 
   7  -6   4 10.1167 2.86056   3 
   7  -6   4 12.5137 2.96190   2 
  -8   6  -4 39.7061 5.17994   1 
  -8   6  -4 35.5497 3.13192   3 
   8  -6   4 34.8909 4.79862   2 
   7   5  -4 0.56600 3.88619   3 
   7   5  -4 9.52911 4.19212   4 
  -7  -5   4 6.46355 2.79401   2 
  -7  -5   4 6.10715 2.33122   3 
   6   5  -4 5.69000 2.89655   3 
   6   5  -4 1.28314 2.98915   4 
  -6  -5   4 4.54210 1.85626   3 
  -6  -5   4 1.38905 2.15864   2 
   5   5  -4 6.60422 2.74170   4 
   5   5  -4 7.26611 2.58258   3 
  -5  -5   4 9.30613 2.14317   4 
  -5  -5   4 8.80006 1.75768   3 
  -5  -5   4 4.54868 1.86453   2 
   4   5  -4 4.54507 2.10141   3 
  -4  -5   4 4.67888 1.76482   4 
  -4  -5   4 7.27620 1.47944   3 
  -4  -5   4 3.78057 1.55350   2 
   3   5  -4 43.9079 3.13134   3 
   3   5  -4 36.3704 3.32751   4 
  -3  -5   4 34.8225 2.70275   4 
  -3  -5   4 45.8782 2.46020   3 
  -3  -5   4 37.9474 2.33771   2 
   2   5  -4 0.27085 1.48071   4 
   2   5  -4 -1.1437 1.11698   2 
   2   5  -4 -0.3795 1.30818   3 
  -2  -5   4 -1.5764 1.11486   4 
  -2  -5   4 0.76616 0.92797   2 
  -2  -5   4 -0.6146 1.00043   3 
   1   5  -4 94.4868 3.66705   4 
   1   5  -4 94.7491 3.09275   2 
   1   5  -4 92.3508 3.42377   3 
  -1  -5   4 92.6028 3.00165   3 
  -1  -5   4 94.2425 3.02430   2 
  -1  -5   4 83.5459 4.40998   4 
   0   5  -4 129.712 3.64895   2 
   0   5  -4 125.048 3.85403   4 
   0   5  -4 128.771 3.46707   1 
   0   5  -4 131.374 3.89503   3 
   0  -5   4 127.498 3.37856   4 
   0  -5   4 127.990 3.55040   3 
   0  -5   4 127.492 3.58010   2 
  -1   5  -4 425.451 8.95008   3 
  -1   5  -4 420.416 8.91943   1 
   1  -5   4 431.658 8.72914   3 
   1  -5   4 421.231 8.14339   4 
   1  -5   4 417.298 8.79553   2 
  -2   5  -4 109.578 3.38495   3 
  -2   5  -4 109.070 3.53046   2 
  -2   5  -4 104.851 3.71083   1 
   2  -5   4 110.991 3.30296   3 
   2  -5   4 106.858 3.45079   2 
  -3   5  -4 53.3820 2.45107   2 
  -3   5  -4 56.1282 2.42999   3 
  -3   5  -4 57.4951 3.09803   1 
   3  -5   4 59.4135 2.71477   2 
   3  -5   4 54.0943 2.50847   3 
  -4   5  -4 13.8794 1.68492   3 
  -4   5  -4 12.8552 1.98562   1 
  -4   5  -4 9.23047 1.51470   2 
   4  -5   4 10.9068 1.57689   3 
   4  -5   4 11.2122 1.80667   2 
  -5   5  -4 21.9041 2.97599   1 
  -5   5  -4 17.2495 1.91548   3 
  -5   5  -4 21.6248 2.41147   2 
   5  -5   4 19.9848 2.36282   3 
   5  -5   4 19.7708 2.65878   2 
  -6   5  -4 4.77773 2.01506   1 
  -6   5  -4 7.72788 1.36209   3 
  -6   5  -4 9.44679 2.04100   2 
   6  -5   4 4.17102 1.75683   3 
  -7   5  -4 20.3236 2.89802   2 
  -7   5  -4 17.7831 2.94420   1 
  -7   5  -4 19.4571 2.25525   3 
   7  -5   4 21.2957 2.84354   2 
   7  -5   4 13.6916 2.41989   3 
  -8   5  -4 867.822 19.5588   1 
   8  -5   4 876.699 19.0384   2 
  -8  -4   4 5.39452 3.02360   2 
   7   4  -4 71.4234 6.21807   4 
   7   4  -4 66.6979 5.55355   3 
  -7  -4   4 81.1087 3.78701   3 
  -7  -4   4 70.5254 4.58127   2 
   6   4  -4 19.1641 3.31521   4 
   6   4  -4 20.9903 3.02322   3 
  -6  -4   4 16.5671 2.39750   2 
  -6  -4   4 27.7748 2.71162   3 
   5   4  -4 39.6365 3.69401   3 
   5   4  -4 40.7172 4.00663   4 
  -5  -4   4 38.2325 2.83777   2 
  -5  -4   4 41.1726 3.19551   4 
  -5  -4   4 41.4212 2.69485   3 
   4   4  -4 17.2741 2.39847   4 
   4   4  -4 12.5256 2.17624   3 
  -4  -4   4 14.2065 1.76130   2 
  -4  -4   4 16.0150 1.89824   4 
  -4  -4   4 15.2269 2.02144   3 
   3   4  -4 2.90389 1.58324   4 
   3   4  -4 4.65715 1.20133   2 
   3   4  -4 1.75811 1.48502   3 
  -3  -4   4 2.48879 1.23794   4 
  -3  -4   4 1.84724 0.98597   2 
  -3  -4   4 1.20117 1.07308   3 
   2   4  -4 47.9989 2.79693   4 
   2   4  -4 52.3045 2.30839   2 
   2   4  -4 50.5844 2.63705   3 
  -2  -4   4 51.9057 2.19587   3 
  -2  -4   4 44.1226 2.38339   4 
  -2  -4   4 49.9604 2.11187   2 
   1   4  -4 25.9734 2.05106   4 
   1   4  -4 26.3507 1.94755   3 
   1   4  -4 28.3072 1.63239   2 
  -1  -4   4 26.9118 1.56688   2 
  -1  -4   4 25.6346 1.76238   4 
   0   4  -4 675.675 13.5500   3 
   0   4  -4 706.099 13.2716   2 
   0   4  -4 703.170 13.1905   1 
   0  -4   4 700.442 13.3674   2 
   0  -4   4 698.071 13.1670   4 
   0  -4   4 692.333 13.2760   1 
   0  -4   4 703.718 13.3327   3 
  -1   4  -4 1005.77 18.8976   3 
  -1   4  -4 1027.65 18.7080   2 
  -1   4  -4 997.831 18.9184   1 
   1  -4   4 1003.99 18.8729   2 
   1  -4   4 988.956 19.0156   1 
   1  -4   4 1024.63 18.6676   3 
  -2   4  -4 0.09901 0.95842   1 
  -2   4  -4 0.91901 0.75749   2 
  -2   4  -4 0.93824 0.79101   3 
   2  -4   4 0.17879 0.87117   2 
   2  -4   4 1.03579 0.77867   3 
   2  -4   4 0.67486 1.11380   1 
  -3   4  -4 50.6211 2.12568   3 
  -3   4  -4 48.8018 2.27757   2 
  -3   4  -4 51.1723 2.74588   1 
   3  -4   4 52.5809 2.15257   3 
   3  -4   4 49.8614 2.51740   2 
   3  -4   4 49.2235 2.90017   1 
  -4   4  -4 91.8258 3.86129   1 
  -4   4  -4 100.136 3.01083   3 
  -4   4  -4 95.7631 3.41844   2 
   4  -4   4 96.7500 3.60733   2 
   4  -4   4 98.3902 4.16763   1 
  -5   4  -4 7.85773 1.69775   2 
  -5   4  -4 4.35850 1.10640   3 
  -5   4  -4 5.82012 1.67622   1 
   5  -4   4 7.31793 1.40695   3 
   5  -4   4 8.84618 2.20703   1 
   5  -4   4 6.44382 1.85767   2 
  -6   4  -4 -1.4086 1.00684   3 
  -6   4  -4 3.60203 1.82056   1 
  -6   4  -4 4.81274 1.90459   2 
   6  -4   4 -0.3373 1.45272   3 
   6  -4   4 -0.6450 2.41397   1 
  -7   4  -4 11.2153 2.52580   1 
  -7   4  -4 15.2004 3.01335   2 
   7  -4   4 10.3192 2.50286   2 
  -8   4  -4 958.101 21.1509   1 
   8  -4   4 1004.89 21.0563   2 
  -8  -3   4 11.9697 2.75544   2 
  -8  -3   4 10.4713 2.33381   3 
   7   3  -4 699.844 15.1692   3 
  -7  -3   4 704.023 15.0949   2 
  -7  -3   4 699.190 14.0276   3 
   6   3  -4 50.6301 4.39733   4 
   6   3  -4 44.4261 3.92490   3 
  -6  -3   4 50.1934 3.79807   2 
  -6  -3   4 51.2640 3.26018   2 
  -6  -3   4 51.8960 2.85830   3 
  -6  -3   4 53.1413 3.51904   4 
   5   3  -4 56.0336 3.51207   3 
   5   3  -4 58.4879 3.83019   4 
  -5  -3   4 46.7028 3.03710   4 
  -5  -3   4 54.5879 2.83216   2 
  -5  -3   4 53.5177 2.68060   3 
   4   3  -4 19.8967 2.45836   3 
  -4  -3   4 21.9785 2.22701   4 
  -4  -3   4 19.7436 1.89309   3 
  -4  -3   4 20.6825 1.84109   2 
   3   3  -4 366.760 8.57161   4 
   3   3  -4 367.254 8.30208   3 
  -3  -3   4 371.550 7.79096   3 
  -3  -3   4 366.689 8.16514   4 
   2   3  -4 241.634 5.84930   3 
   2   3  -4 244.443 5.47009   2 
  -2  -3   4 238.590 5.42170   3 
  -2  -3   4 243.685 5.71913   4 
  -2  -3   4 236.810 5.34784   2 
   1   3  -4 2360.21 41.8577   2 
   1   3  -4 2357.71 42.2800   3 
  -1  -3   4 2337.56 42.0514   4 
  -1  -3   4 2374.83 41.9289   3 
  -1  -3   4 2302.66 41.8645   2 
   0   3  -4 299.820 6.55684   3 
   0   3  -4 310.243 6.28053   2 
   0   3  -4 302.036 6.22293   1 
   0  -3   4 299.312 6.33142   1 
   0  -3   4 299.515 6.29830   4 
   0  -3   4 305.794 6.29781   3 
   0  -3   4 297.818 6.35272   2 
  -1   3  -4 111.805 3.10625   3 
  -1   3  -4 112.615 3.00700   2 
  -1   3  -4 111.886 3.20968   1 
   1  -3   4 111.884 3.13780   2 
   1  -3   4 115.530 2.91583   3 
   1  -3   4 111.806 3.31331   1 
  -2   3  -4 281.168 5.99231   3 
  -2   3  -4 290.208 6.19021   2 
  -2   3  -4 279.765 6.45647   1 
   2  -3   4 271.505 6.28267   2 
   2  -3   4 281.525 5.80194   3 
   2  -3   4 281.603 6.58539   1 
  -3   3  -4 75.5408 2.41959   3 
  -3   3  -4 76.3302 3.05006   2 
  -3   3  -4 81.6538 3.15191   1 
   3  -3   4 78.9958 2.39078   3 
   3  -3   4 75.6255 3.19348   1 
   3  -3   4 80.5527 2.99652   2 
  -4   3  -4 293.128 6.00411   3 
  -4   3  -4 282.870 6.75168   2 
  -4   3  -4 275.325 7.05719   1 
   4  -3   4 280.591 6.93324   2 
   4  -3   4 273.118 7.23157   1 
   4  -3   4 278.290 6.02449   3 
  -5   3  -4 144.526 4.65551   2 
  -5   3  -4 139.561 4.94362   1 
   5  -3   4 144.175 4.83606   2 
   5  -3   4 138.685 5.27235   1 
  -6   3  -4 37.9340 3.33959   1 
  -6   3  -4 35.7367 3.17518   2 
   6  -3   4 36.7323 3.53941   2 
   6  -3   4 44.9804 4.15867   1 
  -7   3  -4 21.1945 3.03227   1 
   7  -3   4 20.7699 2.90914   2 
  -8   3  -4 25.6007 3.34769   1 
   8  -3   4 34.8588 4.66958   2 
  -9  -2   4 115.678 5.79858   2 
  -8  -2   4 7.08549 2.32896   2 
  -8  -2   4 6.28585 2.04744   3 
  -7  -2   4 155.758 4.87821   3 
  -7  -2   4 165.309 5.30798   2 
  -7  -2   4 155.772 6.00693   2 
  -7  -2   4 150.207 5.35702   4 
   6   2  -4 0.66309 1.97324   3 
  -6  -2   4 -0.9267 1.50496   4 
  -6  -2   4 1.25837 1.45654   3 
  -6  -2   4 0.64120 1.69976   2 
  -6  -2   4 0.37098 1.22511   2 
   5   2  -4 5.56554 1.77109   3 
  -5  -2   4 3.17087 1.47530   4 
  -5  -2   4 3.39792 1.29082   3 
  -5  -2   4 2.54587 1.12725   2 
   4   2  -4 0.36322 1.23420   3 
  -4  -2   4 0.17755 1.01013   3 
  -4  -2   4 -1.0513 0.77832   2 
  -4  -2   4 -0.0688 0.99890   4 
   3   2  -4 208.564 5.34701   3 
   3   2  -4 208.264 4.97751   2 
  -3  -2   4 203.392 4.98082   3 
  -3  -2   4 206.947 4.78655   2 
  -3  -2   4 205.354 5.26158   4 
   2   2  -4 165.816 3.91149   2 
   2   2  -4 159.267 4.32815   3 
  -2  -2   4 162.716 4.09080   3 
  -2  -2   4 158.727 3.79534   2 
   1   2  -4 -0.2302 0.81025   3 
   1   2  -4 0.64939 0.49474   1 
   1   2  -4 -0.6154 0.46392   2 
  -1  -2   4 0.26181 0.83504   4 
  -1  -2   4 0.31503 0.69822   3 
  -1  -2   4 -0.1881 0.53865   2 
  -1  -2   4 0.07353 0.55158   1 
   0   2  -4 303.478 6.48313   3 
   0   2  -4 300.343 6.18887   1 
   0   2  -4 311.808 6.21739   2 
   0  -2   4 298.457 6.28526   1 
   0  -2   4 309.099 6.29778   2 
   0  -2   4 301.707 6.24008   3 
   0  -2   4 305.931 6.40654   4 
  -1   2  -4 122.369 3.16932   3 
  -1   2  -4 118.392 3.11432   2 
  -1   2  -4 119.480 3.27598   1 
   1  -2   4 120.151 3.37891   1 
   1  -2   4 116.737 2.91122   3 
   1  -2   4 122.260 2.91918   4 
   1  -2   4 121.930 3.26577   2 
  -2   2  -4 911.113 16.7656   3 
  -2   2  -4 907.165 17.3420   1 
  -2   2  -4 915.468 17.1198   2 
   2  -2   4 915.092 17.5027   1 
   2  -2   4 905.017 16.5149   3 
   2  -2   4 903.907 17.2708   2 
  -3   2  -4 81.0196 3.06193   1 
  -3   2  -4 82.3284 2.36725   3 
   3  -2   4 82.9505 2.23793   3 
   3  -2   4 76.9258 3.64489   1 
   3  -2   4 83.5538 2.99415   2 
  -4   2  -4 3.05446 1.09743   2 
  -4   2  -4 2.01493 1.25076   1 
   4  -2   4 2.52257 1.48128   1 
   4  -2   4 2.34633 1.24354   2 
  -5   2  -4 180.210 5.38813   2 
  -5   2  -4 184.028 5.56986   1 
   5  -2   4 181.733 5.57335   2 
   5  -2   4 179.812 5.90616   1 
  -6   2  -4 4.70477 2.07536   1 
  -6   2  -4 8.32742 2.08749   2 
   6  -2   4 6.44245 2.50664   1 
   6  -2   4 6.70878 2.11139   2 
  -7   2  -4 0.45810 2.09870   1 
   7  -2   4 -0.6358 2.06786   2 
   7  -2   4 1.87817 3.63953   1 
  -8   2  -4 -0.5816 2.36435   1 
   8  -2   4 -0.6608 2.65080   2 
  -9  -1   4 145.381 5.59507   3 
  -9  -1   4 151.050 6.08561   2 
  -8  -1   4 26.3590 3.41642   3 
  -8  -1   4 21.2132 3.21352   4 
  -8  -1   4 25.0591 3.22194   2 
  -7  -1   4 21.4377 2.54125   2 
  -7  -1   4 20.9635 2.81170   3 
  -7  -1   4 25.2469 3.46866   2 
  -7  -1   4 20.6647 2.95755   4 
  -6  -1   4 20.2038 2.60359   2 
  -6  -1   4 28.1435 2.56387   3 
  -6  -1   4 21.4461 2.61689   4 
  -6  -1   4 28.0098 2.21598   2 
   5   1  -4 43.5209 2.86478   3 
  -5  -1   4 42.7574 2.20251   2 
  -5  -1   4 46.7904 2.77399   4 
  -5  -1   4 44.6954 2.53264   3 
   4   1  -4 -1.4834 1.13343   3 
  -4  -1   4 -0.1276 0.73963   2 
  -4  -1   4 1.64001 1.01401   3 
   3   1  -4 187.608 4.40068   2 
   3   1  -4 183.830 4.86207   3 
  -3  -1   4 183.619 4.67198   3 
  -3  -1   4 186.187 4.25125   2 
  -3  -1   4 183.168 4.85529   4 
   2   1  -4 116.560 2.58718   1 
   2   1  -4 112.097 2.91213   2 
   2   1  -4 111.462 3.44622   3 
  -2  -1   4 114.427 2.87027   2 
  -2  -1   4 112.186 3.30974   3 
  -2  -1   4 116.676 2.64035   1 
   1   1  -4 480.871 9.69238   3 
   1   1  -4 487.237 9.07074   1 
   1   1  -4 463.310 9.14649   2 
  -1  -1   4 487.053 9.16245   1 
  -1  -1   4 490.440 9.24658   2 
  -1  -1   4 484.782 9.70285   4 
   0   1  -4 563.524 11.0397   3 
   0   1  -4 574.705 10.8453   1 
   0   1  -4 567.877 10.7809   2 
   0   1  -4 558.637 11.0076   4 
   0  -1   4 589.021 10.9916   4 
   0  -1   4 571.641 10.8840   3 
   0  -1   4 566.110 10.8753   2 
   0  -1   4 586.950 10.9685   1 
  -1   1  -4 21.2693 1.32933   2 
  -1   1  -4 19.8676 1.38243   3 
  -1   1  -4 18.4910 1.37784   1 
  -1   1  -4 21.2004 1.39813   4 
   1  -1   4 18.3396 1.28846   2 
   1  -1   4 17.6873 1.12915   3 
   1  -1   4 20.7705 1.16993   4 
   1  -1   4 19.3961 1.46815   1 
  -2   1  -4 7.98038 1.16390   4 
  -2   1  -4 8.90998 1.30746   2 
  -2   1  -4 8.97701 1.34045   1 
   2  -1   4 8.20074 0.83029   3 
   2  -1   4 9.53412 1.30329   1 
   2  -1   4 7.41962 1.11252   2 
   2  -1   4 9.71794 0.85859   4 
  -3   1  -4 99.0239 2.61721   4 
  -3   1  -4 93.5802 3.25933   1 
   3  -1   4 94.4942 3.28456   2 
   3  -1   4 93.6732 2.40979   4 
  -4   1  -4 2.82845 1.05072   2 
  -4   1  -4 3.57255 1.23708   1 
  -4   1  -4 5.15617 0.91173   4 
   4  -1   4 3.91268 1.30201   2 
   4  -1   4 5.19511 0.94491   4 
   4  -1   4 4.65864 1.51596   1 
  -5   1  -4 163.815 5.14164   1 
  -5   1  -4 162.131 4.06441   4 
  -5   1  -4 156.979 5.15084   2 
   5  -1   4 165.835 5.26808   2 
   5  -1   4 165.926 4.33127   4 
   5  -1   4 163.773 5.60493   1 
  -6   1  -4 25.3952 2.08692   4 
  -6   1  -4 32.9956 3.28170   2 
   6  -1   4 28.1343 3.36219   1 
   6  -1   4 27.7347 2.66261   4 
   6  -1   4 28.4246 3.19853   2 
  -7   1  -4 28.9533 2.62007   4 
  -7   1  -4 28.0899 3.34158   1 
   7  -1   4 27.0154 3.65008   4 
   7  -1   4 27.8227 4.06547   1 
   7  -1   4 30.5040 3.92388   2 
  -8   1  -4 -4.8402 2.05419   1 
  -8   1  -4 0.55059 2.07920   4 
   8  -1   4 -5.9716 2.56550   2 
   8  -1   4 -0.3336 2.91804   4 
  -9   0   4 0.29754 1.99089   2 
  -9   0   4 2.23680 1.94530   3 
  -9   0   4 4.32611 1.83669   1 
  -9   0   4 1.83560 2.54315   3 
  -9   0   4 1.39200 1.88450   1 
  -8   0   4 1.77423 1.68014   1 
  -8   0   4 6.11390 1.75670   2 
  -8   0   4 4.92313 1.99121   4 
  -8   0   4 1.37009 2.06650   2 
  -8   0   4 4.63293 1.50357   1 
  -8   0   4 5.66228 2.17378   3 
  -7   0   4 0.64767 1.72870   3 
  -7   0   4 0.01560 1.16716   1 
  -7   0   4 2.44560 1.41930   1 
  -7   0   4 1.04827 1.24154   2 
  -7   0   4 3.16421 1.80873   2 
  -7   0   4 4.01577 1.72757   4 
  -6   0   4 38.2419 1.91516   1 
  -6   0   4 41.9550 2.32180   2 
  -6   0   4 37.5200 2.85395   4 
  -6   0   4 45.0807 2.94235   3 
  -6   0   4 40.6601 2.41877   1 
  -6   0   4 43.1967 2.73489   2 
  -5   0   4 14.6855 1.22373   1 
  -5   0   4 14.6920 1.81806   4 
  -5   0   4 12.8848 1.42848   2 
  -5   0   4 14.8536 1.78771   3 
   4   0  -4 8.34246 1.35653   3 
  -4   0   4 7.98627 0.88593   1 
  -4   0   4 8.16036 1.07702   2 
  -4   0   4 7.39836 1.29657   3 
  -4   0   4 5.78532 1.29379   4 
   3   0  -4 154.074 3.52935   1 
   3   0  -4 149.278 4.26715   3 
   3   0  -4 158.076 3.69663   2 
  -3   0   4 154.546 4.21547   3 
  -3   0   4 151.265 4.39481   4 
  -3   0   4 154.438 3.53745   2 
  -3   0   4 153.698 3.36734   1 
   2   0  -4 52.4566 1.60282   1 
   2   0  -4 52.5617 1.63066   2 
  -2   0   4 49.5462 2.25565   4 
  -2   0   4 52.1109 1.57718   2 
  -2   0   4 51.5940 1.58900   1 
  -2   0   4 52.8267 2.20602   3 
   1   0  -4 312.625 6.14789   1 
   1   0  -4 315.200 6.08175   2 
   1   0  -4 305.606 6.67326   4 
  -1   0   4 319.090 6.23615   1 
  -1   0   4 309.786 6.62356   4 
  -1   0   4 306.862 6.57085   3 
  -1   0   4 308.346 6.13783   2 
   0   0  -4 3.73319 0.83139   4 
   0   0  -4 2.90154 0.64073   1 
   0   0  -4 2.89960 0.64015   2 
   0   0  -4 3.53926 0.79614   3 
   0   0   4 3.91431 0.82494   3 
   0   0   4 4.12029 0.77431   4 
   0   0   4 4.79533 0.78529   1 
   0   0   4 3.23295 0.68348   2 
  -1   0  -4 508.918 9.84175   4 
  -1   0  -4 505.231 9.94721   1 
  -1   0  -4 504.140 9.88378   2 
  -1   0  -4 495.634 9.66508   3 
   1   0   4 503.383 9.58162   4 
   1   0   4 507.631 9.52515   3 
   1   0   4 510.681 9.99113   2 
   1   0   4 513.069 10.0930   1 
  -2   0  -4 163.105 4.16679   2 
  -2   0  -4 159.353 4.16151   1 
  -2   0  -4 167.977 3.88697   4 
   2   0   4 163.158 3.62643   4 
   2   0   4 158.917 4.23637   2 
   2   0   4 165.034 4.39133   1 
  -3   0  -4 78.1257 2.44973   4 
  -3   0  -4 78.4717 2.85027   1 
  -3   0  -4 81.1212 2.95864   2 
   3   0   4 80.2717 3.07328   2 
   3   0   4 67.5021 3.43589   1 
   3   0   4 78.8492 2.35757   4 
  -4   0  -4 113.955 3.20200   4 
  -4   0  -4 117.599 3.83369   1 
  -4   0  -4 115.695 3.99881   2 
   4   0   4 105.169 3.94427   2 
   4   0   4 113.328 3.28221   4 
  -5   0  -4 616.412 13.6777   2 
  -5   0  -4 644.711 13.4584   1 
  -5   0  -4 646.491 12.5782   4 
   5   0   4 659.131 12.9038   4 
   5   0   4 641.178 13.7963   2 
   5   0   4 639.453 14.0263   1 
  -6   0  -4 1.95577 1.91414   2 
  -6   0  -4 -0.8725 1.29035   4 
   6   0   4 2.16256 2.01328   2 
   6   0   4 -3.0318 2.39111   1 
   6   0   4 1.69305 1.71756   4 
  -7   0  -4 27.3396 3.06856   4 
  -7   0  -4 29.5123 3.26527   1 
   7   0   4 30.0806 3.18403   4 
   7   0   4 28.7526 3.40032   2 
   7   0   4 26.4335 4.06082   1 
  -8   0  -4 27.0515 2.95448   4 
  -8   0  -4 25.1131 3.14973   1 
   8   0   4 40.5233 5.50850   4 
 -10   1   4 64.8178 4.61154   2 
 -10   1   4 57.8054 4.09560   3 
 -10   1   4 63.6760 4.73212   1 
  -9   1   4 223.597 7.18861   3 
  -9   1   4 209.021 6.36348   3 
  -9   1   4 222.842 6.68374   2 
  -9   1   4 199.059 6.60871   4 
  -9   1   4 208.615 6.65550   1 
  -9   1   4 210.866 6.21752   1 
  -8   1   4 156.689 5.59930   2 
  -8   1   4 149.928 5.12004   3 
  -8   1   4 146.356 5.53926   3 
  -8   1   4 139.264 4.59598   1 
  -8   1   4 140.785 4.87248   2 
  -8   1   4 145.360 5.17719   1 
  -8   1   4 141.437 5.20447   4 
  -7   1   4 8.04824 1.72219   1 
  -7   1   4 3.16153 1.83732   3 
  -7   1   4 9.28946 1.92851   4 
  -7   1   4 6.52100 1.37800   1 
  -7   1   4 5.78657 1.68475   2 
  -7   1   4 6.77017 1.42047   2 
  -6   1   4 240.839 6.33384   4 
  -6   1   4 230.854 5.45795   1 
  -6   1   4 234.314 5.65837   2 
  -6   1   4 235.217 5.95690   2 
  -6   1   4 224.260 6.27164   3 
  -5   1   4 122.461 5.61371   4 
  -5   1   4 119.589 4.19207   3 
  -5   1   4 125.344 3.36448   2 
  -5   1   4 125.304 3.31383   1 
  -5   1   4 122.204 4.30921   4 
   4  -1  -4 39.6437 1.88048   1 
  -4   1   4 42.4245 2.38781   3 
  -4   1   4 39.8981 1.65938   1 
  -4   1   4 39.1963 2.44243   4 
  -4   1   4 40.7304 1.60443   2 
   3  -1  -4 1665.80 30.7235   1 
   3  -1  -4 1718.92 30.5493   2 
  -3   1   4 1745.85 31.4271   4 
  -3   1   4 1695.28 30.4069   2 
  -3   1   4 1666.79 30.5623   1 
  -3   1   4 1767.40 31.4625   3 
   2  -1  -4 635.743 12.0037   1 
   2  -1  -4 635.113 11.7029   2 
   2  -1  -4 638.676 12.6367   4 
  -2   1   4 643.343 11.7179   2 
  -2   1   4 640.941 12.5415   4 
  -2   1   4 643.068 11.9614   1 
  -2   1   4 646.643 12.6200   3 
   1  -1  -4 446.052 8.57444   1 
   1  -1  -4 447.313 9.05770   4 
   1  -1  -4 443.387 8.29423   2 
  -1   1   4 440.137 8.95946   3 
  -1   1   4 444.436 8.86894   4 
  -1   1   4 444.720 8.60959   1 
  -1   1   4 438.619 8.38155   2 
   0  -1  -4 20.3697 1.51710   4 
   0  -1  -4 22.5709 1.24472   1 
   0  -1  -4 19.2113 1.18231   2 
   0   1   4 19.3423 1.24061   2 
   0   1   4 22.0859 1.36167   4 
   0   1   4 20.8827 1.32755   1 
   0   1   4 19.9656 1.48663   3 
  -1  -1  -4 3.28626 0.89463   4 
  -1  -1  -4 2.28688 0.86368   2 
  -1  -1  -4 3.54726 0.86601   1 
   1   1   4 2.72787 0.92323   1 
   1   1   4 2.59839 0.85420   2 
   1   1   4 1.91741 0.71568   4 
  -2  -1  -4 -0.0349 0.74642   4 
  -2  -1  -4 2.43098 0.82177   1 
  -2  -1  -4 1.38631 0.86082   2 
   2   1   4 1.93641 0.95981   2 
   2   1   4 0.57138 0.65858   4 
   2   1   4 1.36200 0.95463   1 
  -3  -1  -4 433.890 9.36072   1 
  -3  -1  -4 447.252 9.63134   2 
  -3  -1  -4 455.855 9.08452   4 
   3   1   4 456.251 9.02060   4 
   3   1   4 440.785 9.64996   2 
   3   1   4 450.131 9.74669   1 
  -4  -1  -4 9.70674 1.29148   4 
  -4  -1  -4 8.76559 1.46218   1 
  -4  -1  -4 5.13956 1.49048   2 
   4   1   4 10.4759 1.73007   2 
   4   1   4 10.3061 1.43131   4 
   4   1   4 9.23419 1.91428   1 
  -5  -1  -4 310.831 8.34296   2 
  -5  -1  -4 328.330 7.87806   1 
  -5  -1  -4 333.224 7.39880   4 
   5   1   4 332.721 8.61722   1 
   5   1   4 330.242 7.74465   4 
  -6  -1  -4 1.10876 1.49876   4 
  -6  -1  -4 1.73766 1.86535   1 
   6   1   4 -2.1721 2.65646   1 
   6   1   4 5.78908 2.20960   2 
   6   1   4 3.63999 1.93060   4 
  -7  -1  -4 -1.0309 2.00212   4 
  -7  -1  -4 0.83669 1.75986   1 
   7   1   4 -3.1216 2.48102   4 
   7   1   4 -2.2990 4.03597   1 
 -10   2   4 349.290 9.43328   2 
 -10   2   4 349.083 10.4510   3 
 -10   2   4 367.388 10.8709   4 
 -10   2   4 357.808 9.07598   3 
 -10   2   4 354.242 9.94315   1 
  -9   2   4 13.8873 2.39949   3 
  -9   2   4 8.82814 2.25264   4 
  -9   2   4 12.7170 2.78263   1 
  -9   2   4 20.5169 3.15522   4 
  -9   2   4 11.0284 2.64841   2 
  -9   2   4 11.0084 2.23580   2 
  -9   2   4 17.9137 3.04083   3 
  -9   2   4 13.1086 2.45598   1 
  -8   2   4 207.479 6.84314   4 
  -8   2   4 204.415 6.31732   2 
  -8   2   4 206.348 6.30937   4 
  -8   2   4 203.522 5.78829   2 
  -8   2   4 205.989 5.84710   1 
  -8   2   4 204.731 6.73136   3 
  -8   2   4 211.935 6.15475   3 
  -8   2   4 205.903 6.36828   1 
  -7   2   4 -0.3116 1.45034   2 
  -7   2   4 1.78519 1.16719   2 
  -7   2   4 0.47188 1.65543   3 
  -7   2   4 2.85228 1.58980   4 
  -7   2   4 -0.2599 1.75293   4 
  -7   2   4 1.92523 1.26769   1 
  -7   2   4 1.45638 1.57511   1 
  -7   2   4 1.72482 1.85323   3 
  -6   2   4 63.7602 3.59059   3 
  -6   2   4 59.9111 3.22874   4 
  -6   2   4 65.7505 2.47506   2 
  -6   2   4 61.8427 3.37943   4 
  -6   2   4 62.3217 2.61062   1 
  -5   2   4 51.1172 2.81146   4 
  -5   2   4 54.3444 2.21188   1 
  -5   2   4 56.0172 3.04910   3 
  -5   2   4 55.2705 1.97980   2 
  -5   2   4 52.2912 2.18211   2 
   4  -2  -4 268.011 6.20026   1 
  -4   2   4 279.339 5.99140   1 
  -4   2   4 276.116 6.56376   4 
  -4   2   4 276.171 5.54975   2 
  -4   2   4 271.412 6.72352   3 
   3  -2  -4 3601.37 65.7321   4 
   3  -2  -4 3819.20 67.9520   1 
   3  -2  -4 3670.85 64.9603   2 
  -3   2   4 3784.91 65.3153   2 
  -3   2   4 3633.29 65.8005   3 
  -3   2   4 3538.53 65.5421   4 
  -3   2   4 3750.82 66.1734   1 
   2  -2  -4 859.811 15.9660   1 
   2  -2  -4 847.989 15.2942   2 
   2  -2  -4 861.748 16.4625   4 
  -2   2   4 857.192 15.3550   2 
  -2   2   4 848.479 16.2065   4 
  -2   2   4 860.476 15.8801   1 
  -2   2   4 856.066 16.4706   3 
   1  -2  -4 101.875 2.34338   2 
   1  -2  -4 100.039 2.72340   1 
   1  -2  -4 101.438 3.14406   4 
  -1   2   4 105.992 2.78953   1 
  -1   2   4 98.5373 3.13735   3 
  -1   2   4 100.243 2.90055   4 
  -1   2   4 98.7873 2.43251   2 
   0  -2  -4 -1.8708 0.73947   4 
   0  -2  -4 -0.6362 0.60946   2 
   0  -2  -4 -0.7237 0.59145   1 
   0   2   4 -1.1743 0.88359   3 
   0   2   4 -1.1114 0.65014   4 
   0   2   4 -1.5742 0.67461   1 
   0   2   4 -1.4350 0.77663   3 
   0   2   4 -0.2632 0.64615   2 
  -1  -2  -4 654.090 12.4260   4 
  -1  -2  -4 626.074 12.2493   2 
  -1  -2  -4 635.614 12.2640   1 
   1   2   4 613.837 12.2676   2 
   1   2   4 644.288 12.4539   1 
   1   2   4 639.670 12.1041   4 
  -2  -2  -4 4.92682 1.10324   2 
  -2  -2  -4 5.38612 1.01840   1 
   2   2   4 3.55240 1.11552   1 
   2   2   4 3.60449 1.06504   2 
   2   2   4 3.43907 0.89325   4 
  -3  -2  -4 693.412 13.7431   1 
  -3  -2  -4 689.122 13.5957   4 
  -3  -2  -4 700.409 14.1016   2 
   3   2   4 692.197 14.0994   2 
   3   2   4 696.775 13.5654   4 
   3   2   4 701.494 14.1240   1 
  -4  -2  -4 86.3985 3.88683   2 
  -4  -2  -4 85.6043 3.28643   1 
  -4  -2  -4 80.9121 3.17802   4 
   4   2   4 79.9208 3.77622   2 
   4   2   4 86.0232 3.32627   4 
   4   2   4 84.2677 3.95745   1 
  -5  -2  -4 30.5710 3.55692   2 
  -5  -2  -4 22.5596 2.49014   4 
  -5  -2  -4 27.2282 2.49177   1 
   5   2   4 32.5732 2.93387   4 
   5   2   4 30.9828 3.31396   2 
   5   2   4 27.2996 3.73596   1 
  -6  -2  -4 12.2216 2.14265   4 
  -6  -2  -4 14.0881 2.12636   1 
   6   2   4 9.86941 3.42750   1 
   6   2   4 16.9203 2.67893   4 
  -7  -2  -4 1.61585 2.08939   1 
   7   2   4 5.09036 3.07968   4 
 -10   3   4 139.506 6.79241   4 
 -10   3   4 137.324 7.38820   3 
 -10   3   4 134.717 6.69613   1 
 -10   3   4 139.068 5.52093   2 
 -10   3   4 131.614 5.39446   3 
 -10   3   4 121.492 5.65442   4 
  -9   3   4 9.01220 3.10026   3 
  -9   3   4 10.5902 2.23206   3 
  -9   3   4 12.4623 2.63304   2 
  -9   3   4 14.0148 2.18980   2 
  -9   3   4 9.50552 2.67129   1 
  -9   3   4 15.6728 2.54830   1 
  -9   3   4 9.20614 2.29307   4 
  -8   3   4 4.16438 1.55210   2 
  -8   3   4 3.27020 1.87384   4 
  -8   3   4 2.08147 2.11328   1 
  -8   3   4 2.50490 1.78396   3 
  -8   3   4 1.13659 1.76971   2 
  -8   3   4 6.35406 1.79818   1 
  -8   3   4 3.62142 2.56176   3 
  -7   3   4 104.479 4.82686   3 
  -7   3   4 89.6945 4.22373   4 
  -7   3   4 97.6703 4.12318   4 
  -7   3   4 102.949 3.70180   2 
  -7   3   4 96.9034 3.72594   1 
  -7   3   4 98.9304 4.08132   3 
  -7   3   4 99.0533 3.32440   2 
  -6   3   4 21.2741 2.51735   4 
  -6   3   4 22.6669 2.94926   3 
  -6   3   4 19.0520 2.00193   1 
  -6   3   4 19.0081 1.51396   2 
  -6   3   4 18.0648 2.47845   3 
  -6   3   4 17.9685 1.89762   2 
  -5   3   4 413.303 8.63137   1 
  -5   3   4 401.412 8.96003   4 
  -5   3   4 403.585 7.88673   2 
  -5   3   4 397.161 8.08692   2 
  -5   3   4 398.560 9.07016   3 
  -5   3   4 400.049 9.43473   3 
   4  -3  -4 223.143 5.56675   1 
   4  -3  -4 234.136 5.88107   4 
  -4   3   4 226.477 5.59796   4 
  -4   3   4 210.510 5.90034   1 
  -4   3   4 224.496 4.65204   2 
  -4   3   4 228.030 5.77382   3 
  -4   3   4 225.422 4.46702   2 
   3  -3  -4 67.7041 2.52399   1 
   3  -3  -4 69.4867 2.89709   4 
  -3   3   4 69.6441 2.64090   4 
  -3   3   4 78.6979 2.42076   1 
  -3   3   4 66.3548 2.78180   3 
   2  -3  -4 114.095 3.19385   1 
   2  -3  -4 115.984 3.57523   4 
  -2   3   4 116.369 3.49559   3 
  -2   3   4 117.810 3.12525   1 
  -2   3   4 109.755 3.23725   4 
   1  -3  -4 117.780 3.17982   1 
   1  -3  -4 115.911 2.61577   2 
   1  -3  -4 118.548 3.54619   4 
  -1   3   4 116.388 3.15218   1 
  -1   3   4 119.783 3.21228   4 
  -1   3   4 116.939 2.68998   2 
  -1   3   4 117.256 3.33613   3 
   0  -3  -4 151.868 3.62461   2 
   0  -3  -4 155.725 4.14363   4 
   0  -3  -4 154.686 3.83878   1 
   0   3   4 159.022 3.81553   3 
   0   3   4 153.088 3.66001   2 
   0   3   4 158.541 3.99125   1 
   0   3   4 155.005 3.81598   4 
  -1  -3  -4 109.578 3.41037   4 
  -1  -3  -4 110.753 3.16417   1 
  -1  -3  -4 112.379 3.23659   2 
   1   3   4 111.669 3.15629   4 
   1   3   4 111.483 3.23304   2 
   1   3   4 113.571 3.40217   1 
  -2  -3  -4 28.3127 2.05869   4 
  -2  -3  -4 25.5222 1.77925   1 
   2   3   4 25.7552 1.86912   4 
   2   3   4 27.1112 2.17051   1 
   2   3   4 25.2329 2.12138   2 
  -3  -3  -4 3.06425 1.26690   4 
  -3  -3  -4 2.29258 1.04077   1 
  -3  -3  -4 4.58165 1.59362   2 
   3   3   4 0.82140 1.43352   2 
   3   3   4 4.90581 1.57408   1 
   3   3   4 2.33034 1.21955   4 
  -4  -3  -4 41.2072 3.50261   2 
  -4  -3  -4 39.9013 2.47724   1 
  -4  -3  -4 39.2272 2.73355   4 
   4   3   4 43.3782 2.96570   4 
   4   3   4 42.2249 3.47919   1 
  -5  -3  -4 42.7232 4.27640   2 
  -5  -3  -4 40.5150 2.77077   1 
  -5  -3  -4 35.0502 3.16506   4 
   5   3   4 42.5589 3.51566   4 
   5   3   4 33.9844 4.47571   1 
  -6  -3  -4 65.8440 3.65462   1 
   6   3   4 64.4180 4.89619   4 
   6   3   4 61.0729 6.17500   1 
 -10   4   4 37.6614 4.99582   4 
 -10   4   4 25.7050 3.06580   4 
 -10   4   4 19.7944 2.76270   3 
 -10   4   4 28.6111 3.53131   2 
 -10   4   4 26.7039 3.99698   1 
  -9   4   4 4.13545 3.37987   3 
  -9   4   4 2.53316 2.05588   2 
  -9   4   4 2.97831 2.13928   4 
  -9   4   4 2.86447 2.21265   4 
  -9   4   4 2.12316 2.26727   2 
  -9   4   4 6.31130 2.81838   1 
  -9   4   4 3.88512 2.00870   3 
  -8   4   4 7.43848 1.88578   2 
  -8   4   4 2.66841 1.89836   4 
  -8   4   4 4.27725 2.25177   1 
  -8   4   4 3.58338 1.92462   4 
  -8   4   4 3.95054 1.87996   3 
  -8   4   4 7.22950 2.10025   1 
  -8   4   4 6.67124 1.55692   2 
  -8   4   4 0.40809 2.64549   3 
  -7   4   4 25.5255 2.59139   1 
  -7   4   4 30.0336 1.92623   2 
  -7   4   4 34.4703 4.02626   3 
  -7   4   4 27.9360 2.83952   2 
  -7   4   4 32.1549 3.05258   3 
  -7   4   4 33.8126 3.15970   4 
  -7   4   4 34.2788 2.94568   4 
  -6   4   4 45.9519 2.19681   2 
  -6   4   4 47.2817 2.88245   4 
  -6   4   4 47.4070 2.64918   1 
  -6   4   4 43.5696 1.83888   2 
  -6   4   4 46.6150 3.09803   3 
  -5   4   4 44.2371 2.57464   4 
  -5   4   4 44.1108 2.40231   1 
  -5   4   4 42.3353 1.70266   2 
  -5   4   4 41.8377 1.44231   2 
  -5   4   4 43.9219 2.81691   3 
   4  -4  -4 15.2037 1.79791   1 
   4  -4  -4 11.4336 1.70981   4 
  -4   4   4 14.9926 1.80135   4 
  -4   4   4 14.3445 1.71460   3 
  -4   4   4 11.9236 1.57285   1 
   3  -4  -4 3.23880 1.25707   4 
   3  -4  -4 2.38921 0.96228   1 
  -3   4   4 2.68206 0.86633   1 
  -3   4   4 2.55362 1.14738   3 
  -3   4   4 0.40974 0.84847   4 
   2  -4  -4 19.3973 1.96200   4 
   2  -4  -4 15.1108 1.41547   1 
  -2   4   4 18.7721 1.85143   3 
  -2   4   4 18.4108 1.52364   4 
   1  -4  -4 3.18589 1.12360   4 
   1  -4  -4 0.63568 0.76792   1 
   1  -4  -4 1.91581 0.58954   2 
  -1   4   4 0.55368 0.95724   3 
  -1   4   4 0.70867 0.78102   4 
  -1   4   4 1.90019 1.35222   1 
   0  -4  -4 59.1770 2.31288   1 
   0  -4  -4 60.7172 2.17459   2 
   0  -4  -4 64.9255 2.75478   4 
   0   4   4 61.3475 2.28771   3 
   0   4   4 59.9157 2.30752   4 
  -1  -4  -4 1.68609 1.05421   2 
  -1  -4  -4 0.53293 0.81351   1 
  -1  -4  -4 0.66779 1.12225   4 
   1   4   4 0.31429 1.09334   1 
   1   4   4 0.85405 0.91381   4 
  -2  -4  -4 226.670 5.47255   1 
  -2  -4  -4 228.183 5.91817   2 
  -2  -4  -4 221.416 5.83033   4 
   2   4   4 223.583 5.84405   1 
   2   4   4 228.354 5.73261   4 
  -3  -4  -4 -1.3119 1.67024   2 
  -3  -4  -4 -0.1967 1.12381   1 
  -3  -4  -4 -0.3512 1.45881   4 
   3   4   4 3.14163 1.69075   1 
   3   4   4 3.58926 1.52472   4 
  -4  -4  -4 81.7155 4.83335   2 
  -4  -4  -4 81.4172 4.03907   4 
  -4  -4  -4 85.3906 3.38821   1 
   4   4   4 83.0840 4.52177   1 
   4   4   4 89.3289 4.23914   4 
  -5  -4  -4 4.87892 1.69323   1 
   5   4   4 0.96347 2.97675   1 
   5   4   4 0.98113 2.32991   4 
  -6  -4  -4 4.51616 2.00874   1 
   6   4   4 4.59492 4.31886   1 
   6   4   4 6.89150 3.24726   4 
 -10   5   4 10.9010 3.50444   1 
 -10   5   4 1.29543 2.40035   3 
 -10   5   4 -1.1465 3.44731   2 
 -10   5   4 -0.9991 2.05956   2 
 -10   5   4 -2.0599 2.78853   4 
  -9   5   4 2.14986 2.10176   2 
  -9   5   4 0.69283 2.14145   4 
  -9   5   4 3.48256 2.88402   1 
  -9   5   4 5.08057 1.67484   2 
  -9   5   4 4.43540 2.30914   4 
  -9   5   4 2.41443 2.11171   3 
  -8   5   4 4.02983 1.96973   3 
  -8   5   4 6.18357 2.57976   1 
  -8   5   4 3.55198 2.01017   4 
  -8   5   4 3.78776 1.24768   2 
  -8   5   4 0.57098 1.99196   1 
  -8   5   4 3.06455 1.59672   2 
  -8   5   4 1.33871 1.82556   4 
  -8   5   4 -1.8980 2.91878   3 
  -7   5   4 52.2301 3.21174   4 
  -7   5   4 53.9165 2.15287   2 
  -7   5   4 51.9820 3.32611   1 
  -7   5   4 52.8246 2.46382   2 
  -7   5   4 56.9767 4.00969   3 
  -6   5   4 0.04152 1.37783   4 
  -6   5   4 -3.4294 1.44012   3 
  -6   5   4 0.27397 1.39392   1 
   5  -5  -4 -1.2970 1.57484   4 
  -5   5   4 1.83963 1.16025   1 
  -5   5   4 0.75351 1.14519   4 
  -5   5   4 -0.2839 1.34489   3 
   4  -5  -4 99.0951 3.78204   1 
   4  -5  -4 102.685 3.98255   4 
  -4   5   4 102.557 3.47007   1 
  -4   5   4 99.4898 3.74314   3 
  -4   5   4 101.304 3.33845   4 
   3  -5  -4 25.3034 2.50722   4 
   3  -5  -4 22.0090 2.09036   1 
  -3   5   4 24.7723 2.30489   3 
  -3   5   4 25.7945 1.86135   4 
  -3   5   4 23.6594 1.84829   1 
   2  -5  -4 179.659 4.90804   1 
   2  -5  -4 184.354 5.19324   4 
  -2   5   4 179.123 4.53691   4 
  -2   5   4 185.547 4.70559   1 
  -2   5   4 182.366 4.85226   3 
   1  -5  -4 8.80965 1.55226   4 
   1  -5  -4 9.41006 1.34991   1 
  -1   5   4 7.63546 1.32636   3 
  -1   5   4 9.83909 1.35920   1 
  -1   5   4 9.02877 1.23689   4 
   0  -5  -4 3.19417 1.45790   4 
   0  -5  -4 4.00099 1.03450   2 
   0  -5  -4 2.90097 1.09265   1 
   0   5   4 2.66345 1.11521   4 
   0   5   4 4.53689 1.30269   1 
   0   5   4 0.83543 1.04656   3 
  -1  -5  -4 48.9944 2.62294   2 
  -1  -5  -4 43.8916 2.35134   1 
  -1  -5  -4 47.0767 2.94365   4 
   1   5   4 44.7367 2.79669   1 
   1   5   4 46.9440 2.10245   3 
   1   5   4 41.9785 2.49201   4 
  -2  -5  -4 12.8791 2.05817   2 
  -2  -5  -4 9.66888 1.51476   1 
  -2  -5  -4 11.5435 1.85729   4 
   2   5   4 15.2611 2.01758   1 
  -3  -5  -4 -0.0843 2.17809   2 
  -3  -5  -4 -1.3145 1.73521   4 
  -3  -5  -4 -1.6753 1.13773   1 
   3   5   4 -0.1795 1.93019   1 
   3   5   4 0.97089 1.71664   4 
  -4  -5  -4 2.83961 1.52851   1 
  -4  -5  -4 8.93359 2.97624   2 
   4   5   4 1.75628 2.32525   4 
   4   5   4 1.74024 2.60889   1 
  -5  -5  -4 7.15353 2.05157   1 
   5   5   4 14.2156 4.28962   1 
   5   5   4 11.8398 3.16367   4 
  -9   6   4 62.4919 4.17445   4 
  -9   6   4 74.6136 3.79320   2 
  -9   6   4 80.8859 6.12667   1 
  -9   6   4 79.4266 3.24491   2 
  -9   6   4 75.3173 4.60391   3 
  -9   6   4 64.4654 4.83034   4 
  -8   6   4 45.1666 2.64980   2 
  -8   6   4 50.2993 3.91762   3 
  -8   6   4 48.7399 2.27132   2 
  -8   6   4 51.6443 4.99840   1 
  -8   6   4 44.6423 3.34841   4 
  -8   6   4 47.9173 4.11598   4 
  -7   6   4 0.66132 1.85056   3 
  -7   6   4 3.48222 2.07389   1 
  -7   6   4 3.28155 1.54367   4 
  -6   6   4 538.086 11.0966   4 
  -6   6   4 517.604 11.7129   1 
  -6   6   4 541.570 11.8495   3 
   5  -6  -4 27.8025 3.28326   4 
  -5   6   4 20.8750 2.72617   3 
  -5   6   4 28.5573 2.31941   4 
  -5   6   4 25.6911 2.58443   1 
   4  -6  -4 743.841 15.3921   4 
   4  -6  -4 752.745 15.5266   1 
  -4   6   4 736.128 14.3835   4 
  -4   6   4 727.571 15.0064   3 
  -4   6   4 732.641 14.8527   1 
   3  -6  -4 17.2664 2.27822   4 
   3  -6  -4 14.9622 1.95602   1 
  -3   6   4 10.9662 1.42902   4 
  -3   6   4 14.4324 1.83889   1 
  -3   6   4 14.8216 1.81571   3 
   2  -6  -4 261.198 6.96398   4 
   2  -6  -4 274.136 6.78985   1 
  -2   6   4 261.394 6.38172   1 
  -2   6   4 258.771 6.12491   4 
  -2   6   4 268.125 6.48081   3 
   1  -6  -4 35.7399 2.40919   1 
   1  -6  -4 32.7778 2.95106   4 
  -1   6   4 31.5287 2.36986   3 
  -1   6   4 32.3803 2.22319   4 
  -1   6   4 31.7656 2.42616   1 
   0  -6  -4 44.1828 2.42237   2 
   0  -6  -4 48.0726 2.23380   2 
   0  -6  -4 48.5506 2.70688   1 
   0  -6  -4 46.9426 3.31794   4 
   0   6   4 48.1551 2.88152   1 
   0   6   4 45.1224 2.65223   4 
   0   6   4 46.2409 2.54092   3 
  -1  -6  -4 206.530 5.52588   1 
  -1  -6  -4 214.735 5.39782   2 
  -1  -6  -4 204.601 5.71510   2 
  -1  -6  -4 202.125 6.17339   4 
   1   6   4 210.508 5.88339   1 
   1   6   4 211.107 5.80879   4 
   1   6   4 205.158 4.98274   3 
  -2  -6  -4 228.013 6.63040   2 
  -2  -6  -4 208.331 6.64103   4 
  -2  -6  -4 231.752 5.90177   1 
   2   6   4 233.159 6.49236   4 
   2   6   4 220.873 6.43543   1 
  -3  -6  -4 24.6031 3.37517   2 
  -3  -6  -4 23.5204 2.64642   1 
   3   6   4 23.4233 3.05771   1 
   3   6   4 28.0641 3.62009   4 
  -4  -6  -4 5.99008 3.41278   1 
   4   6   4 5.65111 2.78428   4 
   4   6   4 2.86085 3.42493   1 
  -9   7   4 0.20734 2.19080   4 
  -9   7   4 1.21785 2.57456   3 
  -9   7   4 -0.0992 3.68455   1 
  -8   7   4 749.426 16.2771   3 
  -8   7   4 756.785 15.1170   4 
  -7   7   4 316.825 7.43858   4 
  -7   7   4 315.309 8.46211   3 
   6  -7  -4 510.851 11.9758   4 
  -6   7   4 530.906 11.7457   3 
  -6   7   4 535.107 10.7214   4 
  -6   7   4 474.658 11.5581   1 
   5  -7  -4 8.94091 2.46221   4 
  -5   7   4 5.56326 1.96236   1 
  -5   7   4 6.10799 1.33382   4 
  -5   7   4 4.84332 1.88004   3 
   4  -7  -4 219.545 6.66126   4 
  -4   7   4 212.106 5.35486   4 
  -4   7   4 206.126 6.17775   3 
  -4   7   4 212.782 5.95175   1 
   3  -7  -4 -1.0134 1.99697   4 
   3  -7  -4 1.18357 1.67153   1 
  -3   7   4 1.75038 1.60776   3 
  -3   7   4 -0.1043 1.50486   1 
  -3   7   4 0.10722 1.12245   4 
   2  -7  -4 25.2941 3.49683   4 
   2  -7  -4 27.7079 2.81344   1 
  -2   7   4 28.7834 2.32285   4 
  -2   7   4 23.9556 2.52182   3 
  -2   7   4 28.4308 2.62548   1 
   1  -7  -4 20.3615 2.63512   1 
   1  -7  -4 20.2662 2.59322   4 
  -1   7   4 18.8762 2.16531   1 
  -1   7   4 21.7306 2.47465   3 
   0  -7  -4 168.468 4.24688   2 
   0  -7  -4 174.634 5.22030   1 
   0  -7  -4 159.418 5.91508   4 
   0  -7  -4 157.338 4.57162   2 
   0   7   4 163.739 5.25072   1 
   0   7   4 166.851 4.69678   3 
   0   7   4 167.490 5.22464   4 
  -1  -7  -4 30.5826 2.84559   1 
  -1  -7  -4 32.6279 2.82685   2 
  -1  -7  -4 32.3923 3.53108   2 
   1   7   4 35.9124 3.64704   1 
   1   7   4 36.4191 3.32848   4 
   1   7   4 35.7003 2.72878   3 
  -2  -7  -4 34.3721 3.20497   1 
  -2  -7  -4 36.1582 4.68504   2 
  -2  -7  -4 31.4340 3.43851   2 
   2   7   4 26.4894 3.27033   1 
   2   7   4 35.1202 3.78726   4 
  -3  -7  -4 3.38868 2.65453   2 
  -3  -7  -4 -0.2023 3.60958   2 
  -3  -7  -4 2.91082 3.48277   1 
   3   7   4 -1.9777 2.89646   4 
   3   7   4 -3.3803 3.38244   1 
  -8   8   4 1028.37 21.4585   3 
  -8   8   4 1062.09 19.9812   4 
  -7   8   4 81.3361 4.70989   3 
  -7   8   4 82.0180 3.49709   4 
   6  -8  -4 34.9085 3.92875   4 
  -6   8   4 33.6214 3.59893   3 
  -6   8   4 32.3975 2.60011   4 
   5  -8  -4 8.38099 2.88848   4 
  -5   8   4 5.44940 1.51665   4 
  -5   8   4 10.8520 2.32731   3 
   4  -8  -4 3.79223 2.80055   4 
  -4   8   4 0.92772 1.38880   4 
  -4   8   4 -2.2696 1.77226   3 
  -4   8   4 2.14661 2.00070   1 
   3  -8  -4 21.2191 2.79169   1 
   3  -8  -4 12.0499 2.86309   4 
  -3   8   4 17.0264 2.22315   3 
  -3   8   4 16.9133 2.43994   1 
   2  -8  -4 31.4471 3.45869   1 
   2  -8  -4 31.1042 3.56072   4 
  -2   8   4 28.3496 2.79468   4 
  -2   8   4 31.3396 3.06253   3 
  -2   8   4 29.4283 3.19333   1 
   1  -8  -4 4.42738 2.61940   4 
   1  -8  -4 7.43927 2.12197   1 
  -1   8   4 5.56055 1.89825   3 
  -1   8   4 5.08890 1.91386   4 
  -1   8   4 4.54628 2.18973   1 
   0  -8  -4 37.3682 3.17992   2 
   0  -8  -4 27.4560 3.40037   1 
   0  -8  -4 33.3379 2.42743   2 
   0   8   4 28.8461 3.98856   1 
   0   8   4 36.3543 2.93947   3 
   0   8   4 31.3898 3.47708   4 
  -1  -8  -4 10.6524 2.24776   2 
  -1  -8  -4 13.1971 2.37765   1 
  -1  -8  -4 8.11324 2.96366   2 
   1   8   4 5.83664 2.06744   3 
   1   8   4 12.9603 2.65025   4 
   1   8   4 6.12484 2.81372   1 
  -2  -8  -4 0.67104 2.92560   2 
  -2  -8  -4 3.17202 2.34306   1 
  -2  -8  -4 8.89782 6.15499   2 
   2   8   4 5.36279 3.00447   4 
   2   8   4 -3.1729 3.35418   1 
  -7   9   4 1.17481 1.81360   4 
  -7   9   4 3.91016 2.64903   3 
   6  -9  -4 -0.6654 3.70214   4 
  -6   9   4 3.92091 2.68102   4 
  -6   9   4 6.35930 2.54079   3 
   5  -9  -4 4.19947 3.39739   4 
  -5   9   4 0.58044 2.24358   3 
  -5   9   4 0.82354 1.65879   4 
   4  -9  -4 3.93451 3.51043   4 
  -4   9   4 6.51301 1.76033   4 
  -4   9   4 7.35260 2.33417   3 
  -3   9   4 13.9380 2.10880   4 
  -3   9   4 13.2998 2.38934   3 
   2  -9  -4 7.17560 2.71448   1 
  -2   9   4 3.63098 2.06595   4 
  -2   9   4 1.65007 2.17783   3 
   1  -9  -4 3.52227 2.66692   1 
  -1   9   4 5.66821 2.62914   1 
  -1   9   4 2.56335 2.33638   4 
  -1   9   4 5.19516 2.14371   3 
   0  -9  -4 109.173 5.45113   1 
   0   9   4 106.714 4.94293   3 
   0   9   4 105.226 5.84034   1 
   0   9   4 105.383 5.46312   4 
   1   9   4 12.2283 3.40518   4 
  -5  10   4 13.4260 2.89993   3 
  -5  10   4 15.1806 2.36706   4 
  -4  10   4 11.6649 2.80859   3 
  -4  10   4 11.4490 2.40067   4 
  -3  10   4 91.8619 4.78528   4 
  -3  10   4 87.7676 5.06753   3 
  -2  10   4 43.4779 4.28948   3 
  -2  10   4 39.9623 4.57240   4 
   0  10  -5 52.3870 5.92615   4 
   0  10  -5 51.8769 5.69464   3 
   0 -10   5 40.2141 4.41711   2 
   0 -10   5 38.3121 4.97155   4 
  -1  10  -5 8.64856 3.17897   3 
   1 -10   5 2.23754 2.67985   2 
  -2  10  -5 0.45430 4.49888   1 
  -2  10  -5 8.49350 2.95279   2 
  -2  10  -5 3.13594 2.90554   3 
   2 -10   5 2.12511 2.77120   2 
  -3  10  -5 11.4171 3.00441   3 
  -3  10  -5 8.95089 3.00399   2 
  -3  10  -5 16.9783 6.38230   1 
  -3  10  -5 2.23763 3.73351   1 
   3 -10   5 2.69235 2.98091   2 
  -4  10  -5 7.54405 3.18280   2 
  -4  10  -5 10.5906 4.24519   1 
   2   9  -5 114.474 7.00236   4 
   2   9  -5 98.4332 6.60982   3 
  -2  -9   5 107.597 5.11445   2 
   1   9  -5 2.78889 3.30502   4 
   1   9  -5 2.71989 2.97599   3 
  -1  -9   5 1.73145 2.45082   4 
  -1  -9   5 0.50302 2.15548   2 
   0   9  -5 45.4969 5.27884   4 
   0   9  -5 38.3092 4.30489   2 
   0   9  -5 39.7650 4.37497   3 
   0  -9   5 40.2050 3.71920   4 
   0  -9   5 38.1844 3.53740   2 
  -1   9  -5 5.35003 2.48580   1 
  -1   9  -5 0.61263 2.52457   1 
  -1   9  -5 0.60114 2.38213   3 
  -1   9  -5 5.29419 2.36984   2 
   1  -9   5 2.25640 2.08787   2 
   1  -9   5 3.75188 1.88363   4 
  -2   9  -5 111.881 5.50347   1 
  -2   9  -5 113.632 4.79837   2 
  -2   9  -5 113.920 5.66852   1 
  -2   9  -5 116.787 5.21752   3 
   2  -9   5 117.931 4.89018   2 
  -3   9  -5 46.7188 3.99220   3 
  -3   9  -5 42.8037 5.21336   1 
  -3   9  -5 35.3936 3.66827   2 
  -3   9  -5 48.1726 5.00607   1 
   3  -9   5 40.1868 3.97709   2 
  -4   9  -5 71.5485 4.51825   3 
  -4   9  -5 68.8765 4.30072   2 
  -4   9  -5 55.8177 5.77640   1 
   4  -9   5 77.2664 4.83316   2 
  -5   9  -5 19.3567 4.08395   1 
  -5   9  -5 18.8546 2.90566   2 
  -5   9  -5 30.0542 3.90113   3 
   5  -9   5 23.1994 3.43577   2 
  -6   9  -5 59.2494 6.76795   1 
  -6   9  -5 88.6999 4.95026   3 
   6  -9   5 73.7269 6.04128   2 
   4   8  -5 66.7807 7.07610   4 
   4   8  -5 82.7061 6.86268   3 
  -4  -8   5 64.4640 4.85089   2 
   3   8  -5 7.49054 3.55381   4 
   3   8  -5 6.37219 3.36100   3 
  -3  -8   5 4.85918 2.37946   2 
   2   8  -5 34.9600 4.60100   3 
   2   8  -5 38.7164 4.00285   4 
  -2  -8   5 32.9774 3.55768   2 
  -2  -8   5 39.1676 3.91310   4 
   1   8  -5 7.13678 3.13674   4 
   1   8  -5 7.65789 2.56946   3 
   1   8  -5 5.57876 2.35873   2 
  -1  -8   5 3.86245 1.85430   2 
  -1  -8   5 5.91431 2.05000   4 
   0   8  -5 279.289 7.85004   4 
   0   8  -5 265.494 7.23403   2 
   0   8  -5 270.924 7.80425   3 
   0  -8   5 292.447 9.11828   3 
   0  -8   5 282.684 6.66754   4 
  -1   8  -5 0.98220 2.04983   1 
  -1   8  -5 1.11115 1.98630   1 
  -1   8  -5 -0.9730 1.83420   3 
  -1   8  -5 0.27615 1.73649   2 
   1  -8   5 -0.2120 1.38692   4 
   1  -8   5 -1.1218 2.22671   3 
   1  -8   5 3.35216 1.81071   2 
  -2   8  -5 -0.2784 1.74167   3 
  -2   8  -5 -3.0411 2.10014   1 
  -2   8  -5 0.77300 2.32391   1 
  -2   8  -5 2.51419 1.74178   2 
   2  -8   5 -6.0008 3.29678   3 
   2  -8   5 2.67209 1.69516   2 
  -3   8  -5 29.5603 3.20092   3 
  -3   8  -5 31.9901 2.99011   2 
  -3   8  -5 26.2858 3.23703   1 
   3  -8   5 26.2621 3.25468   2 
  -4   8  -5 36.1347 3.35467   3 
  -4   8  -5 30.3722 4.37788   1 
  -4   8  -5 22.6108 3.02612   2 
   4  -8   5 32.7016 5.07238   2 
  -5   8  -5 41.5634 5.13312   1 
  -5   8  -5 33.1190 3.59794   2 
  -5   8  -5 35.5978 3.44722   3 
   5  -8   5 34.6122 4.14592   2 
  -6   8  -5 -0.6558 2.04576   3 
  -6   8  -5 -0.6168 3.02850   1 
   6  -8   5 2.67394 2.98005   2 
   5   7  -5 30.0634 4.53245   3 
   5   7  -5 27.4755 4.67027   4 
  -5  -7   5 30.5699 3.48395   2 
   4   7  -5 4.09891 3.22422   3 
   4   7  -5 4.71653 3.41364   4 
  -4  -7   5 2.43519 2.12034   2 
   3   7  -5 64.5207 5.13729   4 
   3   7  -5 50.8080 4.61142   3 
  -3  -7   5 57.2684 3.55533   2 
  -3  -7   5 55.6544 3.66077   3 
  -3  -7   5 58.7456 4.00630   4 
   2   7  -5 22.4821 2.64424   2 
   2   7  -5 23.5578 2.98838   3 
   2   7  -5 20.8038 5.09669   4 
  -2  -7   5 27.0622 2.75081   2 
  -2  -7   5 27.5830 3.04843   3 
  -2  -7   5 24.5344 3.07630   4 
   1   7  -5 22.5361 2.83905   2 
   1   7  -5 24.9657 3.45911   4 
   1   7  -5 24.7295 3.18762   3 
  -1  -7   5 26.3640 2.72265   4 
  -1  -7   5 23.2185 2.51000   2 
  -1  -7   5 26.5805 2.85250   3 
   0   7  -5 30.9687 2.97049   3 
   0   7  -5 28.7831 2.63140   2 
   0  -7   5 28.8691 2.44756   4 
   0  -7   5 29.8555 2.75094   3 
   0  -7   5 28.3755 2.50041   2 
  -1   7  -5 15.5489 2.26767   2 
  -1   7  -5 14.3840 2.16572   3 
  -1   7  -5 16.8762 2.10414   1 
   1  -7   5 15.4294 1.96593   2 
   1  -7   5 12.8014 1.86793   4 
   1  -7   5 16.2029 2.07706   3 
  -2   7  -5 130.260 4.87681   1 
  -2   7  -5 124.144 4.51061   3 
  -2   7  -5 128.973 4.08885   2 
   2  -7   5 122.227 4.45532   3 
   2  -7   5 124.116 4.35693   2 
  -3   7  -5 42.6015 2.97710   3 
  -3   7  -5 37.5724 2.70355   2 
  -3   7  -5 37.6164 3.60924   1 
   3  -7   5 35.5426 2.98163   2 
   3  -7   5 34.6286 3.21954   3 
  -4   7  -5 26.3745 3.76494   1 
  -4   7  -5 29.4177 2.76030   2 
  -4   7  -5 26.9991 2.74440   3 
   4  -7   5 24.3933 3.39699   3 
   4  -7   5 27.0207 3.22656   2 
  -5   7  -5 6.21239 2.04784   2 
  -5   7  -5 6.26745 2.71565   1 
  -5   7  -5 5.86140 1.74781   3 
   5  -7   5 2.76730 2.17997   3 
   5  -7   5 3.02730 2.19837   2 
  -6   7  -5 1.29075 2.35359   2 
  -6   7  -5 2.91266 2.64203   1 
  -6   7  -5 -1.9546 1.57333   3 
   6  -7   5 -2.6885 2.39817   3 
   6  -7   5 3.52065 2.54376   2 
  -7   7  -5 8.76153 2.11218   3 
  -7   7  -5 10.9532 3.31884   1 
   7  -7   5 5.83143 3.30936   2 
   6   6  -5 28.4433 4.48553   4 
   6   6  -5 19.7107 4.17256   3 
  -6  -6   5 30.0737 3.81123   2 
  -6  -6   5 20.9379 2.66735   3 
   5   6  -5 0.45135 3.13934   4 
   5   6  -5 3.41857 3.09835   3 
  -5  -6   5 1.94608 2.06083   3 
  -5  -6   5 -0.3403 1.77622   2 
   4   6  -5 3.96908 2.87270   3 
   4   6  -5 0.90609 2.62709   4 
  -4  -6   5 2.27802 1.76144   3 
  -4  -6   5 7.88399 2.25804   4 
  -4  -6   5 1.59642 1.65613   2 
   3   6  -5 16.3133 2.63012   3 
  -3  -6   5 18.9517 2.02411   3 
  -3  -6   5 18.9922 2.44317   2 
  -3  -6   5 18.0217 2.30417   4 
   2   6  -5 0.89046 1.47887   2 
   2   6  -5 0.89403 1.97942   4 
   2   6  -5 1.79874 1.83899   3 
  -2  -6   5 -0.0344 1.46600   4 
  -2  -6   5 1.13356 1.34225   3 
  -2  -6   5 2.41863 1.30698   2 
   1   6  -5 50.4779 3.29491   3 
   1   6  -5 56.2335 2.84248   2 
   1   6  -5 49.5855 3.47761   4 
  -1  -6   5 51.9692 2.69137   3 
  -1  -6   5 51.1783 2.68305   2 
  -1  -6   5 50.8867 2.76009   4 
   0   6  -5 2.24324 1.49560   3 
   0   6  -5 -0.0361 1.16058   1 
   0   6  -5 2.71789 1.18195   2 
   0  -6   5 2.77372 1.14773   4 
   0  -6   5 2.98702 1.19653   2 
   0  -6   5 3.14830 1.27027   3 
  -1   6  -5 91.8702 3.18091   2 
  -1   6  -5 88.6131 3.46255   1 
  -1   6  -5 91.4116 3.60047   3 
   1  -6   5 94.7876 3.41179   2 
   1  -6   5 86.1463 3.28744   3 
   1  -6   5 87.5539 2.71028   4 
  -2   6  -5 184.081 5.23381   3 
  -2   6  -5 190.569 4.90102   2 
  -2   6  -5 191.099 5.54359   1 
   2  -6   5 189.186 5.26759   2 
   2  -6   5 172.054 4.97085   3 
  -3   6  -5 283.406 6.64917   2 
  -3   6  -5 272.427 6.81484   3 
  -3   6  -5 273.975 7.38299   1 
   3  -6   5 293.796 7.14132   2 
   3  -6   5 268.130 6.74513   3 
  -4   6  -5 54.2586 3.73028   1 
  -4   6  -5 58.7102 3.09250   2 
  -4   6  -5 57.1272 2.96023   3 
   4  -6   5 58.4439 3.52179   2 
   4  -6   5 58.5903 3.24227   3 
  -5   6  -5 1.92921 1.42997   3 
  -5   6  -5 3.95355 1.79402   2 
  -5   6  -5 2.34999 2.16240   1 
   5  -6   5 1.32342 1.70890   3 
  -6   6  -5 12.3171 2.40886   2 
  -6   6  -5 10.2053 2.72303   1 
  -6   6  -5 17.0139 2.01227   3 
   6  -6   5 13.0650 2.43434   3 
   6  -6   5 17.5870 2.87027   2 
  -7   6  -5 6.50937 2.71850   1 
  -7   6  -5 9.18065 2.28984   3 
   7  -6   5 10.9440 2.89772   2 
   7  -6   5 7.52136 2.84273   3 
   7   5  -5 21.1419 4.39055   3 
  -7  -5   5 28.6059 4.09059   3 
  -7  -5   5 22.2273 3.15068   2 
   6   5  -5 12.9748 3.61778   3 
  -6  -5   5 3.32267 2.18340   2 
  -6  -5   5 8.59648 2.17683   3 
   5   5  -5 169.819 6.59301   3 
   5   5  -5 180.684 7.18228   4 
  -5  -5   5 179.788 5.32413   3 
  -5  -5   5 195.377 8.36987   4 
  -5  -5   5 176.741 5.53730   2 
   4   5  -5 18.2422 2.85984   4 
   4   5  -5 19.8314 2.76363   3 
  -4  -5   5 20.7989 3.05829   4 
  -4  -5   5 19.7671 2.48391   3 
  -4  -5   5 17.4351 2.31877   2 
   3   5  -5 58.1211 3.21387   2 
   3   5  -5 61.2015 3.63741   3 
   3   5  -5 62.6416 3.97568   4 
  -3  -5   5 61.5968 2.97568   3 
  -3  -5   5 63.1422 3.29446   4 
  -3  -5   5 58.2828 2.81319   2 
   2   5  -5 30.0608 3.04927   4 
   2   5  -5 32.4877 2.83358   3 
   2   5  -5 30.6728 2.34763   2 
  -2  -5   5 30.0099 2.52175   4 
  -2  -5   5 33.5510 2.28013   3 
  -2  -5   5 32.9592 2.12433   2 
   1   5  -5 -1.0382 1.30336   3 
   1   5  -5 0.62145 0.95790   2 
  -1  -5   5 2.18348 1.11700   3 
  -1  -5   5 0.26724 0.98231   2 
  -1  -5   5 0.54670 1.21293   4 
   0   5  -5 34.9301 1.96874   2 
   0   5  -5 33.2688 2.00487   1 
   0   5  -5 34.7991 2.41718   3 
   0  -5   5 34.0639 2.08352   2 
   0  -5   5 36.0065 2.05418   3 
   0  -5   5 32.0723 1.97890   4 
  -1   5  -5 81.6752 3.18248   3 
  -1   5  -5 91.1330 2.96839   2 
  -1   5  -5 83.2632 3.17392   1 
   1  -5   5 85.6539 3.14166   2 
   1  -5   5 82.8872 2.51658   4 
   1  -5   5 83.1044 2.91112   3 
   1  -5   5 85.3679 3.41039   1 
  -2   5  -5 414.725 8.75287   2 
  -2   5  -5 405.887 9.23342   1 
  -2   5  -5 416.263 8.98511   3 
   2  -5   5 419.396 9.48129   1 
   2  -5   5 408.403 8.65452   3 
   2  -5   5 420.373 9.11155   2 
  -3   5  -5 394.676 8.51030   2 
  -3   5  -5 384.349 8.46199   3 
  -3   5  -5 379.598 9.09440   1 
   3  -5   5 383.242 8.82582   2 
   3  -5   5 389.241 9.38582   1 
   3  -5   5 391.193 8.36475   3 
  -4   5  -5 3.39143 1.50025   2 
  -4   5  -5 3.47773 1.26097   3 
  -4   5  -5 2.69984 1.75221   1 
   4  -5   5 2.98963 1.57166   2 
   4  -5   5 2.72188 1.36602   3 
   4  -5   5 2.72718 2.08864   1 
  -5   5  -5 0.30719 1.15501   3 
  -5   5  -5 1.85432 1.80744   1 
  -5   5  -5 3.16450 1.70990   2 
   5  -5   5 2.57007 2.52780   1 
   5  -5   5 -0.2148 1.34959   3 
   5  -5   5 2.78226 1.79744   2 
  -6   5  -5 41.4570 2.67578   3 
  -6   5  -5 37.6510 3.98619   1 
  -6   5  -5 40.6327 3.64548   2 
   6  -5   5 38.8282 3.85222   2 
   6  -5   5 39.8421 3.16252   3 
  -7   5  -5 -2.2305 2.36962   1 
  -7   5  -5 -0.4842 1.59701   3 
   7  -5   5 -0.6035 2.32752   3 
   7  -5   5 -2.4594 2.74938   2 
  -8   5  -5 2.06491 3.07862   1 
   8  -5   5 0.47154 3.02382   2 
   8   4  -5 52.3626 6.59348   3 
  -8  -4   5 39.9081 4.85351   2 
   7   4  -5 -5.2360 3.88484   3 
  -7  -4   5 3.82081 2.28404   3 
  -7  -4   5 1.14236 2.14149   2 
   6   4  -5 1.52655 2.64502   3 
  -6  -4   5 3.63574 1.90725   3 
  -6  -4   5 -0.8173 1.78405   2 
   5   4  -5 1061.55 21.2443   3 
  -5  -4   5 1076.22 20.1501   3 
  -5  -4   5 1044.57 20.4684   2 
  -5  -4   5 1009.44 20.7747   4 
   4   4  -5 98.1562 4.39354   3 
  -4  -4   5 95.5449 3.53183   3 
  -4  -4   5 101.086 3.55545   2 
  -4  -4   5 97.0866 4.02753   4 
   3   4  -5 79.2807 3.71869   3 
   3   4  -5 77.6130 3.23627   2 
  -3  -4   5 79.6298 3.08067   3 
  -3  -4   5 85.1278 3.49688   4 
  -3  -4   5 81.3185 2.98536   2 
   2   4  -5 14.8252 1.62519   2 
   2   4  -5 17.1255 2.23175   3 
  -2  -4   5 16.8315 1.84810   3 
  -2  -4   5 15.5403 2.12206   4 
  -2  -4   5 13.8964 1.50977   2 
   1   4  -5 376.721 8.43143   3 
   1   4  -5 366.258 7.85041   2 
  -1  -4   5 373.710 7.92003   2 
  -1  -4   5 366.536 8.01685   4 
  -1  -4   5 380.720 7.92915   3 
   0   4  -5 118.250 3.28541   2 
   0   4  -5 119.658 3.28830   1 
   0   4  -5 115.170 3.68849   3 
   0  -4   5 114.832 3.29592   3 
   0  -4   5 113.082 3.37367   1 
   0  -4   5 113.381 3.40477   2 
   0  -4   5 119.594 3.35131   4 
  -1   4  -5 1032.21 19.6177   1 
  -1   4  -5 1042.12 19.7098   3 
  -1   4  -5 1063.28 19.4603   2 
   1  -4   5 1017.45 19.7749   1 
   1  -4   5 1043.61 19.3239   3 
   1  -4   5 1037.16 19.6706   2 
  -2   4  -5 147.074 4.02524   3 
  -2   4  -5 138.460 4.25279   1 
  -2   4  -5 143.129 3.94462   2 
   2  -4   5 144.332 4.23004   2 
   2  -4   5 137.776 4.43361   1 
   2  -4   5 142.400 3.69819   3 
  -3   4  -5 35.5257 2.30696   2 
  -3   4  -5 36.5868 2.62901   1 
  -3   4  -5 42.1242 2.17060   3 
   3  -4   5 37.8292 2.60068   2 
   3  -4   5 39.5590 2.97866   1 
   3  -4   5 40.3961 2.07629   3 
  -4   4  -5 115.133 3.48901   3 
  -4   4  -5 117.988 3.99242   2 
  -4   4  -5 108.470 4.31459   1 
   4  -4   5 112.468 4.18001   2 
   4  -4   5 105.488 4.67395   1 
   4  -4   5 114.028 3.49219   3 
  -5   4  -5 1.92839 1.19613   3 
  -5   4  -5 1.62756 2.16795   1 
  -5   4  -5 2.40770 1.62805   2 
   5  -4   5 -0.5679 1.27213   3 
   5  -4   5 1.43978 2.38602   1 
   5  -4   5 1.31186 1.92114   2 
  -6   4  -5 88.3137 4.55833   1 
  -6   4  -5 89.7599 3.25346   3 
  -6   4  -5 82.8817 4.40200   2 
   6  -4   5 75.0191 5.25526   1 
   6  -4   5 87.6627 4.63303   2 
   6  -4   5 80.5459 3.49628   3 
  -7   4  -5 136.970 6.04098   1 
   7  -4   5 135.713 5.90535   2 
  -8   4  -5 13.0992 3.20725   1 
   8  -4   5 8.83206 3.16525   2 
  -8  -3   5 31.8811 3.95024   3 
  -8  -3   5 33.4808 4.15886   2 
   7   3  -5 140.229 6.17397   3 
  -7  -3   5 138.741 5.26970   2 
  -7  -3   5 151.913 4.97191   3 
   6   3  -5 11.3755 2.62995   3 
  -6  -3   5 9.85012 2.20194   4 
  -6  -3   5 7.64689 1.85334   3 
  -6  -3   5 7.00645 1.80900   2 
   5   3  -5 170.819 5.78128   3 
  -5  -3   5 177.395 4.99174   3 
  -5  -3   5 170.400 5.47753   4 
  -5  -3   5 172.003 4.96822   2 
   4   3  -5 27.7766 2.82575   3 
  -4  -3   5 22.9149 1.90985   2 
  -4  -3   5 27.9101 2.26151   3 
  -4  -3   5 25.8871 2.65272   4 
   3   3  -5 -0.6941 1.38182   3 
   3   3  -5 1.34197 0.97453   2 
  -3  -3   5 0.45268 1.07768   3 
  -3  -3   5 -0.0667 0.77911   2 
  -3  -3   5 -0.6676 1.21010   4 
   2   3  -5 0.51606 1.16038   3 
   2   3  -5 -0.1596 0.72523   2 
  -2  -3   5 -0.1843 0.66821   2 
  -2  -3   5 -0.6246 1.04197   4 
  -2  -3   5 -0.2175 1.04136   3 
   1   3  -5 112.704 3.64538   3 
   1   3  -5 116.055 3.15502   2 
  -1  -3   5 114.718 3.28674   3 
  -1  -3   5 116.457 3.49546   4 
  -1  -3   5 115.871 3.03884   1 
  -1  -3   5 116.464 3.24655   2 
   0   3  -5 46.2578 1.84879   2 
   0   3  -5 46.1840 1.88168   1 
   0   3  -5 41.2740 2.17453   3 
   0  -3   5 42.8297 1.91233   3 
   0  -3   5 42.8857 2.25048   4 
   0  -3   5 42.7833 2.08908   4 
   0  -3   5 46.6729 1.97422   2 
   0  -3   5 40.7110 2.02391   1 
  -1   3  -5 51.6636 2.26824   1 
  -1   3  -5 59.3793 2.17463   2 
  -1   3  -5 55.5755 2.35031   3 
   1  -3   5 58.0330 2.51065   1 
   1  -3   5 54.3786 2.14663   4 
   1  -3   5 53.3862 2.29042   2 
   1  -3   5 58.1561 2.05147   3 
  -2   3  -5 127.230 3.57839   3 
  -2   3  -5 130.129 3.65024   2 
  -2   3  -5 127.720 3.88267   1 
   2  -3   5 127.270 3.82412   2 
   2  -3   5 127.095 3.23319   3 
  -3   3  -5 43.1139 2.34566   2 
  -3   3  -5 40.5615 2.03562   3 
  -3   3  -5 40.3519 2.52987   1 
   3  -3   5 38.5131 2.52243   2 
   3  -3   5 42.1778 2.85510   1 
   3  -3   5 43.0852 1.82845   3 
  -4   3  -5 251.008 5.67341   3 
  -4   3  -5 255.884 6.43965   2 
  -4   3  -5 249.719 6.73799   1 
   4  -3   5 250.253 6.66307   2 
   4  -3   5 253.023 5.54640   3 
   4  -3   5 244.315 6.97942   1 
  -5   3  -5 44.5055 3.15442   2 
  -5   3  -5 45.0858 3.46439   1 
   5  -3   5 44.0383 3.33515   2 
   5  -3   5 49.0321 3.76591   1 
  -6   3  -5 5.40614 2.22048   2 
  -6   3  -5 3.58916 1.89280   1 
   6  -3   5 6.14385 2.28192   2 
   6  -3   5 3.73342 2.90461   1 
  -7   3  -5 49.5492 4.37657   1 
   7  -3   5 60.4762 4.61868   2 
  -8   3  -5 2.15866 2.72281   1 
   8  -3   5 8.46378 3.11821   2 
  -9  -2   5 34.8642 4.68931   2 
  -8  -2   5 3.01016 2.27044   3 
  -8  -2   5 2.77010 2.21386   2 
   7   2  -5 163.269 6.10705   3 
  -7  -2   5 157.673 6.02168   2 
  -7  -2   5 160.709 5.32132   3 
  -7  -2   5 162.794 5.37150   2 
  -7  -2   5 157.840 5.75616   4 
   6   2  -5 24.0023 2.86222   3 
  -6  -2   5 25.3392 3.10958   4 
  -6  -2   5 28.0188 2.90603   2 
  -6  -2   5 26.3547 2.86753   3 
   5   2  -5 73.2277 3.91628   3 
  -5  -2   5 74.0345 2.96136   2 
  -5  -2   5 76.2902 3.65293   4 
  -5  -2   5 75.1441 3.32651   3 
   4   2  -5 18.7401 2.39744   3 
   4   2  -5 17.7578 1.78598   2 
  -4  -2   5 16.6825 1.54550   2 
  -4  -2   5 14.5862 2.02639   3 
  -4  -2   5 22.0152 2.37542   4 
   3   2  -5 78.2788 3.26990   3 
   3   2  -5 74.2786 3.01178   2 
  -3  -2   5 79.0841 3.15643   3 
  -3  -2   5 83.6698 2.59749   2 
   2   2  -5 52.5886 2.64672   3 
   2   2  -5 56.0007 2.02913   2 
  -2  -2   5 53.4453 2.32984   3 
  -2  -2   5 57.8645 2.65656   4 
  -2  -2   5 53.7178 1.74048   1 
  -2  -2   5 52.0601 1.94764   2 
   1   2  -5 45.0029 2.29613   3 
   1   2  -5 48.2808 1.69078   1 
   1   2  -5 48.1881 1.80032   2 
  -1  -2   5 49.8988 2.46163   4 
  -1  -2   5 48.3963 2.06884   3 
  -1  -2   5 45.5224 1.86179   2 
  -1  -2   5 48.2003 1.86032   1 
   0   2  -5 116.620 3.16480   1 
   0   2  -5 116.166 3.48742   3 
   0   2  -5 118.970 3.13663   2 
   0  -2   5 121.236 3.43017   4 
   0  -2   5 114.230 3.18883   3 
   0  -2   5 114.031 3.29149   1 
   0  -2   5 116.536 3.25182   2 
  -1   2  -5 104.250 3.01972   2 
  -1   2  -5 102.105 3.13597   1 
  -1   2  -5 105.327 3.12914   3 
   1  -2   5 105.144 3.18617   2 
   1  -2   5 102.830 2.82149   4 
   1  -2   5 104.913 2.81653   3 
   1  -2   5 101.657 3.28285   1 
  -2   2  -5 212.583 5.33081   1 
  -2   2  -5 218.845 4.95592   3 
   2  -2   5 211.623 5.30656   2 
   2  -2   5 197.237 6.18076   1 
   2  -2   5 215.800 4.55201   3 
  -3   2  -5 43.2311 2.37831   2 
  -3   2  -5 42.3139 2.48869   1 
  -3   2  -5 40.1711 1.94880   3 
   3  -2   5 41.4969 2.41526   2 
   3  -2   5 42.9337 2.77918   1 
   3  -2   5 42.5660 1.63280   3 
  -4   2  -5 2.33753 1.38640   1 
  -4   2  -5 0.08062 1.23115   2 
   4  -2   5 0.36432 1.62614   1 
   4  -2   5 1.50791 1.36325   2 
  -5   2  -5 33.7834 3.08552   1 
  -5   2  -5 35.8662 3.00469   2 
   5  -2   5 42.7755 3.17382   2 
   5  -2   5 30.4048 3.59494   1 
  -6   2  -5 5.22631 1.88163   2 
  -6   2  -5 -1.0117 1.67162   1 
   6  -2   5 0.24046 2.10550   2 
   6  -2   5 -0.7143 2.52513   1 
  -7   2  -5 101.691 5.09435   1 
   7  -2   5 111.192 5.63621   2 
  -8   2  -5 6.79565 2.74218   1 
   8  -2   5 4.09910 3.07581   2 
  -9  -1   5 0.60736 2.42644   2 
  -9  -1   5 4.18732 2.88245   3 
  -8  -1   5 21.9904 2.76621   3 
  -8  -1   5 23.7637 3.25032   2 
  -7  -1   5 1.37175 1.99527   4 
  -7  -1   5 2.94107 2.08159   2 
  -7  -1   5 3.51115 1.60641   2 
  -7  -1   5 4.92408 1.96844   3 
   6   1  -5 5.16975 2.12152   3 
  -6  -1   5 9.09967 1.86045   3 
  -6  -1   5 5.84685 1.83807   4 
  -6  -1   5 7.43353 1.45650   2 
   5   1  -5 0.57904 1.60186   3 
  -5  -1   5 2.09214 1.42305   4 
  -5  -1   5 0.42037 1.34395   3 
  -5  -1   5 0.90511 0.94783   2 
   4   1  -5 100.547 3.86005   3 
   4   1  -5 101.201 3.19733   2 
  -4  -1   5 100.970 3.79800   4 
  -4  -1   5 95.9907 2.94272   2 
   3   1  -5 267.265 5.74508   2 
   3   1  -5 250.584 6.35903   3 
  -3  -1   5 260.100 6.19977   3 
  -3  -1   5 260.634 5.60433   2 
  -3  -1   5 262.188 5.21933   1 
  -3  -1   5 247.032 6.31988   4 
   2   1  -5 21.3490 1.11725   1 
   2   1  -5 22.3657 1.28857   2 
   2   1  -5 19.7170 1.89720   3 
  -2  -1   5 20.9734 1.26649   2 
  -2  -1   5 18.0011 2.01119   4 
  -2  -1   5 21.1377 1.75714   3 
  -2  -1   5 21.4669 1.22602   1 
   1   1  -5 158.520 3.57616   1 
   1   1  -5 153.040 3.57561   2 
   1   1  -5 153.314 4.19856   3 
  -1  -1   5 152.813 4.17461   4 
  -1  -1   5 155.062 3.68610   1 
  -1  -1   5 149.499 3.97600   3 
  -1  -1   5 153.617 3.69806   2 
   0   1  -5 0.66882 0.60431   2 
   0   1  -5 1.63777 0.89792   4 
   0   1  -5 1.18114 0.91896   3 
   0   1  -5 0.65000 0.69153   1 
   0  -1   5 1.56068 0.84613   4 
   0  -1   5 0.54864 0.75376   1 
   0  -1   5 0.41335 0.79467   3 
   0  -1   5 0.26735 0.63056   2 
  -1   1  -5 227.131 5.16315   2 
  -1   1  -5 227.877 5.21629   4 
  -1   1  -5 228.629 5.28172   1 
  -1   1  -5 230.215 5.21125   3 
   1  -1   5 226.414 4.86585   3 
   1  -1   5 218.990 5.26130   2 
   1  -1   5 225.004 4.87149   4 
   1  -1   5 223.451 5.39963   1 
  -2   1  -5 5.82045 1.40817   2 
  -2   1  -5 7.32715 1.12142   4 
  -2   1  -5 7.27896 1.19729   1 
  -2   1  -5 6.17812 1.01328   3 
   2  -1   5 4.88891 1.12011   2 
   2  -1   5 5.91446 0.76262   3 
   2  -1   5 6.87734 0.81414   4 
  -3   1  -5 190.053 5.20983   1 
  -3   1  -5 197.666 5.21680   2 
  -3   1  -5 196.537 4.67794   4 
   3  -1   5 190.762 5.31886   2 
   3  -1   5 195.566 5.54336   1 
   3  -1   5 201.112 4.28307   4 
  -4   1  -5 55.9583 3.00650   2 
  -4   1  -5 54.4747 2.39009   4 
  -4   1  -5 54.2729 2.88345   1 
   4  -1   5 54.7572 2.16182   4 
   4  -1   5 53.7763 3.43511   1 
   4  -1   5 56.3842 3.14909   2 
  -5   1  -5 8.17861 1.81489   1 
  -5   1  -5 9.17515 1.44741   4 
  -5   1  -5 7.34033 2.06816   2 
   5  -1   5 13.6443 1.88138   4 
   5  -1   5 10.7786 2.41808   1 
  -6   1  -5 54.3943 2.98969   4 
  -6   1  -5 56.3572 3.61672   1 
   6  -1   5 49.5085 4.86299   1 
   6  -1   5 59.1162 4.07170   2 
   6  -1   5 50.8898 3.27826   4 
  -7   1  -5 292.642 8.38540   1 
  -7   1  -5 289.957 7.34824   4 
   7  -1   5 289.973 7.94007   4 
   7  -1   5 312.223 9.15964   2 
  -8   1  -5 1.34993 2.52002   1 
   8  -1   5 5.75194 3.29257   2 
   8  -1   5 -4.0219 3.24414   4 
  -9   0   5 22.1839 2.81528   2 
  -9   0   5 21.4637 2.85100   1 
  -9   0   5 22.6738 3.23893   3 
  -9   0   5 23.6280 3.40716   1 
  -8   0   5 202.302 5.22386   1 
  -8   0   5 197.794 6.72863   2 
  -8   0   5 194.834 6.52529   3 
  -8   0   5 200.546 5.87418   1 
  -8   0   5 197.927 6.60029   4 
  -8   0   5 210.731 6.09016   2 
  -7   0   5 259.990 6.30050   1 
  -7   0   5 272.557 7.41859   2 
  -7   0   5 277.623 7.46182   3 
  -7   0   5 283.159 7.64023   4 
  -7   0   5 278.578 6.91287   2 
  -7   0   5 276.377 6.76981   1 
  -6   0   5 450.409 10.4923   4 
  -6   0   5 459.710 9.12386   1 
  -6   0   5 458.756 9.71245   2 
  -6   0   5 454.267 10.3860   3 
   5   0  -5 20.4250 2.52377   3 
  -5   0   5 18.6270 2.42137   3 
  -5   0   5 17.0303 1.25688   1 
  -5   0   5 18.7027 2.12334   4 
  -5   0   5 17.5410 1.61270   2 
   4   0  -5 438.257 8.64785   1 
   4   0  -5 436.354 9.61840   3 
   4   0  -5 442.110 8.88061   2 
  -4   0   5 436.196 8.64180   2 
  -4   0   5 396.717 9.96524   4 
  -4   0   5 425.333 9.73201   4 
  -4   0   5 435.524 8.36652   1 
  -4   0   5 428.038 9.65466   3 
   3   0  -5 211.197 4.68716   2 
   3   0  -5 216.472 4.61771   1 
   3   0  -5 205.213 5.49133   3 
  -3   0   5 210.026 5.41573   3 
  -3   0   5 204.316 4.56320   2 
  -3   0   5 212.450 4.51543   1 
   2   0  -5 117.564 2.86085   2 
   2   0  -5 117.180 2.86628   1 
   2   0  -5 108.674 3.60018   3 
  -2   0   5 119.789 2.90803   2 
  -2   0   5 114.665 2.91712   1 
  -2   0   5 112.144 3.60591   4 
  -2   0   5 113.217 3.55490   3 
   1   0  -5 2511.73 46.6537   3 
   1   0  -5 2649.69 46.8062   4 
   1   0  -5 2543.76 45.9982   2 
   1   0  -5 2719.34 47.0657   1 
  -1   0   5 2654.16 46.6188   3 
  -1   0   5 2505.67 46.0977   2 
  -1   0   5 2604.38 46.6234   4 
  -1   0   5 2613.69 46.2552   1 
   0   0  -5 707.557 13.9494   3 
   0   0  -5 720.367 13.7999   1 
   0   0  -5 726.861 13.6725   2 
   0   0  -5 736.906 14.1312   4 
   0   0   5 732.760 13.8554   3 
   0   0   5 739.615 13.8768   4 
   0   0   5 732.584 13.9381   1 
   0   0   5 729.066 13.8169   2 
  -1   0  -5 225.014 5.24514   4 
  -1   0  -5 228.371 5.24363   1 
  -1   0  -5 224.298 5.13733   2 
  -1   0  -5 215.980 5.00529   3 
   1   0   5 224.145 4.83410   3 
   1   0   5 220.736 4.87441   4 
   1   0   5 225.262 5.39045   1 
   1   0   5 222.628 5.26583   2 
  -2   0  -5 1.07725 0.95204   4 
  -2   0  -5 2.84183 0.89485   1 
  -2   0  -5 2.16619 1.62526   2 
   2   0   5 2.86983 0.76511   4 
   2   0   5 1.54479 0.97312   2 
   2   0   5 3.62458 1.34161   1 
  -3   0  -5 6.33698 1.19750   4 
  -3   0  -5 6.74907 1.29418   1 
  -3   0  -5 7.76749 1.41979   2 
   3   0   5 2.58248 1.30412   2 
   3   0   5 6.28303 0.98774   4 
   3   0   5 4.52963 1.47945   1 
  -4   0  -5 0.45880 1.23865   1 
  -4   0  -5 -1.1992 1.11775   2 
  -4   0  -5 0.81338 1.22031   4 
   4   0   5 0.74819 1.00166   4 
   4   0   5 4.16289 1.64315   2 
   4   0   5 -0.6091 1.79559   1 
  -5   0  -5 196.863 5.92338   1 
  -5   0  -5 198.684 6.22575   2 
  -5   0  -5 208.919 5.40097   4 
   5   0   5 203.673 6.83299   1 
   5   0   5 209.843 5.41818   4 
   5   0   5 209.682 6.44494   2 
  -6   0  -5 6.65047 1.80566   4 
  -6   0  -5 9.72442 1.99352   1 
   6   0   5 8.49823 3.11484   1 
   6   0   5 8.25189 2.48317   2 
   6   0   5 9.44018 2.04262   4 
  -7   0  -5 120.646 4.98489   4 
  -7   0  -5 123.872 5.30771   1 
   7   0   5 126.128 6.07644   2 
 -10   1   5 321.709 8.94808   3 
 -10   1   5 328.964 9.15228   1 
 -10   1   5 344.553 11.8040   3 
 -10   1   5 335.869 11.0543   4 
 -10   1   5 329.628 9.09297   2 
  -9   1   5 8.36293 2.39468   1 
  -9   1   5 15.8345 3.16247   3 
  -9   1   5 4.36626 3.09757   4 
  -9   1   5 7.11531 2.50333   3 
  -9   1   5 8.12899 1.95223   1 
  -9   1   5 7.90828 2.10787   2 
  -8   1   5 668.960 14.8054   4 
  -8   1   5 668.565 14.9068   3 
  -8   1   5 685.840 14.4532   1 
  -8   1   5 670.720 14.0835   2 
  -8   1   5 654.885 13.6340   1 
  -8   1   5 701.330 15.7000   4 
  -8   1   5 690.955 14.7290   2 
  -7   1   5 -1.2010 1.37867   1 
  -7   1   5 -0.8929 1.20278   2 
  -7   1   5 1.16014 1.22584   1 
  -7   1   5 0.35315 1.90582   4 
  -7   1   5 1.41011 1.50179   2 
  -7   1   5 3.63320 1.89883   4 
  -7   1   5 0.94065 1.92770   3 
  -6   1   5 343.640 8.48065   4 
  -6   1   5 333.062 8.72373   4 
  -6   1   5 339.109 8.47857   3 
  -6   1   5 341.630 7.49522   2 
  -5   1   5 2.85250 0.86743   2 
  -5   1   5 1.73297 1.46141   3 
  -5   1   5 4.56923 1.52444   4 
  -5   1   5 3.72046 0.84422   1 
  -5   1   5 1.69523 1.48362   4 
   4  -1  -5 149.633 3.87461   1 
  -4   1   5 149.711 3.49724   2 
  -4   1   5 130.978 5.45737   3 
  -4   1   5 142.609 4.55265   4 
  -4   1   5 149.932 3.60446   1 
   3  -1  -5 181.750 4.02323   2 
   3  -1  -5 181.283 4.25573   1 
  -3   1   5 183.209 4.14390   1 
  -3   1   5 176.189 3.91004   2 
  -3   1   5 181.101 4.96911   4 
  -3   1   5 179.948 4.94853   3 
   2  -1  -5 345.995 6.59319   2 
   2  -1  -5 336.083 7.57544   3 
   2  -1  -5 336.543 6.88225   1 
   2  -1  -5 329.477 7.61364   4 
  -2   1   5 339.983 6.66236   2 
  -2   1   5 333.401 7.46163   4 
  -2   1   5 332.875 7.53040   3 
  -2   1   5 340.348 6.90307   1 
   1  -1  -5 3775.81 65.8398   1 
   1  -1  -5 3584.11 63.8665   4 
   1  -1  -5 3454.99 63.6739   3 
   1  -1  -5 3627.24 63.5736   2 
  -1   1   5 3528.83 63.6709   3 
  -1   1   5 3445.79 63.0767   2 
  -1   1   5 3497.36 63.5713   4 
  -1   1   5 3732.17 64.3934   1 
   0  -1  -5 435.951 8.67542   1 
   0  -1  -5 423.571 8.47346   2 
   0  -1  -5 433.572 9.01069   4 
   0   1   5 437.589 8.80927   1 
   0   1   5 429.429 8.66814   4 
   0   1   5 427.051 8.73381   3 
   0   1   5 417.075 8.58752   2 
  -1  -1  -5 40.3532 1.85949   1 
  -1  -1  -5 36.3153 2.05080   4 
  -1  -1  -5 37.7603 1.89085   2 
   1   1   5 37.4265 1.92891   2 
   1   1   5 40.5216 1.78125   3 
   1   1   5 38.3672 1.71185   4 
   1   1   5 40.5989 2.09069   1 
  -2  -1  -5 5.03992 1.04523   1 
  -2  -1  -5 5.57009 1.13344   4 
  -2  -1  -5 2.53772 1.17116   2 
   2   1   5 5.76375 1.29055   1 
   2   1   5 4.41824 0.87025   4 
   2   1   5 4.75554 1.24132   2 
  -3  -1  -5 175.223 5.04667   2 
  -3  -1  -5 179.583 4.71871   4 
  -3  -1  -5 179.888 4.91416   1 
   3   1   5 189.057 5.41774   1 
   3   1   5 175.382 5.15945   2 
   3   1   5 176.480 4.43747   4 
  -4  -1  -5 21.9287 2.75790   2 
  -4  -1  -5 24.6102 2.30132   1 
  -4  -1  -5 24.3473 2.28443   4 
   4   1   5 23.9553 2.20318   4 
   4   1   5 24.1621 2.70811   2 
   4   1   5 24.8601 3.20636   1 
  -5  -1  -5 220.191 5.95384   4 
  -5  -1  -5 215.674 6.85126   1 
  -5  -1  -5 214.404 6.82263   2 
   5   1   5 231.145 6.93167   2 
   5   1   5 225.391 6.05504   4 
   5   1   5 222.956 7.27877   1 
  -6  -1  -5 49.0781 3.47352   1 
  -6  -1  -5 48.6545 3.65940   4 
   6   1   5 55.0998 5.41326   1 
   6   1   5 50.9396 5.64124   4 
   6   1   5 45.3707 4.41733   2 
  -7  -1  -5 12.9111 3.26209   4 
  -7  -1  -5 7.28624 2.35005   1 
   7   1   5 12.3072 3.22335   4 
   7   1   5 14.5934 3.28795   2 
 -10   2   5 1175.32 24.9113   4 
 -10   2   5 1158.40 24.8062   1 
 -10   2   5 1138.11 23.1224   2 
 -10   2   5 1187.97 23.9188   1 
 -10   2   5 1132.66 23.2565   3 
  -9   2   5 12.9864 2.27972   1 
  -9   2   5 7.68653 2.55348   4 
  -9   2   5 6.17033 2.66604   2 
  -9   2   5 10.9215 2.45490   3 
  -9   2   5 13.2766 2.25014   2 
  -9   2   5 14.2799 2.63272   1 
  -9   2   5 7.91354 3.24063   3 
  -9   2   5 14.3703 2.96474   4 
  -8   2   5 187.348 6.08528   3 
  -8   2   5 175.554 6.59184   3 
  -8   2   5 184.091 6.21797   4 
  -8   2   5 166.293 9.11282   4 
  -8   2   5 183.227 5.91179   2 
  -8   2   5 177.835 5.25410   1 
  -8   2   5 188.282 5.25021   2 
  -8   2   5 177.759 5.95717   1 
  -7   2   5 10.0173 2.03873   4 
  -7   2   5 12.0866 1.78948   2 
  -7   2   5 7.30898 2.22192   3 
  -7   2   5 9.54654 2.14261   4 
  -7   2   5 9.48616 1.58863   1 
  -7   2   5 9.16880 1.48802   2 
  -6   2   5 21.8697 3.09716   3 
  -6   2   5 20.6915 1.85551   1 
  -6   2   5 20.9636 2.84527   4 
  -6   2   5 24.0970 2.81294   4 
  -6   2   5 25.1441 1.72079   2 
   5  -2  -5 340.460 7.58283   1 
  -5   2   5 315.654 7.63663   1 
  -5   2   5 330.258 8.22970   3 
  -5   2   5 327.446 8.01474   4 
  -5   2   5 328.350 6.75547   2 
   4  -2  -5 27.4701 1.84686   1 
  -4   2   5 26.9833 2.25744   4 
  -4   2   5 28.5712 1.58253   1 
  -4   2   5 29.0371 2.51751   3 
  -4   2   5 26.8957 1.24573   2 
   3  -2  -5 265.003 6.57857   4 
   3  -2  -5 266.862 5.35599   2 
   3  -2  -5 261.248 5.90989   1 
  -3   2   5 271.146 6.65712   3 
  -3   2   5 267.301 5.30369   2 
  -3   2   5 269.820 5.80496   1 
  -3   2   5 264.478 6.37551   4 
   2  -2  -5 129.935 4.00946   4 
   2  -2  -5 129.415 3.42934   1 
   2  -2  -5 132.631 2.88958   2 
  -2   2   5 129.747 2.98644   2 
  -2   2   5 134.780 3.43291   1 
  -2   2   5 124.896 3.73369   4 
   1  -2  -5 67.7358 2.24513   1 
   1  -2  -5 66.8985 1.92399   2 
   1  -2  -5 65.5153 2.73800   4 
  -1   2   5 66.7585 2.74423   3 
  -1   2   5 69.1085 2.34317   1 
  -1   2   5 62.2095 2.02313   2 
  -1   2   5 64.8053 2.45535   4 
   0  -2  -5 109.707 3.44954   4 
   0  -2  -5 106.370 3.03493   1 
   0  -2  -5 104.767 2.86968   2 
   0   2   5 106.975 3.30046   3 
   0   2   5 99.6897 2.93440   2 
   0   2   5 107.093 3.22194   1 
   0   2   5 107.218 3.04516   4 
  -1  -2  -5 37.8911 1.93405   2 
  -1  -2  -5 35.0211 1.82864   1 
   1   2   5 36.5381 1.75852   4 
   1   2   5 35.0294 2.00334   2 
   1   2   5 33.3184 2.17800   1 
  -2  -2  -5 33.6955 2.22499   2 
  -2  -2  -5 30.7024 2.19523   4 
  -2  -2  -5 30.7855 1.98343   1 
   2   2   5 29.0455 2.21220   2 
   2   2   5 31.8589 2.44497   1 
   2   2   5 29.4247 1.83205   4 
  -3  -2  -5 64.6334 2.82443   1 
  -3  -2  -5 59.5916 3.26246   2 
  -3  -2  -5 63.4474 2.98625   4 
   3   2   5 62.3215 3.36755   1 
   3   2   5 64.9626 2.76309   4 
   3   2   5 59.4263 3.12947   2 
  -4  -2  -5 8.17353 1.59438   1 
  -4  -2  -5 11.2404 2.10338   2 
  -4  -2  -5 13.0449 1.88426   4 
   4   2   5 13.5587 2.27041   2 
   4   2   5 9.62490 1.71315   4 
   4   2   5 10.1045 2.35911   1 
  -5  -2  -5 3.46767 1.86602   4 
  -5  -2  -5 11.4948 2.58300   2 
  -5  -2  -5 3.35360 1.73168   1 
   5   2   5 5.47938 1.93364   4 
   5   2   5 7.32435 2.88440   1 
   5   2   5 2.74942 2.14293   2 
  -6  -2  -5 23.4636 3.32705   4 
  -6  -2  -5 31.5847 3.31798   1 
   6   2   5 29.9398 4.17619   4 
   6   2   5 27.8429 4.23777   1 
  -7  -2  -5 11.9168 2.58364   1 
   7   2   5 12.0724 3.52661   4 
 -10   3   5 159.346 7.34544   4 
 -10   3   5 156.520 5.54984   2 
 -10   3   5 148.906 6.01254   3 
 -10   3   5 147.886 6.92095   1 
  -9   3   5 -1.7165 2.14805   3 
  -9   3   5 3.68823 2.44075   4 
  -9   3   5 0.76427 1.61076   2 
  -9   3   5 2.45088 3.08279   3 
  -9   3   5 3.30875 2.03133   1 
  -9   3   5 2.36657 2.54965   4 
  -9   3   5 4.53663 2.29693   2 
  -9   3   5 2.71710 2.36834   1 
  -8   3   5 31.3763 3.54430   3 
  -8   3   5 31.7598 2.40485   2 
  -8   3   5 29.7967 3.62253   3 
  -8   3   5 32.6082 3.73970   4 
  -8   3   5 32.4626 3.77426   4 
  -8   3   5 32.0333 3.10081   2 
  -8   3   5 30.3938 2.92896   1 
  -7   3   5 23.6596 2.66202   4 
  -7   3   5 23.3498 3.03731   3 
  -7   3   5 28.0413 3.20225   4 
  -7   3   5 24.3456 2.44240   2 
  -7   3   5 25.2304 3.16257   3 
  -7   3   5 24.4943 1.91385   2 
  -7   3   5 24.5252 2.37569   1 
  -6   3   5 13.1386 2.33376   3 
  -6   3   5 12.5274 1.37108   2 
  -6   3   5 10.3764 2.00864   3 
  -6   3   5 12.2479 1.68675   1 
  -6   3   5 11.0008 1.41309   2 
  -6   3   5 11.1676 1.87074   4 
   5  -3  -5 58.7668 2.92180   1 
  -5   3   5 58.3054 2.19127   2 
  -5   3   5 61.6015 1.89543   2 
  -5   3   5 60.4189 2.53207   1 
  -5   3   5 64.5400 3.64878   3 
  -5   3   5 59.7896 3.25707   3 
  -5   3   5 57.4854 3.09402   4 
   4  -3  -5 168.310 4.63404   1 
   4  -3  -5 167.639 5.20086   4 
  -4   3   5 159.357 4.71002   4 
  -4   3   5 165.177 3.48536   2 
  -4   3   5 166.585 4.25612   1 
  -4   3   5 164.805 4.90404   3 
  -4   3   5 162.625 5.16488   3 
   3  -3  -5 15.5296 1.51407   1 
   3  -3  -5 14.8219 2.17480   4 
  -3   3   5 14.8108 1.61456   1 
  -3   3   5 15.6075 2.45637   3 
  -3   3   5 15.9665 1.86091   4 
  -3   3   5 15.1315 1.99382   3 
  -3   3   5 14.9616 0.89672   2 
   2  -3  -5 167.492 4.23646   1 
   2  -3  -5 159.097 4.81104   4 
   2  -3  -5 168.635 3.34290   2 
  -2   3   5 166.893 4.83065   3 
  -2   3   5 166.904 4.35031   4 
  -2   3   5 157.227 3.46497   2 
  -2   3   5 159.147 4.52293   3 
   1  -3  -5 3.77716 0.92496   1 
   1  -3  -5 4.65153 1.53723   4 
   1  -3  -5 4.59575 0.72604   2 
  -1   3   5 3.67538 1.25031   3 
  -1   3   5 3.86167 1.14501   3 
  -1   3   5 3.77978 0.97294   4 
  -1   3   5 3.96877 0.74196   2 
   0  -3  -5 36.0549 2.34475   4 
   0  -3  -5 41.0094 1.92831   1 
   0  -3  -5 40.6066 1.82100   2 
   0   3   5 39.2098 1.85089   2 
   0   3   5 39.9155 2.12324   1 
   0   3   5 38.0692 2.05261   3 
   0   3   5 38.3831 2.35880   3 
   0   3   5 41.2328 1.96474   4 
  -1  -3  -5 -1.0651 0.94862   2 
  -1  -3  -5 1.55062 1.16324   4 
  -1  -3  -5 -0.9863 0.79587   1 
   1   3   5 0.53701 1.12416   1 
   1   3   5 0.69838 1.04420   2 
   1   3   5 0.33843 0.87945   4 
  -2  -3  -5 84.4585 3.45824   2 
  -2  -3  -5 87.7458 3.49403   4 
  -2  -3  -5 83.7875 3.10392   1 
   2   3   5 91.9799 3.45798   2 
   2   3   5 84.5826 3.56874   1 
   2   3   5 84.7515 3.08306   4 
  -3  -3  -5 3.70874 1.61186   4 
  -3  -3  -5 7.42963 1.43970   1 
  -3  -3  -5 9.29750 1.99149   2 
   3   3   5 8.47858 1.79279   2 
   3   3   5 10.2671 2.01895   1 
   3   3   5 8.82405 1.61615   4 
  -4  -3  -5 77.9910 3.43681   1 
  -4  -3  -5 80.9100 4.46750   2 
  -4  -3  -5 84.7811 3.94705   4 
   4   3   5 78.9315 4.51361   1 
   4   3   5 82.7834 4.38788   2 
   4   3   5 84.5052 3.83154   4 
  -5  -3  -5 1.60219 2.57563   4 
  -5  -3  -5 1.16568 1.62038   1 
   5   3   5 1.63410 3.13745   1 
   5   3   5 1.74705 2.14437   4 
  -6  -3  -5 36.1252 3.53731   1 
   6   3   5 30.0652 3.66401   4 
 -10   4   5 48.2743 5.34482   2 
  -9   4   5 6.00505 2.59036   4 
  -9   4   5 7.77916 1.71358   2 
  -9   4   5 5.42716 2.27948   3 
  -9   4   5 8.47109 2.42639   2 
  -9   4   5 5.10994 2.79963   1 
  -9   4   5 3.89667 2.50355   4 
  -8   4   5 -0.9913 1.91947   3 
  -8   4   5 1.88379 1.20456   2 
  -8   4   5 0.70095 1.85406   1 
  -8   4   5 -3.2581 1.55979   2 
  -8   4   5 -0.7002 1.88757   4 
  -8   4   5 4.08233 2.20744   4 
  -8   4   5 4.68617 3.04988   3 
  -7   4   5 23.5833 3.24655   3 
  -7   4   5 23.1465 2.95301   4 
  -7   4   5 19.7919 2.15771   2 
  -7   4   5 25.2726 3.32800   3 
  -7   4   5 20.0240 1.69701   2 
  -7   4   5 21.8073 2.64817   1 
  -6   4   5 2.96210 1.36272   1 
  -6   4   5 1.71218 0.76003   2 
  -6   4   5 1.57024 1.70667   3 
  -6   4   5 2.14816 1.02370   2 
  -6   4   5 2.54496 2.20508   3 
  -6   4   5 2.56466 1.55970   4 
   5  -4  -5 148.524 4.80724   1 
   5  -4  -5 152.079 5.22252   4 
  -5   4   5 149.114 4.66880   4 
  -5   4   5 151.828 4.96888   3 
  -5   4   5 151.972 4.37619   1 
   4  -4  -5 6.44360 1.38958   1 
   4  -4  -5 4.09932 1.66444   4 
  -4   4   5 4.32105 1.09882   1 
  -4   4   5 5.48730 1.32458   4 
  -4   4   5 5.81122 1.54086   3 
   3  -4  -5 2.76206 1.47504   4 
   3  -4  -5 5.44700 1.15915   1 
  -3   4   5 5.88750 1.41354   3 
  -3   4   5 5.74466 1.19866   4 
  -3   4   5 7.20711 1.13567   1 
   2  -4  -5 46.1334 2.25676   1 
   2  -4  -5 43.3020 2.75196   4 
  -2   4   5 47.1475 2.59900   3 
  -2   4   5 43.3063 2.24216   4 
  -2   4   5 44.3998 2.15376   1 
   1  -4  -5 19.2560 1.24495   2 
   1  -4  -5 19.5668 2.32737   4 
   1  -4  -5 17.8420 1.64893   1 
  -1   4   5 22.0922 1.79886   1 
  -1   4   5 20.9429 1.71741   4 
  -1   4   5 19.5936 1.28212   2 
  -1   4   5 21.5320 2.00872   3 
   0  -4  -5 201.075 5.01721   1 
   0  -4  -5 199.635 4.68266   2 
   0  -4  -5 204.066 5.52456   4 
   0   4   5 192.739 4.91526   4 
   0   4   5 197.179 5.21238   1 
   0   4   5 197.864 4.83925   3 
   0   4   5 199.715 4.70320   2 
  -1  -4  -5 41.7614 2.28065   1 
  -1  -4  -5 44.9202 2.52571   2 
  -1  -4  -5 44.4521 2.87383   4 
   1   4   5 39.4334 2.27898   4 
   1   4   5 42.8782 1.97373   3 
   1   4   5 43.2821 2.73895   1 
   1   4   5 41.8940 2.39464   2 
  -2  -4  -5 -0.6195 1.54667   2 
  -2  -4  -5 0.57717 1.58565   4 
  -2  -4  -5 0.55976 1.06130   1 
   2   4   5 -1.0466 1.25971   4 
   2   4   5 2.49295 1.62731   1 
   2   4   5 -0.3731 1.45094   2 
  -3  -4  -5 7.76208 2.14070   4 
  -3  -4  -5 13.2672 1.76009   1 
  -3  -4  -5 14.2289 2.30821   2 
   3   4   5 15.0703 2.03840   4 
   3   4   5 15.3027 2.36504   1 
  -4  -4  -5 31.4784 4.37753   2 
   4   4   5 30.4879 3.50884   1 
   4   4   5 31.0583 3.45880   4 
  -5  -4  -5 3.03284 1.79308   1 
   5   4   5 2.97425 3.50127   1 
   5   4   5 9.59673 2.78074   4 
 -10   5   5 48.7768 5.87227   1 
 -10   5   5 39.8065 4.48204   3 
 -10   5   5 38.6135 3.45833   2 
 -10   5   5 40.0931 4.96602   4 
  -9   5   5 2.04982 2.88404   1 
  -9   5   5 1.27082 1.50836   2 
  -9   5   5 5.69507 2.77483   4 
  -9   5   5 -3.8949 2.25791   4 
  -9   5   5 0.37439 2.11758   2 
  -9   5   5 0.37410 2.30491   3 
  -8   5   5 -0.6655 1.09631   2 
  -8   5   5 -1.9295 1.57686   2 
  -8   5   5 -0.6161 3.20966   3 
  -8   5   5 3.46682 2.41054   4 
  -8   5   5 0.04779 1.85922   4 
  -8   5   5 0.18736 2.09128   3 
  -7   5   5 141.003 3.47404   2 
  -7   5   5 149.362 5.06034   1 
  -7   5   5 140.015 6.45534   3 
  -7   5   5 138.663 3.86717   2 
  -7   5   5 138.076 4.87189   4 
  -7   5   5 142.045 5.36803   3 
  -6   5   5 110.185 4.14514   4 
  -6   5   5 108.882 4.07982   1 
  -6   5   5 101.286 5.68460   3 
   5  -5  -5 0.69976 1.43647   1 
   5  -5  -5 1.56103 1.87701   4 
  -5   5   5 -1.2132 1.48790   3 
  -5   5   5 -1.3648 1.23483   4 
  -5   5   5 1.60556 1.43734   1 
   4  -5  -5 990.875 19.2194   1 
   4  -5  -5 974.338 19.4074   4 
  -4   5   5 941.996 19.0154   3 
  -4   5   5 962.645 18.5825   4 
  -4   5   5 946.300 18.5713   1 
   3  -5  -5 10.9059 1.61272   1 
   3  -5  -5 14.7915 2.05624   4 
  -3   5   5 12.3572 1.83937   3 
  -3   5   5 14.9465 1.89920   4 
  -3   5   5 16.1835 1.90496   1 
   2  -5  -5 1219.60 23.5863   1 
   2  -5  -5 1262.84 24.1003   4 
  -2   5   5 1247.17 23.2579   4 
  -2   5   5 1234.38 23.3756   1 
  -2   5   5 1263.28 23.5522   3 
   1  -5  -5 12.5963 1.60522   1 
   1  -5  -5 11.8527 1.94125   4 
  -1   5   5 13.0912 1.59495   3 
  -1   5   5 16.3697 2.05757   1 
  -1   5   5 13.9669 1.79854   4 
   0  -5  -5 149.545 4.99195   4 
   0  -5  -5 158.784 4.47224   1 
   0  -5  -5 152.420 4.02536   2 
   0   5   5 148.464 4.36562   4 
   0   5   5 154.938 4.69660   1 
   0   5   5 152.659 4.16026   3 
  -1  -5  -5 58.0885 2.77658   1 
  -1  -5  -5 54.9969 3.54075   2 
  -1  -5  -5 51.4123 3.45240   4 
   1   5   5 60.0085 3.14404   4 
   1   5   5 59.2340 3.29119   1 
   1   5   5 59.6348 2.49855   3 
  -2  -5  -5 91.5694 4.18897   2 
  -2  -5  -5 93.3363 3.54552   1 
  -2  -5  -5 94.9380 4.48174   4 
   2   5   5 94.5517 4.30114   1 
   2   5   5 96.0201 3.92795   4 
  -3  -5  -5 157.038 4.89333   1 
  -3  -5  -5 163.992 6.10843   2 
   3   5   5 155.326 5.98146   1 
   3   5   5 163.845 5.53508   4 
  -4  -5  -5 155.019 5.09411   1 
   4   5   5 150.191 6.78308   1 
   4   5   5 158.941 6.16605   4 
  -5  -5  -5 6.34361 2.18729   1 
   5   5   5 11.8465 3.45877   4 
  -9   6   5 4.74551 3.41946   1 
  -9   6   5 6.31252 2.98726   4 
  -9   6   5 4.10248 1.46665   2 
  -9   6   5 4.41088 2.64269   3 
  -9   6   5 3.64030 2.55112   4 
  -8   6   5 1.95206 1.97132   4 
  -8   6   5 0.97568 2.20084   3 
  -7   6   5 2.73645 1.66579   4 
  -7   6   5 4.34627 2.07433   3 
   6  -6  -5 1357.61 26.7011   4 
  -6   6   5 1317.56 26.0287   1 
  -6   6   5 1372.38 25.6693   4 
  -6   6   5 1377.61 26.4570   3 
   5  -6  -5 557.014 12.3575   4 
   5  -6  -5 504.823 13.5388   1 
  -5   6   5 532.873 11.4831   1 
  -5   6   5 553.231 11.2151   4 
  -5   6   5 483.630 13.2874   3 
   4  -6  -5 655.033 14.0199   1 
   4  -6  -5 654.388 14.2288   4 
  -4   6   5 640.043 13.3983   1 
  -4   6   5 640.955 13.6696   3 
  -4   6   5 653.581 13.0963   4 
   3  -6  -5 35.1769 2.87590   1 
   3  -6  -5 32.4946 3.49400   4 
  -3   6   5 36.0599 2.61220   1 
  -3   6   5 32.7667 2.85704   3 
  -3   6   5 35.0178 2.38804   4 
   2  -6  -5 185.890 5.97712   4 
   2  -6  -5 192.940 5.53679   1 
  -2   6   5 178.430 5.17978   1 
  -2   6   5 183.260 4.98336   4 
  -2   6   5 192.950 5.33111   3 
   1  -6  -5 5.94940 2.14200   4 
   1  -6  -5 7.48216 1.61744   1 
  -1   6   5 10.4957 1.76455   1 
  -1   6   5 11.4840 1.72345   3 
  -1   6   5 8.30667 1.51206   4 
   0  -6  -5 30.5662 3.44109   4 
   0  -6  -5 27.4078 2.31081   2 
   0  -6  -5 30.0905 2.56319   1 
   0   6   5 32.1627 3.00748   1 
   0   6   5 30.7747 2.47286   3 
   0   6   5 33.4037 2.57958   4 
  -1  -6  -5 15.8967 1.95529   1 
  -1  -6  -5 15.6701 2.18520   2 
  -1  -6  -5 13.1295 2.55222   4 
   1   6   5 13.4115 1.97307   4 
   1   6   5 16.7436 2.44931   1 
  -2  -6  -5 138.764 5.39426   2 
  -2  -6  -5 127.912 5.29056   1 
   2   6   5 142.569 5.17430   4 
   2   6   5 133.709 5.56786   1 
  -3  -6  -5 17.4982 3.45795   2 
  -3  -6  -5 23.1262 3.00094   1 
   3   6   5 16.4292 3.37089   1 
   3   6   5 31.0878 3.92446   4 
  -4  -6  -5 24.6890 3.31309   1 
   4   6   5 12.3855 4.19851   1 
   4   6   5 15.7082 3.49288   4 
  -9   7   5 68.1853 4.32671   4 
  -9   7   5 73.7924 5.22661   3 
  -9   7   5 68.0340 6.77914   1 
  -8   7   5 29.0394 4.13186   3 
  -8   7   5 25.2938 3.34810   4 
  -7   7   5 23.2708 2.37854   4 
  -7   7   5 26.2873 3.03787   3 
   6  -7  -5 1425.95 28.5457   4 
  -6   7   5 1456.88 28.1314   3 
  -6   7   5 1464.34 27.1844   4 
   5  -7  -5 45.3909 4.57557   4 
  -5   7   5 52.6725 3.68539   3 
  -5   7   5 47.0141 2.89904   4 
  -5   7   5 49.3936 3.37273   1 
   4  -7  -5 54.1909 3.73196   1 
   4  -7  -5 55.7507 4.54600   4 
  -4   7   5 54.9428 3.59151   3 
  -4   7   5 51.9321 2.87994   4 
  -4   7   5 56.3120 3.43117   1 
   3  -7  -5 7.94167 2.62846   4 
   3  -7  -5 14.7720 2.33221   1 
  -3   7   5 9.66399 3.32085   3 
  -3   7   5 12.5064 1.95983   1 
  -3   7   5 10.1789 1.63089   4 
   2  -7  -5 3.19699 2.35158   4 
  -2   7   5 0.18041 1.33011   4 
  -2   7   5 2.20079 1.75253   1 
  -2   7   5 -0.6046 1.68083   3 
   1  -7  -5 17.1765 2.89469   4 
  -1   7   5 18.5991 2.66296   3 
  -1   7   5 23.1255 2.61323   4 
  -1   7   5 26.9534 3.03747   1 
   0  -7  -5 40.1770 3.96251   1 
   0  -7  -5 46.0011 2.85984   2 
   0  -7  -5 46.2174 2.59777   2 
   0   7   5 44.7460 2.99436   3 
   0   7   5 48.5457 3.34430   4 
   0   7   5 41.3173 3.86314   1 
  -1  -7  -5 4.00059 2.31043   2 
  -1  -7  -5 -0.9226 1.81898   1 
  -1  -7  -5 6.72595 1.97601   2 
   1   7   5 3.83473 1.63007   3 
   1   7   5 3.72059 2.54257   1 
   1   7   5 -0.6574 1.94469   4 
  -2  -7  -5 9.42241 2.30821   1 
  -2  -7  -5 4.01324 3.16356   2 
  -2  -7  -5 1.44743 2.36889   2 
   2   7   5 3.00419 3.05818   1 
   2   7   5 2.36710 2.35560   4 
  -3  -7  -5 13.6906 2.63549   1 
  -3  -7  -5 17.1989 3.33633   2 
  -3  -7  -5 6.71243 7.14746   2 
   3   7   5 11.2088 3.24725   4 
   3   7   5 15.3867 3.92127   1 
  -8   8   5 0.90609 2.05703   4 
  -8   8   5 0.13787 2.70770   3 
  -7   8   5 36.4613 3.99665   4 
  -7   8   5 39.1366 4.40115   3 
   6  -8  -5 16.3655 3.74287   4 
  -6   8   5 16.4953 3.29487   4 
  -6   8   5 15.9989 2.74287   3 
   5  -8  -5 2.16417 2.97490   4 
  -5   8   5 -3.4957 2.05313   3 
  -5   8   5 1.28095 1.50598   4 
   4  -8  -5 9.28813 3.27830   4 
   4  -8  -5 5.17111 2.59351   1 
  -4   8   5 -0.0463 2.04495   3 
  -4   8   5 2.61763 1.55569   4 
   3  -8  -5 1.63906 2.91093   4 
   3  -8  -5 3.28310 2.28269   1 
  -3   8   5 4.07135 1.98976   3 
  -3   8   5 2.79625 2.08709   1 
  -3   8   5 0.34205 1.57086   4 
   2  -8  -5 19.6897 4.44267   4 
   2  -8  -5 26.7072 3.53254   1 
  -2   8   5 17.9937 2.43544   3 
  -2   8   5 11.3745 2.39327   1 
  -2   8   5 14.7255 2.08104   4 
   1  -8  -5 21.5908 2.74115   1 
  -1   8   5 16.4745 2.72832   1 
  -1   8   5 23.8675 3.16555   4 
  -1   8   5 20.4653 2.42923   3 
   0  -8  -5 1.42666 2.19487   1 
   0  -8  -5 0.70033 1.95534   2 
   0   8   5 -1.0364 2.74695   1 
   0   8   5 -1.9980 2.06488   4 
  -1  -8  -5 1.16821 2.40001   1 
  -1  -8  -5 6.61304 2.39932   2 
   1   8   5 8.85922 3.47845   1 
   1   8   5 3.41989 2.23332   3 
   1   8   5 7.94641 2.69982   4 
  -7   9   5 41.9563 4.91163   3 
  -7   9   5 46.7233 3.49450   4 
   6  -9  -5 7.17737 4.43164   4 
  -6   9   5 -0.9164 2.58529   3 
  -6   9   5 6.32058 1.92391   4 
   5  -9  -5 9.44580 3.90446   4 
  -5   9   5 3.43278 2.54750   3 
  -5   9   5 5.27367 1.96766   4 
  -4   9   5 0.33143 1.81131   4 
  -4   9   5 -3.2901 2.31166   3 
   3  -9  -5 50.0712 4.96937   1 
  -3   9   5 50.2083 4.18407   3 
  -3   9   5 46.2020 3.61540   4 
   2  -9  -5 2.03441 2.84107   1 
  -2   9   5 6.92632 2.43478   3 
  -2   9   5 3.36180 2.30013   4 
   1  -9  -5 87.8110 5.35252   1 
  -1   9   5 67.7963 4.44490   3 
  -1   9   5 85.8803 4.76136   4 
   0  -9  -5 45.0467 4.89395   1 
   0   9   5 53.5686 5.00246   4 
   0   9   5 42.8594 4.38802   3 
  -1  10  -6 1.67522 3.41942   3 
   1 -10   6 2.37394 3.11688   2 
  -2  10  -6 38.3776 5.20462   3 
  -2  10  -6 38.0597 4.30547   1 
   2 -10   6 31.7680 3.88109   2 
   2   9  -6 55.0832 6.49453   3 
  -2  -9   6 55.7523 4.63571   2 
   1   9  -6 -3.9675 3.18570   3 
  -1  -9   6 1.80795 2.54100   4 
  -1  -9   6 4.40503 2.41203   2 
   0   9  -6 30.2475 3.78140   3 
   0  -9   6 40.6689 3.89376   4 
   0  -9   6 28.4193 3.68472   2 
  -1   9  -6 3.89461 2.71391   1 
  -1   9  -6 3.77377 2.85925   2 
  -1   9  -6 10.0055 2.88971   1 
  -1   9  -6 9.29698 2.84965   3 
   1  -9   6 8.51549 2.69254   2 
   1  -9   6 5.83042 2.04309   4 
  -2   9  -6 122.047 5.83197   1 
  -2   9  -6 117.465 5.21421   2 
  -2   9  -6 125.646 6.11448   1 
  -2   9  -6 118.404 5.57987   3 
   2  -9   6 124.917 5.40402   2 
  -3   9  -6 4.42475 3.08187   1 
  -3   9  -6 4.57174 3.48793   1 
  -3   9  -6 2.88012 2.71212   3 
  -3   9  -6 1.71002 2.66976   2 
   3  -9   6 5.34666 2.83848   2 
  -4   9  -6 3.68868 2.64527   3 
  -4   9  -6 -0.2206 3.33806   1 
   4  -9   6 6.76617 2.95169   2 
  -5   9  -6 22.8373 4.32721   1 
  -5   9  -6 19.3102 3.23743   3 
   5  -9   6 19.9185 3.78793   2 
   4   8  -6 -5.5930 4.10348   3 
  -4  -8   6 -1.9659 2.72776   2 
   3   8  -6 32.8484 4.39421   3 
  -3  -8   6 28.3975 4.02685   2 
   2   8  -6 -1.7851 2.81212   3 
  -2  -8   6 0.96708 2.43067   4 
  -2  -8   6 0.87443 1.93855   2 
   1   8  -6 30.3373 4.23400   3 
   1   8  -6 25.4910 2.95034   2 
  -1  -8   6 25.1984 2.70882   4 
  -1  -8   6 23.7203 3.21861   2 
   0   8  -6 14.3956 2.45369   2 
   0   8  -6 22.1625 3.09535   3 
   0  -8   6 20.3605 2.94132   2 
   0  -8   6 19.4358 2.14949   4 
  -1   8  -6 26.9508 3.48385   1 
  -1   8  -6 24.0559 3.25562   2 
  -1   8  -6 24.8528 2.83699   1 
  -1   8  -6 24.1663 3.05539   3 
   1  -8   6 26.3069 2.55270   4 
   1  -8   6 22.1918 3.15021   2 
  -2   8  -6 29.8665 3.51920   3 
  -2   8  -6 26.7267 3.01594   1 
  -2   8  -6 23.6573 3.19734   2 
   2  -8   6 28.4980 3.37812   2 
  -3   8  -6 12.0659 2.86534   1 
  -3   8  -6 12.7546 2.53005   3 
  -3   8  -6 17.9370 2.52093   2 
   3  -8   6 13.0648 2.45818   2 
  -4   8  -6 31.4557 3.68044   3 
  -4   8  -6 33.6663 4.74239   1 
  -4   8  -6 24.2934 2.67223   2 
   4  -8   6 38.8060 4.23911   2 
  -5   8  -6 27.0610 3.83475   1 
  -5   8  -6 24.6100 3.03537   3 
   5  -8   6 22.4457 3.33999   2 
  -6   8  -6 17.6956 3.87212   1 
  -6   8  -6 28.8549 4.03116   3 
   6  -8   6 25.9604 3.77749   2 
   5   7  -6 24.9485 4.69697   3 
  -5  -7   6 18.0404 3.06282   2 
   4   7  -6 39.6394 5.58106   3 
  -4  -7   6 34.7013 3.68735   2 
   3   7  -6 1.99769 2.82121   3 
  -3  -7   6 2.00812 2.26225   4 
  -3  -7   6 3.48795 2.09934   2 
   2   7  -6 -2.8159 1.92680   2 
   2   7  -6 -0.0209 2.37912   3 
  -2  -7   6 -0.2087 1.96047   4 
  -2  -7   6 -0.8288 1.50196   2 
  -2  -7   6 3.97356 1.84590   3 
   1   7  -6 24.4258 2.99579   3 
   1   7  -6 26.1754 2.93686   2 
  -1  -7   6 22.6410 2.66280   2 
  -1  -7   6 23.8923 2.97917   3 
  -1  -7   6 24.5450 2.92375   4 
   0   7  -6 10.0519 1.90152   2 
   0   7  -6 7.45474 2.21380   3 
   0  -7   6 9.82086 1.98546   3 
   0  -7   6 6.49254 1.66493   4 
   0  -7   6 8.78000 1.88980   2 
  -1   7  -6 31.4879 3.15447   3 
  -1   7  -6 37.1843 2.73385   2 
  -1   7  -6 32.2606 3.06737   1 
   1  -7   6 36.3979 2.96567   2 
   1  -7   6 34.6590 3.05342   3 
   1  -7   6 30.4453 2.25504   4 
  -2   7  -6 5.91099 2.03972   1 
  -2   7  -6 4.98355 1.60741   2 
  -2   7  -6 4.64169 1.84856   3 
   2  -7   6 3.86369 1.88497   3 
   2  -7   6 6.27305 2.03170   2 
  -3   7  -6 43.8098 3.81592   1 
  -3   7  -6 49.3672 3.20942   2 
  -3   7  -6 53.1230 3.45861   3 
   3  -7   6 39.9934 3.53159   3 
  -4   7  -6 141.357 5.91088   1 
  -4   7  -6 139.209 4.99181   2 
  -4   7  -6 140.304 5.08461   3 
   4  -7   6 148.262 5.60906   2 
  -5   7  -6 161.674 5.84702   2 
  -5   7  -6 154.994 6.55501   1 
  -5   7  -6 159.323 5.41934   3 
   5  -7   6 151.473 6.09550   2 
  -6   7  -6 33.7042 4.13839   1 
   6  -7   6 41.1088 4.83499   2 
  -7   7  -6 1.44791 2.46703   3 
  -7   7  -6 2.39023 3.31574   1 
   7  -7   6 -2.2227 3.50724   2 
   6   6  -6 23.0463 4.40195   3 
  -6  -6   6 17.3874 2.66923   2 
   5   6  -6 13.7538 3.75887   3 
  -5  -6   6 17.1468 2.66021   3 
  -5  -6   6 12.8726 2.22084   2 
   4   6  -6 1.43996 2.84343   3 
  -4  -6   6 9.99263 2.17434   3 
  -4  -6   6 6.77114 1.80761   2 
   3   6  -6 321.281 8.52616   2 
   3   6  -6 335.562 9.15599   3 
  -3  -6   6 345.751 8.04762   3 
  -3  -6   6 330.279 8.38108   4 
  -3  -6   6 333.783 8.06128   2 
   2   6  -6 12.5442 3.84966   3 
   2   6  -6 11.8899 1.87535   2 
  -2  -6   6 12.8821 2.88814   2 
  -2  -6   6 12.0773 1.83584   3 
  -2  -6   6 11.9481 2.03698   4 
   1   6  -6 52.1217 2.99274   2 
   1   6  -6 49.7312 3.51262   3 
  -1  -6   6 49.9338 2.89316   3 
  -1  -6   6 47.9783 2.85922   2 
  -1  -6   6 52.8559 3.04752   4 
   0   6  -6 12.2208 1.63920   1 
   0   6  -6 10.9323 2.04658   3 
   0   6  -6 12.4093 1.64674   2 
   0  -6   6 14.5470 2.07951   2 
   0  -6   6 12.3710 1.94118   4 
   0  -6   6 11.5900 1.64182   3 
  -1   6  -6 1.40649 1.52845   3 
  -1   6  -6 1.47146 1.28301   2 
  -1   6  -6 -0.6398 1.45158   1 
   1  -6   6 0.41799 1.34820   3 
   1  -6   6 0.87457 1.23966   2 
  -2   6  -6 13.0773 2.14501   1 
  -2   6  -6 20.1773 2.52306   3 
  -2   6  -6 19.5079 2.24791   2 
   2  -6   6 17.3133 2.12421   2 
   2  -6   6 17.2101 2.33666   3 
  -3   6  -6 61.0565 3.71408   1 
  -3   6  -6 58.9063 3.28467   3 
  -3   6  -6 58.7533 3.12031   2 
   3  -6   6 59.9172 3.22463   3 
   3  -6   6 58.1573 3.45985   2 
  -4   6  -6 163.802 5.15079   2 
  -4   6  -6 169.292 6.00568   1 
  -4   6  -6 159.624 5.10331   3 
   4  -6   6 157.182 5.12639   3 
   4  -6   6 168.656 5.89069   2 
  -5   6  -6 111.396 5.31265   1 
  -5   6  -6 113.434 6.10416   3 
  -5   6  -6 100.411 4.62933   2 
   5  -6   6 98.1728 4.40146   3 
   5  -6   6 113.053 5.12340   2 
  -6   6  -6 0.75319 2.56979   1 
   6  -6   6 6.06304 2.68283   2 
   6  -6   6 6.27727 2.37169   3 
  -7   6  -6 7.44030 3.09430   1 
  -7   6  -6 2.76716 2.12833   3 
   7  -6   6 -4.3556 2.72003   3 
   7  -6   6 0.89904 3.12037   2 
   7   5  -6 1.47150 4.63235   3 
  -7  -5   6 0.37992 2.65133   2 
   6   5  -6 61.5737 5.76657   3 
  -6  -5   6 53.3550 4.02608   3 
   5   5  -6 0.34250 2.72292   3 
  -5  -5   6 3.34992 1.94278   3 
  -5  -5   6 -0.5155 1.67754   2 
   4   5  -6 4.64140 2.63110   3 
  -4  -5   6 7.83088 1.79208   3 
  -4  -5   6 6.30438 2.14478   4 
  -4  -5   6 5.37333 1.51464   2 
   3   5  -6 1135.17 22.7864   3 
   3   5  -6 1105.78 22.1335   2 
  -3  -5   6 1152.91 21.7752   3 
  -3  -5   6 1148.86 22.2053   4 
  -3  -5   6 1153.56 21.8855   2 
   2   5  -6 97.3724 3.62815   2 
   2   5  -6 99.2404 4.29481   3 
  -2  -5   6 99.4579 3.60920   3 
  -2  -5   6 99.5474 3.99946   4 
  -2  -5   6 102.507 3.62364   2 
   1   5  -6 39.5560 2.41803   2 
   1   5  -6 37.3561 2.90409   3 
  -1  -5   6 39.8295 2.42255   2 
  -1  -5   6 41.6863 2.42910   3 
  -1  -5   6 39.4562 2.71776   4 
   0   5  -6 5.38352 1.25339   1 
   0   5  -6 4.83621 1.56518   3 
   0   5  -6 6.34866 1.44362   2 
   0  -5   6 7.09072 1.44117   2 
   0  -5   6 5.62058 1.47288   1 
   0  -5   6 7.30541 1.40318   4 
   0  -5   6 4.73927 1.23785   3 
  -1   5  -6 188.470 5.18536   1 
  -1   5  -6 194.019 5.47687   3 
  -1   5  -6 194.146 4.97459   2 
   1  -5   6 194.695 4.94353   3 
   1  -5   6 185.326 6.01943   1 
   1  -5   6 196.760 5.31467   2 
  -2   5  -6 17.5774 2.28249   3 
  -2   5  -6 15.8858 1.98674   2 
  -2   5  -6 17.8382 2.42021   1 
   2  -5   6 18.3473 2.01259   3 
   2  -5   6 22.2399 2.97116   1 
   2  -5   6 17.0632 2.31989   2 
  -3   5  -6 373.317 8.43905   3 
  -3   5  -6 365.361 8.37481   2 
  -3   5  -6 368.346 8.95876   1 
   3  -5   6 376.606 8.84881   2 
   3  -5   6 361.211 8.07623   3 
   3  -5   6 368.662 9.33873   1 
  -4   5  -6 76.8542 3.60052   2 
  -4   5  -6 73.4877 3.26546   3 
   4  -5   6 68.7123 3.95627   2 
   4  -5   6 64.6185 3.15096   3 
   4  -5   6 70.8577 4.60320   1 
  -5   5  -6 8.65392 2.02270   2 
  -5   5  -6 10.2579 2.29101   1 
  -5   5  -6 10.4354 1.81597   3 
   5  -5   6 8.29639 1.78533   3 
   5  -5   6 13.2760 2.70130   2 
   5  -5   6 8.10286 2.79844   1 
  -6   5  -6 41.7364 3.04566   3 
  -6   5  -6 37.3604 4.21491   1 
   6  -5   6 42.6147 3.52994   3 
   6  -5   6 39.5761 4.35441   2 
  -7   5  -6 2.02121 2.62035   1 
  -7   5  -6 3.75137 2.06179   3 
   7  -5   6 4.20073 3.04937   2 
   7   4  -6 155.979 7.48802   3 
  -7  -4   6 135.526 5.37232   2 
  -7  -4   6 148.717 5.66940   3 
   6   4  -6 28.0278 4.14480   3 
  -6  -4   6 24.1204 2.93318   2 
  -6  -4   6 29.2630 3.38219   3 
   5   4  -6 157.991 6.01243   3 
  -5  -4   6 137.141 5.49307   4 
  -5  -4   6 145.294 4.79565   3 
  -5  -4   6 143.457 4.74370   2 
   4   4  -6 7.59517 2.19717   3 
   4   4  -6 1.97716 1.70438   2 
  -4  -4   6 4.48944 1.79453   4 
  -4  -4   6 2.24437 1.54648   3 
  -4  -4   6 3.58818 1.23446   2 
   3   4  -6 137.973 5.01427   3 
   3   4  -6 138.642 4.43169   2 
  -3  -4   6 148.125 4.41736   3 
  -3  -4   6 142.585 4.21844   2 
  -3  -4   6 143.633 4.85863   4 
   2   4  -6 47.1558 3.11409   3 
   2   4  -6 55.1950 2.56153   2 
  -2  -4   6 56.0563 2.55276   2 
  -2  -4   6 54.6449 3.09502   4 
  -2  -4   6 51.7515 2.63768   3 
   1   4  -6 2.49487 1.38903   3 
   1   4  -6 3.77581 0.91861   2 
  -1  -4   6 3.83344 1.11931   1 
  -1  -4   6 4.35261 1.34700   4 
  -1  -4   6 3.05974 1.09938   3 
  -1  -4   6 3.68560 1.06127   2 
   0   4  -6 0.05110 0.77627   2 
   0   4  -6 -0.6602 1.15273   3 
   0   4  -6 0.64474 0.98210   1 
   0  -4   6 0.28805 0.83910   2 
   0  -4   6 2.52512 1.02346   3 
   0  -4   6 1.11794 1.32374   4 
   0  -4   6 1.76069 1.15030   4 
   0  -4   6 2.65646 1.17361   1 
  -1   4  -6 39.7479 2.11927   2 
  -1   4  -6 39.3131 2.34611   1 
  -1   4  -6 37.4487 2.46351   3 
   1  -4   6 37.4777 2.32977   2 
   1  -4   6 32.0709 3.39919   1 
   1  -4   6 36.0366 2.04026   3 
   1  -4   6 35.5474 2.14706   4 
  -2   4  -6 0.90534 1.23623   1 
  -2   4  -6 -0.3580 1.14576   3 
  -2   4  -6 0.21562 0.99148   2 
   2  -4   6 -1.0907 1.13170   2 
   2  -4   6 1.38265 0.96624   3 
   2  -4   6 -1.2650 1.45464   1 
  -3   4  -6 36.0046 2.56319   2 
  -3   4  -6 42.4509 2.87166   1 
  -3   4  -6 36.4186 2.46225   3 
   3  -4   6 42.8479 2.91377   2 
   3  -4   6 33.9312 3.21205   1 
   3  -4   6 44.0437 2.18606   3 
  -4   4  -6 50.2081 2.73420   3 
  -4   4  -6 48.4558 3.36482   1 
  -4   4  -6 49.8761 3.06664   2 
   4  -4   6 48.9499 3.38774   2 
   4  -4   6 46.9320 3.82451   1 
   4  -4   6 46.7734 2.48146   3 
  -5   4  -6 23.1054 3.07782   1 
  -5   4  -6 20.4269 2.41350   3 
  -5   4  -6 24.2579 3.16496   2 
   5  -4   6 19.1368 2.47492   2 
   5  -4   6 14.6585 2.86741   1 
   5  -4   6 20.3643 2.29973   3 
  -6   4  -6 64.6822 4.41990   1 
   6  -4   6 60.7236 4.54156   2 
  -7   4  -6 16.3767 3.30571   1 
   7  -4   6 20.7451 3.35762   2 
  -8  -3   6 31.7087 3.23992   3 
  -8  -3   6 37.6182 4.16964   2 
   7   3  -6 29.7419 4.09069   3 
  -7  -3   6 30.8051 3.23131   2 
  -7  -3   6 43.0580 3.85562   3 
   6   3  -6 20.3877 3.12839   3 
  -6  -3   6 21.8727 3.13668   3 
  -6  -3   6 25.6122 3.70234   4 
  -6  -3   6 21.0294 2.50099   2 
   5   3  -6 123.696 5.14357   3 
  -5  -3   6 123.876 4.38387   3 
  -5  -3   6 121.967 4.97451   4 
  -5  -3   6 118.006 4.26583   2 
   4   3  -6 13.1252 1.71262   2 
   4   3  -6 13.4009 2.26743   3 
  -4  -3   6 14.5618 1.78396   2 
  -4  -3   6 15.0087 2.17457   4 
  -4  -3   6 17.8952 2.41494   3 
   3   3  -6 164.142 4.55356   2 
   3   3  -6 160.786 5.25268   3 
  -3  -3   6 160.277 4.37361   2 
  -3  -3   6 163.390 4.66909   3 
  -3  -3   6 168.363 5.10430   4 
   2   3  -6 3.92815 1.41412   3 
   2   3  -6 4.11498 0.96121   2 
  -2  -3   6 2.56600 1.37138   4 
  -2  -3   6 3.81365 1.20995   3 
  -2  -3   6 1.98084 0.90394   2 
   1   3  -6 10.2545 1.59168   3 
   1   3  -6 7.06364 0.96107   2 
   1   3  -6 10.8973 1.26304   1 
  -1  -3   6 10.8588 1.34511   3 
  -1  -3   6 11.5110 1.68567   4 
  -1  -3   6 10.7503 1.43453   2 
  -1  -3   6 11.9335 1.45288   1 
  -1  -3   6 11.3118 1.56224   4 
   0   3  -6 67.1529 2.87921   3 
   0   3  -6 62.5767 2.35766   2 
   0   3  -6 61.9236 2.37532   1 
   0  -3   6 60.0355 2.41205   3 
   0  -3   6 60.7371 2.60854   1 
   0  -3   6 60.0321 2.65489   4 
   0  -3   6 62.0649 2.75540   4 
   0  -3   6 61.3318 2.49426   2 
  -1   3  -6 15.6670 1.57449   2 
  -1   3  -6 11.8923 1.67078   1 
  -1   3  -6 13.4731 1.62743   3 
   1  -3   6 15.9003 1.72263   4 
   1  -3   6 14.6102 2.00424   1 
   1  -3   6 15.4863 1.80707   2 
  -2   3  -6 68.3403 2.84512   3 
  -2   3  -6 67.3196 2.73695   2 
  -2   3  -6 65.0454 2.94152   1 
   2  -3   6 67.3942 2.31690   3 
   2  -3   6 60.4867 3.19918   1 
  -3   3  -6 2.17149 1.32174   2 
  -3   3  -6 0.97765 1.11632   3 
  -3   3  -6 -0.5312 1.25290   1 
   3  -3   6 0.23325 1.29587   2 
   3  -3   6 1.37861 0.91397   3 
   3  -3   6 0.56209 1.62603   1 
  -4   3  -6 71.4683 3.72459   1 
  -4   3  -6 73.6014 2.99651   3 
  -4   3  -6 74.6691 3.49657   2 
   4  -3   6 76.4589 3.71418   2 
   4  -3   6 74.4885 2.64868   3 
   4  -3   6 73.3022 4.11366   1 
  -5   3  -6 30.9120 3.20562   2 
  -5   3  -6 25.0132 3.05889   1 
   5  -3   6 24.5760 3.24888   2 
   5  -3   6 22.7530 3.13675   1 
  -6   3  -6 1.44939 2.00129   1 
   6  -3   6 2.73503 2.38550   2 
  -7   3  -6 11.1412 2.83974   1 
   7  -3   6 11.9664 3.05913   2 
  -9  -2   6 4.84045 3.94004   3 
  -9  -2   6 1.06972 2.75484   2 
  -8  -2   6 -1.7122 2.60830   3 
  -8  -2   6 3.52532 2.13851   2 
   7   2  -6 -0.3200 2.54494   3 
  -7  -2   6 4.36957 2.18215   3 
  -7  -2   6 2.59196 1.64707   2 
   6   2  -6 31.5032 3.28723   3 
  -6  -2   6 33.0765 3.59374   4 
  -6  -2   6 32.5379 2.63486   2 
  -6  -2   6 33.3539 3.19748   3 
   5   2  -6 5.80233 2.05427   3 
  -5  -2   6 4.84449 1.81173   4 
  -5  -2   6 5.25335 1.71987   3 
  -5  -2   6 7.90814 1.52842   2 
   4   2  -6 0.52500 1.08455   2 
   4   2  -6 -1.7126 1.56565   3 
  -4  -2   6 -0.7505 1.51525   4 
  -4  -2   6 0.44536 0.93003   2 
  -4  -2   6 0.39762 1.37710   3 
   3   2  -6 3.95124 0.91594   2 
   3   2  -6 2.56410 1.46452   3 
  -3  -2   6 3.31357 0.88363   2 
  -3  -2   6 2.95229 1.26179   3 
  -3  -2   6 6.00228 1.52943   4 
   2   2  -6 110.396 2.73641   1 
   2   2  -6 106.441 3.26213   2 
   2   2  -6 105.171 3.84517   3 
  -2  -2   6 104.491 3.88693   4 
  -2  -2   6 112.165 3.86391   4 
  -2  -2   6 109.086 3.52644   3 
  -2  -2   6 109.399 2.93506   1 
  -2  -2   6 109.661 3.17241   2 
   1   2  -6 347.282 7.51803   2 
   1   2  -6 358.194 8.17529   3 
   1   2  -6 367.950 7.33006   1 
  -1  -2   6 355.873 7.50636   1 
  -1  -2   6 367.881 8.10325   4 
  -1  -2   6 359.169 7.60719   2 
  -1  -2   6 361.010 7.79662   3 
   0   2  -6 6.08804 0.97796   1 
   0   2  -6 4.52721 1.14327   2 
   0   2  -6 3.42533 1.17156   3 
   0  -2   6 4.40831 1.07807   1 
   0  -2   6 4.28499 0.99109   3 
   0  -2   6 4.94093 0.91420   2 
   0  -2   6 4.16367 1.16633   4 
  -1   2  -6 31.1611 2.11136   3 
  -1   2  -6 34.5812 2.00273   1 
  -1   2  -6 34.0037 2.05178   4 
   1  -2   6 32.0472 1.71405   3 
   1  -2   6 33.6923 1.83134   4 
   1  -2   6 32.7314 2.05635   2 
   1  -2   6 29.8987 2.22224   1 
  -2   2  -6 13.8645 1.79721   1 
  -2   2  -6 15.8271 1.77510   2 
  -2   2  -6 13.9806 1.76865   4 
  -2   2  -6 17.0373 1.81352   3 
   2  -2   6 15.9531 1.28717   4 
   2  -2   6 15.0660 1.94060   1 
   2  -2   6 15.3066 1.92569   2 
   2  -2   6 15.4206 1.33844   3 
  -3   2  -6 71.1459 3.22168   1 
  -3   2  -6 74.3683 2.81187   3 
  -3   2  -6 70.7812 3.14007   2 
   3  -2   6 72.3886 3.35300   2 
   3  -2   6 70.5272 2.22950   3 
   3  -2   6 71.2105 3.73200   1 
  -4   2  -6 5.32830 1.66352   2 
  -4   2  -6 5.47446 1.57048   1 
   4  -2   6 5.00109 2.02855   1 
   4  -2   6 4.83592 1.59140   2 
  -5   2  -6 36.0691 3.21111   1 
  -5   2  -6 35.7198 3.39930   2 
   5  -2   6 42.6304 4.20664   1 
   5  -2   6 37.6879 3.51709   2 
  -6   2  -6 13.3736 2.48747   1 
   6  -2   6 15.3879 2.61666   2 
  -7   2  -6 2.19017 2.34070   1 
   7  -2   6 1.82093 2.67257   2 
  -9  -1   6 14.7742 2.90540   2 
  -9  -1   6 17.7102 3.39518   3 
  -8  -1   6 38.6307 3.50760   2 
  -8  -1   6 33.2448 4.29238   3 
  -7  -1   6 53.4364 3.11167   2 
  -7  -1   6 52.0472 3.97281   3 
  -7  -1   6 55.4239 4.21542   4 
   6   1  -6 587.940 13.0743   3 
  -6  -1   6 565.340 12.9189   4 
  -6  -1   6 577.679 11.9729   2 
  -6  -1   6 574.313 12.5835   3 
   5   1  -6 213.099 6.44748   3 
  -5  -1   6 219.540 6.12944   3 
  -5  -1   6 216.698 5.36064   2 
  -5  -1   6 210.737 6.28910   4 
   4   1  -6 860.048 16.0432   1 
   4   1  -6 862.371 16.6864   2 
   4   1  -6 881.031 17.5890   3 
  -4  -1   6 853.808 17.1705   3 
  -4  -1   6 866.863 15.8950   1 
  -4  -1   6 862.700 17.7192   4 
  -4  -1   6 855.909 16.4144   2 
  -4  -1   6 863.429 17.4716   4 
   3   1  -6 32.5638 2.51079   3 
   3   1  -6 31.1271 1.49536   1 
   3   1  -6 32.5801 2.07876   2 
  -3  -1   6 31.2301 1.62476   2 
  -3  -1   6 29.1841 2.56945   4 
  -3  -1   6 34.9018 1.53448   1 
  -3  -1   6 29.7443 2.31456   3 
   2   1  -6 350.205 8.21669   3 
   2   1  -6 366.050 7.21412   1 
  -2  -1   6 363.649 8.02501   3 
  -2  -1   6 361.078 7.36156   1 
  -2  -1   6 354.250 8.24402   4 
  -2  -1   6 365.211 7.48023   2 
   1   1  -6 170.878 4.01017   2 
   1   1  -6 166.945 3.99308   1 
   1   1  -6 167.124 4.69394   3 
  -1  -1   6 163.021 4.12575   2 
  -1  -1   6 169.116 4.18349   1 
  -1  -1   6 168.231 4.63506   4 
  -1  -1   6 170.897 4.46482   3 
   0   1  -6 42.1900 2.38035   4 
   0   1  -6 44.3557 2.33851   3 
   0   1  -6 44.9893 1.90411   2 
   0   1  -6 47.2792 2.02240   1 
   0  -1   6 45.0776 2.10148   2 
   0  -1   6 45.7405 2.11563   3 
   0  -1   6 46.1942 2.18880   1 
   0  -1   6 44.6814 2.19190   4 
  -1   1  -6 1747.64 31.4629   4 
  -1   1  -6 1689.97 31.4229   1 
  -1   1  -6 1757.93 31.4186   3 
   1  -1   6 1721.12 30.9429   3 
   1  -1   6 1726.29 30.9915   4 
   1  -1   6 1659.54 31.4936   2 
  -2   1  -6 341.479 7.78712   1 
  -2   1  -6 345.574 7.51720   4 
  -2   1  -6 339.265 7.35191   3 
  -2   1  -6 341.499 7.65501   2 
   2  -1   6 338.864 8.06162   1 
   2  -1   6 350.508 6.87243   3 
   2  -1   6 338.712 6.91105   4 
   2  -1   6 340.185 7.86067   2 
  -3   1  -6 69.3299 3.16353   1 
  -3   1  -6 72.5431 3.21274   2 
  -3   1  -6 72.2961 2.92549   4 
   3  -1   6 69.2631 3.29825   2 
   3  -1   6 68.7151 3.57200   1 
   3  -1   6 71.8720 2.30595   4 
  -4   1  -6 1.71303 1.53704   2 
  -4   1  -6 -0.7065 1.35355   4 
  -4   1  -6 0.94530 1.32918   1 
   4  -1   6 -0.2738 2.01630   1 
   4  -1   6 -0.5868 1.65130   2 
   4  -1   6 -0.2569 0.94566   4 
  -5   1  -6 1.56628 1.63629   4 
  -5   1  -6 0.68643 1.60025   1 
  -5   1  -6 0.11218 1.97039   2 
   5  -1   6 0.03865 1.25539   4 
   5  -1   6 1.77874 1.85224   2 
   5  -1   6 -4.1707 2.39354   1 
  -6   1  -6 -1.0773 1.86933   4 
  -6   1  -6 0.29773 1.91275   1 
   6  -1   6 3.22463 2.50355   2 
   6  -1   6 2.11262 1.83691   4 
  -7   1  -6 91.7767 5.17243   1 
  -7   1  -6 95.3205 4.94863   4 
   7  -1   6 103.045 6.03627   2 
   7  -1   6 88.9241 5.04486   4 
  -9   0   6 6.81013 2.13613   1 
  -9   0   6 8.40201 3.67123   4 
  -9   0   6 11.5519 3.16487   3 
  -9   0   6 6.67656 2.31816   2 
  -8   0   6 685.293 15.3455   2 
  -8   0   6 688.792 13.7068   1 
  -8   0   6 668.403 15.3271   3 
  -8   0   6 716.220 14.7426   2 
  -8   0   6 736.816 17.6869   4 
  -8   0   6 710.621 14.4991   1 
  -7   0   6 12.0944 1.87558   2 
  -7   0   6 15.8954 2.55668   4 
  -7   0   6 13.2800 2.42679   3 
  -7   0   6 12.9946 2.77435   4 
  -7   0   6 8.64091 1.67846   1 
  -6   0   6 1044.72 19.4770   1 
  -6   0   6 1048.60 21.6307   4 
  -6   0   6 1058.38 20.0507   2 
  -6   0   6 1049.43 21.0206   3 
  -6   0   6 1057.75 21.2196   4 
   5   0  -6 41.0061 2.27498   1 
   5   0  -6 41.6555 3.18187   3 
  -5   0   6 42.1172 3.28886   4 
  -5   0   6 40.1097 3.15164   3 
  -5   0   6 44.0292 2.10644   2 
  -5   0   6 41.8708 1.82173   1 
  -5   0   6 37.1595 3.25525   4 
   4   0  -6 404.020 8.53227   2 
   4   0  -6 390.388 9.29270   3 
   4   0  -6 397.325 8.19755   1 
  -4   0   6 396.803 9.44208   4 
  -4   0   6 401.589 8.00544   1 
  -4   0   6 407.518 9.25057   3 
  -4   0   6 401.630 8.18021   2 
   3   0  -6 57.2761 2.99243   3 
   3   0  -6 60.6795 2.12908   1 
   3   0  -6 64.0043 2.17248   2 
  -3   0   6 59.3967 3.05226   4 
  -3   0   6 62.9768 2.10164   1 
  -3   0   6 55.3926 4.19763   3 
  -3   0   6 62.2068 2.09914   2 
   2   0  -6 197.747 5.40009   3 
   2   0  -6 205.654 4.56428   1 
   2   0  -6 206.965 4.50092   2 
  -2   0   6 202.677 5.30593   3 
  -2   0   6 199.499 4.64994   1 
  -2   0   6 198.318 4.55625   2 
  -2   0   6 196.475 5.35405   4 
   1   0  -6 141.689 4.25509   4 
   1   0  -6 143.258 3.58939   1 
   1   0  -6 140.660 3.45574   2 
   1   0  -6 135.743 4.13423   3 
  -1   0   6 141.162 4.03956   3 
  -1   0   6 139.096 4.04204   4 
  -1   0   6 141.282 3.72783   1 
  -1   0   6 136.978 3.60370   2 
   0   0  -6 201.362 4.83849   1 
   0   0  -6 202.237 4.68806   2 
   0   0  -6 203.790 5.22799   4 
   0   0  -6 195.877 5.04894   3 
   0   0   6 205.494 4.89713   2 
   0   0   6 203.496 4.88714   4 
   0   0   6 194.348 4.96492   1 
   0   0   6 195.253 4.85633   3 
  -1   0  -6 1494.31 27.6334   3 
  -1   0  -6 1499.09 28.3359   2 
  -1   0  -6 1488.80 27.8438   1 
  -1   0  -6 1550.72 27.9665   4 
   1   0   6 1503.05 27.3270   3 
   1   0   6 1516.58 28.1098   1 
   1   0   6 1501.33 27.4107   4 
   1   0   6 1515.66 27.9232   2 
  -2   0  -6 90.8224 3.25396   1 
  -2   0  -6 93.8622 3.31307   2 
  -2   0  -6 91.8970 3.26246   4 
   2   0   6 91.4241 3.56621   1 
   2   0   6 88.0642 3.37176   2 
   2   0   6 86.9848 2.66079   4 
  -3   0  -6 3.93132 1.31697   1 
  -3   0  -6 3.63273 1.36739   2 
   3   0   6 3.29418 1.00379   4 
   3   0   6 1.80923 1.58003   1 
   3   0   6 2.04172 1.50436   2 
  -4   0  -6 7.92852 1.97666   2 
  -4   0  -6 4.53452 1.57445   1 
  -4   0  -6 7.03541 1.60873   4 
   4   0   6 7.75166 2.05850   2 
   4   0   6 7.54919 1.43992   4 
   4   0   6 5.71871 2.14901   1 
  -5   0  -6 51.3813 3.35059   1 
  -5   0  -6 59.3749 4.04792   2 
  -5   0  -6 58.2094 3.39041   4 
   5   0   6 58.2591 3.08349   4 
   5   0   6 58.6683 4.11051   2 
   5   0   6 47.7768 4.78712   1 
  -6   0  -6 43.2466 3.65651   1 
  -6   0  -6 41.3603 3.74953   4 
   6   0   6 43.6395 3.58867   4 
   6   0   6 33.0180 4.30201   2 
  -7   0  -6 61.3693 5.13242   4 
  -7   0  -6 72.6313 4.57889   1 
   7   0   6 70.5966 5.25560   4 
   7   0   6 73.4977 5.74456   2 
  -9   1   6 61.3080 3.78095   2 
  -9   1   6 73.7126 4.63656   3 
  -9   1   6 54.8057 5.69012   3 
  -9   1   6 66.2410 5.92791   4 
  -9   1   6 57.8705 3.47384   1 
  -9   1   6 61.9788 4.26378   1 
  -8   1   6 1964.09 37.0741   2 
  -8   1   6 1952.82 37.5221   3 
  -8   1   6 1970.48 36.7833   1 
  -8   1   6 1983.46 35.9360   1 
  -8   1   6 1968.48 38.1870   4 
  -8   1   6 1911.87 37.3950   4 
  -8   1   6 1988.58 36.4128   2 
  -7   1   6 22.7483 2.07390   1 
  -7   1   6 24.1938 3.06556   4 
  -7   1   6 23.7481 2.18407   2 
  -7   1   6 27.2377 2.89602   2 
  -7   1   6 30.5846 3.49787   4 
  -7   1   6 22.5802 2.89195   3 
  -6   1   6 213.127 6.68873   3 
  -6   1   6 222.734 6.76716   4 
  -6   1   6 225.520 5.30415   1 
  -6   1   6 226.154 6.89151   4 
  -6   1   6 227.287 5.43049   2 
   5  -1  -6 -2.0523 0.93565   1 
  -5   1   6 0.95174 0.82354   1 
  -5   1   6 -0.0577 1.47794   4 
  -5   1   6 0.30743 0.73403   2 
  -5   1   6 -2.1052 1.46656   3 
   4  -1  -6 63.9612 2.32954   2 
   4  -1  -6 65.0026 2.49374   1 
  -4   1   6 66.4334 3.26935   4 
  -4   1   6 63.0141 2.12215   2 
  -4   1   6 62.1663 2.21250   1 
  -4   1   6 62.5975 3.29708   3 
   3  -1  -6 661.886 12.5307   1 
   3  -1  -6 650.115 12.2120   2 
  -3   1   6 648.128 13.3508   4 
  -3   1   6 581.989 15.2593   3 
  -3   1   6 669.189 12.4547   1 
  -3   1   6 651.737 12.1890   2 
   2  -1  -6 2.93694 0.80560   1 
   2  -1  -6 1.41496 1.15295   4 
   2  -1  -6 1.91479 0.63619   2 
   2  -1  -6 1.00104 1.14548   3 
  -2   1   6 0.76115 0.72504   1 
  -2   1   6 2.29928 0.72683   2 
  -2   1   6 1.93543 1.14186   3 
  -2   1   6 1.45139 1.10546   4 
   1  -1  -6 72.4475 2.93763   3 
   1  -1  -6 70.1995 3.04088   4 
   1  -1  -6 74.4166 2.23496   2 
   1  -1  -6 74.9382 2.47436   1 
  -1   1   6 73.9076 2.42802   2 
  -1   1   6 74.5417 2.94702   3 
  -1   1   6 77.0252 2.86326   4 
  -1   1   6 73.4760 2.60104   1 
   0  -1  -6 42.5402 1.86666   2 
   0  -1  -6 38.7685 2.40993   4 
   0  -1  -6 40.1392 1.91416   1 
   0   1   6 39.6893 1.99328   2 
   0   1   6 38.0921 2.24072   3 
   0   1   6 40.7442 2.03668   4 
  -1  -1  -6 26.4934 3.54500   4 
  -1  -1  -6 31.9051 1.95867   2 
  -1  -1  -6 29.8361 1.86205   1 
   1   1   6 26.9446 1.87763   3 
   1   1   6 27.6054 1.95603   2 
   1   1   6 30.2355 2.21570   1 
   1   1   6 30.9133 1.74542   4 
  -2  -1  -6 28.2764 2.28653   2 
  -2  -1  -6 30.6559 2.10106   1 
  -2  -1  -6 36.0015 2.49563   4 
   2   1   6 38.5881 2.68470   1 
   2   1   6 35.2454 2.44055   2 
   2   1   6 34.3157 1.90380   4 
  -3  -1  -6 12.7043 1.77851   4 
  -3  -1  -6 15.2708 2.01077   1 
  -3  -1  -6 12.6847 1.84727   2 
   3   1   6 14.8445 1.99566   2 
   3   1   6 11.7089 1.41610   4 
   3   1   6 14.8704 2.19924   1 
  -4  -1  -6 2.92614 1.50696   1 
  -4  -1  -6 0.27488 1.58169   4 
  -4  -1  -6 3.08593 2.07292   2 
   4   1   6 2.78378 2.20573   1 
   4   1   6 2.06266 1.39664   4 
  -5  -1  -6 33.0275 4.84308   2 
  -5  -1  -6 19.8572 2.51302   4 
  -5  -1  -6 23.9000 2.90812   1 
   5   1   6 20.5483 2.76580   2 
   5   1   6 21.3472 2.88047   4 
   5   1   6 20.8080 3.45580   1 
  -6  -1  -6 -1.6510 2.57902   4 
  -6  -1  -6 5.40326 2.21483   1 
   6   1   6 5.52852 2.36574   4 
   6   1   6 1.06118 2.71742   2 
 -10   2   6 -7.5476 3.46629   4 
 -10   2   6 0.41080 2.64497   3 
 -10   2   6 0.00717 2.36241   2 
 -10   2   6 -5.6122 2.88781   1 
  -9   2   6 15.2893 2.77177   1 
  -9   2   6 9.69033 3.57459   3 
  -9   2   6 12.1595 2.19048   1 
  -9   2   6 7.53313 1.96692   2 
  -9   2   6 9.61874 3.15184   4 
  -9   2   6 6.85814 2.62868   3 
  -9   2   6 9.41409 2.77306   2 
  -8   2   6 72.8023 5.02377   4 
  -8   2   6 66.8419 4.82595   4 
  -8   2   6 81.3298 4.54537   3 
  -8   2   6 79.1358 5.28067   3 
  -8   2   6 79.0101 4.29704   1 
  -8   2   6 81.2767 4.14128   2 
  -8   2   6 81.0762 3.39269   2 
  -8   2   6 87.9948 3.60401   1 
  -7   2   6 -0.9493 1.03734   2 
  -7   2   6 -2.2192 2.01860   4 
  -7   2   6 1.54729 1.98480   4 
  -7   2   6 -2.7276 2.16598   3 
  -7   2   6 -0.9227 1.46887   2 
  -7   2   6 0.21269 1.23586   1 
  -6   2   6 35.0346 3.32409   4 
  -6   2   6 41.5610 2.27343   1 
  -6   2   6 41.7020 1.99563   2 
  -6   2   6 40.4473 3.60194   3 
   5  -2  -6 106.424 3.71245   1 
  -5   2   6 103.463 2.88891   2 
  -5   2   6 104.297 3.29033   1 
  -5   2   6 108.087 4.29302   4 
  -5   2   6 105.358 4.44020   3 
   4  -2  -6 52.5219 2.00301   2 
   4  -2  -6 47.9410 2.37200   1 
  -4   2   6 54.5106 3.21797   3 
  -4   2   6 52.3755 1.79352   2 
  -4   2   6 52.3320 2.17350   1 
  -4   2   6 51.1811 2.99321   4 
   3  -2  -6 40.8426 2.78555   4 
   3  -2  -6 41.9439 1.56968   2 
   3  -2  -6 39.3118 2.01010   1 
  -3   2   6 45.6009 2.86702   3 
  -3   2   6 37.8942 2.45665   4 
  -3   2   6 39.0378 1.56668   2 
   2  -2  -6 371.547 7.75341   1 
   2  -2  -6 373.799 7.16317   2 
   2  -2  -6 356.791 8.60048   4 
  -2   2   6 368.865 7.33408   2 
  -2   2   6 366.366 8.43251   3 
  -2   2   6 359.912 8.14168   4 
   1  -2  -6 0.79842 0.72687   1 
   1  -2  -6 0.11318 0.65689   2 
   1  -2  -6 1.48551 1.15883   4 
  -1   2   6 0.75586 0.88759   4 
  -1   2   6 0.69496 1.17958   3 
  -1   2   6 0.97629 0.77536   2 
  -1   2   6 -0.1027 0.81999   1 
   0  -2  -6 202.084 4.91277   1 
   0  -2  -6 197.086 4.67286   2 
   0  -2  -6 203.446 5.42793   4 
   0   2   6 199.580 4.87346   4 
   0   2   6 188.767 4.76517   2 
   0   2   6 198.943 5.13057   1 
   0   2   6 196.806 5.06655   3 
  -1  -2  -6 5.89005 1.50657   4 
  -1  -2  -6 6.03746 1.14710   1 
  -1  -2  -6 6.16147 1.48175   2 
   1   2   6 3.25549 1.25770   2 
   1   2   6 7.60421 1.13265   4 
   1   2   6 6.19455 1.38556   1 
  -2  -2  -6 50.5855 2.96083   4 
  -2  -2  -6 49.9693 2.55144   1 
  -2  -2  -6 48.5889 2.77796   2 
   2   2   6 50.7288 2.38265   4 
   2   2   6 44.5405 2.80530   2 
   2   2   6 47.1460 3.07116   1 
  -3  -2  -6 -0.8103 1.53399   2 
  -3  -2  -6 0.80089 1.50431   4 
  -3  -2  -6 2.21895 1.31239   1 
   3   2   6 1.99050 1.24322   4 
   3   2   6 0.98139 1.65892   2 
   3   2   6 1.48652 1.82182   1 
  -4  -2  -6 32.8433 2.90083   1 
  -4  -2  -6 29.4770 3.24559   4 
  -4  -2  -6 44.6438 3.70911   2 
   4   2   6 32.3220 4.08671   1 
   4   2   6 35.0474 2.90871   4 
   4   2   6 44.7543 3.67676   2 
  -5  -2  -6 6.38844 2.46298   4 
  -5  -2  -6 6.06091 1.91830   1 
   5   2   6 6.88448 2.66912   2 
   5   2   6 0.92936 2.07784   4 
   5   2   6 8.49228 3.35501   1 
  -6  -2  -6 18.0505 2.66712   1 
   6   2   6 21.9868 3.19742   4 
   6   2   6 25.6220 3.71474   2 
 -10   3   6 69.5200 6.20029   4 
 -10   3   6 66.5231 5.42137   1 
 -10   3   6 61.5937 5.04136   3 
 -10   3   6 59.0039 3.89357   2 
  -9   3   6 2.76091 2.30839   3 
  -9   3   6 1.69628 1.68990   2 
  -9   3   6 3.91621 2.96025   4 
  -9   3   6 3.45238 2.12190   1 
  -9   3   6 2.29863 2.42100   2 
  -9   3   6 -0.7323 2.44576   1 
  -9   3   6 1.43437 2.68713   4 
  -8   3   6 52.5366 4.22161   3 
  -8   3   6 61.0543 2.87330   2 
  -8   3   6 60.5551 3.66035   2 
  -8   3   6 53.8097 4.50438   4 
  -8   3   6 66.8590 4.73770   4 
  -8   3   6 70.4892 5.36373   3 
  -8   3   6 63.9955 3.48418   1 
  -7   3   6 3.54577 1.46296   2 
  -7   3   6 3.62477 1.42995   1 
  -7   3   6 4.50917 1.19655   2 
  -7   3   6 3.28530 2.57132   3 
  -7   3   6 7.20211 2.25516   4 
  -7   3   6 4.72237 2.01339   4 
  -6   3   6 5.57847 1.29863   2 
  -6   3   6 3.78159 1.89389   3 
  -6   3   6 7.53983 2.42562   3 
  -6   3   6 5.47185 0.99775   2 
  -6   3   6 5.52977 1.35723   1 
  -6   3   6 4.56680 1.80506   4 
   5  -3  -6 106.897 3.92657   1 
  -5   3   6 108.418 3.47509   1 
  -5   3   6 107.112 4.18672   4 
  -5   3   6 103.767 4.71424   3 
  -5   3   6 105.311 2.74241   2 
   4  -3  -6 0.13365 1.06770   1 
   4  -3  -6 0.14636 1.46489   4 
  -4   3   6 0.92879 1.26232   4 
  -4   3   6 0.90934 0.95567   1 
  -4   3   6 -0.8937 1.61493   3 
  -4   3   6 0.15495 0.59217   2 
   3  -3  -6 271.449 7.19801   4 
   3  -3  -6 276.302 5.47388   2 
   3  -3  -6 276.016 6.46259   1 
  -3   3   6 276.476 6.30137   1 
  -3   3   6 278.849 7.22498   3 
  -3   3   6 267.191 5.51404   2 
  -3   3   6 281.415 6.77026   4 
   2  -3  -6 34.3909 2.66483   4 
   2  -3  -6 31.9213 1.90698   1 
   2  -3  -6 31.5817 1.29026   2 
  -2   3   6 31.0300 2.78329   3 
  -2   3   6 33.8791 2.17515   4 
  -2   3   6 31.9200 1.95931   1 
  -2   3   6 30.5187 2.42632   3 
  -2   3   6 30.6268 1.47340   2 
   1  -3  -6 41.1275 2.10846   1 
   1  -3  -6 40.6977 1.71283   2 
   1  -3  -6 42.3849 2.80911   4 
  -1   3   6 42.4166 2.85496   3 
  -1   3   6 39.0840 2.25333   1 
  -1   3   6 45.9959 2.57083   3 
  -1   3   6 42.9975 2.26130   4 
  -1   3   6 40.8883 1.86576   2 
   0  -3  -6 3.49423 0.99295   2 
   0  -3  -6 5.61282 1.55149   4 
   0  -3  -6 2.72389 0.96996   1 
   0   3   6 3.85260 1.06131   4 
   0   3   6 3.14047 1.25930   1 
   0   3   6 5.87780 1.54121   3 
   0   3   6 2.80235 1.09647   2 
   0   3   6 2.59081 1.24404   3 
  -1  -3  -6 21.7646 2.49934   2 
  -1  -3  -6 20.7655 2.57114   4 
  -1  -3  -6 21.5355 1.93099   1 
   1   3   6 18.3067 2.10890   2 
   1   3   6 17.6061 1.87829   4 
   1   3   6 22.3194 2.44821   1 
  -2  -3  -6 91.3850 3.77526   2 
  -2  -3  -6 86.4133 3.86708   4 
  -2  -3  -6 90.0685 3.37690   1 
   2   3   6 90.0946 4.05999   1 
   2   3   6 87.8635 3.68515   2 
   2   3   6 86.1751 3.28512   4 
  -3  -3  -6 57.3652 3.70064   2 
  -3  -3  -6 55.7132 3.70836   4 
  -3  -3  -6 54.8351 3.01170   1 
   3   3   6 52.9214 3.99239   1 
   3   3   6 54.6772 3.61306   2 
  -4  -3  -6 2.59450 2.17157   4 
  -4  -3  -6 4.85924 2.59530   2 
  -4  -3  -6 4.19166 1.66137   1 
   4   3   6 4.18866 2.26415   2 
   4   3   6 4.99389 1.93423   4 
   4   3   6 -1.4099 2.59913   1 
  -5  -3  -6 0.82171 1.85571   1 
   5   3   6 2.98311 2.54594   4 
  -6  -3  -6 39.9539 4.07086   1 
   6   3   6 50.6915 5.49289   4 
 -10   4   6 43.0793 3.48710   2 
 -10   4   6 40.6132 5.50716   1 
 -10   4   6 33.7905 4.67786   3 
 -10   4   6 31.7729 3.96206   4 
 -10   4   6 48.7769 6.17387   2 
  -9   4   6 4.42833 1.66521   2 
  -9   4   6 4.22644 2.87309   1 
  -9   4   6 1.36688 2.29945   2 
  -9   4   6 1.87732 2.56849   4 
  -9   4   6 -5.7225 2.80509   4 
  -9   4   6 5.84097 2.54002   3 
  -8   4   6 43.2822 4.06508   4 
  -8   4   6 42.5841 2.36320   2 
  -8   4   6 41.0765 3.07185   2 
  -8   4   6 39.0209 5.45653   3 
  -8   4   6 40.5766 3.34827   1 
  -8   4   6 48.8313 4.52937   4 
  -8   4   6 41.6578 4.13545   3 
  -7   4   6 -0.0966 1.30766   2 
  -7   4   6 1.85801 0.91114   2 
  -7   4   6 -0.3186 1.90600   3 
  -7   4   6 3.17592 2.68607   3 
  -7   4   6 -0.3732 1.50999   1 
  -7   4   6 1.98220 1.85925   4 
  -6   4   6 0.36964 0.73850   2 
  -6   4   6 1.34475 1.91965   3 
  -6   4   6 1.04652 1.34492   1 
  -6   4   6 1.07862 1.09069   2 
  -6   4   6 -0.4242 1.60364   4 
  -6   4   6 -1.3601 2.36378   3 
   5  -4  -6 195.833 5.70564   1 
   5  -4  -6 183.937 6.27963   4 
  -5   4   6 189.486 5.91085   3 
  -5   4   6 190.188 5.16128   1 
  -5   4   6 182.221 6.33208   3 
  -5   4   6 194.860 5.62674   4 
   4  -4  -6 226.356 6.57416   4 
   4  -4  -6 212.833 5.84182   1 
  -4   4   6 207.845 6.52464   3 
  -4   4   6 206.664 6.14610   3 
  -4   4   6 212.850 5.42552   1 
  -4   4   6 214.111 5.81316   4 
   3  -4  -6 20.3804 1.94035   1 
   3  -4  -6 22.3754 2.83112   4 
  -3   4   6 21.7631 2.58833   3 
  -3   4   6 22.3793 1.94644   1 
  -3   4   6 21.5895 2.18980   4 
  -3   4   6 21.1938 2.51114   3 
   2  -4  -6 1323.54 25.5190   4 
   2  -4  -6 1316.26 24.8401   1 
  -2   4   6 1312.75 24.9576   3 
  -2   4   6 1318.46 25.4219   3 
  -2   4   6 1331.76 24.7675   1 
  -2   4   6 1322.60 24.7698   4 
   1  -4  -6 -0.6844 0.78549   2 
   1  -4  -6 2.94238 1.54709   4 
   1  -4  -6 1.27822 1.00735   1 
  -1   4   6 -0.9232 1.16444   1 
  -1   4   6 2.38160 1.44824   3 
  -1   4   6 -0.7045 0.86325   2 
  -1   4   6 1.36060 1.71278   3 
  -1   4   6 -0.2658 0.95620   4 
   0  -4  -6 1087.59 20.1984   2 
   0  -4  -6 1089.07 20.7274   1 
   0  -4  -6 1083.46 21.3688   4 
   0   4   6 1097.02 21.0070   1 
   0   4   6 1076.81 20.2684   2 
   0   4   6 1082.30 20.3561   3 
   0   4   6 1096.24 20.9249   3 
   0   4   6 1071.12 20.5439   4 
  -1  -4  -6 -0.1928 1.39002   2 
  -1  -4  -6 0.42411 1.08728   1 
  -1  -4  -6 1.84293 1.78846   4 
   1   4   6 0.58017 1.56945   1 
   1   4   6 0.31897 1.36773   2 
  -2  -4  -6 49.5402 3.33853   2 
  -2  -4  -6 51.5092 2.81188   1 
  -2  -4  -6 44.9300 3.62767   4 
   2   4   6 46.6163 3.11574   2 
   2   4   6 49.6302 3.62487   1 
   2   4   6 48.9495 2.96925   4 
  -3  -4  -6 60.5356 4.35521   2 
  -3  -4  -6 54.4011 3.17826   1 
  -3  -4  -6 58.6291 4.22782   4 
   3   4   6 59.1766 3.51401   4 
   3   4   6 60.2573 4.34424   1 
   3   4   6 55.9930 5.35604   2 
  -4  -4  -6 121.079 4.61569   1 
   4   4   6 120.421 5.12736   4 
   4   4   6 105.530 6.21616   1 
  -5  -4  -6 102.413 4.77133   1 
   5   4   6 99.1720 5.70600   4 
  -9   5   6 20.5793 3.19260   3 
  -9   5   6 16.9155 3.41546   4 
  -9   5   6 19.4340 3.00597   4 
  -9   5   6 24.9284 2.43122   2 
  -9   5   6 26.3063 2.81735   2 
  -8   5   6 -3.8575 2.26106   3 
  -8   5   6 1.42232 2.18082   4 
  -8   5   6 2.68946 1.09955   2 
  -7   5   6 3.31627 0.86376   2 
  -7   5   6 3.93127 2.18321   3 
  -7   5   6 2.21131 1.28372   2 
  -7   5   6 2.73705 1.91661   4 
  -7   5   6 1.70813 1.83278   1 
  -7   5   6 -0.7201 2.81299   3 
  -6   5   6 3.15592 1.72344   4 
  -6   5   6 5.02737 1.66165   1 
  -6   5   6 0.28247 2.51268   3 
  -6   5   6 3.75668 2.00434   3 
   5  -5  -6 13.4240 2.23048   1 
  -5   5   6 8.43797 2.05980   3 
  -5   5   6 12.0513 1.91748   1 
  -5   5   6 11.2060 1.80276   4 
   4  -5  -6 2276.63 42.0524   1 
   4  -5  -6 2314.59 42.5854   4 
  -4   5   6 2238.53 41.4830   1 
  -4   5   6 2272.68 41.5781   4 
  -4   5   6 2259.34 42.0217   3 
   3  -5  -6 670.294 14.4284   4 
   3  -5  -6 654.616 13.7933   1 
  -3   5   6 663.446 13.8047   3 
  -3   5   6 667.064 13.4604   4 
  -3   5   6 649.490 13.4433   1 
   2  -5  -6 698.931 15.0473   4 
   2  -5  -6 698.799 14.3490   1 
  -2   5   6 705.531 14.3292   3 
  -2   5   6 701.209 14.2238   1 
  -2   5   6 707.096 14.0537   4 
   1  -5  -6 82.7217 3.37369   1 
   1  -5  -6 86.1920 4.21978   4 
   1  -5  -6 80.4498 2.51395   2 
  -1   5   6 81.0397 3.21902   4 
  -1   5   6 76.8301 3.48999   1 
  -1   5   6 84.3386 3.48932   3 
   0  -5  -6 115.409 3.92854   1 
   0  -5  -6 111.132 4.78601   4 
   0  -5  -6 111.732 3.50902   2 
   0   5   6 110.550 4.29061   1 
   0   5   6 108.751 3.69524   3 
   0   5   6 98.1198 5.22147   4 
  -1  -5  -6 20.9572 2.81473   2 
  -1  -5  -6 19.2152 2.66460   4 
  -1  -5  -6 23.8274 2.43227   1 
   1   5   6 20.4916 2.43499   4 
   1   5   6 19.1093 2.43173   1 
  -2  -5  -6 18.4026 2.48462   1 
  -2  -5  -6 18.8611 4.59676   4 
  -2  -5  -6 27.4342 3.57134   2 
   2   5   6 24.6437 3.69128   1 
   2   5   6 21.7024 2.46234   4 
  -3  -5  -6 4.13114 1.84099   1 
  -3  -5  -6 6.10928 2.91278   2 
   3   5   6 1.14185 2.84938   1 
   3   5   6 5.74387 2.42216   4 
  -4  -5  -6 81.7139 4.28803   1 
   4   5   6 79.7257 5.14112   4 
  -9   6   6 9.98558 3.49266   4 
  -9   6   6 -3.1893 2.52714   4 
  -9   6   6 0.86206 2.78823   3 
  -9   6   6 1.51775 1.36442   2 
  -8   6   6 43.4473 4.46101   3 
  -8   6   6 36.1059 3.85418   4 
  -7   6   6 95.4783 6.05168   4 
  -7   6   6 103.877 5.15872   3 
   6  -6  -6 105.330 5.57466   4 
  -6   6   6 97.1654 4.19902   4 
  -6   6   6 103.582 4.25954   1 
  -6   6   6 109.785 4.92416   3 
   5  -6  -6 62.3030 3.88885   1 
   5  -6  -6 65.3137 4.80480   4 
  -5   6   6 67.5613 3.52981   1 
  -5   6   6 64.2543 3.43819   4 
  -5   6   6 73.0733 4.04757   3 
   4  -6  -6 1580.00 29.8511   1 
   4  -6  -6 1531.45 30.1323   4 
  -4   6   6 1544.87 28.9145   4 
  -4   6   6 1526.87 29.1120   1 
   3  -6  -6 10.3570 2.57459   4 
  -3   6   6 9.20647 2.04877   3 
  -3   6   6 6.32723 1.55683   4 
  -3   6   6 10.1493 1.84614   1 
   2  -6  -6 90.8547 4.79113   4 
   2  -6  -6 89.3611 4.43136   1 
  -2   6   6 90.4897 3.88268   1 
  -2   6   6 89.9570 3.89885   3 
   1  -6  -6 7.57020 2.29390   1 
   1  -6  -6 10.3075 2.51084   4 
  -1   6   6 6.99168 1.78358   3 
  -1   6   6 6.92381 1.64337   4 
  -1   6   6 11.0627 2.14360   1 
   0  -6  -6 4.68442 1.52323   2 
   0  -6  -6 2.33702 2.36581   4 
   0  -6  -6 2.34774 1.73795   1 
   0   6   6 5.44219 1.64049   4 
   0   6   6 3.16788 1.62323   3 
   0   6   6 -1.8277 1.97332   1 
  -1  -6  -6 24.4148 3.33737   2 
  -1  -6  -6 20.4246 2.73569   1 
   1   6   6 15.1853 2.79162   1 
   1   6   6 23.2310 2.56150   3 
   1   6   6 26.3720 3.00350   4 
  -2  -6  -6 46.7070 3.45361   1 
  -2  -6  -6 52.7024 4.54396   2 
   2   6   6 54.3997 3.96073   4 
   2   6   6 58.4179 4.93896   1 
  -3  -6  -6 15.8326 3.60365   2 
  -3  -6  -6 9.58673 2.34663   1 
   3   6   6 20.0129 3.10973   4 
  -8   7   6 -1.2500 2.22425   4 
  -8   7   6 0.96939 2.69888   3 
  -7   7   6 7.84721 2.20557   4 
  -7   7   6 12.7456 2.76108   3 
   6  -7  -6 -0.9394 3.25969   4 
  -6   7   6 -1.0238 2.17028   3 
  -6   7   6 -1.0350 1.76770   4 
   5  -7  -6 42.2441 5.01277   4 
   5  -7  -6 44.7971 4.05094   1 
  -5   7   6 47.6840 3.89954   3 
  -5   7   6 43.5340 3.13072   4 
   4  -7  -6 -0.5870 2.73500   4 
   4  -7  -6 -0.7399 2.16566   1 
  -4   7   6 3.48387 2.05821   3 
  -4   7   6 0.59437 1.52515   4 
  -4   7   6 -0.8157 1.76172   1 
   3  -7  -6 4.09172 2.92905   4 
   3  -7  -6 1.75652 1.97305   1 
  -3   7   6 1.77892 1.49107   4 
  -3   7   6 1.52046 1.89912   3 
  -3   7   6 2.95371 1.88849   1 
   2  -7  -6 1.32289 2.75755   4 
   2  -7  -6 -0.1596 1.83248   1 
  -2   7   6 1.02678 1.55109   4 
  -2   7   6 -3.3462 1.90545   1 
   1  -7  -6 -1.8473 1.68546   1 
  -1   7   6 -0.3624 1.72334   3 
  -1   7   6 0.59469 2.15103   1 
  -1   7   6 1.59836 1.58650   4 
   0  -7  -6 32.1334 3.34610   1 
   0  -7  -6 21.0521 2.82307   2 
   0  -7  -6 28.9097 2.70315   2 
   0   7   6 21.0735 3.12141   1 
   0   7   6 28.8962 3.08150   3 
   0   7   6 31.4373 3.25767   4 
  -1  -7  -6 26.0247 3.56340   2 
  -1  -7  -6 14.8198 2.49456   1 
  -1  -7  -6 15.3976 2.84962   2 
   1   7   6 12.0922 3.84059   1 
   1   7   6 17.3324 2.04381   3 
   1   7   6 25.1031 3.52401   4 
  -2  -7  -6 -0.5335 5.29474   2 
  -2  -7  -6 -0.6375 2.21665   1 
  -2  -7  -6 -1.0062 3.67824   2 
   2   7   6 3.48558 2.64419   4 
  -8   8   6 1.14646 2.31094   4 
  -8   8   6 6.54175 3.10900   3 
  -7   8   6 27.4039 3.44871   3 
  -7   8   6 26.3550 3.46340   4 
   6  -8  -6 4.87918 3.91502   4 
  -6   8   6 4.15609 1.82484   4 
  -6   8   6 0.45962 2.57207   3 
   5  -8  -6 75.9052 6.37691   4 
   5  -8  -6 104.430 5.57761   1 
  -5   8   6 106.497 4.13327   4 
  -5   8   6 93.3645 5.08730   3 
   4  -8  -6 3.67816 2.50151   1 
   4  -8  -6 4.87839 4.48156   4 
  -4   8   6 0.93896 2.32930   3 
  -4   8   6 4.37178 1.78918   4 
   3  -8  -6 4.41112 2.55968   1 
  -3   8   6 2.70287 2.33243   3 
  -3   8   6 4.34061 1.88187   4 
   2  -8  -6 -1.2750 2.34532   1 
  -2   8   6 -1.3419 1.81619   4 
  -2   8   6 -0.6892 2.11794   3 
   1  -8  -6 76.2002 4.74679   1 
  -1   8   6 74.2293 4.25085   4 
  -1   8   6 86.9592 4.30943   3 
   0  -8  -6 4.74524 2.61535   1 
   0   8   6 0.56170 2.42760   4 
   0   8   6 -1.0769 2.19849   3 
  -1  -8  -6 39.2632 4.51531   1 
   1   8   6 32.1332 4.70783   4 
  -6   9   6 12.7952 3.34653   3 
  -6   9   6 15.6432 2.36826   4 
  -5   9   6 28.7650 3.49713   4 
  -5   9   6 37.5779 3.85569   3 
   4  -9  -6 31.9317 3.98520   1 
  -4   9   6 41.2854 4.54882   3 
  -4   9   6 27.3028 3.54604   4 
   3  -9  -6 7.44975 3.22742   1 
  -3   9   6 0.87397 2.21668   4 
  -3   9   6 2.83340 2.69646   3 
   2  -9  -6 0.68903 3.09746   1 
  -2   9   6 -0.8869 2.55860   3 
  -2   9   6 -4.5589 2.29133   4 
   1  -9  -6 136.592 6.45198   1 
  -1   9   6 114.944 5.75390   4 
  -1   9   6 112.188 5.56337   3 
   1   9  -7 17.7836 3.97447   3 
  -1  -9   7 13.5689 3.80737   4 
  -1  -9   7 10.6949 2.83018   2 
   0   9  -7 1.48252 3.25666   3 
   0  -9   7 -0.8907 2.44883   2 
   0  -9   7 0.60847 2.55337   4 
  -1   9  -7 -0.8688 2.85392   1 
  -1   9  -7 13.0356 4.11221   1 
  -1   9  -7 5.29511 3.05902   3 
   1  -9   7 6.00894 2.68045   2 
  -2   9  -7 8.35286 3.98128   1 
  -2   9  -7 7.83667 3.21871   1 
  -2   9  -7 15.7278 3.27099   3 
   2  -9   7 7.82626 2.83354   2 
  -3   9  -7 25.0181 3.91212   1 
  -3   9  -7 17.5083 3.40786   3 
   3  -9   7 20.1823 3.33029   2 
  -4   9  -7 17.9661 3.41271   3 
  -4   9  -7 18.9102 4.01667   1 
   4  -9   7 18.4963 3.71044   2 
   3   8  -7 57.5183 6.49299   3 
  -3  -8   7 49.1723 4.49556   2 
   2   8  -7 31.3251 4.01698   3 
  -2  -8   7 27.6059 3.86518   2 
   1   8  -7 -0.0602 2.76284   3 
  -1  -8   7 -3.8863 2.14561   2 
  -1  -8   7 -1.1306 2.30071   4 
   0   8  -7 5.12349 2.84838   3 
   0  -8   7 1.15404 2.01711   4 
   0  -8   7 5.47571 2.27595   2 
  -1   8  -7 21.3679 2.93952   2 
  -1   8  -7 20.2246 3.14202   3 
  -1   8  -7 28.2775 3.85270   1 
   1  -8   7 16.9069 2.59026   2 
  -2   8  -7 9.74682 2.66368   1 
  -2   8  -7 7.36900 2.70949   3 
  -2   8  -7 10.5080 2.65934   2 
   2  -8   7 17.4589 2.99995   2 
  -3   8  -7 16.7554 2.89886   3 
  -3   8  -7 18.2539 3.15182   1 
   3  -8   7 12.3098 2.94481   2 
  -4   8  -7 5.97280 3.03996   1 
  -4   8  -7 11.6741 2.77275   3 
   4  -8   7 4.94700 2.93851   2 
  -5   8  -7 15.1803 3.71219   1 
  -5   8  -7 16.2046 3.01283   3 
   5  -8   7 13.9125 3.43206   2 
  -5  -7   7 42.4155 4.51739   2 
   4   7  -7 23.2708 4.26790   3 
  -4  -7   7 12.0855 2.61459   2 
   3   7  -7 5.55413 3.25816   3 
  -3  -7   7 12.0663 2.40478   2 
   2   7  -7 2.32786 2.71491   3 
  -2  -7   7 3.18378 2.33410   4 
  -2  -7   7 2.37952 1.87370   2 
   1   7  -7 424.812 10.0517   2 
   1   7  -7 442.746 11.0937   3 
  -1  -7   7 429.716 10.0533   2 
  -1  -7   7 429.417 9.68617   4 
   0   7  -7 0.69148 2.22947   3 
   0   7  -7 4.16738 1.97580   2 
   0  -7   7 1.93508 1.93776   3 
   0  -7   7 1.36527 1.80378   2 
   0  -7   7 3.78366 1.70530   4 
  -1   7  -7 28.5708 3.61265   3 
  -1   7  -7 27.5124 2.96729   2 
  -1   7  -7 28.8356 3.29172   1 
   1  -7   7 24.3462 3.09361   3 
   1  -7   7 30.6395 3.12703   2 
  -2   7  -7 2.99765 2.24300   3 
  -2   7  -7 3.43221 2.10010   1 
  -2   7  -7 2.55576 1.78254   2 
   2  -7   7 2.44966 2.01651   3 
   2  -7   7 4.06062 2.16966   2 
  -3   7  -7 1.25735 2.04997   3 
  -3   7  -7 3.88605 1.91593   2 
  -3   7  -7 3.36458 2.38392   1 
   3  -7   7 3.75533 2.17315   2 
   3  -7   7 5.77276 2.21308   3 
  -4   7  -7 3.48359 2.72739   1 
  -4   7  -7 2.36244 2.15089   3 
   4  -7   7 10.8225 2.65990   2 
  -5   7  -7 41.5343 4.88527   1 
  -5   7  -7 39.7844 3.91052   3 
   5  -7   7 36.9848 4.52476   2 
  -6   7  -7 58.8415 5.85791   1 
  -6   7  -7 69.3508 4.67473   3 
   6  -7   7 67.3991 5.75657   2 
   6   6  -7 33.5585 5.03262   3 
  -6  -6   7 28.1220 4.05215   2 
   5   6  -7 2.05975 3.71947   3 
  -5  -6   7 0.99405 2.09590   2 
   4   6  -7 46.7825 5.28365   3 
  -4  -6   7 46.7697 3.48516   2 
   3   6  -7 7.32640 2.67759   3 
   3   6  -7 -2.8835 2.07163   2 
  -3  -6   7 -0.5231 1.80730   3 
  -3  -6   7 0.57891 1.71617   2 
  -3  -6   7 0.90734 2.15933   4 
   2   6  -7 19.4002 3.03231   3 
   2   6  -7 12.7638 2.16968   2 
  -2  -6   7 12.7633 2.19550   4 
  -2  -6   7 16.1925 2.19938   3 
  -2  -6   7 13.9223 2.01309   2 
   1   6  -7 987.854 20.1232   3 
   1   6  -7 982.458 19.2273   2 
  -1  -6   7 968.281 19.0413   3 
  -1  -6   7 1017.68 19.0755   4 
  -1  -6   7 920.063 19.7942   2 
   0   6  -7 76.5636 3.34501   2 
   0   6  -7 74.5868 4.11854   3 
   0   6  -7 73.7056 3.25713   1 
   0  -6   7 73.8498 3.35666   4 
   0  -6   7 77.2682 3.74714   2 
   0  -6   7 78.7496 3.48298   3 
  -1   6  -7 5.60369 1.81818   1 
  -1   6  -7 2.80003 1.99326   3 
  -1   6  -7 3.53007 1.74119   2 
   1  -6   7 6.05580 1.70125   3 
   1  -6   7 4.09809 1.63180   2 
   1  -6   7 2.09573 2.12238   1 
  -2   6  -7 1.93463 1.77790   1 
  -2   6  -7 4.41011 1.56497   2 
  -2   6  -7 1.81545 2.09967   3 
   2  -6   7 3.01359 2.37475   1 
   2  -6   7 -1.5964 1.50631   3 
  -3   6  -7 45.8379 3.59899   3 
  -3   6  -7 44.8239 3.25896   2 
   3  -6   7 47.1737 3.26987   3 
   3  -6   7 57.0745 3.70378   2 
   3  -6   7 49.5955 4.65907   1 
  -4   6  -7 -0.4619 1.76567   3 
  -4   6  -7 3.25800 1.93731   2 
  -4   6  -7 -1.8937 2.10760   1 
   4  -6   7 -3.3553 1.78594   3 
   4  -6   7 3.88393 3.02181   1 
   4  -6   7 -0.9909 2.07089   2 
  -5   6  -7 145.541 5.32381   3 
  -5   6  -7 145.758 6.20106   1 
   5  -6   7 128.971 5.26033   3 
   5  -6   7 150.693 6.07738   2 
  -6   6  -7 26.3619 3.76316   3 
  -6   6  -7 37.8974 4.88730   1 
   6  -6   7 23.6801 3.19756   3 
   6  -6   7 36.2398 4.95276   2 
   7   5  -7 9.81935 5.03099   3 
  -7  -5   7 1.93033 2.40802   2 
   6   5  -7 15.1688 3.98625   3 
  -6  -5   7 8.86729 2.12642   2 
   5   5  -7 218.934 8.07407   3 
  -5  -5   7 219.974 6.59298   3 
   4   5  -7 3.64211 2.12638   2 
   4   5  -7 7.96702 2.85385   3 
  -4  -5   7 9.05372 2.47653   4 
  -4  -5   7 5.16024 2.00157   3 
  -4  -5   7 6.04896 1.71218   2 
   3   5  -7 121.866 4.61164   2 
   3   5  -7 109.067 5.76798   3 
  -3  -5   7 117.595 4.91924   4 
  -3  -5   7 118.415 4.23800   2 
  -3  -5   7 125.182 4.48404   3 
   2   5  -7 -2.0330 1.86481   3 
   2   5  -7 -1.3667 1.44913   2 
  -2  -5   7 -1.2716 1.43971   3 
  -2  -5   7 -1.6849 1.29019   2 
  -2  -5   7 0.30966 1.80732   4 
   1   5  -7 57.3078 3.65849   3 
   1   5  -7 62.8846 2.99123   2 
  -1  -5   7 66.0716 3.48342   4 
  -1  -5   7 56.2615 2.99337   3 
  -1  -5   7 62.7512 3.00692   2 
   0   5  -7 34.1968 3.02453   3 
   0   5  -7 32.7281 2.33348   2 
   0   5  -7 27.7110 2.32525   1 
   0  -5   7 28.8824 2.37735   3 
   0  -5   7 33.5106 3.18608   4 
   0  -5   7 29.3747 2.81224   1 
   0  -5   7 33.7822 2.50127   2 
   0  -5   7 33.2790 2.63874   4 
  -1   5  -7 4.05572 1.64714   3 
  -1   5  -7 3.62839 1.48971   1 
  -1   5  -7 0.01173 1.20484   2 
   1  -5   7 5.20247 1.85542   1 
   1  -5   7 2.97875 1.31448   3 
   1  -5   7 3.64310 1.50508   2 
  -2   5  -7 -0.3157 1.22459   2 
  -2   5  -7 -0.5352 1.57536   3 
  -2   5  -7 -1.0937 1.55695   1 
   2  -5   7 0.96031 1.28886   3 
   2  -5   7 -1.0620 1.93301   1 
   2  -5   7 3.10433 1.68109   2 
  -3   5  -7 10.8623 1.78828   2 
  -3   5  -7 12.1167 2.16748   1 
  -3   5  -7 8.04491 1.82916   3 
   3  -5   7 10.7621 1.71390   3 
  -4   5  -7 1.53807 2.08672   2 
  -4   5  -7 1.96915 1.62348   3 
  -4   5  -7 3.27427 1.95591   1 
   4  -5   7 -3.8567 1.77421   2 
   4  -5   7 1.07787 2.51549   1 
   4  -5   7 0.35172 1.51229   3 
  -5   5  -7 14.1887 2.11719   3 
  -5   5  -7 17.4017 2.76760   1 
   5  -5   7 10.2923 2.03147   3 
   5  -5   7 14.4212 2.64320   2 
  -6   5  -7 15.5346 3.15756   1 
  -6   5  -7 26.1414 3.34642   3 
   6  -5   7 16.6495 2.65664   3 
   6  -5   7 15.9874 3.03974   2 
  -7   5  -7 2.61152 3.26075   1 
   7  -5   7 8.47365 3.49969   2 
   7   4  -7 94.2842 7.10634   3 
   6   4  -7 49.2342 5.36455   3 
  -6  -4   7 43.6303 3.35172   2 
  -6  -4   7 42.8432 3.88879   3 
   5   4  -7 19.1612 3.09770   3 
  -5  -4   7 22.2886 3.18016   3 
  -5  -4   7 16.6381 2.64579   4 
  -5  -4   7 17.1311 2.48341   2 
   4   4  -7 61.0941 4.35963   3 
   4   4  -7 54.6063 3.40700   2 
  -4  -4   7 56.0418 3.03051   2 
  -4  -4   7 57.1168 3.41432   3 
  -4  -4   7 57.2800 4.12174   4 
   3   4  -7 71.6420 3.30944   2 
   3   4  -7 72.9362 4.24071   3 
  -3  -4   7 72.8312 4.10761   4 
  -3  -4   7 80.3376 3.46658   3 
  -3  -4   7 75.6794 3.15689   2 
   2   4  -7 1.16460 1.73601   3 
   2   4  -7 -0.5554 1.04975   2 
  -2  -4   7 0.29809 1.69887   4 
  -2  -4   7 0.46166 1.26691   3 
  -2  -4   7 -2.1608 1.08433   2 
   1   4  -7 104.737 3.13776   1 
   1   4  -7 111.491 4.32015   3 
  -1  -4   7 105.574 4.38647   4 
  -1  -4   7 105.511 3.51448   1 
  -1  -4   7 103.853 3.65085   3 
  -1  -4   7 106.218 4.06432   4 
  -1  -4   7 102.027 3.56947   2 
   0   4  -7 -0.4067 1.04816   2 
   0   4  -7 2.54515 1.11481   1 
   0   4  -7 1.29818 1.47094   3 
   0  -4   7 1.08784 1.43851   1 
   0  -4   7 0.16058 1.20572   3 
   0  -4   7 -1.6448 1.44671   4 
   0  -4   7 0.47296 1.05741   2 
   0  -4   7 0.80745 1.38471   4 
  -1   4  -7 -0.2913 1.24561   1 
  -1   4  -7 1.81154 1.52140   3 
  -1   4  -7 0.15546 1.13447   2 
   1  -4   7 2.95048 1.36912   4 
   1  -4   7 0.81872 1.25416   2 
   1  -4   7 0.45983 1.49838   1 
   1  -4   7 2.44585 1.20490   3 
  -2   4  -7 26.8553 2.28237   2 
  -2   4  -7 24.3898 2.47312   1 
  -2   4  -7 23.0239 2.57899   3 
   2  -4   7 23.2488 2.45339   2 
   2  -4   7 24.3957 2.06628   3 
   2  -4   7 28.0458 3.17355   1 
  -3   4  -7 0.83854 1.52478   2 
  -3   4  -7 2.18635 1.49395   3 
  -3   4  -7 -0.5204 1.46627   1 
   3  -4   7 -2.8922 1.92986   1 
   3  -4   7 1.64874 1.65313   2 
   3  -4   7 0.07336 1.14649   3 
  -4   4  -7 11.3583 2.18619   1 
  -4   4  -7 14.2529 2.03225   3 
  -4   4  -7 11.6221 2.11767   2 
   4  -4   7 12.9779 2.62982   1 
   4  -4   7 11.1970 1.60521   3 
   4  -4   7 14.1485 2.45057   2 
  -5   4  -7 4.78953 2.22103   1 
  -5   4  -7 2.06145 1.77949   3 
   5  -4   7 6.87960 2.41690   2 
   5  -4   7 3.77944 1.55463   3 
  -6   4  -7 26.7808 3.86995   1 
   6  -4   7 19.5616 3.10660   2 
  -7   4  -7 15.1825 3.23259   1 
   7  -4   7 19.9137 3.59311   2 
   8   3  -7 24.4293 4.57701   3 
  -8  -3   7 23.2752 3.13145   2 
   7   3  -7 5.66445 3.50564   3 
  -7  -3   7 3.85653 2.44552   3 
  -7  -3   7 5.65910 1.99638   2 
   6   3  -7 6.95362 3.00934   3 
  -6  -3   7 7.54540 2.26919   3 
   5   3  -7 2.53544 2.30375   3 
  -5  -3   7 2.38790 1.31254   2 
  -5  -3   7 2.46931 2.21930   4 
  -5  -3   7 5.04032 1.88965   3 
   4   3  -7 13.3237 2.44866   3 
   4   3  -7 17.2820 2.26514   2 
  -4  -3   7 12.9200 1.97798   3 
  -4  -3   7 15.9617 2.41894   4 
  -4  -3   7 14.6093 1.99361   2 
   3   3  -7 6.20229 1.90753   3 
  -3  -3   7 0.86691 1.03505   2 
  -3  -3   7 3.92788 1.76903   4 
  -3  -3   7 4.43491 1.48320   3 
   2   3  -7 2.32220 1.07699   2 
   2   3  -7 -0.2671 1.52791   3 
   2   3  -7 2.81250 0.84987   1 
  -2  -3   7 3.15025 1.27512   3 
  -2  -3   7 1.34943 0.98487   2 
  -2  -3   7 3.15643 1.73269   4 
  -2  -3   7 1.97661 1.56284   4 
   1   3  -7 21.4336 1.72020   2 
   1   3  -7 20.3809 2.45986   3 
   1   3  -7 19.4121 1.65749   1 
  -1  -3   7 19.3536 2.00330   3 
  -1  -3   7 18.4749 2.25453   4 
  -1  -3   7 19.8065 1.82010   2 
  -1  -3   7 19.0211 2.61929   4 
  -1  -3   7 20.9641 1.91352   1 
   0   3  -7 83.2728 3.51979   3 
   0   3  -7 82.6694 2.91443   2 
   0   3  -7 81.2243 2.93872   1 
   0  -3   7 78.0722 3.38114   4 
   0  -3   7 81.5478 3.13413   2 
   0  -3   7 81.9502 3.29077   1 
   0  -3   7 80.3256 3.00139   3 
  -1   3  -7 175.521 5.10537   3 
  -1   3  -7 170.781 4.66441   2 
  -1   3  -7 173.553 4.83543   1 
   1  -3   7 163.731 4.45128   4 
   1  -3   7 176.090 4.50244   3 
   1  -3   7 176.287 5.24093   1 
   1  -3   7 172.203 4.96716   2 
  -2   3  -7 2.68009 1.36088   1 
  -2   3  -7 1.84811 1.22095   2 
  -2   3  -7 1.71932 1.38495   3 
   2  -3   7 3.73070 1.12479   3 
   2  -3   7 3.31752 1.31734   2 
   2  -3   7 3.15788 1.71709   1 
  -3   3  -7 -1.0456 1.29716   2 
  -3   3  -7 0.45671 1.41129   1 
  -3   3  -7 -0.4742 1.35109   3 
   3  -3   7 1.26223 1.02697   3 
   3  -3   7 1.12396 2.02346   1 
   3  -3   7 2.99972 1.62446   2 
  -4   3  -7 13.2480 1.93401   2 
  -4   3  -7 13.1963 2.14892   1 
  -4   3  -7 12.9799 1.83469   3 
   4  -3   7 12.4231 1.98374   2 
   4  -3   7 12.6082 2.53153   1 
   4  -3   7 9.75969 1.71161   3 
  -5   3  -7 10.2494 2.19723   1 
   5  -3   7 11.4267 2.79326   2 
  -6   3  -7 0.99923 2.28366   1 
   6  -3   7 3.12054 2.77360   2 
  -7   3  -7 12.1956 2.92317   1 
   7  -3   7 5.33657 3.61450   2 
  -8  -2   7 -2.4656 1.81628   2 
  -8  -2   7 3.53576 3.08876   3 
   7   2  -7 23.1460 3.58568   3 
  -7  -2   7 22.4967 2.96388   3 
  -7  -2   7 21.6815 2.86716   2 
   6   2  -7 41.5966 4.50721   3 
  -6  -2   7 44.8683 3.69470   3 
  -6  -2   7 42.2490 4.22482   4 
  -6  -2   7 45.4420 2.88603   2 
   5   2  -7 80.3438 4.57237   3 
  -5  -2   7 76.1320 3.17058   2 
  -5  -2   7 85.2287 4.09629   3 
  -5  -2   7 78.0017 4.35531   4 
   4   2  -7 1292.62 24.6114   2 
   4   2  -7 1290.38 25.5526   3 
  -4  -2   7 1311.95 25.3989   4 
  -4  -2   7 1295.26 24.3609   2 
  -4  -2   7 1313.90 25.0118   3 
   3   2  -7 75.0537 2.88237   2 
   3   2  -7 78.5772 3.81273   3 
   3   2  -7 77.0945 2.35983   1 
  -3  -2   7 74.0727 3.42224   3 
  -3  -2   7 75.4379 2.54287   1 
  -3  -2   7 80.6664 3.83974   4 
  -3  -2   7 76.6526 2.83034   2 
  -3  -2   7 76.2149 3.97686   4 
   2   2  -7 891.491 18.0010   3 
   2   2  -7 889.909 16.5744   1 
   2   2  -7 897.386 17.0031   2 
  -2  -2   7 888.707 17.9358   4 
  -2  -2   7 888.848 17.0861   2 
  -2  -2   7 898.043 16.8788   1 
  -2  -2   7 899.558 17.5202   3 
   1   2  -7 34.0438 2.62013   3 
   1   2  -7 36.6089 1.88604   1 
   1   2  -7 36.0135 1.91670   2 
  -1  -2   7 37.9982 2.06796   2 
  -1  -2   7 36.3951 2.13787   1 
  -1  -2   7 36.1382 2.34381   3 
  -1  -2   7 38.8777 2.65247   4 
   0   2  -7 143.237 3.88894   2 
   0   2  -7 142.691 3.97761   1 
   0   2  -7 139.048 4.50353   3 
   0  -2   7 137.711 4.16896   4 
   0  -2   7 137.725 3.97788   3 
   0  -2   7 143.429 4.14221   2 
  -1   2  -7 80.3743 3.09405   1 
  -1   2  -7 78.9455 3.17974   4 
  -1   2  -7 79.3366 3.32487   3 
  -1   2  -7 82.6315 3.03424   2 
   1  -2   7 78.4825 3.26836   2 
   1  -2   7 81.6388 3.41847   1 
   1  -2   7 80.9356 2.87048   4 
   1  -2   7 76.0739 3.14222   3 
  -2   2  -7 46.1486 2.66672   1 
  -2   2  -7 44.8224 2.62396   3 
  -2   2  -7 41.9815 2.58192   4 
  -2   2  -7 40.0341 2.57580   2 
   2  -2   7 38.1613 2.73725   2 
   2  -2   7 39.3259 3.00518   1 
   2  -2   7 42.6080 2.03542   3 
   2  -2   7 42.9624 1.96358   4 
  -3   2  -7 873.240 16.5945   3 
  -3   2  -7 843.209 17.2451   1 
  -3   2  -7 843.941 16.4954   4 
   3  -2   7 857.177 17.4232   2 
   3  -2   7 859.447 15.8074   3 
   3  -2   7 830.606 17.6935   1 
   3  -2   7 840.009 15.7034   4 
  -4   2  -7 135.315 5.04265   2 
  -4   2  -7 145.896 5.07305   1 
   4  -2   7 140.842 5.88762   1 
  -5   2  -7 18.7102 2.54296   1 
   5  -2   7 14.5496 2.63534   2 
  -6   2  -7 -1.7161 2.04581   1 
  -7   2  -7 -2.0856 2.69272   1 
   7  -2   7 5.14793 3.43511   2 
  -9  -1   7 -0.7801 2.30105   2 
  -8  -1   7 11.5957 3.05063   3 
  -8  -1   7 12.5307 2.27621   2 
  -7  -1   7 19.5219 3.19619   4 
  -7  -1   7 28.4326 4.01996   3 
  -7  -1   7 19.3811 2.58815   2 
   6   1  -7 1310.27 26.0524   3 
  -6  -1   7 1271.60 25.4628   3 
  -6  -1   7 1325.03 24.7133   2 
  -6  -1   7 1308.29 26.6101   4 
  -6  -1   7 1300.54 25.9194   4 
   5   1  -7 49.1117 3.76126   3 
   5   1  -7 39.0489 2.78379   2 
  -5  -1   7 46.9315 2.41124   2 
  -5  -1   7 45.1182 3.85103   4 
  -5  -1   7 48.1678 3.44945   3 
  -5  -1   7 48.1923 3.76394   4 
   4   1  -7 1176.24 23.2718   3 
   4   1  -7 1183.11 22.1736   2 
   4   1  -7 1159.37 21.5421   1 
  -4  -1   7 1174.79 22.8531   3 
  -4  -1   7 1153.40 21.8950   2 
  -4  -1   7 1182.72 23.3711   4 
  -4  -1   7 1173.88 23.1406   4 
  -4  -1   7 1180.14 21.5322   1 
   3   1  -7 93.2794 3.00671   2 
   3   1  -7 90.9724 2.73436   1 
   3   1  -7 88.7527 3.87357   3 
  -3  -1   7 91.5695 2.84984   1 
  -3  -1   7 97.5378 4.09836   4 
  -3  -1   7 87.8696 3.66711   3 
  -3  -1   7 91.4151 2.99883   2 
   2   1  -7 231.506 5.10500   1 
   2   1  -7 228.792 5.23911   2 
   2   1  -7 213.695 6.09606   3 
  -2  -1   7 227.756 5.35007   2 
  -2  -1   7 230.040 6.19845   4 
  -2  -1   7 225.415 5.90521   3 
  -2  -1   7 226.203 5.30880   1 
   1   1  -7 98.1192 3.64602   3 
   1   1  -7 91.4016 2.82894   2 
   1   1  -7 94.2615 2.87107   1 
  -1  -1   7 82.0647 3.84558   3 
  -1  -1   7 93.4460 3.48900   4 
  -1  -1   7 86.5735 2.98932   2 
  -1  -1   7 91.3599 3.09979   1 
   0   1  -7 137.993 3.82186   2 
   0   1  -7 142.625 3.94821   1 
   0   1  -7 143.301 4.43889   4 
   0   1  -7 142.413 4.35324   3 
   0  -1   7 141.604 4.07102   2 
   0  -1   7 135.631 3.99181   3 
   0  -1   7 135.832 4.05093   4 
   0  -1   7 142.615 4.25295   1 
  -1   1  -7 53.0401 2.46739   2 
  -1   1  -7 52.6024 2.84768   4 
  -1   1  -7 48.3536 2.45313   1 
  -1   1  -7 47.8488 2.63276   3 
   1  -1   7 49.3488 2.25187   3 
   1  -1   7 53.5702 2.86579   1 
   1  -1   7 49.6234 2.29391   4 
   1  -1   7 46.5159 2.57286   2 
  -2   1  -7 96.0817 3.60116   2 
  -2   1  -7 97.1373 3.69139   4 
  -2   1  -7 102.724 3.64209   1 
  -2   1  -7 100.181 3.47007   3 
   2  -1   7 98.9594 2.89024   3 
   2  -1   7 96.4171 3.80178   2 
   2  -1   7 98.1989 2.93666   4 
   2  -1   7 104.078 4.13957   1 
  -3   1  -7 484.501 10.8104   2 
  -3   1  -7 479.915 10.8646   1 
  -3   1  -7 496.128 10.6358   4 
   3  -1   7 483.177 11.4060   1 
   3  -1   7 499.069 11.1443   2 
   3  -1   7 496.878 9.69571   4 
  -4   1  -7 37.0385 2.99189   1 
  -4   1  -7 38.2037 3.05521   4 
  -4   1  -7 33.8891 3.30708   2 
   4  -1   7 41.3120 3.49526   2 
   4  -1   7 37.5354 4.18287   1 
   4  -1   7 37.8455 2.27189   4 
  -5   1  -7 2.42254 1.98336   1 
  -5   1  -7 1.22910 1.97363   4 
   5  -1   7 4.72765 1.57204   4 
   5  -1   7 4.66243 2.20890   2 
  -6   1  -7 1.59975 2.52387   4 
  -6   1  -7 2.20263 2.28253   1 
   6  -1   7 6.45485 2.89844   2 
   6  -1   7 9.04318 2.25377   4 
  -7   1  -7 14.2721 3.11004   1 
   7  -1   7 9.01022 3.58070   2 
   7  -1   7 16.5907 3.29975   4 
  -9   0   7 28.5896 3.49784   2 
  -9   0   7 18.4607 4.25493   4 
  -8   0   7 231.495 8.62282   4 
  -8   0   7 231.095 6.51121   2 
  -8   0   7 222.171 7.48678   2 
  -8   0   7 231.814 5.60784   1 
  -8   0   7 240.218 6.49575   1 
  -8   0   7 218.012 7.74269   3 
  -7   0   7 66.4578 5.00829   4 
  -7   0   7 67.8895 2.69094   1 
  -7   0   7 71.2039 4.85463   4 
  -7   0   7 68.7906 4.65822   3 
  -6   0   7 2725.93 49.9476   4 
  -6   0   7 2702.82 49.6914   3 
  -6   0   7 2510.55 48.0733   1 
  -6   0   7 2745.73 48.4827   2 
  -6   0   7 2736.69 50.3379   4 
   5   0  -7 42.5477 2.52516   2 
   5   0  -7 38.8888 3.44997   3 
   5   0  -7 36.9727 2.44151   1 
  -5   0   7 39.5605 1.97977   1 
  -5   0   7 41.7628 3.59897   4 
  -5   0   7 42.9968 2.17815   2 
  -5   0   7 39.6120 3.56550   4 
  -5   0   7 42.3495 3.46590   3 
   4   0  -7 268.203 6.21628   2 
   4   0  -7 269.575 6.07331   1 
   4   0  -7 267.378 7.33631   3 
  -4   0   7 269.746 7.21840   3 
  -4   0   7 265.590 7.38261   4 
  -4   0   7 272.757 6.04848   2 
  -4   0   7 273.789 5.96495   1 
   3   0  -7 27.7729 2.65837   3 
   3   0  -7 31.0078 1.75797   1 
   3   0  -7 29.4213 1.69008   2 
  -3   0   7 30.5635 1.75356   2 
  -3   0   7 26.8275 2.69347   4 
  -3   0   7 27.1907 2.61665   3 
  -3   0   7 28.0251 1.72331   1 
   2   0  -7 94.7358 2.76903   2 
   2   0  -7 96.1774 2.86700   1 
   2   0  -7 89.3591 3.73939   4 
   2   0  -7 87.9103 3.72429   3 
  -2   0   7 92.7895 2.87933   2 
  -2   0   7 97.7463 3.06791   1 
  -2   0   7 91.4442 3.68109   4 
  -2   0   7 97.7949 3.66584   3 
   1   0  -7 473.319 10.4161   3 
   1   0  -7 481.224 9.57355   2 
   1   0  -7 482.489 9.74305   1 
  -1   0   7 485.182 10.2444   3 
  -1   0   7 482.552 10.2265   4 
  -1   0   7 472.164 9.77730   2 
   0   0  -7 62.3235 3.68601   4 
   0   0  -7 68.3540 2.64607   2 
   0   0  -7 69.0615 2.63048   1 
   0   0  -7 68.2189 3.06180   3 
   0   0   7 67.9583 2.90864   1 
   0   0   7 68.3329 2.79171   3 
   0   0   7 70.8458 2.77578   4 
   0   0   7 65.5730 2.69919   2 
  -1   0  -7 22.8969 2.16890   3 
  -1   0  -7 19.5208 1.84885   1 
  -1   0  -7 26.0559 2.06712   2 
   1   0   7 26.0641 2.39437   1 
   1   0   7 22.6831 1.84941   4 
   1   0   7 25.6230 1.94831   3 
   1   0   7 25.6823 2.24499   2 
  -2   0  -7 6.75811 1.49204   2 
  -2   0  -7 6.64095 1.36416   1 
  -2   0  -7 9.18201 1.71981   4 
   2   0   7 9.10687 1.24052   4 
   2   0   7 11.4277 1.94945   1 
   2   0   7 9.83869 1.76463   2 
  -3   0  -7 10.8075 1.92344   2 
  -3   0  -7 12.1996 1.79185   1 
  -3   0  -7 13.2115 1.95996   4 
   3   0   7 13.0810 2.50092   1 
   3   0   7 14.4212 2.10758   2 
   3   0   7 13.5874 1.45819   4 
  -4   0  -7 3.40259 1.58694   1 
  -4   0  -7 7.13834 2.06236   4 
  -4   0  -7 9.73997 2.21793   2 
   4   0   7 7.13872 2.55483   1 
   4   0   7 3.41156 2.09239   2 
   4   0   7 5.90324 1.50283   4 
  -5   0  -7 4.94990 2.24518   4 
  -5   0  -7 1.71688 1.90633   1 
   5   0   7 4.82179 2.40674   2 
   5   0   7 6.18132 1.70224   4 
  -6   0  -7 2.67130 2.87098   4 
  -6   0  -7 -1.6494 2.06581   1 
   6   0   7 1.50897 3.75715   4 
   6   0   7 -2.8051 2.70423   2 
  -9   1   7 7.86577 3.51458   4 
  -9   1   7 9.82100 2.19170   2 
  -9   1   7 9.84600 2.51712   1 
  -9   1   7 13.4287 2.10254   1 
  -8   1   7 1.61620 1.64890   2 
  -8   1   7 2.35168 2.28152   2 
  -8   1   7 1.89387 1.55610   1 
  -8   1   7 -2.9494 2.68996   4 
  -8   1   7 1.43584 2.96846   3 
  -7   1   7 -2.7945 2.28310   3 
  -7   1   7 -1.5506 2.27473   4 
  -7   1   7 0.61519 1.29359   2 
  -7   1   7 4.42234 1.25819   1 
  -7   1   7 0.57995 2.46941   4 
  -6   1   7 2.97376 2.32706   4 
  -6   1   7 8.78311 2.33734   4 
  -6   1   7 7.92994 1.29872   2 
  -6   1   7 3.70130 2.19450   3 
  -6   1   7 8.82202 1.33359   1 
   5  -1  -7 4.74952 1.46549   1 
  -5   1   7 4.95281 1.09774   1 
  -5   1   7 3.47735 1.85333   4 
  -5   1   7 4.82963 1.07715   2 
  -5   1   7 4.77415 1.99929   3 
   4  -1  -7 19.2563 1.76741   1 
   4  -1  -7 22.6383 1.65764   2 
  -4   1   7 21.5412 2.37941   3 
  -4   1   7 18.5563 1.49546   2 
  -4   1   7 18.9527 1.61155   1 
  -4   1   7 20.0440 2.70402   4 
   3  -1  -7 231.508 5.10534   2 
   3  -1  -7 238.715 5.45758   1 
   3  -1  -7 241.208 6.57903   4 
  -3   1   7 227.563 5.16188   2 
  -3   1   7 225.716 6.30065   3 
  -3   1   7 214.003 5.61820   1 
  -3   1   7 222.958 6.20048   4 
   2  -1  -7 55.4108 3.00718   3 
   2  -1  -7 53.9768 1.96508   2 
   2  -1  -7 53.9849 2.23652   1 
   2  -1  -7 49.3018 3.09022   4 
  -2   1   7 53.5311 3.03054   3 
  -2   1   7 53.0407 2.15068   2 
  -2   1   7 51.0005 2.82526   4 
  -2   1   7 52.2089 2.36326   1 
   1  -1  -7 19.2753 1.48075   2 
   1  -1  -7 16.9207 2.19948   3 
   1  -1  -7 18.3387 1.56173   1 
   1  -1  -7 18.8764 2.39716   4 
  -1   1   7 17.4017 1.66028   2 
  -1   1   7 16.5180 1.99603   4 
  -1   1   7 20.0993 1.82467   1 
  -1   1   7 18.7636 2.26810   3 
   0  -1  -7 229.743 5.97263   2 
   0  -1  -7 237.296 6.26531   4 
   0  -1  -7 239.030 5.70660   1 
   0   1   7 233.333 5.71231   2 
   0   1   7 231.650 5.96185   1 
   0   1   7 230.387 5.67254   4 
   0   1   7 229.201 5.75921   3 
  -1  -1  -7 -0.7511 0.91101   1 
  -1  -1  -7 2.39257 1.46707   4 
  -1  -1  -7 -0.8633 1.00701   2 
   1   1   7 -0.0770 1.05879   2 
   1   1   7 0.63955 0.96049   4 
   1   1   7 1.55400 1.28067   1 
  -2  -1  -7 156.196 4.90016   4 
  -2  -1  -7 150.154 4.69853   2 
  -2  -1  -7 143.423 4.50927   1 
   2   1   7 148.348 4.08054   4 
   2   1   7 145.269 4.80403   2 
   2   1   7 144.698 5.02129   1 
  -3  -1  -7 2.85677 1.58052   1 
  -3  -1  -7 1.20809 1.90247   2 
  -3  -1  -7 8.40171 1.97164   4 
   3   1   7 5.85748 2.12142   1 
   3   1   7 5.22562 1.32227   4 
   3   1   7 4.12518 1.87597   2 
  -4  -1  -7 29.8418 3.02491   1 
  -4  -1  -7 31.8659 3.79349   2 
  -4  -1  -7 33.5070 3.57882   4 
   4   1   7 36.1195 2.76489   4 
   4   1   7 42.9048 4.58802   1 
   4   1   7 38.4403 3.75835   2 
  -5  -1  -7 0.69025 2.56820   4 
  -5  -1  -7 2.09645 2.08273   1 
   5   1   7 -0.6380 2.59555   2 
   5   1   7 2.26028 1.97818   4 
  -6  -1  -7 9.35910 2.65070   1 
   6   1   7 16.7802 3.07374   4 
   6   1   7 11.1163 3.39349   2 
  -9   2   7 17.6311 3.87332   4 
  -9   2   7 25.3088 2.97353   2 
  -9   2   7 21.5747 3.10805   1 
  -9   2   7 21.3941 3.31384   3 
  -9   2   7 20.4952 2.87522   1 
  -9   2   7 17.4498 3.27085   2 
  -8   2   7 62.6868 3.03213   2 
  -8   2   7 43.1618 5.16867   3 
  -8   2   7 63.0576 4.98439   4 
  -8   2   7 57.2087 5.22617   4 
  -8   2   7 54.0611 3.79294   2 
  -8   2   7 54.8603 3.12355   1 
  -7   2   7 2.47820 2.55830   3 
  -7   2   7 -0.6261 2.15357   4 
  -7   2   7 0.37188 1.32998   1 
  -7   2   7 0.51535 2.41171   4 
  -7   2   7 -1.0010 1.11749   2 
  -7   2   7 -1.3037 1.55654   2 
   6  -2  -7 95.5305 3.95890   1 
  -6   2   7 92.1942 2.95490   2 
  -6   2   7 90.7219 3.24892   1 
  -6   2   7 96.0728 4.65823   4 
  -6   2   7 93.4579 4.93610   3 
   5  -2  -7 5.47032 1.52271   1 
  -5   2   7 4.27295 0.93856   2 
  -5   2   7 4.15225 1.97788   3 
  -5   2   7 1.74507 1.71214   4 
  -5   2   7 4.26594 1.16362   1 
   4  -2  -7 44.1553 2.41366   1 
   4  -2  -7 42.6839 1.95012   2 
  -4   2   7 45.1699 2.21952   1 
  -4   2   7 46.9671 3.06254   4 
  -4   2   7 48.6569 3.43002   3 
  -4   2   7 45.5386 1.88297   2 
   3  -2  -7 214.613 5.28353   1 
   3  -2  -7 211.886 6.22690   4 
   3  -2  -7 206.564 4.59523   2 
  -3   2   7 202.007 5.78926   4 
  -3   2   7 203.870 4.69680   2 
  -3   2   7 212.664 5.21142   1 
  -3   2   7 207.695 6.09328   3 
   2  -2  -7 7.58314 1.12934   1 
   2  -2  -7 8.02330 0.95343   2 
   2  -2  -7 7.10743 1.74279   4 
  -2   2   7 8.51277 1.57982   4 
  -2   2   7 7.45072 1.70614   3 
  -2   2   7 5.21413 1.21506   1 
  -2   2   7 6.25207 1.01923   2 
   1  -2  -7 245.211 5.36198   2 
   1  -2  -7 249.914 6.63870   4 
   1  -2  -7 243.763 5.82093   1 
  -1   2   7 234.100 5.98024   1 
  -1   2   7 242.758 6.42403   3 
  -1   2   7 241.436 6.01803   4 
  -1   2   7 239.246 5.61948   2 
   0  -2  -7 130.652 3.70891   2 
   0  -2  -7 132.799 3.90454   1 
   0  -2  -7 133.121 4.66427   4 
   0   2   7 128.447 3.86016   4 
   0   2   7 122.996 3.82883   2 
   0   2   7 125.983 4.21535   1 
   0   2   7 128.727 4.15456   3 
  -1  -2  -7 88.4806 3.91682   4 
  -1  -2  -7 81.6818 3.22048   2 
  -1  -2  -7 86.7824 3.26926   1 
   1   2   7 80.6337 3.39903   2 
   1   2   7 82.2607 2.99881   4 
   1   2   7 78.3609 3.16788   3 
   1   2   7 78.8651 3.66003   1 
  -2  -2  -7 -1.9576 1.69550   4 
  -2  -2  -7 1.32075 1.19510   1 
  -2  -2  -7 -0.3844 1.55224   2 
   2   2   7 0.99545 1.77014   1 
   2   2   7 1.82552 1.56895   2 
   2   2   7 2.11341 1.23858   4 
  -3  -2  -7 6.01678 2.03501   2 
  -3  -2  -7 0.75052 1.98443   4 
  -3  -2  -7 4.99740 1.56287   1 
   3   2   7 -0.5614 1.91422   2 
   3   2   7 4.37802 2.36230   1 
   3   2   7 3.84036 1.59622   4 
  -4  -2  -7 43.4331 3.34419   1 
  -4  -2  -7 44.0027 4.26464   2 
  -4  -2  -7 39.9725 4.15032   4 
   4   2   7 34.4969 4.71003   1 
   4   2   7 41.1454 3.31226   4 
   4   2   7 44.2870 4.15421   2 
  -5  -2  -7 43.7478 3.84472   1 
   5   2   7 39.7431 4.94657   2 
   5   2   7 45.0191 4.06162   4 
  -9   3   7 4.69990 2.82457   3 
  -9   3   7 9.67595 2.87196   2 
  -9   3   7 8.78241 1.87221   2 
  -9   3   7 7.73356 2.65181   1 
  -9   3   7 11.5747 3.23932   4 
  -9   3   7 5.09311 2.87033   1 
  -8   3   7 82.4902 3.18206   2 
  -8   3   7 77.9489 3.90995   2 
  -8   3   7 71.6913 3.72905   1 
  -8   3   7 77.0724 5.10593   4 
  -8   3   7 85.2892 5.15852   3 
  -8   3   7 69.9202 5.35428   4 
  -7   3   7 14.0193 1.86788   2 
  -7   3   7 11.7948 1.43295   2 
  -7   3   7 11.2733 2.55099   3 
  -7   3   7 12.6177 1.87193   1 
  -7   3   7 13.7647 3.10644   3 
  -7   3   7 9.21788 2.59122   4 
   6  -3  -7 30.5322 2.91397   1 
  -6   3   7 23.8347 3.22445   3 
  -6   3   7 33.0879 3.32039   4 
  -6   3   7 27.7345 2.32312   1 
  -6   3   7 25.6757 1.65390   2 
   5  -3  -7 6.99301 1.71077   1 
  -5   3   7 4.05452 1.73157   4 
  -5   3   7 5.51069 2.25016   3 
  -5   3   7 4.39787 1.28118   1 
  -5   3   7 4.90439 0.92931   2 
   4  -3  -7 3.78522 1.29580   1 
   4  -3  -7 4.24665 0.94299   2 
   4  -3  -7 4.96938 1.98151   4 
  -4   3   7 6.09017 1.34607   1 
  -4   3   7 4.06958 2.05608   3 
  -4   3   7 5.06316 0.90360   2 
  -4   3   7 3.87186 1.55960   4 
   3  -3  -7 130.239 3.12597   2 
   3  -3  -7 122.399 4.00849   1 
   3  -3  -7 132.864 5.01189   4 
  -3   3   7 128.005 3.28426   2 
  -3   3   7 127.577 3.95780   1 
  -3   3   7 136.579 4.44631   4 
  -3   3   7 136.867 5.07177   3 
   2  -3  -7 355.032 7.90361   1 
   2  -3  -7 351.081 8.78882   4 
   2  -3  -7 344.918 6.94732   2 
  -2   3   7 356.735 8.12869   4 
  -2   3   7 353.854 7.96188   1 
  -2   3   7 341.506 7.21177   2 
  -2   3   7 351.016 8.64698   3 
   1  -3  -7 68.5839 2.79989   1 
   1  -3  -7 64.5042 3.59458   4 
   1  -3  -7 65.8449 2.34717   2 
  -1   3   7 61.2185 2.51653   2 
  -1   3   7 71.8396 3.62716   3 
  -1   3   7 61.4742 2.88292   4 
  -1   3   7 63.4049 3.05501   1 
  -1   3   7 61.1479 3.20524   3 
   0  -3  -7 1410.10 26.0973   1 
   0  -3  -7 1400.39 26.7909   4 
   0  -3  -7 1414.08 25.6236   2 
   0   3   7 1374.25 25.8316   3 
   0   3   7 1365.17 25.7503   2 
   0   3   7 1403.04 26.1554   3 
   0   3   7 1359.41 26.3207   1 
   0   3   7 1379.84 25.8721   4 
  -1  -3  -7 17.6217 2.41331   4 
  -1  -3  -7 16.6639 1.95806   2 
  -1  -3  -7 15.0558 2.04103   1 
   1   3   7 19.5431 2.77691   1 
   1   3   7 16.1545 2.11799   4 
   1   3   7 15.9320 1.96212   2 
  -2  -3  -7 600.356 12.6559   2 
  -2  -3  -7 592.762 13.1364   4 
   2   3   7 594.159 12.7394   2 
   2   3   7 580.305 13.1847   1 
  -3  -3  -7 2.66048 1.64416   1 
  -3  -3  -7 3.61072 2.37267   4 
  -3  -3  -7 1.75267 2.36459   2 
   3   3   7 6.02410 2.27858   2 
   3   3   7 1.52336 1.71144   4 
   3   3   7 3.74679 2.57374   1 
  -4  -3  -7 4.07677 1.96722   1 
   4   3   7 4.73557 2.67849   2 
   4   3   7 3.08190 2.19124   4 
  -5  -3  -7 40.4797 3.96613   1 
   5   3   7 49.6138 5.36639   2 
   5   3   7 45.0417 4.78286   4 
  -9   4   7 201.817 5.39487   2 
  -9   4   7 201.497 7.51516   3 
  -9   4   7 190.396 6.23174   2 
  -9   4   7 198.674 7.57472   4 
  -8   4   7 37.4993 4.21980   4 
  -8   4   7 34.7519 5.02762   4 
  -8   4   7 38.8599 2.34017   2 
  -8   4   7 39.2430 4.45582   3 
  -8   4   7 33.4056 3.15840   2 
  -8   4   7 34.6853 3.35166   1 
  -7   4   7 74.1667 4.70551   3 
  -7   4   7 76.8833 2.58204   2 
  -7   4   7 78.2377 3.68807   1 
  -7   4   7 72.2339 5.83746   3 
  -7   4   7 76.6785 3.25910   2 
  -7   4   7 72.9037 4.41041   4 
  -6   4   7 3.01983 1.59325   1 
  -6   4   7 -1.7499 1.95256   3 
  -6   4   7 1.31949 2.66442   3 
  -6   4   7 2.12284 1.17419   2 
  -6   4   7 2.72933 1.86381   4 
  -6   4   7 2.23331 0.87606   2 
   5  -4  -7 0.09902 1.51575   1 
   5  -4  -7 0.20141 2.18796   4 
  -5   4   7 -0.3752 1.61739   4 
  -5   4   7 2.21406 1.35226   1 
  -5   4   7 -2.7008 2.27062   3 
  -5   4   7 0.70565 1.90737   3 
   4  -4  -7 17.5346 2.31948   1 
   4  -4  -7 20.9625 2.69619   4 
  -4   4   7 16.7910 2.07352   1 
  -4   4   7 20.8849 2.56163   4 
  -4   4   7 27.9036 3.75242   3 
  -4   4   7 17.3661 2.35696   3 
   3  -4  -7 13.6590 2.01160   1 
   3  -4  -7 8.62558 2.15476   4 
  -3   4   7 10.0933 1.95485   3 
  -3   4   7 14.4561 2.60049   3 
  -3   4   7 9.85651 1.53349   1 
  -3   4   7 9.56574 1.67955   4 
   2  -4  -7 2643.67 46.7397   2 
   2  -4  -7 2635.36 48.0955   1 
   2  -4  -7 2670.97 49.0166   4 
  -2   4   7 2618.47 46.9719   2 
  -2   4   7 2696.46 48.7875   3 
  -2   4   7 2610.36 48.0739   1 
  -2   4   7 2650.95 48.0630   4 
  -2   4   7 2659.33 48.2739   3 
   1  -4  -7 459.047 9.06779   2 
   1  -4  -7 455.251 9.95177   1 
   1  -4  -7 454.126 10.8488   4 
  -1   4   7 466.378 10.6335   3 
  -1   4   7 450.352 10.1579   1 
  -1   4   7 459.175 10.0110   3 
  -1   4   7 456.766 9.27645   2 
  -1   4   7 453.464 9.83352   4 
   0  -4  -7 538.722 11.4527   1 
   0  -4  -7 549.469 11.0254   2 
   0  -4  -7 537.980 12.2761   4 
   0   4   7 530.970 11.7698   1 
   0   4   7 550.359 11.1698   3 
   0   4   7 545.850 11.2889   4 
   0   4   7 539.950 11.0600   2 
   0   4   7 517.164 11.9373   3 
  -1  -4  -7 86.6034 4.65980   4 
  -1  -4  -7 81.6366 3.64387   2 
  -1  -4  -7 74.1298 5.37059   1 
   1   4   7 84.3763 4.31172   1 
   1   4   7 85.2981 3.63623   2 
   1   4   7 82.9179 3.49949   4 
  -2  -4  -7 45.8203 4.17660   4 
  -2  -4  -7 52.5769 3.84022   2 
  -2  -4  -7 47.2674 3.08164   1 
   2   4   7 50.4778 3.50502   2 
   2   4   7 46.3410 4.24476   1 
   2   4   7 50.7895 3.21989   4 
  -3  -4  -7 23.5144 3.31286   2 
  -3  -4  -7 22.6658 3.00769   1 
   3   4   7 33.3345 3.40440   4 
   3   4   7 26.2933 3.02827   2 
   3   4   7 21.2633 3.75415   1 
  -4  -4  -7 1.17180 2.08915   1 
   4   4   7 6.36449 2.63538   4 
  -9   5   7 353.908 7.75166   2 
  -9   5   7 362.154 10.3045   3 
  -9   5   7 349.981 10.0164   4 
  -8   5   7 23.8660 3.42568   3 
  -8   5   7 21.8471 2.74127   2 
  -8   5   7 17.2902 1.85342   2 
  -8   5   7 23.4039 3.00048   4 
  -7   5   7 -2.9314 2.26598   3 
  -7   5   7 -0.4261 2.18225   1 
  -7   5   7 -2.7078 1.94686   4 
   6  -5  -7 45.0367 3.79340   1 
  -6   5   7 37.4666 4.00427   3 
  -6   5   7 40.4795 5.04943   3 
  -6   5   7 40.2124 3.04375   1 
   5  -5  -7 140.937 6.15278   4 
   5  -5  -7 150.309 5.32747   1 
  -5   5   7 143.516 4.72922   1 
  -5   5   7 139.658 6.20469   3 
  -5   5   7 141.061 4.97811   4 
  -5   5   7 148.551 5.58316   3 
   4  -5  -7 238.738 7.64862   4 
  -4   5   7 251.414 6.61903   4 
  -4   5   7 231.195 6.30923   1 
  -4   5   7 235.328 7.63501   3 
  -4   5   7 243.577 7.00988   3 
   3  -5  -7 124.236 4.58686   1 
   3  -5  -7 112.282 5.36643   4 
  -3   5   7 121.928 4.29527   4 
  -3   5   7 122.735 4.31720   1 
  -3   5   7 118.484 5.56058   3 
  -3   5   7 124.339 4.74364   3 
   2  -5  -7 1160.40 23.2709   4 
   2  -5  -7 1146.42 22.5615   1 
  -2   5   7 1167.38 22.2915   3 
  -2   5   7 1137.42 22.4005   4 
  -2   5   7 1147.95 22.9978   3 
  -2   5   7 1135.79 22.2857   1 
   1  -5  -7 0.39419 2.15188   4 
   1  -5  -7 2.50585 1.09251   2 
  -1   5   7 -1.1107 2.47325   3 
  -1   5   7 2.96360 1.32740   4 
  -1   5   7 2.05801 1.15761   2 
  -1   5   7 2.10021 1.76305   3 
  -1   5   7 1.27559 1.69620   1 
   0  -5  -7 90.0121 5.13978   4 
   0  -5  -7 87.3447 3.73502   1 
   0   5   7 90.1831 5.02867   3 
   0   5   7 96.9882 3.47865   2 
   0   5   7 90.4879 3.66415   3 
   0   5   7 98.8472 3.78576   4 
   0   5   7 98.4766 4.56632   1 
  -1  -5  -7 0.64150 4.69128   4 
  -1  -5  -7 -0.7804 1.60366   1 
  -1  -5  -7 2.39290 1.89994   2 
   1   5   7 -1.8836 2.20237   1 
   1   5   7 -1.3557 1.61855   4 
  -2  -5  -7 6.67090 2.64409   2 
  -2  -5  -7 4.48511 1.82625   1 
   2   5   7 1.31002 1.99349   4 
   2   5   7 1.62291 2.68457   1 
  -3  -5  -7 14.8945 2.50702   1 
  -3  -5  -7 20.8476 3.70409   2 
   3   5   7 15.9081 2.75458   4 
  -9   6   7 5.58398 3.17518   3 
  -9   6   7 1.38337 2.82579   4 
  -8   6   7 8.57086 2.99653   3 
  -8   6   7 9.97385 2.67234   4 
  -7   6   7 85.3165 4.46234   4 
  -7   6   7 86.3435 5.18477   3 
   6  -6  -7 14.3236 2.83109   1 
   6  -6  -7 8.29647 3.18453   4 
  -6   6   7 8.31650 2.65678   3 
  -6   6   7 6.77469 2.09405   4 
   5  -6  -7 4.63877 2.93314   4 
   5  -6  -7 -1.1358 1.94061   1 
  -5   6   7 -2.0614 1.72513   4 
  -5   6   7 0.24959 1.72877   1 
  -5   6   7 -3.7964 1.97868   3 
  -5   6   7 1.91973 3.04896   3 
   4  -6  -7 9.57053 2.15112   1 
   4  -6  -7 5.95489 2.80861   4 
  -4   6   7 7.37890 2.16987   3 
  -4   6   7 7.42952 1.80594   4 
  -4   6   7 7.60237 1.91462   1 
   3  -6  -7 27.7892 3.06303   1 
   3  -6  -7 31.9333 4.52787   4 
  -3   6   7 28.7967 3.05894   1 
  -3   6   7 28.3800 2.67698   4 
   2  -6  -7 7.46642 2.77814   4 
   2  -6  -7 4.85398 1.76824   1 
  -2   6   7 1.38759 1.86068   3 
  -2   6   7 3.94658 1.55374   4 
  -2   6   7 1.49172 1.84379   1 
   1  -6  -7 3.44545 1.81356   1 
   1  -6  -7 3.43138 1.19513   2 
   1  -6  -7 2.90206 2.66197   4 
  -1   6   7 1.43008 1.53319   4 
  -1   6   7 5.91626 2.19607   1 
  -1   6   7 4.15575 3.08450   3 
  -1   6   7 1.85623 1.81332   3 
   0  -6  -7 3.55298 2.91981   2 
   0  -6  -7 1.42636 1.78218   1 
   0   6   7 -1.4131 2.32946   1 
   0   6   7 1.67937 1.82979   3 
   0   6   7 -3.7135 3.05225   3 
   0   6   7 -1.6809 1.55668   4 
  -1  -6  -7 1.23123 1.92383   1 
  -1  -6  -7 1.85189 2.31062   2 
   1   6   7 2.29413 2.05685   4 
  -2  -6  -7 29.4965 3.75313   2 
  -2  -6  -7 30.9977 3.54207   1 
   2   6   7 30.5632 4.04454   4 
  -8   7   7 3.06019 2.62302   4 
  -8   7   7 5.71146 3.14744   3 
  -7   7   7 8.18769 2.53828   4 
  -7   7   7 12.1049 3.04686   3 
   6  -7  -7 5.82924 2.61191   1 
   6  -7  -7 1.41583 3.70026   4 
  -6   7   7 2.63722 1.99421   4 
  -6   7   7 0.40029 2.54112   3 
   5  -7  -7 40.1564 4.12879   1 
   5  -7  -7 46.0705 5.74019   4 
  -5   7   7 38.5166 3.41591   4 
  -5   7   7 39.9263 4.14569   3 
   4  -7  -7 3.30821 3.38987   4 
   4  -7  -7 10.9095 2.62048   1 
  -4   7   7 11.2708 2.52099   3 
  -4   7   7 10.3412 2.06346   4 
   3  -7  -7 155.684 5.92587   1 
  -3   7   7 151.861 5.59417   3 
  -3   7   7 156.009 5.05531   4 
   2  -7  -7 2.22584 2.11048   1 
  -2   7   7 2.22766 2.13338   3 
  -2   7   7 -1.3669 1.73127   4 
   1  -7  -7 2.85224 2.14071   1 
  -1   7   7 -1.9641 1.76820   4 
   0  -7  -7 3.79469 2.30267   1 
   0  -7  -7 9.09337 2.54956   2 
   0  -7  -7 8.55652 2.10465   2 
   0   7   7 8.93774 4.24835   3 
   0   7   7 6.83547 2.14411   3 
   0   7   7 3.34862 2.09796   4 
  -1  -7  -7 76.8907 4.63229   1 
   1   7   7 63.8085 4.65539   4 
  -7   8   7 22.5209 3.64942   3 
  -7   8   7 19.5751 2.76791   4 
  -6   8   7 9.03825 2.22007   4 
  -6   8   7 6.26695 3.13901   3 
   5  -8  -7 102.882 6.09510   1 
  -5   8   7 113.455 4.62369   4 
  -5   8   7 113.560 5.64228   3 
   4  -8  -7 4.76639 2.78504   1 
  -4   8   7 7.69147 2.14271   4 
  -4   8   7 6.86105 2.83014   3 
   3  -8  -7 31.7974 4.30354   1 
  -3   8   7 28.1305 3.25146   3 
  -3   8   7 34.5364 3.46475   4 
   2  -8  -7 24.1656 3.32114   1 
  -2   8   7 22.3077 2.98954   3 
  -2   8   7 24.2851 3.46747   4 
   1  -8  -7 8.51522 2.86562   1 
  -1   8   7 10.5709 2.56411   4 
  -1   8   7 8.75041 2.65996   3 
   0  -8  -7 -3.6357 2.76094   1 
   0   8   7 0.61125 2.67215   4 
   0   8   7 -0.1575 2.49593   3 
   5  -9  -7 425.236 12.1824   1 
  -5   9   7 433.578 10.2794   4 
  -5   9   7 426.840 11.2891   3 
   4  -9  -7 13.7691 3.59802   1 
  -4   9   7 2.02128 3.16864   3 
  -4   9   7 1.88859 2.39527   4 
   3  -9  -7 58.2082 5.84505   1 
  -3   9   7 67.2718 5.18137   3 
  -3   9   7 60.7278 4.53278   4 
   0   9  -8 24.9286 4.42584   3 
   0  -9   8 21.3266 3.81273   2 
  -1   9  -8 7.95099 3.55385   3 
  -1   9  -8 -0.8971 3.12919   1 
   1  -9   8 1.75791 2.80410   2 
  -2   9  -8 -1.1659 3.27362   1 
  -2   9  -8 5.13196 3.58129   3 
   2  -9   8 -0.9397 3.16288   2 
   3   8  -8 44.2112 5.34803   3 
  -3  -8   8 40.8851 4.17684   2 
   2   8  -8 15.1479 3.97219   3 
  -2  -8   8 12.1956 2.94558   2 
   1   8  -8 4.00793 3.30191   3 
  -1  -8   8 5.60248 2.72785   4 
  -1  -8   8 1.94473 2.58255   2 
   0   8  -8 0.34512 2.86777   3 
   0  -8   8 1.99038 2.39603   2 
   0  -8   8 0.33050 2.28255   4 
   0  -8   8 2.97646 3.56856   4 
  -1   8  -8 441.394 11.6397   3 
  -1   8  -8 430.233 10.3686   1 
   1  -8   8 432.471 10.9128   2 
  -2   8  -8 -5.2338 2.77994   3 
  -2   8  -8 -4.6334 2.69323   1 
   2  -8   8 -1.7493 2.66179   2 
  -3   8  -8 7.70702 3.18847   1 
  -3   8  -8 5.72949 3.10254   3 
   3  -8   8 9.23329 3.05278   2 
  -4   8  -8 5.87359 3.03092   3 
  -4   8  -8 5.48602 3.40562   1 
   4  -8   8 7.96309 3.51608   2 
   4   7  -8 18.0115 4.48963   3 
  -4  -7   8 17.6241 3.05750   2 
   3   7  -8 10.4899 3.60614   3 
  -3  -7   8 4.85817 2.38621   2 
   2   7  -8 32.5879 4.01326   3 
  -2  -7   8 35.0832 3.65037   2 
  -2  -7   8 29.5741 3.28478   4 
   1   7  -8 -1.2361 2.71318   3 
  -1  -7   8 -0.3179 1.68393   2 
  -1  -7   8 1.91778 2.32062   4 
   0   7  -8 10.3207 2.76029   3 
   0   7  -8 8.95018 2.14510   1 
   0  -7   8 9.99832 2.17405   4 
   0  -7   8 10.8392 2.26934   2 
   0  -7   8 9.95705 3.04205   4 
  -1   7  -8 643.066 13.7901   1 
  -1   7  -8 659.219 14.9539   3 
   1  -7   8 659.500 14.4209   2 
  -2   7  -8 40.2751 4.22351   3 
   2  -7   8 37.6108 3.91734   2 
  -3   7  -8 -1.7026 2.36117   3 
  -3   7  -8 4.05955 2.56206   1 
   3  -7   8 -0.7397 2.35198   2 
  -4   7  -8 -1.2124 2.76763   1 
  -4   7  -8 3.02184 2.51757   3 
   4  -7   8 0.15628 2.89182   2 
  -5   7  -8 15.1931 3.57164   1 
  -5   7  -8 20.1489 3.23304   3 
   5  -7   8 9.54103 3.41485   2 
   5   6  -8 25.8136 4.52748   3 
  -5  -6   8 23.0155 3.34759   2 
   4   6  -8 11.3385 3.56806   3 
  -4  -6   8 21.5601 2.70043   2 
   3   6  -8 228.593 8.01489   3 
  -3  -6   8 214.614 6.56036   2 
  -3  -6   8 223.583 7.17665   4 
   2   6  -8 1.31956 2.57390   3 
   2   6  -8 1.89137 1.81036   2 
  -2  -6   8 2.63165 2.36335   4 
  -2  -6   8 -2.1039 2.46826   3 
  -2  -6   8 0.07548 1.75846   2 
   1   6  -8 70.7077 3.66639   2 
   1   6  -8 77.6369 4.73096   3 
  -1  -6   8 71.1184 3.64763   2 
  -1  -6   8 68.1396 4.88310   4 
  -1  -6   8 77.6956 4.20078   4 
  -1  -6   8 69.8062 3.78272   3 
   0   6  -8 1.32284 1.68450   1 
   0   6  -8 0.18504 2.15151   3 
   0   6  -8 1.88266 1.76132   2 
   0  -6   8 -1.3347 1.87615   4 
   0  -6   8 0.34685 1.58349   2 
   0  -6   8 2.04244 2.35167   4 
   0  -6   8 -0.2246 2.10096   1 
   0  -6   8 -2.8778 1.63539   3 
  -1   6  -8 23.2052 2.77461   2 
  -1   6  -8 20.3425 2.70874   3 
  -1   6  -8 19.6080 2.92819   1 
   1  -6   8 20.6846 2.91407   1 
   1  -6   8 18.0746 2.22943   3 
   1  -6   8 21.5455 2.73050   2 
  -2   6  -8 15.6759 2.06418   2 
  -2   6  -8 14.3496 2.55068   3 
  -2   6  -8 18.1291 2.55081   1 
   2  -6   8 21.1195 2.84708   2 
   2  -6   8 18.2345 3.16833   1 
   2  -6   8 13.3656 2.17537   3 
  -3   6  -8 5.79565 2.36845   1 
  -3   6  -8 3.24333 2.17496   3 
   3  -6   8 4.10923 3.17353   1 
   3  -6   8 3.60915 2.00315   3 
   3  -6   8 5.02536 2.25548   2 
  -4   6  -8 2.05695 2.44610   1 
  -4   6  -8 6.88823 2.27796   3 
   4  -6   8 6.07940 2.88216   2 
   4  -6   8 -1.4339 2.02020   3 
  -5   6  -8 1.04522 2.42937   3 
  -5   6  -8 3.76816 2.75205   1 
   5  -6   8 3.45615 2.46749   3 
   5  -6   8 2.52307 2.61125   2 
  -6   6  -8 -2.1474 3.03326   1 
  -6   6  -8 -3.0202 2.79597   3 
   6  -6   8 -0.6077 3.55476   2 
   6   5  -8 6.34257 4.09814   3 
  -6  -5   8 3.53401 2.14291   2 
   5   5  -8 109.148 6.60433   3 
  -5  -5   8 114.113 4.65761   2 
   4   5  -8 38.3763 4.85566   3 
  -4  -5   8 39.5619 4.46906   4 
  -4  -5   8 49.0454 4.05159   3 
  -4  -5   8 45.7766 3.34559   2 
   3   5  -8 4.33384 1.85812   2 
   3   5  -8 -0.3042 2.55317   3 
  -3  -5   8 0.45953 1.94066   3 
  -3  -5   8 3.82454 1.66202   2 
  -3  -5   8 4.51580 2.42613   4 
   2   5  -8 108.422 5.20208   3 
   2   5  -8 99.8729 4.07368   2 
  -2  -5   8 110.017 4.86463   4 
  -2  -5   8 103.955 4.13012   2 
  -2  -5   8 107.578 4.31714   3 
   1   5  -8 34.5253 2.62778   2 
   1   5  -8 34.2303 2.33740   1 
   1   5  -8 33.8348 3.54304   3 
  -1  -5   8 34.6630 3.55816   4 
  -1  -5   8 35.5758 2.94433   3 
  -1  -5   8 33.1283 3.03486   1 
  -1  -5   8 33.6476 3.92820   4 
  -1  -5   8 35.6189 3.07914   2 
   0   5  -8 6.66123 1.59380   1 
   0   5  -8 3.34256 1.46100   2 
   0  -5   8 4.19256 1.90421   4 
   0  -5   8 7.05002 1.68362   3 
   0  -5   8 1.67230 1.95869   1 
   0  -5   8 4.46702 2.09911   4 
  -1   5  -8 45.9203 3.11087   1 
  -1   5  -8 42.2946 2.86236   2 
  -1   5  -8 46.0959 3.53614   3 
   1  -5   8 48.5075 3.10249   4 
   1  -5   8 48.9197 2.90362   3 
   1  -5   8 43.2395 3.33191   2 
   1  -5   8 40.2550 3.75431   1 
  -2   5  -8 5.10214 1.73493   2 
  -2   5  -8 3.96045 1.94885   3 
  -2   5  -8 3.25503 1.82567   1 
   2  -5   8 6.71223 2.08768   2 
   2  -5   8 6.04348 2.42561   1 
   2  -5   8 5.08490 1.59183   3 
  -3   5  -8 7.19295 2.18119   1 
  -3   5  -8 3.82819 1.89999   2 
  -3   5  -8 3.72923 1.99535   3 
   3  -5   8 5.05404 2.08097   2 
   3  -5   8 5.09791 1.65903   3 
   3  -5   8 5.52330 2.72286   1 
  -4   5  -8 16.7376 2.47041   3 
  -4   5  -8 16.5054 2.63647   1 
   4  -5   8 11.3341 2.00298   3 
   4  -5   8 22.1262 3.03128   2 
  -5   5  -8 0.87689 2.33373   1 
  -5   5  -8 3.71164 2.29204   3 
   5  -5   8 -0.6139 2.09724   3 
   5  -5   8 3.73735 2.80349   2 
  -6   5  -8 -3.4845 2.56608   1 
  -6   5  -8 -0.9409 2.51444   3 
   6  -5   8 1.45656 3.01882   2 
   7   4  -8 -0.2986 4.38079   3 
  -7  -4   8 -3.5029 2.10259   2 
   6   4  -8 36.1906 4.48843   3 
  -6  -4   8 35.4393 3.26965   2 
   5   4  -8 15.8798 3.23945   3 
  -5  -4   8 10.3392 2.27812   3 
  -5  -4   8 14.4540 2.36188   2 
   4   4  -8 13.0240 2.29309   2 
   4   4  -8 14.6377 2.87097   3 
  -4  -4   8 7.62246 2.71483   4 
  -4  -4   8 11.5892 1.82384   2 
  -4  -4   8 11.0050 2.26764   3 
   3   4  -8 9.81428 3.28483   3 
   3   4  -8 11.4176 2.06956   2 
  -3  -4   8 13.2000 2.07205   3 
  -3  -4   8 11.9889 2.48121   4 
  -3  -4   8 9.03894 1.74713   2 
   2   4  -8 2.08037 2.17586   3 
   2   4  -8 0.63337 1.34762   2 
  -2  -4   8 -2.2498 2.04446   4 
  -2  -4   8 -1.3857 1.16272   2 
  -2  -4   8 0.35567 1.53035   3 
  -2  -4   8 1.41246 1.99471   4 
   1   4  -8 -0.2475 1.76816   3 
   1   4  -8 0.15073 1.08813   1 
   1   4  -8 1.68667 1.07110   2 
  -1  -4   8 2.18692 1.19156   2 
  -1  -4   8 3.40355 1.55293   3 
  -1  -4   8 6.80084 2.13415   4 
  -1  -4   8 -0.2204 1.57972   1 
  -1  -4   8 1.81233 1.91505   4 
   0   4  -8 2.12950 1.42577   1 
   0   4  -8 3.26402 1.80390   3 
   0   4  -8 2.10469 1.22122   2 
   0  -4   8 3.74395 1.52208   2 
   0  -4   8 2.57625 1.40320   3 
   0  -4   8 4.38105 1.83195   4 
   0  -4   8 -1.5475 1.64811   1 
  -1   4  -8 24.5091 2.94912   3 
  -1   4  -8 21.8052 2.29739   2 
  -1   4  -8 30.3301 2.60917   1 
   1  -4   8 29.6516 3.34090   1 
   1  -4   8 23.3693 2.73725   2 
   1  -4   8 27.0916 2.91857   4 
   1  -4   8 26.1223 2.33554   3 
   1  -4   8 25.0806 2.59356   4 
  -2   4  -8 40.1710 2.85228   2 
  -2   4  -8 39.5760 3.00642   1 
  -2   4  -8 40.0992 3.22058   3 
   2  -4   8 41.0315 2.52914   3 
   2  -4   8 36.0622 3.81707   1 
  -3   4  -8 103.576 4.31372   3 
  -3   4  -8 103.951 4.36674   2 
  -3   4  -8 107.266 4.54450   1 
   3  -4   8 110.052 5.40454   1 
   3  -4   8 105.115 4.79454   2 
   3  -4   8 101.290 3.58020   3 
  -4   4  -8 6.88031 2.06738   3 
  -4   4  -8 -0.0833 1.90593   1 
   4  -4   8 3.86074 1.53413   3 
   4  -4   8 3.94888 2.24348   2 
  -5   4  -8 6.31880 2.20583   3 
  -5   4  -8 6.61402 2.37621   1 
   5  -4   8 4.90873 1.89807   3 
   5  -4   8 8.86894 3.13240   2 
  -6   4  -8 11.9272 2.91003   1 
   6  -4   8 16.7989 3.83819   2 
   8   3  -8 20.9564 4.86318   3 
  -8  -3   8 9.88693 2.60974   2 
   7   3  -8 10.4784 3.92416   3 
  -7  -3   8 9.17164 2.17005   2 
   6   3  -8 -1.8709 3.06329   3 
  -6  -3   8 0.80610 1.81168   2 
  -6  -3   8 2.29773 2.34710   3 
   5   3  -8 10.6071 2.86741   3 
   5   3  -8 12.5717 2.24708   2 
  -5  -3   8 11.6008 2.02265   2 
  -5  -3   8 14.7863 2.49749   3 
  -5  -3   8 11.9148 2.76794   4 
   4   3  -8 46.3953 3.10557   2 
   4   3  -8 50.1888 5.48869   3 
  -4  -3   8 50.9686 3.51771   3 
  -4  -3   8 44.0553 4.33293   4 
  -4  -3   8 43.4902 4.10514   4 
   3   3  -8 116.302 5.11157   3 
  -3  -3   8 117.538 5.28454   4 
  -3  -3   8 121.589 5.11644   4 
  -3  -3   8 122.659 4.04235   2 
  -3  -3   8 124.243 4.47351   3 
   2   3  -8 1695.93 30.4765   1 
   2   3  -8 1649.43 31.0808   2 
   2   3  -8 1689.01 32.3096   3 
  -2  -3   8 1703.50 31.8857   4 
  -2  -3   8 1681.83 31.2689   2 
  -2  -3   8 1691.65 30.8817   1 
  -2  -3   8 1700.09 32.1454   4 
  -2  -3   8 1667.24 31.4229   3 
   1   3  -8 24.0869 1.92540   1 
   1   3  -8 18.9320 1.98131   2 
   1   3  -8 20.6907 2.89000   3 
  -1  -3   8 19.8954 2.11436   2 
  -1  -3   8 22.9451 2.42340   3 
  -1  -3   8 28.7019 3.02734   4 
  -1  -3   8 21.7054 2.38286   4 
   0   3  -8 607.511 13.1313   3 
   0   3  -8 615.981 12.3618   1 
   0   3  -8 589.972 12.2972   2 
   0  -3   8 598.260 12.6909   1 
   0  -3   8 598.314 12.5490   4 
   0  -3   8 617.009 12.3697   3 
  -1   3  -8 29.2293 2.90294   3 
  -1   3  -8 23.9339 2.30816   2 
  -1   3  -8 29.1582 2.42071   1 
   1  -3   8 29.3263 3.09981   1 
   1  -3   8 32.4701 2.47856   4 
   1  -3   8 28.1149 2.33433   3 
   1  -3   8 27.2048 2.61613   2 
  -2   3  -8 20.0966 2.76921   3 
  -2   3  -8 21.8358 2.50154   2 
  -2   3  -8 16.0803 2.41749   1 
   2  -3   8 18.6801 2.68112   1 
   2  -3   8 19.3227 2.08395   3 
   2  -3   8 19.5686 2.74802   2 
  -3   3  -8 36.3429 3.05148   2 
  -3   3  -8 39.4672 3.14153   3 
  -3   3  -8 38.3860 3.22715   1 
   3  -3   8 41.2892 3.42848   2 
   3  -3   8 34.4234 2.33832   3 
   3  -3   8 30.5963 3.99900   1 
  -4   3  -8 51.6342 3.44232   3 
  -4   3  -8 45.9700 4.15561   2 
  -4   3  -8 47.0342 3.71924   1 
   4  -3   8 44.8924 2.68918   3 
   4  -3   8 53.3752 3.98853   2 
   4  -3   8 45.9198 4.95760   1 
  -5   3  -8 403.200 10.3727   1 
   5  -3   8 391.030 10.6476   2 
  -6   3  -8 65.2456 4.82602   1 
   6  -3   8 64.3128 5.36360   2 
  -8  -2   8 -4.0108 1.95643   2 
   7   2  -8 -0.6089 3.25288   3 
  -7  -2   8 4.93630 3.15487   3 
  -7  -2   8 2.10420 1.93089   2 
   6   2  -8 37.5334 4.82551   3 
  -6  -2   8 43.3336 4.94168   4 
  -6  -2   8 47.0291 4.69120   4 
  -6  -2   8 49.1991 2.99561   2 
  -6  -2   8 48.1940 4.22726   3 
   5   2  -8 38.9739 3.10757   2 
  -5  -2   8 39.5135 4.29615   4 
  -5  -2   8 33.8417 3.58418   3 
  -5  -2   8 37.7719 4.07463   4 
   4   2  -8 1789.88 34.4815   3 
  -4  -2   8 1790.28 34.5843   4 
  -4  -2   8 1800.54 33.1276   2 
  -4  -2   8 1807.03 34.2639   4 
  -4  -2   8 1780.18 33.8011   3 
   3   2  -8 106.417 3.09330   1 
   3   2  -8 101.379 3.58280   2 
   3   2  -8 106.502 4.64863   3 
  -3  -2   8 105.666 4.70752   4 
  -3  -2   8 108.406 4.78580   4 
  -3  -2   8 104.601 4.22007   3 
  -3  -2   8 104.671 3.63431   2 
  -3  -2   8 102.144 3.35035   1 
   2   2  -8 1049.58 19.4354   1 
   2   2  -8 1028.17 19.7975   2 
   2   2  -8 1017.34 20.8883   3 
  -2  -2   8 1045.33 20.8229   4 
  -2  -2   8 1072.55 19.8566   1 
  -2  -2   8 1048.55 20.3861   3 
   1   2  -8 94.6375 3.24978   2 
   1   2  -8 94.3539 3.12472   1 
   1   2  -8 97.9356 4.13350   3 
  -1  -2   8 95.6911 3.69369   3 
  -1  -2   8 97.9841 3.54445   1 
  -1  -2   8 95.2929 4.03201   4 
  -1  -2   8 95.8986 3.46596   2 
   0   2  -8 63.6119 2.76854   1 
   0   2  -8 57.9612 2.63486   2 
   0   2  -8 58.4503 3.34503   3 
   0  -2   8 57.2554 3.08956   4 
   0  -2   8 58.5431 3.17321   1 
   0  -2   8 57.5695 2.92377   2 
   0  -2   8 60.1405 2.88633   3 
  -1   2  -8 65.7285 3.11099   1 
  -1   2  -8 70.3522 3.02390   2 
  -1   2  -8 67.4159 3.43897   3 
  -1   2  -8 71.1688 3.41488   4 
   1  -2   8 66.2825 3.61317   1 
   1  -2   8 64.7826 2.81165   3 
   1  -2   8 68.9857 3.28787   2 
   1  -2   8 68.9025 2.85711   4 
  -2   2  -8 52.7841 3.04645   1 
  -2   2  -8 48.8042 3.00350   2 
  -2   2  -8 56.0187 3.33611   4 
  -2   2  -8 51.4641 3.15339   3 
   2  -2   8 51.8704 3.70770   1 
   2  -2   8 50.9771 3.32508   2 
   2  -2   8 58.7974 2.37662   4 
   2  -2   8 53.1394 2.46426   3 
  -3   2  -8 23.1167 3.05028   4 
  -3   2  -8 22.5767 2.63165   3 
  -3   2  -8 24.4994 2.94467   2 
  -3   2  -8 27.2068 2.80172   1 
   3  -2   8 24.3169 3.01478   2 
   3  -2   8 21.3636 1.85828   4 
   3  -2   8 17.8528 2.94717   1 
   3  -2   8 25.5877 3.39400   3 
  -4   2  -8 41.4528 3.87167   2 
  -4   2  -8 45.5361 3.52254   1 
   4  -2   8 42.7166 3.86685   2 
   4  -2   8 42.7420 2.31988   4 
   4  -2   8 42.7320 4.68134   1 
  -5   2  -8 181.487 6.44206   1 
   5  -2   8 185.999 6.88372   2 
  -6   2  -8 14.4161 2.94689   1 
   6  -2   8 22.2081 3.92393   2 
  -9  -1   8 -3.6956 4.13678   4 
  -9  -1   8 -2.4295 2.36639   2 
  -8  -1   8 5.47342 1.95479   2 
  -8  -1   8 3.47199 3.55933   4 
  -7  -1   8 30.1084 4.07951   4 
  -7  -1   8 29.4793 2.84157   2 
  -7  -1   8 35.1417 4.42388   3 
   6   1  -8 418.757 10.8125   3 
  -6  -1   8 382.245 9.55405   2 
  -6  -1   8 415.690 11.0659   4 
  -6  -1   8 410.352 10.3047   3 
  -6  -1   8 386.906 10.5849   4 
   5   1  -8 20.4466 2.18704   1 
   5   1  -8 18.3157 2.55009   2 
   5   1  -8 22.0228 3.03332   3 
  -5  -1   8 18.3819 2.64245   3 
  -5  -1   8 20.9914 2.07779   2 
  -5  -1   8 21.7703 1.87273   1 
  -5  -1   8 20.9952 3.03882   4 
  -5  -1   8 17.1161 2.76079   4 
   4   1  -8 2641.48 48.2156   1 
   4   1  -8 2728.94 50.1614   3 
   4   1  -8 2658.07 48.7382   2 
  -4  -1   8 2665.31 48.6125   2 
  -4  -1   8 2734.34 48.3252   1 
  -4  -1   8 2726.89 49.6534   3 
  -4  -1   8 2742.40 50.1987   4 
  -4  -1   8 2690.68 49.9313   4 
   3   1  -8 57.8997 2.54977   2 
   3   1  -8 60.2150 2.39068   1 
   3   1  -8 57.4326 3.70814   3 
  -3  -1   8 57.7063 2.60010   2 
  -3  -1   8 60.2201 2.61310   1 
  -3  -1   8 55.8405 3.45139   3 
  -3  -1   8 51.1113 3.58724   4 
   2   1  -8 229.478 5.28373   1 
   2   1  -8 224.539 5.33696   2 
  -2  -1   8 220.537 6.36275   4 
  -2  -1   8 225.284 6.13658   3 
  -2  -1   8 225.768 5.54963   2 
  -2  -1   8 210.301 6.01287   1 
   1   1  -8 40.2021 2.13046   2 
   1   1  -8 39.1662 2.96262   3 
   1   1  -8 38.8969 2.14561   1 
  -1  -1   8 37.2012 2.84909   4 
  -1  -1   8 42.6029 2.56581   1 
  -1  -1   8 39.3013 2.32864   2 
  -1  -1   8 42.3117 2.76688   3 
   0   1  -8 55.2411 2.57046   1 
   0   1  -8 51.1722 2.47851   2 
   0   1  -8 54.8466 3.25459   4 
   0   1  -8 51.5926 3.08410   3 
   0  -1   8 50.6940 2.78120   2 
   0  -1   8 52.7064 2.86177   4 
   0  -1   8 52.9939 2.99069   1 
   0  -1   8 53.2293 2.87032   3 
  -1   1  -8 192.047 5.27256   2 
  -1   1  -8 195.884 5.71365   4 
  -1   1  -8 192.414 5.46704   3 
  -1   1  -8 194.120 5.35276   1 
   1  -1   8 170.288 5.41225   3 
   1  -1   8 195.162 5.78385   1 
   1  -1   8 197.641 5.00272   4 
   1  -1   8 196.201 5.53486   2 
  -2   1  -8 104.958 4.09754   2 
  -2   1  -8 114.656 4.02829   3 
  -2   1  -8 115.713 4.38842   4 
  -2   1  -8 112.395 4.13406   1 
   2  -1   8 113.238 3.38089   3 
   2  -1   8 104.482 4.69160   1 
   2  -1   8 116.485 3.42333   4 
   2  -1   8 118.421 4.48160   2 
  -3   1  -8 1.90157 1.82662   4 
  -3   1  -8 -3.2920 1.62250   2 
  -3   1  -8 -1.0516 1.42275   1 
   3  -1   8 -1.3858 2.01159   1 
   3  -1   8 1.07776 1.12547   4 
   3  -1   8 -1.8544 1.53617   2 
  -4   1  -8 2.00322 2.43242   2 
  -4   1  -8 2.20225 1.78393   1 
  -4   1  -8 1.51790 2.04636   4 
   4  -1   8 -2.5235 3.64549   1 
   4  -1   8 -1.0909 1.36105   4 
   4  -1   8 -1.3425 2.02206   2 
  -5   1  -8 5.76646 2.25404   1 
  -5   1  -8 4.87121 2.59752   4 
   5  -1   8 6.58559 1.89350   4 
   5  -1   8 5.57827 2.80075   2 
  -6   1  -8 -0.0993 2.48110   1 
   6  -1   8 -2.3657 3.32575   2 
   6  -1   8 3.88451 2.33945   4 
  -9   0   8 92.2014 4.64608   2 
  -9   0   8 115.866 7.76736   4 
  -8   0   8 3.11977 2.00674   1 
  -8   0   8 3.23862 3.43937   4 
  -8   0   8 3.29132 1.79807   2 
  -7   0   8 2.91617 3.24576   4 
  -7   0   8 1.28468 2.63947   3 
  -7   0   8 2.24855 1.26567   1 
  -7   0   8 -1.3244 2.64654   4 
  -6   0   8 -0.7241 2.38943   4 
  -6   0   8 -4.6734 2.10367   4 
  -6   0   8 2.02989 1.17413   1 
  -6   0   8 1.77275 1.20239   2 
  -6   0   8 3.40830 2.41017   3 
   5   0  -8 2.45698 1.38955   2 
   5   0  -8 -0.1796 2.08562   3 
   5   0  -8 2.04871 1.37795   1 
  -5   0   8 4.27126 1.28644   2 
  -5   0   8 3.05926 2.10356   3 
  -5   0   8 3.00928 1.09413   1 
  -5   0   8 0.35542 2.14429   4 
   4   0  -8 12.7860 1.75813   2 
   4   0  -8 9.53654 2.22090   3 
   4   0  -8 12.4398 1.84094   1 
  -4   0   8 11.5194 2.18034   3 
  -4   0   8 13.0845 1.65678   1 
  -4   0   8 11.7175 1.68647   2 
  -4   0   8 7.98423 2.13714   4 
   3   0  -8 6.33181 1.86714   3 
   3   0  -8 5.96413 1.15467   1 
   3   0  -8 6.47963 1.11519   2 
  -3   0   8 6.75743 1.86516   4 
  -3   0   8 6.73415 1.28435   2 
  -3   0   8 6.05576 1.23795   1 
  -3   0   8 9.51436 1.92747   3 
   2   0  -8 1.01618 0.96252   1 
   2   0  -8 2.33436 1.05437   2 
   2   0  -8 0.86954 1.61256   3 
   2   0  -8 -1.4900 1.50936   4 
  -2   0   8 0.96804 1.46681   4 
  -2   0   8 0.60332 0.91506   2 
  -2   0   8 2.44557 1.20891   1 
  -2   0   8 -0.3365 1.54787   3 
   1   0  -8 188.799 5.78616   4 
   1   0  -8 186.768 4.66985   2 
   1   0  -8 186.103 4.81992   1 
   1   0  -8 176.274 5.52502   3 
  -1   0   8 183.706 5.30077   4 
  -1   0   8 183.350 4.94879   2 
  -1   0   8 186.963 5.37989   3 
  -1   0   8 183.737 5.13684   1 
   0   0  -8 18.5871 2.50610   3 
   0   0  -8 18.0106 1.93562   2 
   0   0  -8 19.9866 2.29293   4 
   0   0  -8 18.9823 1.86213   1 
   0   0   8 21.1476 2.33051   1 
   0   0   8 17.0607 1.90846   3 
   0   0   8 14.3665 1.99096   2 
   0   0   8 21.0426 2.17492   4 
  -1   0  -8 7.91259 1.57791   2 
  -1   0  -8 7.43844 1.54269   1 
  -1   0  -8 6.13147 1.66724   3 
  -1   0  -8 8.27528 1.83413   4 
   1   0   8 6.66565 1.45242   3 
   1   0   8 8.42912 1.82144   1 
   1   0   8 7.69737 1.68082   2 
   1   0   8 7.88662 1.41365   4 
  -2   0  -8 81.0067 3.57406   1 
  -2   0  -8 81.9334 4.06214   4 
  -2   0  -8 81.2067 3.65595   2 
   2   0   8 86.1291 3.01661   4 
   2   0   8 82.6180 3.83844   2 
   2   0   8 80.3732 4.15131   1 
  -3   0  -8 0.33950 1.49952   1 
  -3   0  -8 -0.5988 1.99845   4 
  -3   0  -8 4.54955 2.00016   2 
   3   0   8 3.10256 2.11125   2 
   3   0   8 0.32846 1.19948   4 
   3   0   8 -2.6964 2.13337   1 
  -4   0  -8 114.152 4.78831   1 
  -4   0  -8 116.250 5.14682   4 
   4   0   8 105.189 3.90928   4 
   4   0   8 118.138 5.33520   2 
  -5   0  -8 3.36878 2.91326   4 
  -5   0  -8 7.84890 2.54931   1 
   5   0   8 6.78071 2.50478   4 
   5   0   8 3.80984 2.64336   2 
  -6   0  -8 18.5488 4.29636   4 
  -6   0  -8 14.5146 2.99205   1 
   6   0   8 14.3393 3.58774   2 
   6   0   8 30.2083 4.40288   4 
  -9   1   8 1.86872 4.20660   1 
  -9   1   8 1.61375 2.19888   2 
  -9   1   8 2.52296 3.67335   4 
  -9   1   8 1.28804 1.99629   1 
  -8   1   8 -3.4429 2.26789   2 
  -8   1   8 -1.2344 1.57082   1 
  -8   1   8 6.98270 3.12261   4 
  -8   1   8 -1.8160 1.54972   2 
  -7   1   8 50.2043 4.90769   3 
  -7   1   8 43.5825 2.59841   1 
  -7   1   8 43.3506 4.78041   4 
  -7   1   8 43.3749 2.61712   2 
  -7   1   8 37.1514 4.86695   4 
   6  -1  -8 27.2156 2.80414   1 
  -6   1   8 28.7691 2.12755   2 
  -6   1   8 30.9496 4.22508   3 
  -6   1   8 25.6586 3.13390   4 
  -6   1   8 27.9987 2.19401   1 
   5  -1  -8 3.15446 1.45065   1 
   5  -1  -8 2.16727 1.40601   2 
  -5   1   8 1.70732 2.06213   3 
  -5   1   8 2.55825 1.04431   2 
  -5   1   8 3.28574 1.19524   1 
  -5   1   8 1.90404 2.01524   4 
   4  -1  -8 85.4263 2.95290   2 
   4  -1  -8 86.3432 3.21784   1 
  -4   1   8 85.4163 2.88005   2 
  -4   1   8 80.1475 4.16174   4 
  -4   1   8 80.3388 4.33094   3 
  -4   1   8 89.2948 3.12115   1 
   3  -1  -8 56.8925 3.73932   4 
   3  -1  -8 56.7816 2.55412   1 
  -3   1   8 56.1041 3.37216   4 
  -3   1   8 59.3333 2.66488   1 
  -3   1   8 52.2372 3.60906   3 
  -3   1   8 56.6974 2.36899   2 
   2  -1  -8 77.8643 4.05180   4 
   2  -1  -8 80.7713 2.93228   1 
  -2   1   8 80.2591 3.88058   3 
  -2   1   8 79.5158 2.87237   2 
  -2   1   8 80.4515 3.17726   1 
  -2   1   8 80.6812 3.59580   4 
   1  -1  -8 185.084 4.87869   1 
   1  -1  -8 185.951 5.91100   4 
   1  -1  -8 185.941 4.60041   2 
  -1   1   8 181.623 5.45332   3 
  -1   1   8 185.622 4.91683   2 
  -1   1   8 182.507 5.22050   4 
  -1   1   8 178.550 5.17017   1 
   0  -1  -8 8.88872 2.02843   4 
   0  -1  -8 8.39176 1.38053   1 
   0  -1  -8 9.72652 1.55243   2 
   0   1   8 10.0510 1.78428   1 
   0   1   8 6.36645 1.46791   4 
   0   1   8 7.90076 1.57594   2 
  -1  -1  -8 149.662 4.54705   2 
  -1  -1  -8 149.131 5.20947   4 
  -1  -1  -8 142.725 4.49030   1 
   1   1   8 139.877 4.15228   4 
   1   1   8 146.279 4.70069   2 
   1   1   8 141.726 4.24691   3 
   1   1   8 134.067 4.98303   1 
  -2  -1  -8 196.403 5.72758   2 
  -2  -1  -8 182.143 6.72194   1 
  -2  -1  -8 200.849 6.17494   4 
   2   1   8 191.071 5.91809   2 
   2   1   8 191.542 6.30331   1 
   2   1   8 191.885 5.05969   4 
  -3  -1  -8 66.8798 4.33111   4 
  -3  -1  -8 70.1334 4.21282   2 
  -3  -1  -8 78.0001 3.76080   1 
   3   1   8 76.3055 4.88888   1 
   3   1   8 74.4402 4.26034   2 
   3   1   8 70.6914 3.21149   4 
  -4  -1  -8 1.07788 1.81824   1 
  -4  -1  -8 4.22317 2.76234   4 
   4   1   8 2.82171 2.42402   2 
   4   1   8 -1.8000 1.71785   4 
  -5  -1  -8 -6.0110 3.27945   4 
  -5  -1  -8 1.12991 2.20486   1 
   5   1   8 0.37819 3.07179   2 
   5   1   8 0.75257 2.25326   4 
  -9   2   8 -2.4042 1.92188   2 
  -9   2   8 1.46008 2.12760   1 
  -9   2   8 -0.1283 2.82222   3 
  -9   2   8 -0.4154 3.31497   4 
  -9   2   8 -1.1489 3.27277   2 
  -8   2   8 2.03036 2.19253   2 
  -8   2   8 5.29172 3.01885   4 
  -8   2   8 4.10376 1.71574   1 
  -7   2   8 30.3664 3.75337   3 
  -7   2   8 37.7419 2.32362   2 
  -7   2   8 40.5007 4.43802   4 
  -7   2   8 36.6229 4.79158   4 
  -7   2   8 34.9622 2.64877   1 
   6  -2  -8 98.6712 4.23763   1 
  -6   2   8 98.6842 5.35582   3 
  -6   2   8 102.954 5.11154   4 
  -6   2   8 98.5519 3.18313   2 
  -6   2   8 100.130 3.60126   1 
   5  -2  -8 28.6162 2.16940   2 
   5  -2  -8 26.6220 2.52938   1 
  -5   2   8 31.2878 3.41159   4 
  -5   2   8 27.3763 1.85413   2 
  -5   2   8 31.2546 3.71525   3 
  -5   2   8 27.5345 2.21491   1 
   4  -2  -8 2.11756 0.96832   2 
   4  -2  -8 2.12222 1.28031   1 
   4  -2  -8 1.81255 2.04297   4 
  -4   2   8 0.05490 1.18923   1 
  -4   2   8 2.49666 0.96906   2 
  -4   2   8 2.07370 1.99864   3 
  -4   2   8 0.07765 1.66279   4 
   3  -2  -8 6.13572 1.98225   4 
   3  -2  -8 3.40447 1.19111   1 
   3  -2  -8 5.72288 1.03994   2 
  -3   2   8 2.66947 1.21901   1 
  -3   2   8 2.93069 1.03547   2 
  -3   2   8 4.18749 1.95217   3 
  -3   2   8 2.41368 1.55397   4 
   2  -2  -8 3.55469 1.90503   4 
   2  -2  -8 1.99186 0.92274   2 
   2  -2  -8 2.72867 1.20875   1 
  -2   2   8 2.55720 1.39240   1 
  -2   2   8 1.85782 1.86187   3 
  -2   2   8 1.48236 1.10300   2 
  -2   2   8 2.18325 1.35338   4 
   1  -2  -8 55.4703 2.64808   1 
   1  -2  -8 55.7764 3.72826   4 
  -1   2   8 55.5917 2.98653   4 
  -1   2   8 57.8694 3.48238   3 
  -1   2   8 63.6002 3.08704   1 
  -1   2   8 53.3721 2.60771   2 
   0  -2  -8 385.157 9.54830   4 
   0  -2  -8 403.260 8.45807   2 
   0  -2  -8 392.983 8.75595   1 
   0   2   8 370.836 9.07777   1 
   0   2   8 386.421 8.67572   2 
   0   2   8 379.565 8.55459   4 
  -1  -2  -8 102.766 3.92006   2 
  -1  -2  -8 106.049 4.75073   4 
  -1  -2  -8 104.304 3.90742   1 
   1   2   8 100.638 4.41408   1 
   1   2   8 102.174 4.05713   2 
   1   2   8 100.397 3.80917   3 
   1   2   8 99.3456 3.55310   4 
  -2  -2  -8 1022.60 20.3692   2 
  -2  -2  -8 1037.41 20.9618   4 
  -2  -2  -8 1056.13 20.4991   1 
   2   2   8 1043.33 19.9255   4 
   2   2   8 1023.37 21.1410   1 
   2   2   8 1027.35 20.6092   2 
  -3  -2  -8 29.0395 3.88259   2 
  -3  -2  -8 31.3486 4.40243   4 
  -3  -2  -8 28.3879 3.02057   1 
   3   2   8 26.9182 2.84503   4 
   3   2   8 22.6433 3.46457   1 
   3   2   8 27.7421 3.09820   2 
  -4  -2  -8 270.660 7.62705   1 
  -4  -2  -8 256.380 9.83106   4 
   4   2   8 264.582 7.23138   4 
   4   2   8 270.761 8.39209   2 
  -5  -2  -8 5.14046 2.43046   1 
   5   2   8 10.0004 2.75758   4 
   5   2   8 0.05157 3.34781   2 
  -9   3   8 17.3779 3.59734   4 
  -9   3   8 13.9715 2.12413   2 
  -9   3   8 20.7098 3.15282   2 
  -9   3   8 8.62314 3.41269   3 
  -8   3   8 40.7454 2.60175   2 
  -8   3   8 39.9656 4.85876   3 
  -8   3   8 38.3206 3.55723   2 
  -8   3   8 43.1567 3.25310   1 
  -8   3   8 31.5976 3.84073   4 
  -7   3   8 373.993 8.61624   2 
  -7   3   8 373.037 10.1817   4 
  -7   3   8 390.466 11.7535   3 
  -7   3   8 384.217 8.09063   2 
  -7   3   8 380.309 8.85946   1 
   6  -3  -8 32.8746 3.20610   1 
  -6   3   8 28.8475 3.64682   4 
  -6   3   8 33.1224 4.48163   3 
  -6   3   8 33.1098 1.99385   2 
  -6   3   8 35.2933 2.66439   1 
   5  -3  -8 158.003 5.19223   1 
  -5   3   8 156.671 4.77891   1 
  -5   3   8 163.458 5.75687   4 
  -5   3   8 166.616 4.05767   2 
  -5   3   8 163.045 6.35536   3 
   4  -3  -8 14.1308 2.58724   4 
   4  -3  -8 14.5956 2.16243   1 
   4  -3  -8 17.1803 1.60430   2 
  -4   3   8 15.1995 2.12962   1 
  -4   3   8 14.5421 2.72271   3 
  -4   3   8 11.8651 1.55361   2 
  -4   3   8 14.9456 2.14730   4 
   3  -3  -8 0.81600 1.19563   1 
   3  -3  -8 2.53263 0.85337   2 
   3  -3  -8 1.75358 2.00501   4 
  -3   3   8 -1.8801 1.96100   3 
  -3   3   8 2.34643 1.49443   4 
  -3   3   8 0.04085 0.98370   2 
  -3   3   8 2.91236 1.36454   1 
   2  -3  -8 44.7434 1.92423   2 
   2  -3  -8 39.5472 3.59628   4 
   2  -3  -8 40.6959 2.53242   1 
  -2   3   8 39.0293 2.86720   4 
  -2   3   8 44.6407 2.79867   1 
  -2   3   8 47.8229 3.83731   3 
  -2   3   8 37.9176 2.20583   2 
   1  -3  -8 1.85144 1.21075   1 
   1  -3  -8 3.53840 1.11970   2 
   1  -3  -8 -0.0845 1.97271   4 
  -1   3   8 2.84015 1.79245   3 
  -1   3   8 2.85893 1.62323   1 
  -1   3   8 4.15973 1.42732   4 
  -1   3   8 1.59360 1.95079   3 
  -1   3   8 4.01034 1.32445   2 
   0  -3  -8 2039.90 38.3626   4 
   0  -3  -8 2021.12 37.6214   1 
   0  -3  -8 2046.27 36.8619   2 
   0   3   8 2021.78 37.1085   2 
   0   3   8 2050.00 37.4509   3 
   0   3   8 2016.63 37.1664   4 
   0   3   8 2022.49 37.1275   3 
   0   3   8 1986.09 37.7891   1 
  -1  -3  -8 196.468 5.65460   1 
  -1  -3  -8 192.943 5.54424   2 
  -1  -3  -8 193.147 6.64934   4 
   1   3   8 198.091 5.72433   2 
   1   3   8 185.203 6.29037   1 
   1   3   8 187.145 5.38963   4 
  -2  -3  -8 339.968 8.69036   2 
  -2  -3  -8 351.731 8.60437   1 
  -2  -3  -8 347.468 9.46176   4 
   2   3   8 355.565 8.24160   4 
   2   3   8 332.348 9.35467   1 
   2   3   8 359.587 8.86679   2 
  -3  -3  -8 65.6457 3.91275   1 
  -3  -3  -8 63.5206 4.86525   2 
   3   3   8 66.4528 4.57372   2 
   3   3   8 60.1392 3.82392   4 
  -4  -3  -8 12.0465 2.50316   1 
   4   3   8 16.6621 3.34653   2 
  -9   4   8 22.3989 3.71135   4 
  -9   4   8 18.7077 3.55897   2 
  -9   4   8 19.1680 2.63773   2 
  -9   4   8 16.8836 3.62947   3 
  -8   4   8 1.00962 2.84102   3 
  -8   4   8 0.80385 2.74979   4 
  -8   4   8 1.65163 2.03782   2 
  -8   4   8 -0.1602 1.28655   2 
  -7   4   8 453.216 11.0934   4 
  -7   4   8 451.814 8.81582   2 
  -7   4   8 456.093 11.4860   3 
  -7   4   8 436.454 9.97010   1 
  -7   4   8 366.252 9.38623   2 
   6  -4  -8 33.5134 3.43140   1 
  -6   4   8 31.9470 3.70314   4 
  -6   4   8 32.2672 1.82889   2 
  -6   4   8 21.0123 3.58993   3 
  -6   4   8 24.0811 2.82304   1 
  -6   4   8 32.9348 4.04127   3 
   5  -4  -8 2.14127 2.70701   4 
   5  -4  -8 1.59147 1.64522   1 
  -5   4   8 9.27703 3.01580   3 
  -5   4   8 -0.2792 2.10639   4 
  -5   4   8 3.85217 0.97108   2 
  -5   4   8 1.86590 2.26401   3 
  -5   4   8 2.64416 1.62195   1 
   4  -4  -8 33.7095 4.69415   1 
   4  -4  -8 31.0478 4.21977   4 
  -4   4   8 34.8034 3.64229   3 
  -4   4   8 28.5696 2.61392   1 
  -4   4   8 33.4100 3.71997   4 
  -4   4   8 38.6811 4.46201   3 
   3  -4  -8 138.716 3.38214   2 
   3  -4  -8 141.538 5.86477   4 
   3  -4  -8 142.242 4.90199   1 
  -3   4   8 143.992 3.63795   2 
  -3   4   8 143.034 5.28181   3 
  -3   4   8 146.452 5.06436   4 
  -3   4   8 142.295 4.68784   1 
  -3   4   8 148.100 6.10773   3 
   2  -4  -8 298.479 6.12844   2 
   2  -4  -8 300.573 8.58455   4 
   2  -4  -8 263.787 9.45364   1 
  -2   4   8 302.123 7.76007   3 
  -2   4   8 311.642 8.46490   3 
  -2   4   8 278.586 9.50141   4 
  -2   4   8 293.120 6.43862   2 
  -2   4   8 296.226 7.50143   1 
   1  -4  -8 209.618 6.18930   1 
   1  -4  -8 215.816 5.11627   2 
   1  -4  -8 214.490 7.09083   4 
  -1   4   8 206.994 6.27388   1 
  -1   4   8 215.489 6.81918   3 
  -1   4   8 214.980 6.13461   3 
  -1   4   8 208.677 5.30277   2 
  -1   4   8 212.718 5.84787   4 
   0  -4  -8 656.213 13.7342   1 
   0  -4  -8 651.185 14.8052   4 
   0  -4  -8 663.152 13.1401   2 
   0   4   8 649.201 13.4784   4 
   0   4   8 652.064 13.3243   3 
   0   4   8 662.153 13.3415   2 
   0   4   8 636.103 14.1765   1 
   0   4   8 660.896 14.0184   3 
  -1  -4  -8 16.0236 2.90799   4 
  -1  -4  -8 12.2438 2.18215   2 
  -1  -4  -8 13.4577 2.10591   1 
   1   4   8 14.7793 2.21047   2 
   1   4   8 11.4399 2.02574   4 
   1   4   8 15.2009 2.67769   1 
  -2  -4  -8 76.7076 4.64157   2 
  -2  -4  -8 73.5485 3.95514   1 
   2   4   8 76.6475 3.91746   4 
  -3  -4  -8 1.71097 2.07338   1 
   3   4   8 1.89336 2.24239   4 
   3   4   8 -2.6789 2.65004   2 
  -4  -4  -8 1.67411 2.45188   1 
   4   4   8 2.47583 2.95047   4 
  -9   5   8 21.5909 3.91998   3 
  -9   5   8 21.8761 3.69716   4 
  -9   5   8 25.5970 2.37973   2 
  -8   5   8 1.28369 1.29158   2 
  -8   5   8 2.60148 3.07585   3 
  -8   5   8 2.93351 2.77624   4 
  -8   5   8 0.33965 1.86576   2 
  -7   5   8 -0.2199 2.60022   3 
  -7   5   8 -1.6336 2.28730   4 
   6  -5  -8 11.9651 2.48806   1 
  -6   5   8 15.3148 3.65862   1 
  -6   5   8 18.2374 2.99095   3 
  -6   5   8 15.0874 2.57556   4 
   5  -5  -8 78.2552 5.76794   4 
   5  -5  -8 72.2786 4.24456   1 
  -5   5   8 73.9053 3.76136   1 
  -5   5   8 81.4010 5.81706   3 
  -5   5   8 84.0298 4.73369   3 
  -5   5   8 78.6520 4.11667   4 
   4  -5  -8 39.0868 3.21869   1 
   4  -5  -8 41.8788 4.89074   4 
  -4   5   8 44.3845 3.86435   3 
  -4   5   8 36.8251 5.09447   3 
  -4   5   8 43.0260 3.18730   1 
  -4   5   8 39.1612 3.36469   4 
   3  -5  -8 24.2150 2.82686   1 
   3  -5  -8 24.2203 3.31932   4 
  -3   5   8 23.4841 3.42000   3 
  -3   5   8 24.9821 2.90032   4 
  -3   5   8 25.9429 2.93329   1 
  -3   5   8 26.2658 3.51797   3 
   2  -5  -8 18.2500 3.15661   4 
   2  -5  -8 16.8219 2.18929   1 
  -2   5   8 23.6765 3.41121   3 
  -2   5   8 22.4141 2.66077   4 
  -2   5   8 17.2498 2.32858   1 
  -2   5   8 18.4706 2.46669   3 
   1  -5  -8 11.2657 2.04531   1 
   1  -5  -8 9.18504 2.91078   4 
   1  -5  -8 9.60242 1.45175   2 
  -1   5   8 14.8234 2.13529   2 
  -1   5   8 12.0690 2.19465   3 
  -1   5   8 10.5878 1.84880   4 
  -1   5   8 16.5552 3.22707   3 
  -1   5   8 7.80366 2.24938   1 
   0  -5  -8 10.7434 2.02219   1 
   0  -5  -8 8.52492 1.87563   2 
   0   5   8 3.60299 2.42490   1 
   0   5   8 9.27366 3.03727   3 
   0   5   8 7.06613 2.04846   3 
   0   5   8 6.65232 1.85385   4 
   0   5   8 9.38626 1.89635   2 
  -1  -5  -8 0.79002 1.91666   1 
  -1  -5  -8 1.62702 2.16642   2 
   1   5   8 6.25578 2.11677   2 
   1   5   8 0.58162 1.86485   4 
  -2  -5  -8 8.07276 2.20412   1 
  -2  -5  -8 8.65654 3.04695   2 
   2   5   8 1.38310 2.30749   4 
  -3  -5  -8 0.56242 2.35964   1 
   3   5   8 0.97228 2.87815   4 
  -8   6   8 19.5476 3.47151   3 
  -8   6   8 12.3506 3.00277   4 
  -7   6   8 -5.6059 2.67853   3 
  -7   6   8 0.44590 2.32166   4 
   6  -6  -8 6.03383 2.62814   1 
  -6   6   8 8.92232 2.79088   3 
  -6   6   8 11.5866 2.46367   4 
   5  -6  -8 22.5087 4.03834   4 
   5  -6  -8 27.6677 3.71838   1 
  -5   6   8 24.4616 3.18588   3 
  -5   6   8 26.0417 3.52771   4 
   4  -6  -8 8.18377 3.36462   4 
   4  -6  -8 6.93197 2.16165   1 
  -4   6   8 7.73537 2.07083   4 
  -4   6   8 10.0423 2.52584   3 
  -4   6   8 4.25711 3.38234   3 
   3  -6  -8 36.3008 3.44027   1 
  -3   6   8 34.6165 4.29279   3 
  -3   6   8 36.8827 3.11267   4 
  -3   6   8 36.5369 3.81493   3 
   2  -6  -8 16.7720 2.43849   1 
  -2   6   8 16.4736 2.12865   4 
  -2   6   8 19.7197 3.84931   3 
  -2   6   8 13.0266 3.02456   3 
   1  -6  -8 178.789 5.93385   1 
   1  -6  -8 169.572 4.47060   2 
  -1   6   8 176.590 5.56913   4 
  -1   6   8 167.033 5.53429   3 
  -1   6   8 178.120 7.64376   3 
   0  -6  -8 0.75319 2.04903   1 
   0  -6  -8 1.05655 1.98242   2 
   0   6   8 -5.9720 3.77635   3 
   0   6   8 0.45568 2.14684   3 
   0   6   8 0.79725 1.85582   4 
  -1  -6  -8 4.31246 2.38940   1 
  -1  -6  -8 9.40783 2.82957   2 
   1   6   8 1.15595 2.23322   4 
  -2  -6  -8 2.99969 2.55094   1 
   2   6   8 2.91335 2.75345   4 
  -8   7   8 10.3821 3.57865   3 
  -8   7   8 2.43300 2.98741   4 
  -7   7   8 -0.4879 2.61015   4 
  -7   7   8 10.8914 3.18392   3 
   6  -7  -8 19.0704 3.39969   1 
  -6   7   8 24.4776 3.56001   3 
  -6   7   8 31.2084 3.84147   4 
   5  -7  -8 47.1175 4.48240   1 
  -5   7   8 40.7090 4.56457   3 
  -5   7   8 40.9857 3.81310   4 
   4  -7  -8 17.6748 3.02925   1 
  -4   7   8 14.4891 2.30821   4 
  -4   7   8 20.2315 3.01783   3 
   3  -7  -8 174.507 6.47971   1 
  -3   7   8 177.751 5.66913   4 
  -3   7   8 166.025 6.27230   3 
   2  -7  -8 1.60521 2.39390   1 
  -2   7   8 0.13945 4.09203   3 
  -2   7   8 4.25048 2.07060   4 
  -2   7   8 1.95757 2.39622   3 
  -1   7   8 23.4846 2.92682   3 
  -1   7   8 28.2127 3.56880   4 
  -1   7   8 25.0333 5.01186   3 
   0  -7  -8 11.2080 2.93333   1 
   0   7   8 6.77504 2.83097   3 
   0   7   8 0.71945 7.44978   3 
   0   7   8 9.34804 2.54412   4 
   6  -8  -8 37.7515 4.50232   1 
  -6   8   8 42.1105 4.13249   4 
  -6   8   8 31.6475 4.03242   3 
   5  -8  -8 4.45513 3.17753   1 
  -5   8   8 -5.5513 2.92599   3 
  -5   8   8 1.79199 2.25988   4 
   4  -8  -8 3.74118 3.17710   1 
  -4   8   8 0.48482 2.12803   4 
  -4   8   8 1.37427 2.86544   3 
   3  -8  -8 498.315 12.7411   1 
  -3   8   8 497.330 11.6102   4 
  -3   8   8 512.752 12.0936   3 
  -2   8   8 4.24884 2.50632   4 
  -2   8   8 -1.4354 2.92195   3 
   2   8  -9 8.54000 4.45905   3 
  -2  -8   9 -2.6124 2.42979   2 
   1   8  -9 16.4402 4.21007   3 
  -1  -8   9 10.7242 2.88667   2 
  -1  -8   9 13.5678 4.57620   4 
  -1  -8   9 15.3909 3.35296   4 
   0   8  -9 10.4171 3.58460   3 
   0  -8   9 12.2651 3.98208   4 
   0  -8   9 7.83840 2.92108   2 
   0  -8   9 12.6366 4.44533   4 
  -1   8  -9 6.53997 3.46227   3 
   1  -8   9 -5.1805 2.96695   2 
  -2   8  -9 0.39864 3.10023   1 
  -2   8  -9 0.27146 3.17449   3 
   2  -8   9 9.28340 3.13733   2 
  -3   8  -9 322.408 9.75793   1 
  -3   8  -9 324.103 10.0801   3 
   3  -8   9 321.180 9.98762   2 
   4   7  -9 99.6821 7.99638   3 
  -4  -7   9 105.231 5.63924   2 
   3   7  -9 52.4109 6.44966   3 
  -3  -7   9 39.3777 4.32220   2 
   2   7  -9 17.1545 3.88548   3 
  -2  -7   9 10.1903 2.28418   2 
  -2  -7   9 12.9752 3.12879   4 
   1   7  -9 134.161 6.80827   3 
  -1  -7   9 157.960 8.46021   4 
  -1  -7   9 135.584 5.64239   2 
  -1  -7   9 158.564 6.00892   4 
   0   7  -9 15.7940 2.50839   1 
   0   7  -9 16.4017 3.40646   3 
   0  -7   9 15.1817 2.63883   4 
   0  -7   9 17.5838 3.53707   4 
   0  -7   9 13.8728 2.77224   2 
  -1   7  -9 37.0072 4.82196   3 
  -1   7  -9 33.4822 3.92360   1 
   1  -7   9 30.0240 4.17518   2 
  -2   7  -9 1.24645 2.54319   1 
  -2   7  -9 -1.5633 2.72729   3 
   2  -7   9 2.63471 2.50477   2 
  -3   7  -9 3.83644 2.99394   3 
  -3   7  -9 11.1275 3.16050   1 
   3  -7   9 7.18881 3.01213   2 
  -4   7  -9 5.65944 3.18552   1 
  -4   7  -9 7.38045 3.11466   3 
   4  -7   9 9.92913 3.53678   2 
   5   6  -9 -6.3910 4.30963   3 
  -5  -6   9 -0.3705 2.54899   2 
   4   6  -9 2.43260 3.83072   3 
  -4  -6   9 -1.0485 2.18413   2 
   3   6  -9 91.0482 6.37179   3 
  -3  -6   9 105.640 8.56307   4 
  -3  -6   9 98.5941 4.79968   2 
   2   6  -9 28.4860 3.79378   3 
  -2  -6   9 20.5934 2.67468   2 
  -2  -6   9 25.3388 3.30936   4 
  -2  -6   9 28.2424 3.93724   4 
   1   6  -9 7.93223 2.84670   3 
  -1  -6   9 3.94067 2.63424   4 
  -1  -6   9 3.63987 2.21051   2 
  -1  -6   9 0.77749 2.92738   4 
   0   6  -9 110.774 5.71804   3 
   0   6  -9 115.955 4.46419   1 
   0  -6   9 131.301 5.55954   1 
   0  -6   9 112.024 5.53338   4 
   0  -6   9 117.519 5.06413   2 
   0  -6   9 116.017 4.98424   4 
  -1   6  -9 10.9967 2.35194   1 
  -1   6  -9 7.83582 2.75235   3 
   1  -6   9 9.81083 3.06225   1 
   1  -6   9 8.49237 2.36764   2 
  -2   6  -9 17.0996 2.65577   1 
  -2   6  -9 12.7802 2.82077   3 
   2  -6   9 14.5641 3.73624   1 
   2  -6   9 9.74339 2.62062   2 
  -3   6  -9 16.9660 3.03820   1 
  -3   6  -9 24.7014 3.12611   3 
   3  -6   9 16.4322 3.38180   2 
  -4   6  -9 8.56882 2.95488   1 
  -4   6  -9 5.83614 2.86287   3 
   4  -6   9 18.2107 3.62355   2 
  -5   6  -9 2.62215 3.02574   3 
  -5   6  -9 6.41881 3.19845   1 
   5  -6   9 0.65435 2.93623   2 
   6   5  -9 39.5382 5.52131   3 
  -6  -5   9 37.3261 3.96858   2 
   5   5  -9 5.62628 3.59008   3 
  -5  -5   9 1.78607 2.01593   2 
   4   5  -9 53.3139 5.46033   3 
  -4  -5   9 47.1627 3.68094   2 
   3   5  -9 16.6515 3.38985   3 
  -3  -5   9 15.6015 2.28228   2 
  -3  -5   9 13.3749 3.09857   4 
  -3  -5   9 13.7394 3.39515   4 
   2   5  -9 13.6075 2.98234   3 
   2   5  -9 9.98965 1.88289   2 
  -2  -5   9 10.9948 2.03936   2 
  -2  -5   9 11.3897 3.01054   4 
  -2  -5   9 8.67100 2.29329   3 
  -2  -5   9 18.3634 2.88364   4 
   1   5  -9 29.2853 2.64375   2 
   1   5  -9 27.0297 2.44574   1 
   1   5  -9 21.3839 3.19223   3 
  -1  -5   9 28.0610 3.10521   3 
  -1  -5   9 25.9663 3.40898   1 
  -1  -5   9 31.4264 3.98293   4 
  -1  -5   9 21.6060 2.89564   2 
  -1  -5   9 25.9041 3.09955   4 
   0   5  -9 35.4227 2.97298   1 
   0   5  -9 34.3875 2.83704   2 
   0   5  -9 46.1031 4.06206   3 
   0  -5   9 36.3561 3.24746   2 
   0  -5   9 29.3940 3.81682   4 
   0  -5   9 40.7643 3.98073   1 
   0  -5   9 35.5600 3.19099   3 
   0  -5   9 36.2057 3.93369   4 
  -1   5  -9 -1.0001 1.70640   1 
  -1   5  -9 -1.8476 1.56883   2 
  -1   5  -9 3.68613 2.24205   3 
   1  -5   9 4.17811 1.79789   3 
   1  -5   9 0.11708 2.57310   1 
   1  -5   9 -1.9079 1.82815   2 
  -2   5  -9 -3.9296 2.01680   3 
  -2   5  -9 1.44055 1.99857   1 
   2  -5   9 -0.9642 2.74325   1 
   2  -5   9 -2.0298 1.60653   3 
   2  -5   9 3.64294 2.05811   2 
  -3   5  -9 28.6510 3.80352   3 
  -3   5  -9 28.3714 3.67455   1 
   3  -5   9 33.1779 4.14041   2 
   3  -5   9 23.6971 3.13223   3 
  -4   5  -9 8.82829 2.58335   1 
  -4   5  -9 6.75264 2.65645   3 
   4  -5   9 9.08376 2.93648   2 
   4  -5   9 12.3108 2.32360   3 
  -5   5  -9 57.5306 5.02316   1 
  -5   5  -9 64.3687 4.84024   3 
   5  -5   9 59.4575 5.23420   2 
   5  -5   9 46.4809 4.41800   3 
   7   4  -9 -2.7686 4.56872   3 
  -7  -4   9 3.16647 2.80905   2 
   6   4  -9 -0.5746 3.91130   3 
  -6  -4   9 4.79313 1.93447   2 
   5   4  -9 14.7683 3.46720   3 
  -5  -4   9 9.96209 2.28673   2 
   4   4  -9 0.72762 2.68667   3 
  -4  -4   9 1.02213 2.84313   4 
  -4  -4   9 -0.1551 2.77975   4 
  -4  -4   9 0.67121 2.49954   3 
  -4  -4   9 0.91986 1.60380   2 
   3   4  -9 7.01102 1.76452   2 
   3   4  -9 0.41724 2.49212   3 
  -3  -4   9 5.11248 2.10285   3 
  -3  -4   9 5.56692 2.69860   4 
  -3  -4   9 3.90934 1.69101   2 
   2   4  -9 60.0680 2.63517   1 
   2   4  -9 61.1693 3.27026   2 
   2   4  -9 65.1794 4.52555   3 
  -2  -4   9 68.6933 4.59354   4 
  -2  -4   9 65.4845 3.42830   1 
  -2  -4   9 66.3912 3.77558   3 
  -2  -4   9 64.6109 4.63546   4 
  -2  -4   9 63.2781 3.30562   2 
   1   4  -9 141.912 4.25366   1 
   1   4  -9 127.611 4.38482   2 
   1   4  -9 133.096 5.96976   3 
  -1  -4   9 141.034 4.88595   1 
  -1  -4   9 132.475 5.37929   4 
  -1  -4   9 142.214 5.48010   4 
  -1  -4   9 132.788 4.71279   2 
  -1  -4   9 139.644 4.80672   3 
   0   4  -9 1484.72 27.4724   1 
   0   4  -9 1447.98 29.0425   3 
   0  -4   9 1490.17 28.1000   1 
   0  -4   9 1446.02 28.0232   2 
   0  -4   9 1434.82 27.4658   3 
   0  -4   9 1448.61 27.7625   4 
   0  -4   9 1472.56 27.7651   4 
  -1   4  -9 3.31066 2.12502   3 
  -1   4  -9 5.03280 1.75440   1 
  -1   4  -9 2.12870 1.49242   2 
   1  -4   9 -1.3198 2.30564   1 
   1  -4   9 5.71956 3.16666   4 
   1  -4   9 5.31234 1.70521   4 
   1  -4   9 2.40909 1.57879   3 
   1  -4   9 3.96366 1.95050   2 
  -2   4  -9 233.845 6.76757   1 
  -2   4  -9 237.429 7.01643   3 
  -2   4  -9 211.546 6.39943   2 
   2  -4   9 226.378 5.94027   3 
   2  -4   9 239.476 7.13363   2 
   2  -4   9 234.780 7.60938   1 
  -3   4  -9 38.8429 3.65150   3 
  -3   4  -9 31.7116 3.51895   1 
   3  -4   9 22.7269 3.51377   1 
   3  -4   9 29.6335 2.78759   3 
   3  -4   9 26.7280 3.88006   2 
  -4   4  -9 1.24954 2.31271   1 
  -4   4  -9 1.10105 2.33723   3 
   4  -4   9 0.24363 1.82921   3 
   4  -4   9 -1.8642 2.05908   2 
  -5   4  -9 17.1181 3.03149   3 
  -5   4  -9 18.1604 3.23638   1 
   5  -4   9 19.4541 3.61024   2 
   5  -4   9 13.9002 2.55949   3 
   7   3  -9 10.0045 4.35105   3 
  -7  -3   9 12.8208 2.34790   2 
  -7  -3   9 15.6835 4.40982   4 
   6   3  -9 3.08338 3.38366   3 
  -6  -3   9 1.34877 1.71476   2 
  -6  -3   9 -1.7477 3.29475   4 
   5   3  -9 17.7827 2.92855   2 
   5   3  -9 17.2696 3.45843   3 
  -5  -3   9 19.8451 3.60604   4 
  -5  -3   9 17.8965 2.41598   2 
  -5  -3   9 15.5845 2.72337   3 
  -5  -3   9 22.6824 4.36792   4 
   4   3  -9 98.5587 5.44900   3 
   4   3  -9 87.0640 4.07979   2 
  -4  -3   9 93.1589 5.50524   4 
  -4  -3   9 94.3434 3.90098   2 
  -4  -3   9 90.8191 4.62036   3 
  -4  -3   9 97.4733 5.57768   4 
   3   3  -9 37.9652 3.83102   3 
   3   3  -9 32.4506 2.13429   1 
   3   3  -9 30.6012 2.68741   2 
  -3  -3   9 28.4574 3.08424   2 
  -3  -3   9 37.2373 3.35214   3 
  -3  -3   9 30.8735 2.61737   1 
  -3  -3   9 31.3560 4.04187   4 
  -3  -3   9 36.4871 4.21058   4 
   2   3  -9 1841.76 35.6675   3 
   2   3  -9 1778.73 34.1964   2 
   2   3  -9 1893.01 33.7005   1 
  -2  -3   9 1872.14 35.1542   4 
  -2  -3   9 1892.21 35.3629   4 
  -2  -3   9 1833.21 34.5152   2 
  -2  -3   9 1839.68 34.6281   3 
  -2  -3   9 1883.80 34.2239   1 
   1   3  -9 89.0884 3.54729   2 
   1   3  -9 97.5552 3.44771   1 
   1   3  -9 93.1549 4.67233   3 
  -1  -3   9 101.901 4.07168   1 
  -1  -3   9 100.341 4.66688   4 
  -1  -3   9 88.1923 3.84187   2 
  -1  -3   9 92.7344 3.95676   3 
   0   3  -9 770.731 15.2310   1 
   0   3  -9 738.846 15.1744   2 
   0   3  -9 768.499 16.1813   3 
   0  -3   9 773.355 15.4575   4 
   0  -3   9 746.453 15.7363   2 
   0  -3   9 744.909 15.1700   3 
   0  -3   9 750.519 15.7052   1 
  -1   3  -9 58.3494 3.30056   1 
  -1   3  -9 58.3335 3.25803   2 
  -1   3  -9 67.7007 3.90956   3 
   1  -3   9 58.6054 3.18427   4 
   1  -3   9 63.1606 4.14125   1 
   1  -3   9 56.7801 3.80489   2 
   1  -3   9 62.3073 3.14396   3 
  -2   3  -9 10.6933 2.01939   1 
  -2   3  -9 8.84436 2.22404   3 
  -2   3  -9 10.8820 2.11336   2 
   2  -3   9 9.93366 1.56260   4 
   2  -3   9 12.5329 2.44524   2 
   2  -3   9 7.64827 2.68844   1 
   2  -3   9 9.11947 1.63346   3 
  -3   3  -9 64.2186 3.96324   1 
  -3   3  -9 66.8500 3.92816   3 
   3  -3   9 58.4916 2.95633   3 
   3  -3   9 63.2255 4.35763   2 
   3  -3   9 57.6801 4.96232   1 
  -4   3  -9 5.93311 2.22076   1 
  -4   3  -9 9.27216 2.40091   3 
   4  -3   9 4.01870 2.21083   2 
   4  -3   9 6.19727 1.74852   3 
  -5   3  -9 10.0263 2.87912   1 
   5  -3   9 6.44144 2.68344   2 
  -8  -2   9 29.4448 4.95394   4 
  -8  -2   9 33.6776 3.79054   2 
   7   2  -9 4.71061 3.77896   3 
  -7  -2   9 -4.3053 3.28027   4 
  -7  -2   9 -0.7555 1.85695   2 
   6   2  -9 0.53037 3.03669   3 
  -6  -2   9 4.43901 3.02475   4 
  -6  -2   9 -1.3941 1.65159   2 
   5   2  -9 36.6637 3.34013   2 
   5   2  -9 32.8367 4.59205   3 
  -5  -2   9 32.1302 4.55759   4 
  -5  -2   9 30.8791 4.03228   3 
  -5  -2   9 32.5308 3.87699   4 
  -5  -2   9 28.9213 2.60693   2 
   4   2  -9 430.678 11.0488   3 
  -4  -2   9 426.074 10.3344   3 
  -4  -2   9 414.979 10.7841   4 
  -4  -2   9 430.185 9.03636   1 
  -4  -2   9 417.394 10.2824   2 
   3   2  -9 -2.2763 1.96919   3 
   3   2  -9 -0.2539 1.14166   2 
   3   2  -9 -1.0836 1.14045   1 
  -3  -2   9 1.32194 1.62403   1 
  -3  -2   9 -0.0890 1.30731   2 
  -3  -2   9 -1.8120 2.05712   4 
  -3  -2   9 0.12422 1.94291   3 
  -3  -2   9 2.50167 2.31870   4 
   2   2  -9 1817.85 35.1554   3 
   2   2  -9 1857.90 33.5484   1 
   2   2  -9 1821.95 33.8343   2 
  -2  -2   9 1805.86 34.0838   2 
  -2  -2   9 1854.24 34.4931   3 
  -2  -2   9 1849.88 34.9062   4 
  -2  -2   9 1873.23 34.0165   1 
   1   2  -9 74.6814 3.21597   2 
   1   2  -9 80.5159 3.13270   1 
   1   2  -9 76.1391 4.13828   3 
  -1  -2   9 83.4508 3.56018   2 
  -1  -2   9 76.7997 3.73556   3 
  -1  -2   9 77.8406 4.00601   4 
  -1  -2   9 85.4657 3.75627   1 
   0   2  -9 162.573 4.74819   1 
   0   2  -9 150.627 4.64364   2 
   0   2  -9 158.009 5.48084   3 
   0  -2   9 155.277 5.02448   4 
   0  -2   9 159.291 4.86166   3 
   0  -2   9 159.626 5.10895   2 
   0  -2   9 160.954 5.39434   1 
  -1   2  -9 37.3356 2.75710   1 
  -1   2  -9 41.8270 2.81088   2 
  -1   2  -9 34.4311 3.29985   3 
  -1   2  -9 33.3526 3.45482   4 
   1  -2   9 35.2000 2.72429   4 
   1  -2   9 35.2303 3.09021   2 
   1  -2   9 32.7491 2.60324   3 
   1  -2   9 36.0491 3.52301   1 
  -2   2  -9 22.6954 2.56069   3 
  -2   2  -9 20.2874 2.60929   4 
  -2   2  -9 23.0385 2.56426   2 
  -2   2  -9 18.6241 2.78615   1 
   2  -2   9 23.8564 2.32494   3 
   2  -2   9 19.3435 2.12970   4 
   2  -2   9 27.4464 3.78219   1 
   2  -2   9 21.8126 2.69157   2 
  -3   2  -9 54.0945 4.09079   4 
  -3   2  -9 52.3152 3.91032   2 
  -3   2  -9 60.4920 3.71970   3 
  -3   2  -9 61.2172 3.75311   1 
   3  -2   9 54.7557 2.75196   3 
   3  -2   9 49.3733 3.92122   2 
   3  -2   9 57.1821 2.66611   4 
   3  -2   9 56.4442 4.99276   1 
  -4   2  -9 87.5339 4.55964   1 
  -4   2  -9 91.4948 4.95882   4 
   4  -2   9 88.9980 3.33859   4 
  -5   2  -9 6.25814 2.38684   1 
   5  -2   9 11.8687 3.22760   2 
  -8  -1   9 19.1451 2.58259   2 
  -8  -1   9 21.0200 4.58093   4 
   7   1  -9 98.8307 6.51200   3 
  -7  -1   9 98.9645 4.22830   2 
  -7  -1   9 99.4287 6.58410   4 
   6   1  -9 4.97035 2.94484   3 
  -6  -1   9 -0.0102 1.49883   1 
  -6  -1   9 0.55820 2.58537   3 
  -6  -1   9 2.48026 2.74740   4 
  -6  -1   9 1.09692 1.41819   2 
   5   1  -9 6.82577 1.64185   1 
   5   1  -9 9.67431 1.95918   2 
   5   1  -9 10.4102 2.84153   3 
  -5  -1   9 7.02581 2.75812   4 
  -5  -1   9 6.62128 1.50571   2 
  -5  -1   9 6.24127 2.52663   3 
  -5  -1   9 5.82662 1.52183   1 
  -5  -1   9 7.18134 2.64665   4 
   4   1  -9 6.92608 1.59011   2 
   4   1  -9 6.38167 1.51251   1 
   4   1  -9 3.94166 2.66394   3 
  -4  -1   9 2.74959 2.25305   4 
  -4  -1   9 4.07340 1.39317   2 
  -4  -1   9 5.31157 2.27912   3 
  -4  -1   9 4.66432 1.48242   1 
   3   1  -9 12.6975 1.60316   1 
   3   1  -9 12.6585 2.59204   3 
   3   1  -9 9.83814 1.61445   2 
  -3  -1   9 11.4418 1.57191   2 
  -3  -1   9 14.9042 1.87884   1 
  -3  -1   9 11.4114 2.25669   3 
  -3  -1   9 13.4433 2.38710   4 
   2   1  -9 44.3370 2.44672   2 
   2   1  -9 42.3511 3.62360   3 
   2   1  -9 46.8682 2.38876   1 
  -2  -1   9 46.2558 2.65336   2 
  -2  -1   9 40.6742 3.49088   4 
  -2  -1   9 52.1616 2.94326   1 
  -2  -1   9 47.8505 3.45385   3 
   1   1  -9 1.72354 1.75194   3 
   1   1  -9 2.55507 1.38755   2 
   1   1  -9 2.72169 1.19866   1 
  -1  -1   9 0.66650 1.65599   4 
  -1  -1   9 2.46988 1.37093   2 
  -1  -1   9 2.14354 1.72370   3 
  -1  -1   9 3.37204 1.61817   1 
   0   1  -9 4.98049 2.03754   4 
   0   1  -9 5.15335 1.44635   1 
   0   1  -9 1.87285 1.28975   2 
   0   1  -9 2.75277 1.86343   3 
   0  -1   9 5.95224 1.79461   1 
   0  -1   9 1.39147 1.67852   3 
   0  -1   9 3.72059 1.58016   4 
   0  -1   9 0.07476 1.38621   2 
  -1   1  -9 84.3089 3.99141   3 
  -1   1  -9 86.1443 3.63437   1 
  -1   1  -9 84.8936 3.68142   2 
  -1   1  -9 86.0311 4.41710   4 
   1  -1   9 87.1520 3.41514   3 
   1  -1   9 83.1076 3.43446   4 
   1  -1   9 85.7017 4.35243   1 
   1  -1   9 86.0107 3.95910   2 
  -2   1  -9 16.6099 2.20573   2 
  -2   1  -9 8.55574 1.84129   1 
  -2   1  -9 12.5414 2.19908   3 
  -2   1  -9 13.9332 2.55701   4 
   2  -1   9 14.7105 1.74462   4 
   2  -1   9 10.2549 2.52843   1 
   2  -1   9 13.9033 1.68470   3 
   2  -1   9 11.1095 2.31432   2 
  -3   1  -9 -0.9107 2.09974   2 
  -3   1  -9 1.17174 2.28697   4 
  -3   1  -9 2.08631 1.81678   1 
   3  -1   9 1.71080 1.98762   2 
   3  -1   9 -0.0091 1.26762   4 
  -4   1  -9 34.4367 4.46265   4 
  -4   1  -9 28.0942 3.59212   1 
   4  -1   9 29.5379 2.76235   4 
   4  -1   9 28.9762 4.14737   2 
  -5   1  -9 1.54624 3.29432   4 
  -5   1  -9 5.63673 2.51234   1 
   5  -1   9 8.07794 2.20654   4 
   5  -1   9 8.12368 3.31291   2 
  -9   0   9 -0.9056 2.39884   2 
  -9   0   9 0.01917 4.44689   4 
  -8   0   9 28.5335 2.98929   1 
  -8   0   9 26.6428 4.38930   4 
  -8   0   9 31.2095 3.15672   2 
  -7   0   9 22.5119 2.68823   2 
  -7   0   9 22.1240 2.51465   1 
  -7   0   9 25.4662 3.73680   4 
   6   0  -9 14.3916 2.25530   1 
  -6   0   9 12.9243 3.04224   3 
  -6   0   9 12.3069 1.67003   1 
  -6   0   9 14.3754 3.00848   4 
  -6   0   9 13.5515 1.84288   2 
  -6   0   9 11.4034 2.97567   4 
   5   0  -9 59.2519 3.10945   1 
   5   0  -9 64.6543 4.61628   3 
   5   0  -9 55.9235 3.15751   2 
  -5   0   9 61.2378 4.49772   4 
  -5   0   9 50.4882 2.74641   2 
  -5   0   9 55.6467 2.86182   1 
  -5   0   9 56.2265 4.45885   3 
   4   0  -9 3.98697 1.44510   1 
   4   0  -9 3.43649 2.14690   3 
   4   0  -9 3.49265 1.33220   2 
  -4   0   9 3.67285 1.40078   1 
  -4   0   9 0.14464 2.08068   3 
  -4   0   9 1.64770 1.22508   2 
  -4   0   9 2.03195 2.06569   4 
   3   0  -9 16.6970 1.86938   2 
   3   0  -9 16.0779 1.93139   1 
   3   0  -9 14.6277 2.48633   3 
  -3   0   9 13.4511 1.96318   2 
  -3   0   9 19.4907 2.71889   3 
  -3   0   9 18.8557 2.50170   4 
  -3   0   9 16.4910 1.88890   1 
   2   0  -9 28.2673 2.05304   2 
   2   0  -9 27.4578 2.05637   1 
   2   0  -9 21.2839 2.72500   4 
   2   0  -9 26.1664 3.19885   3 
  -2   0   9 25.4887 2.55215   1 
  -2   0   9 29.4553 3.29999   3 
  -2   0   9 30.8197 2.32550   2 
  -2   0   9 26.2168 3.07279   4 
   1   0  -9 45.2608 2.55702   1 
   1   0  -9 45.3994 3.54414   3 
   1   0  -9 43.2288 2.45030   2 
   1   0  -9 53.9043 3.93463   4 
  -1   0   9 46.9520 3.37045   3 
  -1   0   9 45.7786 2.82703   2 
  -1   0   9 42.2948 3.15612   4 
  -1   0   9 46.4411 3.06330   1 
   0   0  -9 59.3550 4.00711   4 
   0   0  -9 54.9293 3.54566   3 
   0   0  -9 60.1237 2.93213   1 
   0   0  -9 61.8266 2.94732   2 
   0   0   9 58.5530 3.20135   2 
   0   0   9 62.8225 3.61739   1 
   0   0   9 59.0229 3.36742   3 
   0   0   9 59.7167 3.15169   4 
  -1   0  -9 86.8216 4.52183   4 
  -1   0  -9 91.2052 4.01419   3 
  -1   0  -9 89.3063 3.85326   2 
   1   0   9 87.3672 4.04990   2 
   1   0   9 97.4587 3.53959   4 
   1   0   9 92.6311 4.45056   1 
   1   0   9 95.4209 3.65617   3 
  -2   0  -9 19.8228 2.39244   1 
  -2   0  -9 21.9747 2.84193   4 
  -2   0  -9 13.9684 2.24950   2 
   2   0   9 16.7271 2.46743   2 
   2   0   9 19.1922 2.84876   1 
   2   0   9 19.4698 2.18975   4 
  -3   0  -9 45.5822 3.42183   1 
  -3   0  -9 48.1115 4.43580   4 
  -3   0  -9 51.9438 4.17397   2 
   3   0   9 48.8408 2.80633   4 
   3   0   9 47.4915 4.15674   2 
  -4   0  -9 195.589 6.58772   1 
  -4   0  -9 199.836 7.21792   4 
   4   0   9 179.970 7.94414   4 
   4   0   9 208.584 7.30090   2 
  -5   0  -9 45.1395 4.44773   1 
  -5   0  -9 43.2964 6.07346   4 
   5   0   9 54.1811 4.21945   4 
   5   0   9 60.2499 5.57550   2 
  -9   1   9 8.33389 2.42558   2 
  -9   1   9 8.23306 4.21849   4 
  -9   1   9 9.81340 2.92140   1 
  -8   1   9 5.39386 1.95384   1 
  -8   1   9 -2.7448 3.21562   4 
  -8   1   9 3.71249 1.81292   2 
  -7   1   9 16.4990 3.36642   2 
  -7   1   9 16.9013 3.26518   4 
  -7   1   9 13.5166 1.90781   1 
   6  -1  -9 -0.4802 1.78420   1 
  -6   1   9 1.75006 2.76697   3 
  -6   1   9 1.22646 1.46889   1 
  -6   1   9 1.28048 2.35956   4 
  -6   1   9 1.96993 1.21775   2 
   5  -1  -9 87.9746 3.67201   1 
   5  -1  -9 82.9929 3.45146   2 
  -5   1   9 90.8202 5.11108   3 
  -5   1   9 89.9280 4.91125   4 
  -5   1   9 87.2622 3.43992   1 
  -5   1   9 85.3674 3.20853   2 
   4  -1  -9 88.9171 3.24941   2 
   4  -1  -9 90.5401 3.52783   1 
  -4   1   9 95.3369 4.69345   4 
  -4   1   9 90.9652 3.52885   1 
  -4   1   9 92.2709 3.24591   2 
  -4   1   9 84.7110 4.76849   3 
   3  -1  -9 46.0062 2.29298   2 
   3  -1  -9 47.9077 3.97199   4 
   3  -1  -9 41.7867 2.48437   1 
  -3   1   9 42.8264 3.55558   4 
  -3   1   9 39.0175 2.70979   1 
  -3   1   9 41.3467 3.88984   3 
  -3   1   9 41.0877 2.44185   2 
   2  -1  -9 0.45753 2.04582   4 
   2  -1  -9 -1.2937 1.03033   1 
   2  -1  -9 0.87123 1.09439   2 
  -2   1   9 0.13398 1.24374   2 
  -2   1   9 -2.2237 1.38251   1 
  -2   1   9 0.81391 1.70794   4 
  -2   1   9 1.50887 2.00252   3 
   1  -1  -9 4.42365 1.30658   2 
   1  -1  -9 6.28779 1.48183   1 
   1  -1  -9 -0.2514 2.03231   4 
  -1   1   9 2.38147 1.56572   4 
  -1   1   9 3.50876 1.65979   1 
  -1   1   9 3.56755 1.43294   2 
  -1   1   9 5.49998 2.04784   3 
   0  -1  -9 -1.0515 1.36824   2 
   0  -1  -9 0.41853 1.24285   1 
   0  -1  -9 -4.2764 1.91340   4 
   0   1   9 -0.0250 1.49672   2 
   0   1   9 1.53707 1.66025   1 
   0   1   9 1.61479 1.73324   3 
   0   1   9 -0.0259 1.39465   4 
  -1  -1  -9 15.7163 2.06824   1 
  -1  -1  -9 14.2218 2.58065   4 
  -1  -1  -9 17.7043 2.14243   2 
   1   1   9 14.5999 2.14817   2 
   1   1   9 15.1030 2.06444   3 
   1   1   9 13.6134 1.75850   4 
   1   1   9 14.7569 2.60604   1 
  -2  -1  -9 351.872 8.68060   1 
  -2  -1  -9 337.721 8.69066   2 
  -2  -1  -9 346.270 9.32301   4 
   2   1   9 350.263 7.98611   4 
   2   1   9 349.321 9.02861   2 
  -3  -1  -9 89.9826 5.53874   4 
  -3  -1  -9 93.3844 4.47170   1 
   3   1   9 87.4705 3.81750   4 
   3   1   9 93.1983 5.10240   2 
  -4  -1  -9 651.708 14.4880   1 
  -4  -1  -9 601.991 14.7781   4 
   4   1   9 623.452 13.4299   4 
   4   1   9 673.749 15.1669   2 
  -5  -1  -9 35.9225 4.51381   1 
   5   1   9 28.5561 4.16833   2 
   5   1   9 32.7258 4.53173   4 
  -9   2   9 51.8459 6.57378   4 
  -9   2   9 46.7251 4.42016   1 
  -9   2   9 49.9485 3.55817   2 
  -8   2   9 44.2773 3.43726   1 
  -8   2   9 42.8299 2.99593   2 
  -8   2   9 47.4789 5.52211   4 
  -7   2   9 31.4654 2.41008   2 
  -7   2   9 31.8957 3.84892   4 
  -7   2   9 34.3922 2.92760   1 
   6  -2  -9 53.8722 3.63466   1 
  -6   2   9 57.0724 4.63949   4 
  -6   2   9 45.6979 4.87326   3 
  -6   2   9 57.4000 3.12796   1 
  -6   2   9 55.2645 2.66395   2 
   5  -2  -9 530.205 10.9336   2 
   5  -2  -9 517.722 11.5121   1 
  -5   2   9 522.965 12.8818   3 
  -5   2   9 520.706 11.2317   1 
  -5   2   9 529.515 12.5531   4 
  -5   2   9 533.815 10.7358   2 
   4  -2  -9 43.8371 2.32936   2 
   4  -2  -9 41.0304 4.37343   4 
   4  -2  -9 41.2178 2.77662   1 
  -4   2   9 40.2997 4.23392   3 
  -4   2   9 40.0714 2.76375   1 
  -4   2   9 41.6830 4.82251   4 
  -4   2   9 38.4554 2.28589   2 
   3  -2  -9 180.554 4.54140   2 
   3  -2  -9 182.472 5.21869   1 
   3  -2  -9 170.827 6.47311   4 
  -3   2   9 183.482 6.40312   3 
  -3   2   9 188.975 5.95952   4 
  -3   2   9 188.497 4.85363   2 
  -3   2   9 175.413 5.29189   1 
   2  -2  -9 29.1618 2.44544   1 
   2  -2  -9 32.4516 2.03414   2 
   2  -2  -9 34.8137 3.88667   4 
  -2   2   9 33.0105 2.97357   4 
  -2   2   9 38.0897 3.83288   3 
  -2   2   9 28.3778 2.84707   1 
  -2   2   9 32.7164 2.37029   2 
   1  -2  -9 2.45275 2.15981   4 
   1  -2  -9 1.96150 1.24318   1 
   1  -2  -9 -0.9032 1.21070   2 
  -1   2   9 0.75954 2.13393   3 
  -1   2   9 -0.9510 1.35771   2 
  -1   2   9 0.72143 1.60367   4 
  -1   2   9 1.96146 1.67832   1 
   0  -2  -9 35.5930 2.67354   1 
   0  -2  -9 34.0287 2.71302   2 
   0  -2  -9 29.4592 3.91892   4 
   0   2   9 30.4280 3.41795   3 
   0   2   9 37.2612 3.37799   1 
   0   2   9 39.5475 2.82029   4 
   0   2   9 37.8516 2.92862   2 
  -1  -2  -9 5.19655 1.70032   1 
  -1  -2  -9 4.80503 2.47134   4 
  -1  -2  -9 1.72552 1.89674   2 
   1   2   9 3.41705 2.23625   1 
   1   2   9 3.16535 1.48589   4 
   1   2   9 5.67327 2.02368   2 
  -2  -2  -9 1233.28 24.2305   2 
  -2  -2  -9 1248.55 24.3610   1 
  -2  -2  -9 1226.91 25.0700   4 
   2   2   9 1247.12 23.6568   4 
   2   2   9 1245.11 24.5228   2 
  -3  -2  -9 55.2780 3.88176   1 
   3   2   9 64.6460 4.89267   2 
   3   2   9 60.8393 3.72501   4 
  -4  -2  -9 216.216 7.13199   1 
   4   2   9 215.872 6.78932   4 
   4   2   9 221.475 8.04178   2 
  -9   3   9 3.31512 2.86244   2 
  -9   3   9 4.93898 2.06163   2 
  -9   3   9 5.14393 3.58540   3 
  -9   3   9 4.82080 3.61828   4 
  -8   3   9 3.06630 1.53828   2 
  -8   3   9 2.55589 2.27591   2 
  -8   3   9 -3.4163 3.01674   3 
  -8   3   9 1.05791 2.93905   4 
   7  -3  -9 26.8271 3.92482   1 
  -7   3   9 34.1659 2.43418   2 
  -7   3   9 30.9038 3.13456   1 
  -7   3   9 32.4481 4.44081   4 
   6  -3  -9 5.03128 2.17050   1 
  -6   3   9 0.61492 1.66133   1 
  -6   3   9 5.67493 3.45667   3 
  -6   3   9 1.15567 1.26887   2 
  -6   3   9 1.86276 2.32800   4 
   5  -3  -9 397.250 10.1376   1 
   5  -3  -9 336.315 8.64933   2 
  -5   3   9 401.477 8.20727   2 
  -5   3   9 406.443 10.0910   4 
  -5   3   9 395.729 9.09862   1 
  -5   3   9 397.232 10.7166   3 
   4  -3  -9 35.4075 2.09860   2 
   4  -3  -9 33.8534 4.46381   4 
  -4   3   9 35.3166 2.80987   1 
  -4   3   9 36.8858 2.22940   2 
  -4   3   9 39.8506 3.56193   4 
  -4   3   9 40.3612 4.47531   3 
   3  -3  -9 7.21061 2.64490   4 
   3  -3  -9 6.82567 1.22419   2 
  -3   3   9 5.87457 2.57065   3 
  -3   3   9 7.44259 1.86078   1 
  -3   3   9 7.73342 2.00378   4 
  -3   3   9 5.05672 1.33614   2 
   2  -3  -9 17.2795 2.80771   4 
   2  -3  -9 20.4045 2.68472   1 
  -2   3   9 19.2871 2.36893   4 
  -2   3   9 16.7527 2.15675   2 
  -2   3   9 18.7017 2.96287   3 
  -2   3   9 16.6994 2.19577   1 
   1  -3  -9 78.3158 5.03192   4 
   1  -3  -9 83.2695 3.17427   2 
   1  -3  -9 85.1804 3.62356   1 
  -1   3   9 91.2556 4.86208   3 
  -1   3   9 88.7980 3.58195   2 
  -1   3   9 88.7284 4.23129   1 
  -1   3   9 80.0651 3.74015   4 
   0  -3  -9 235.615 6.48751   1 
   0  -3  -9 222.930 7.74567   4 
   0  -3  -9 227.298 6.04861   2 
   0   3   9 233.794 6.94352   3 
   0   3   9 238.621 6.40692   2 
   0   3   9 232.452 6.26558   4 
   0   3   9 239.173 6.59045   3 
  -1  -3  -9 225.530 7.81945   4 
  -1  -3  -9 229.328 6.57943   1 
  -1  -3  -9 228.546 6.53671   2 
   1   3   9 225.434 6.64238   2 
   1   3   9 233.748 6.28266   4 
  -2  -3  -9 254.683 7.60795   2 
  -2  -3  -9 266.122 7.40662   1 
   2   3   9 262.644 7.00113   4 
   2   3   9 264.129 7.75284   2 
  -3  -3  -9 13.8025 2.72438   1 
   3   3   9 15.3260 2.64123   4 
   3   3   9 24.7624 3.42949   2 
  -9   4   9 42.9975 6.20132   3 
  -9   4   9 45.9925 6.00514   4 
  -9   4   9 54.8421 3.22692   2 
  -8   4   9 12.6874 1.75783   2 
  -8   4   9 11.3347 2.35758   2 
  -8   4   9 5.06772 3.07888   4 
  -8   4   9 8.10908 3.35440   3 
   7  -4  -9 32.7971 4.27282   1 
  -7   4   9 28.1974 3.69076   3 
  -7   4   9 28.6393 3.24554   2 
  -7   4   9 29.5837 2.23277   2 
  -7   4   9 27.7930 3.47551   4 
   6  -4  -9 1.33667 2.16589   1 
  -6   4   9 3.99698 2.41952   4 
  -6   4   9 2.80993 1.22853   2 
  -6   4   9 2.70925 2.54435   3 
  -6   4   9 5.07562 1.99941   1 
   5  -4  -9 6.75027 3.05351   4 
   5  -4  -9 -1.4030 1.75767   1 
  -5   4   9 -0.2619 1.65811   1 
  -5   4   9 0.77427 2.12128   4 
  -5   4   9 2.79145 2.43092   3 
  -5   4   9 0.70836 3.03561   3 
  -5   4   9 2.66861 1.12590   2 
   4  -4  -9 14.6354 1.81941   2 
   4  -4  -9 13.5843 3.14500   4 
   4  -4  -9 15.7286 2.22093   1 
  -4   4   9 16.2256 2.41018   4 
  -4   4   9 14.8732 1.77120   2 
  -4   4   9 13.3533 3.36420   3 
  -4   4   9 14.1746 2.28329   1 
  -4   4   9 20.7906 2.95640   3 
   3  -4  -9 29.3616 3.77246   4 
   3  -4  -9 33.9974 2.92630   1 
   3  -4  -9 33.5627 1.91070   2 
  -3   4   9 25.2885 3.11725   1 
  -3   4   9 31.9462 3.33271   4 
  -3   4   9 33.4208 2.20656   2 
  -3   4   9 37.3065 4.72661   3 
   2  -4  -9 61.5142 3.37167   1 
   2  -4  -9 55.0019 4.96827   4 
   2  -4  -9 60.0352 2.47614   2 
  -2   4   9 64.9970 4.90153   3 
  -2   4   9 59.2181 2.85376   2 
  -2   4   9 55.6473 3.78287   1 
  -2   4   9 63.5128 4.11532   3 
  -2   4   9 65.0375 3.61525   4 
   1  -4  -9 68.9680 3.58993   1 
   1  -4  -9 69.5416 3.05246   2 
   1  -4  -9 61.2879 5.17002   4 
  -1   4   9 61.0478 4.10606   1 
  -1   4   9 74.4027 5.01031   3 
  -1   4   9 68.5108 4.15269   3 
  -1   4   9 68.7767 3.29554   2 
  -1   4   9 67.8244 3.58550   4 
   0  -4  -9 19.3336 2.51540   1 
   0  -4  -9 22.7769 2.95206   2 
   0   4   9 20.9770 3.19124   3 
   0   4   9 18.1827 2.48384   3 
   0   4   9 24.4156 3.05998   2 
   0   4   9 20.9017 2.86522   4 
  -1  -4  -9 -3.4523 1.67157   1 
  -1  -4  -9 1.37840 2.30942   2 
   1   4   9 -2.1628 1.78184   4 
   1   4   9 -2.1381 2.14743   2 
  -2  -4  -9 8.22102 2.31401   1 
  -2  -4  -9 6.71519 2.96774   2 
   2   4   9 5.67016 2.25999   4 
  -3  -4  -9 5.65862 2.56259   1 
   3   4   9 5.39523 2.85177   4 
   3   4   9 8.65134 3.25700   2 
  -8   5   9 2.97341 3.09875   4 
  -8   5   9 2.01212 3.34776   3 
   7  -5  -9 9.80588 3.19880   1 
  -7   5   9 12.1669 3.33882   3 
  -7   5   9 12.4368 2.95869   4 
   6  -5  -9 41.7305 4.16392   1 
  -6   5   9 40.2491 4.23528   4 
  -6   5   9 41.1454 4.78881   3 
   5  -5  -9 8.13520 2.50747   1 
  -5   5   9 2.62074 2.62986   3 
  -5   5   9 -0.8651 2.11908   4 
   4  -5  -9 8.85821 2.03701   1 
  -4   5   9 6.75398 2.62045   3 
  -4   5   9 5.92033 2.18023   4 
  -4   5   9 12.2053 3.71014   3 
   3  -5  -9 39.2077 3.40023   1 
  -3   5   9 42.6551 3.51895   4 
  -3   5   9 34.5586 4.10863   3 
  -3   5   9 43.0810 5.81507   3 
   2  -5  -9 3.66263 1.89611   1 
   2  -5  -9 6.35383 1.27599   2 
  -2   5   9 4.77673 1.46690   2 
  -2   5   9 7.14400 3.53252   3 
  -2   5   9 2.63247 1.83382   4 
   1  -5  -9 10.0284 2.12363   1 
   1  -5  -9 11.6491 1.79758   2 
  -1   5   9 12.0178 2.46388   3 
  -1   5   9 12.3129 3.59443   3 
  -1   5   9 12.0671 2.04079   4 
  -1   5   9 11.0437 1.86942   2 
   0  -5  -9 25.7765 3.29685   1 
   0  -5  -9 18.9198 2.48961   2 
   0   5   9 23.7510 2.67643   3 
   0   5   9 22.1294 3.18130   2 
   0   5   9 18.8476 3.77307   3 
   0   5   9 15.5635 2.35557   4 
  -1  -5  -9 155.284 5.86555   1 
  -1  -5  -9 151.858 6.01753   2 
   1   5   9 152.764 5.63511   4 
   1   5   9 160.126 5.74147   2 
  -2  -5  -9 1.14876 2.43747   1 
   2   5   9 0.58003 2.55418   4 
   2   5   9 4.07077 2.89863   2 
  -8   6   9 84.9475 5.80728   4 
  -8   6   9 89.9996 6.52209   3 
   7  -6  -9 1.75638 2.99652   1 
  -7   6   9 -0.8948 2.60182   4 
  -7   6   9 -2.4353 2.98340   3 
   6  -6  -9 19.9039 3.26735   1 
  -6   6   9 16.4432 3.36360   3 
  -6   6   9 18.2187 3.08367   4 
   5  -6  -9 9.00124 2.67360   1 
  -5   6   9 12.9613 2.62845   4 
  -5   6   9 14.6476 3.12586   3 
   4  -6  -9 40.5405 3.85479   1 
  -4   6   9 26.1996 3.61913   4 
  -4   6   9 37.3743 4.51765   3 
   3  -6  -9 60.7739 4.13945   1 
  -3   6   9 60.9533 3.85787   4 
  -3   6   9 50.6401 4.67084   3 
  -3   6   9 57.9991 7.54404   3 
   2  -6  -9 21.0190 2.96847   1 
  -2   6   9 25.4708 3.15809   4 
  -2   6   9 20.3314 2.98852   3 
  -2   6   9 19.5150 4.65727   3 
   1  -6  -9 190.109 6.41577   2 
   1  -6  -9 210.525 6.81659   1 
  -1   6   9 196.209 6.55478   3 
  -1   6   9 201.340 8.78467   3 
  -1   6   9 203.849 6.31899   4 
   0  -6  -9 -0.0114 2.29237   1 
   0   6   9 -4.7650 2.46007   3 
   0   6   9 -0.2229 2.39647   4 
   0   6   9 -1.0154 4.38310   3 
  -1  -6  -9 35.0663 4.42951   1 
   1   6   9 26.3426 3.31805   4 
  -7   7   9 24.8419 4.04621   3 
  -7   7   9 21.1382 3.38966   4 
   6  -7  -9 2.22250 3.16013   1 
  -6   7   9 8.20209 3.25253   3 
  -6   7   9 2.40295 2.64820   4 
   5  -7  -9 19.6962 3.32165   1 
  -5   7   9 18.4747 3.40889   3 
  -5   7   9 20.1591 2.98201   4 
   4  -7  -9 36.2181 4.65762   1 
  -4   7   9 48.0036 4.09039   4 
  -4   7   9 54.4190 5.08152   3 
   3  -7  -9 8.76377 2.70843   1 
  -3   7   9 1.59960 2.94538   3 
  -3   7   9 5.59999 2.22845   4 
   2  -7  -9 6.77339 2.67886   1 
  -2   7   9 1.46171 2.88122   3 
  -2   7   9 6.32051 2.39039   4 
   1  -7  -9 442.165 11.3166   1 
  -1   7   9 435.833 10.6896   4 
  -1   7   9 434.620 10.4993   3 
  -1   7   9 419.582 13.3339   3 
   0   8 -10 -0.1937 4.09289   3 
   0  -8  10 4.76383 3.10526   2 
   3   7 -10 -0.3306 4.32929   3 
  -3  -7  10 -0.1704 4.87344   4 
  -3  -7  10 0.48637 2.44429   2 
   2   7 -10 4.59102 3.86932   3 
  -2  -7  10 -0.9077 4.37250   4 
  -2  -7  10 0.74372 2.77565   2 
   1   7 -10 57.2271 5.98941   3 
  -1  -7  10 60.2905 4.82027   2 
  -1  -7  10 62.0750 6.48292   4 
  -1  -7  10 66.2570 5.82186   4 
   0   7 -10 14.9585 2.68787   1 
   0   7 -10 15.5712 3.72087   3 
   0  -7  10 14.2019 3.58368   4 
   0  -7  10 10.0514 2.85185   2 
   0  -7  10 12.3039 3.24154   4 
  -1   7 -10 6.09777 3.46957   3 
  -1   7 -10 7.28921 2.86547   1 
   1  -7  10 7.22805 4.13387   1 
   1  -7  10 7.18290 3.21110   2 
  -2   7 -10 62.0363 5.94401   3 
  -2   7 -10 66.9256 5.18149   1 
   2  -7  10 73.4322 5.62026   2 
  -3   7 -10 0.30128 3.18765   1 
  -3   7 -10 6.76228 3.61992   3 
   3  -7  10 2.70108 3.37484   2 
   4   6 -10 22.0131 4.53652   3 
  -4  -6  10 31.8865 4.29898   2 
  -4  -6  10 23.4495 5.12996   4 
   3   6 -10 12.4445 3.96884   3 
  -3  -6  10 8.64602 4.23843   4 
  -3  -6  10 7.19306 2.11460   2 
   2   6 -10 50.0060 5.75435   3 
  -2  -6  10 54.6231 6.10602   4 
  -2  -6  10 60.8239 5.63801   4 
  -2  -6  10 50.4632 3.93215   2 
   1   6 -10 5.88448 2.06081   1 
   1   6 -10 6.48952 3.21056   3 
  -1  -6  10 4.52297 3.10999   4 
  -1  -6  10 7.69461 2.42335   2 
  -1  -6  10 4.87043 3.28591   4 
  -1  -6  10 11.9517 2.98401   1 
   0   6 -10 10.7418 2.30267   1 
   0   6 -10 16.7070 3.45815   3 
   0  -6  10 13.1669 3.40202   1 
   0  -6  10 9.35733 2.59669   2 
   0  -6  10 4.59071 2.98079   4 
   0  -6  10 13.5100 3.21585   4 
  -1   6 -10 45.5578 4.90485   3 
  -1   6 -10 33.5137 3.87954   1 
   1  -6  10 30.3478 3.59647   2 
   1  -6  10 27.4688 4.10020   1 
  -2   6 -10 99.1158 5.95654   3 
  -2   6 -10 94.4030 5.24705   1 
   2  -6  10 92.8456 5.54837   2 
  -3   6 -10 6.35334 3.08070   3 
  -3   6 -10 -0.4075 2.82315   1 
   3  -6  10 0.87179 3.05582   2 
  -4   6 -10 1.43050 3.15164   1 
  -4   6 -10 2.22135 3.34457   3 
   4  -6  10 4.45922 3.45832   2 
   5   5 -10 6.79096 4.15879   3 
  -5  -5  10 7.11237 4.36634   4 
  -5  -5  10 -0.7600 2.44263   2 
   4   5 -10 -0.2181 3.42348   3 
  -4  -5  10 5.26431 3.89898   4 
  -4  -5  10 1.82156 2.14017   2 
   3   5 -10 9.10472 3.47895   3 
  -3  -5  10 8.13831 3.72056   4 
  -3  -5  10 6.94278 3.47006   4 
  -3  -5  10 4.06678 1.83544   2 
   2   5 -10 -1.6351 2.81966   3 
  -2  -5  10 -0.1234 3.02061   4 
  -2  -5  10 0.25637 1.61028   2 
  -2  -5  10 5.41856 3.14357   4 
   1   5 -10 0.85094 2.86206   3 
   1   5 -10 -2.4921 1.59971   1 
  -1  -5  10 0.78803 2.92336   4 
  -1  -5  10 4.64928 2.82809   4 
  -1  -5  10 -4.2141 2.48118   1 
  -1  -5  10 2.65399 2.07007   2 
   0   5 -10 78.7520 3.95164   1 
   0   5 -10 80.9184 5.31744   3 
   0  -5  10 84.8618 5.39432   1 
   0  -5  10 99.3580 5.33707   4 
   0  -5  10 78.0896 4.83037   4 
   0  -5  10 80.9209 4.59877   2 
  -1   5 -10 115.334 5.82107   3 
  -1   5 -10 111.736 4.83375   1 
   1  -5  10 103.124 5.22107   2 
   1  -5  10 105.291 5.33949   4 
   1  -5  10 105.618 4.68185   4 
   1  -5  10 110.325 5.08940   3 
   1  -5  10 111.943 6.21964   1 
  -2   5 -10 1007.48 20.4589   1 
  -2   5 -10 1008.92 20.9902   3 
   2  -5  10 919.175 19.4734   3 
   2  -5  10 1044.51 24.4609   1 
   2  -5  10 1002.90 21.0299   2 
  -3   5 -10 1.43628 2.56153   1 
  -3   5 -10 -0.6047 2.83263   3 
   3  -5  10 3.00636 2.17462   3 
   3  -5  10 4.96760 2.82924   2 
  -4   5 -10 48.1217 4.98280   1 
   4  -5  10 40.6618 4.20198   3 
   4  -5  10 55.8164 5.65288   2 
   6   4 -10 169.046 8.97637   3 
  -6  -4  10 185.413 9.17636   4 
  -6  -4  10 160.230 6.12984   2 
   5   4 -10 19.1943 4.22722   3 
  -5  -4  10 29.9367 4.53187   4 
  -5  -4  10 25.1826 3.47799   2 
   4   4 -10 3.75420 3.17299   3 
  -4  -4  10 4.73946 2.05065   2 
  -4  -4  10 -1.1293 3.25740   4 
   3   4 -10 34.8129 4.60631   3 
  -3  -4  10 26.6931 3.84627   4 
  -3  -4  10 28.2591 3.84755   4 
  -3  -4  10 29.8126 3.08683   2 
   2   4 -10 107.482 4.57321   2 
   2   4 -10 124.768 5.99228   3 
   2   4 -10 117.629 3.86074   1 
  -2  -4  10 119.935 5.86605   4 
  -2  -4  10 118.708 4.76581   1 
  -2  -4  10 111.958 5.85016   4 
  -2  -4  10 113.338 4.57255   2 
  -2  -4  10 110.879 4.92676   3 
   1   4 -10 13.8814 2.96525   3 
   1   4 -10 12.2066 1.85603   1 
   1   4 -10 10.0270 2.14581   2 
  -1  -4  10 12.8098 2.92454   4 
  -1  -4  10 13.1082 2.32992   3 
  -1  -4  10 8.32253 2.67102   4 
  -1  -4  10 11.4055 2.05716   2 
  -1  -4  10 14.5109 2.58708   1 
   0   4 -10 1300.82 27.0316   2 
   0   4 -10 1452.29 28.3886   3 
   0   4 -10 1453.91 27.0310   1 
   0  -4  10 1437.05 27.4920   4 
   0  -4  10 1431.91 27.7423   2 
   0  -4  10 1382.50 26.9902   3 
   0  -4  10 1458.33 27.8325   1 
   0  -4  10 1444.06 27.2687   4 
  -1   4 -10 84.8476 4.98185   3 
  -1   4 -10 86.0918 4.24313   1 
   1  -4  10 86.7550 4.00769   3 
   1  -4  10 83.5543 5.49082   1 
   1  -4  10 87.5320 5.13043   4 
   1  -4  10 84.9685 4.75199   2 
   1  -4  10 85.7703 4.09163   4 
  -2   4 -10 413.346 10.1448   1 
  -2   4 -10 419.353 10.5935   3 
   2  -4  10 388.268 9.19794   3 
   2  -4  10 398.067 11.2233   1 
   2  -4  10 421.944 10.6513   2 
  -3   4 -10 21.2995 2.98726   1 
  -3   4 -10 17.4909 3.49926   3 
   3  -4  10 20.4600 3.27680   2 
   3  -4  10 19.5740 2.40567   3 
  -4   4 -10 0.70217 3.57837   3 
  -4   4 -10 2.44561 2.68927   1 
   4  -4  10 -2.0560 2.36873   2 
   4  -4  10 0.10807 2.30184   3 
   7   3 -10 161.170 9.05187   3 
  -7  -3  10 159.002 5.95935   2 
  -7  -3  10 154.719 9.16554   4 
   6   3 -10 36.3621 4.76527   3 
  -6  -3  10 33.2480 4.83770   4 
  -6  -3  10 33.1665 3.51562   2 
   5   3 -10 -0.2313 3.07822   3 
  -5  -3  10 -1.4333 3.16780   4 
  -5  -3  10 -3.9634 1.75001   2 
   4   3 -10 5.53062 2.53483   2 
   4   3 -10 3.84738 2.88930   3 
  -4  -3  10 2.52456 2.78514   4 
  -4  -3  10 2.62554 1.77519   2 
  -4  -3  10 5.12667 3.09792   4 
   3   3 -10 27.1306 2.36406   1 
   3   3 -10 24.2483 3.50656   3 
   3   3 -10 21.3503 2.81738   2 
  -3  -3  10 27.2688 3.50627   4 
  -3  -3  10 27.0289 3.49669   4 
  -3  -3  10 28.6127 3.12421   1 
  -3  -3  10 19.1993 2.77737   3 
  -3  -3  10 28.0730 2.81211   2 
   2   3 -10 336.219 9.38289   3 
   2   3 -10 329.831 7.42220   1 
  -2  -3  10 341.795 8.22570   1 
  -2  -3  10 316.526 8.39454   3 
  -2  -3  10 324.753 9.07383   4 
  -2  -3  10 306.945 9.07966   4 
  -2  -3  10 315.632 8.11970   2 
   1   3 -10 16.6579 2.02836   1 
   1   3 -10 18.8276 2.33317   2 
   1   3 -10 17.2514 2.94544   3 
  -1  -3  10 18.4011 2.35761   2 
  -1  -3  10 21.8724 2.60990   3 
  -1  -3  10 18.7817 2.58298   1 
  -1  -3  10 19.5127 2.72894   4 
   0   3 -10 887.009 17.3723   1 
   0   3 -10 844.604 17.2802   2 
   0  -3  10 867.997 17.4524   4 
   0  -3  10 866.465 18.0318   1 
   0  -3  10 869.285 17.8879   2 
   0  -3  10 846.080 17.2565   3 
  -1   3 -10 61.5565 3.60076   1 
  -1   3 -10 57.2958 3.59166   2 
  -1   3 -10 62.4980 4.30820   3 
   1  -3  10 68.3501 4.89016   1 
   1  -3  10 63.2422 4.07976   2 
   1  -3  10 61.7648 3.50947   4 
   1  -3  10 60.9418 3.49213   3 
  -2   3 -10 89.6447 4.43188   1 
  -2   3 -10 90.1559 4.71768   3 
   2  -3  10 99.2692 5.06638   2 
   2  -3  10 86.2678 3.50451   4 
   2  -3  10 92.0659 3.90590   3 
   2  -3  10 88.4334 5.73585   1 
  -3   3 -10 28.2154 3.66155   1 
  -3   3 -10 33.2486 4.05762   3 
   3  -3  10 30.2792 3.01422   3 
   3  -3  10 28.9475 3.81139   2 
  -4   3 -10 9.96416 2.73555   3 
  -4   3 -10 6.95828 2.81317   1 
   4  -3  10 8.61259 2.94380   2 
  -5   3 -10 12.5556 3.13817   1 
   5  -3  10 10.9921 3.80937   2 
   7   2 -10 5.13216 4.01848   3 
  -7  -2  10 0.35564 1.97731   2 
  -7  -2  10 3.55539 3.89090   4 
   6   2 -10 29.2054 4.20805   3 
  -6  -2  10 30.6505 4.34277   4 
  -6  -2  10 31.9342 3.22138   2 
   5   2 -10 49.1375 3.96639   2 
   5   2 -10 60.1121 5.42185   3 
  -5  -2  10 60.9221 5.60526   4 
  -5  -2  10 56.6997 3.50880   2 
   4   2 -10 1.27400 1.49920   1 
   4   2 -10 0.10322 1.66131   2 
   4   2 -10 2.08744 2.74535   3 
  -4  -2  10 -1.3744 2.48080   4 
  -4  -2  10 0.46371 1.50445   2 
  -4  -2  10 2.36490 2.92927   4 
  -4  -2  10 3.34803 2.48808   3 
  -4  -2  10 4.12136 1.72712   1 
   3   2 -10 33.7630 2.80624   2 
   3   2 -10 31.6534 4.22001   3 
   3   2 -10 34.1316 2.47117   1 
  -3  -2  10 34.7764 3.85923   3 
  -3  -2  10 38.2856 2.82258   2 
  -3  -2  10 35.4074 3.14390   1 
   2   2 -10 11.0590 1.69490   1 
   2   2 -10 13.0317 2.90151   3 
   2   2 -10 12.6328 2.06844   2 
  -2  -2  10 12.9337 2.56850   4 
  -2  -2  10 6.92219 2.09585   1 
  -2  -2  10 8.16481 3.12056   2 
  -2  -2  10 8.09514 2.34868   3 
   1   2 -10 11.6707 1.85856   1 
   1   2 -10 11.7348 2.65457   3 
   1   2 -10 8.76470 1.70258   2 
  -1  -2  10 11.5478 2.26980   3 
  -1  -2  10 13.1309 2.45563   2 
  -1  -2  10 12.5437 2.30564   1 
  -1  -2  10 13.0695 2.37207   4 
   0   2 -10 51.6775 4.02542   3 
   0   2 -10 60.4151 3.25461   2 
   0   2 -10 61.9768 3.25393   1 
   0  -2  10 59.2828 3.68872   4 
   0  -2  10 56.4413 3.51792   3 
   0  -2  10 52.5161 3.65668   2 
   0  -2  10 68.8867 4.16842   1 
  -1   2 -10 2.09667 2.05262   3 
  -1   2 -10 -2.6502 1.53168   1 
  -1   2 -10 -2.1446 1.79101   2 
   1  -2  10 -0.5047 1.66040   3 
   1  -2  10 0.80257 1.69686   4 
   1  -2  10 -0.1005 2.42409   1 
   1  -2  10 2.42496 1.93239   2 
  -2   2 -10 15.2229 2.80270   4 
  -2   2 -10 13.1380 2.44499   3 
  -2   2 -10 12.3889 2.27258   1 
   2  -2  10 16.0856 2.96322   2 
   2  -2  10 16.4028 2.34084   4 
   2  -2  10 15.8905 1.97808   3 
  -3   2 -10 28.3775 3.09753   3 
  -3   2 -10 32.8847 3.63594   1 
  -3   2 -10 32.0496 3.48534   4 
   3  -2  10 31.4402 2.72562   4 
   3  -2  10 25.2592 2.81118   3 
   3  -2  10 28.7012 3.67938   2 
  -4   2 -10 3.07833 3.33748   4 
  -4   2 -10 4.86860 2.57312   1 
   4  -2  10 11.6119 3.49786   2 
   4  -2  10 4.15023 1.79874   4 
  -5   2 -10 -4.5920 2.63954   1 
   5  -2  10 3.04343 3.84101   2 
  -8  -1  10 39.5604 5.41512   4 
  -8  -1  10 36.6214 3.81552   2 
  -7  -1  10 -1.0842 2.05680   2 
  -7  -1  10 7.86460 3.63764   4 
   6   1 -10 27.5022 3.71207   2 
   6   1 -10 34.8943 4.24501   3 
   6   1 -10 34.4447 3.49738   1 
  -6  -1  10 26.0070 3.93369   4 
  -6  -1  10 30.3936 3.04171   2 
  -6  -1  10 25.9240 2.94138   1 
   5   1 -10 52.1825 4.95244   3 
   5   1 -10 43.2598 3.07183   1 
   5   1 -10 48.8947 3.53941   2 
  -5  -1  10 51.2837 5.21115   4 
  -5  -1  10 51.6905 5.23633   3 
  -5  -1  10 57.1477 5.14367   4 
  -5  -1  10 45.4387 3.16543   2 
  -5  -1  10 48.2632 3.17682   1 
   4   1 -10 28.5096 2.71781   2 
   4   1 -10 26.6782 3.57267   3 
   4   1 -10 26.9332 2.58182   1 
  -4  -1  10 25.5393 2.83980   1 
  -4  -1  10 32.1304 4.21402   3 
  -4  -1  10 26.9984 3.34196   4 
   3   1 -10 48.8592 2.80181   1 
   3   1 -10 52.1887 4.42209   3 
   3   1 -10 48.9968 2.87401   2 
  -3  -1  10 58.3490 3.40510   1 
  -3  -1  10 53.3697 3.01646   2 
  -3  -1  10 54.7926 4.18023   3 
  -3  -1  10 52.7088 6.55963   4 
   2   1 -10 1.44426 1.26457   1 
   2   1 -10 0.16935 2.34534   3 
   2   1 -10 2.56802 1.50756   2 
  -2  -1  10 3.73712 2.03413   4 
  -2  -1  10 2.73740 2.12336   3 
  -2  -1  10 2.64856 1.75122   1 
  -2  -1  10 4.61937 1.59122   2 
   1   1 -10 31.9599 2.54140   2 
   1   1 -10 27.5491 2.42261   1 
   1   1 -10 28.1142 3.75420   3 
  -1  -1  10 28.8038 3.31593   4 
  -1  -1  10 28.5486 2.89547   2 
  -1  -1  10 31.1581 3.40353   3 
  -1  -1  10 25.9171 3.27951   1 
   0   1 -10 3.02220 2.33953   4 
   0   1 -10 3.43725 2.22950   3 
   0   1 -10 0.85511 1.51396   2 
   0  -1  10 3.14556 1.74664   4 
   0  -1  10 4.27754 1.97134   3 
   0  -1  10 5.37547 2.17222   1 
  -1   1 -10 23.7471 3.04234   2 
  -1   1 -10 26.5312 3.15526   4 
  -1   1 -10 28.2224 3.57748   3 
  -1   1 -10 24.5697 2.81935   1 
   1  -1  10 28.6413 3.37044   2 
   1  -1  10 20.8902 2.98752   1 
   1  -1  10 24.0069 2.86911   3 
   1  -1  10 22.8971 2.71865   4 
  -2   1 -10 26.3449 3.35301   4 
  -2   1 -10 27.8500 3.07616   1 
  -2   1 -10 25.3630 3.71902   2 
  -2   1 -10 27.5321 3.67677   3 
   2  -1  10 32.3125 3.97954   2 
   2  -1  10 31.3197 2.64966   4 
   2  -1  10 24.4029 2.76445   3 
  -3   1 -10 17.9130 2.71075   1 
  -3   1 -10 15.4438 3.27693   4 
   3  -1  10 15.4865 2.87651   2 
   3  -1  10 21.3304 2.62207   4 
  -4   1 -10 33.6333 4.11508   1 
  -4   1 -10 22.4200 3.83379   4 
   4  -1  10 28.7914 3.18174   4 
   4  -1  10 30.7286 4.04830   2 
  -8   0  10 6.43926 4.00362   4 
  -8   0  10 3.51314 2.15037   2 
  -8   0  10 7.46797 2.54407   1 
  -7   0  10 20.0125 2.80144   2 
  -7   0  10 21.5901 3.01742   1 
  -7   0  10 23.7657 3.95658   4 
   6   0 -10 7.62940 2.20325   2 
   6   0 -10 3.66047 2.03937   1 
  -6   0  10 3.96955 1.75399   1 
  -6   0  10 3.67447 3.00447   4 
  -6   0  10 2.78864 1.70586   2 
   5   0 -10 39.2710 2.99143   1 
   5   0 -10 36.5663 3.00973   2 
   5   0 -10 47.6988 4.72687   3 
  -5   0  10 36.1324 2.98330   1 
  -5   0  10 41.3408 4.68022   3 
  -5   0  10 47.6901 4.68877   4 
  -5   0  10 41.2078 2.81142   2 
   4   0 -10 -1.4467 2.39935   3 
   4   0 -10 1.15013 1.42312   2 
   4   0 -10 1.46114 1.46067   1 
  -4   0  10 2.13266 1.44538   2 
  -4   0  10 1.19394 2.33822   4 
  -4   0  10 -0.2294 2.52965   3 
  -4   0  10 0.62400 1.65977   1 
   3   0 -10 124.225 4.10720   2 
   3   0 -10 129.577 4.20292   1 
  -3   0  10 136.522 4.39850   2 
  -3   0  10 129.332 5.62959   3 
  -3   0  10 134.816 4.69836   1 
   2   0 -10 84.6972 3.33811   2 
   2   0 -10 81.9382 4.65052   3 
   2   0 -10 83.0432 3.40435   1 
  -2   0  10 86.1748 4.38559   4 
  -2   0  10 82.9849 3.66868   2 
  -2   0  10 87.4135 4.02907   1 
  -2   0  10 85.0486 4.63342   3 
   1   0 -10 39.3447 2.70152   1 
   1   0 -10 43.3443 4.28596   4 
   1   0 -10 39.5924 2.68445   2 
   1   0 -10 42.0663 3.71966   3 
  -1   0  10 31.9920 3.21981   4 
  -1   0  10 35.4033 3.42354   1 
  -1   0  10 34.8759 3.60613   3 
  -1   0  10 40.4286 3.07195   2 
   0   0 -10 -0.9358 1.88029   3 
   0   0 -10 0.50150 1.54579   2 
   0   0 -10 0.67979 1.51554   1 
   0   0 -10 2.33596 2.44321   4 
   0   0  10 -3.9502 1.96399   1 
   0   0  10 1.08513 1.82930   2 
   0   0  10 -1.6095 1.54787   4 
   0   0  10 -1.2120 1.86363   3 
  -1   0 -10 0.91891 2.11853   3 
  -1   0 -10 1.35633 2.65714   4 
  -1   0 -10 2.56280 1.92254   2 
  -1   0 -10 2.18496 1.58000   1 
   1   0  10 -0.9608 1.97044   2 
   1   0  10 6.67975 2.46008   1 
   1   0  10 0.94847 1.57679   4 
   1   0  10 3.90798 1.84628   3 
  -2   0 -10 0.02073 1.80179   1 
  -2   0 -10 -3.3037 2.69276   4 
  -2   0 -10 3.61991 2.23119   2 
   2   0  10 -0.4783 1.58739   4 
   2   0  10 -3.9052 2.26689   2 
  -3   0 -10 2.68957 3.21977   4 
  -3   0 -10 0.77111 2.09668   1 
   3   0  10 -0.0533 1.67635   4 
   3   0  10 0.26995 2.75051   2 
  -4   0 -10 251.827 9.09309   4 
  -4   0 -10 257.244 8.03231   1 
   4   0  10 272.128 9.00324   2 
   4   0  10 252.030 7.08848   4 
  -8   1  10 7.33352 2.06033   2 
  -8   1  10 1.10642 2.28724   1 
  -8   1  10 13.8815 3.91247   4 
   7  -1 -10 61.3185 5.69252   1 
  -7   1  10 68.4700 3.73927   1 
  -7   1  10 82.6086 6.02615   4 
  -7   1  10 78.9448 3.55403   2 
   6  -1 -10 76.5129 4.01721   2 
   6  -1 -10 69.8099 4.06577   1 
  -6   1  10 79.9028 5.55412   4 
  -6   1  10 74.7396 3.42264   2 
  -6   1  10 70.5185 3.70597   1 
   5  -1 -10 44.6768 2.99706   2 
   5  -1 -10 48.4017 3.19860   1 
  -5   1  10 47.2823 4.56508   4 
  -5   1  10 43.9028 2.76663   2 
  -5   1  10 43.3303 4.97010   3 
  -5   1  10 46.6626 3.17433   1 
   4  -1 -10 44.9671 3.00040   1 
   4  -1 -10 43.7000 2.73605   2 
  -4   1  10 48.4752 3.16449   1 
  -4   1  10 41.4423 4.12058   4 
  -4   1  10 48.0010 4.72112   3 
  -4   1  10 50.1237 2.74901   2 
   3  -1 -10 535.578 13.3316   4 
   3  -1 -10 542.244 11.1946   2 
   3  -1 -10 536.206 11.6037   1 
  -3   1  10 553.219 12.8950   3 
  -3   1  10 554.214 12.6360   4 
  -3   1  10 553.467 11.5279   2 
  -3   1  10 543.293 11.9663   1 
   2  -1 -10 50.2190 3.32250   1 
   2  -1 -10 48.1989 2.66975   2 
   2  -1 -10 53.2572 4.69153   4 
  -2   1  10 47.3930 3.05067   2 
  -2   1  10 43.1176 4.12486   3 
  -2   1  10 51.2362 3.56081   1 
   1  -1 -10 115.479 3.91274   2 
   1  -1 -10 101.957 5.61557   4 
   1  -1 -10 109.544 4.09999   1 
  -1   1  10 114.664 4.97070   3 
  -1   1  10 113.767 4.28472   2 
  -1   1  10 92.7175 6.19222   4 
  -1   1  10 113.689 4.75618   1 
   0  -1 -10 51.2408 3.25080   1 
   0  -1 -10 55.7308 3.23544   2 
   0  -1 -10 54.4808 4.81974   4 
   0   1  10 55.8434 3.82801   3 
   0   1  10 48.6687 3.98950   1 
   0   1  10 50.5266 3.50145   2 
  -1  -1 -10 -0.8405 1.56373   1 
  -1  -1 -10 -1.0373 2.00546   2 
  -1  -1 -10 1.93971 2.73936   4 
   1   1  10 -1.4008 1.58923   4 
   1   1  10 2.11041 2.13914   2 
   1   1  10 -1.6061 2.02850   3 
  -2  -1 -10 29.9801 3.96381   2 
  -2  -1 -10 30.0633 3.83433   4 
  -2  -1 -10 24.8858 3.17773   1 
   2   1  10 32.6674 4.15697   2 
   2   1  10 22.3616 2.88926   4 
  -3  -1 -10 34.0855 3.77488   1 
  -3  -1 -10 28.4810 4.54764   4 
   3   1  10 27.5997 3.31675   4 
   3   1  10 26.4841 3.55397   2 
  -4  -1 -10 611.091 14.5473   1 
   4   1  10 623.642 13.6420   4 
   4   1  10 651.905 15.4808   2 
  -8   2  10 6.88958 1.99882   2 
  -8   2  10 2.93591 2.36289   1 
  -8   2  10 1.94661 3.45403   4 
   7  -2 -10 5.02115 2.63535   1 
  -7   2  10 5.47907 1.70737   2 
  -7   2  10 2.38759 2.10193   1 
  -7   2  10 5.91113 3.31845   4 
   6  -2 -10 3.41961 2.24252   1 
  -6   2  10 2.75643 1.50249   2 
  -6   2  10 2.61571 1.92184   1 
  -6   2  10 4.86112 2.63819   4 
   5  -2 -10 63.9254 3.65023   1 
   5  -2 -10 51.4663 3.10832   2 
  -5   2  10 63.9229 5.37020   3 
  -5   2  10 56.1364 2.92495   2 
  -5   2  10 58.1437 3.59026   1 
  -5   2  10 70.0618 4.79830   4 
   4  -2 -10 6.10144 1.54574   2 
   4  -2 -10 6.92762 1.90812   1 
  -4   2  10 11.7326 2.03667   1 
  -4   2  10 8.70982 2.49183   4 
  -4   2  10 11.5703 3.03786   3 
  -4   2  10 8.10422 1.58975   2 
   3  -2 -10 305.227 6.94984   2 
   3  -2 -10 310.282 7.70991   1 
   3  -2 -10 304.182 9.37919   4 
  -3   2  10 306.127 7.97031   1 
  -3   2  10 306.669 8.38990   4 
  -3   2  10 315.265 7.34192   2 
  -3   2  10 295.655 8.99648   3 
   2  -2 -10 32.7674 4.73574   4 
   2  -2 -10 33.2819 2.82468   1 
   2  -2 -10 36.4753 2.43230   2 
  -2   2  10 32.8147 3.39678   4 
  -2   2  10 34.9444 2.76796   2 
  -2   2  10 31.0560 3.40586   1 
  -2   2  10 30.7884 3.52650   3 
   1  -2 -10 14.3646 3.17057   4 
   1  -2 -10 12.7025 1.80205   2 
   1  -2 -10 10.2359 2.00244   1 
  -1   2  10 9.18973 2.72290   3 
  -1   2  10 10.8910 1.98789   2 
  -1   2  10 10.2857 2.28857   1 
  -1   2  10 13.4031 2.21473   4 
   0  -2 -10 5.27920 1.90935   2 
   0  -2 -10 2.09707 2.83161   4 
   0  -2 -10 4.55274 1.72995   1 
   0   2  10 5.75826 2.41099   1 
   0   2  10 0.36376 2.34662   3 
   0   2  10 6.23928 2.03031   2 
   0   2  10 3.53983 1.78197   4 
  -1  -2 -10 28.0157 3.66859   2 
  -1  -2 -10 27.0719 3.65867   4 
  -1  -2 -10 23.0192 2.99723   1 
   1   2  10 30.9530 3.05891   4 
   1   2  10 25.5965 2.92257   2 
  -2  -2 -10 135.304 5.40440   1 
   2   2  10 155.710 6.18237   2 
   2   2  10 153.636 5.22629   4 
  -3  -2 -10 168.727 6.45862   1 
   3   2  10 172.591 7.16375   2 
   3   2  10 168.974 5.88767   4 
  -8   3  10 2.14559 3.53463   3 
  -8   3  10 8.30158 3.57415   4 
  -8   3  10 11.5539 2.71257   2 
   7  -3 -10 76.0468 4.98459   1 
  -7   3  10 75.6378 3.34591   2 
  -7   3  10 75.0956 5.71481   4 
   6  -3 -10 1.76914 2.40514   1 
  -6   3  10 5.36520 1.48510   2 
  -6   3  10 2.04585 2.58116   4 
  -6   3  10 -0.3556 1.97289   1 
   5  -3 -10 28.6493 2.73869   2 
   5  -3 -10 26.8894 3.26381   1 
  -5   3  10 30.4626 2.41959   2 
  -5   3  10 31.0355 3.12628   1 
  -5   3  10 30.2529 4.12742   4 
   4  -3 -10 3.28915 1.41054   2 
   4  -3 -10 3.10346 1.80505   1 
   4  -3 -10 2.32021 3.13910   4 
  -4   3  10 4.13364 1.51305   2 
  -4   3  10 2.29995 1.91798   1 
  -4   3  10 3.89395 3.04575   3 
  -4   3  10 4.04482 2.25206   4 
   3  -3 -10 1.31397 1.27885   2 
   3  -3 -10 -0.2734 1.58099   1 
   3  -3 -10 5.01372 2.98250   4 
  -3   3  10 0.91811 2.88329   3 
  -3   3  10 0.82345 1.44345   2 
  -3   3  10 -2.0679 1.93764   4 
  -3   3  10 0.31293 1.89373   1 
   2  -3 -10 12.0190 1.95746   1 
   2  -3 -10 3.25566 3.08073   4 
   2  -3 -10 9.17026 1.56382   2 
  -2   3  10 6.70138 3.07064   3 
  -2   3  10 9.57877 1.83349   2 
  -2   3  10 5.78883 2.20425   4 
  -2   3  10 8.88716 2.28461   1 
   1  -3 -10 -1.4130 2.82212   4 
   1  -3 -10 1.18635 1.59457   1 
   1  -3 -10 3.79410 1.63347   2 
  -1   3  10 2.78414 2.37872   3 
  -1   3  10 1.40451 1.81882   4 
  -1   3  10 1.73380 2.96696   3 
  -1   3  10 1.07897 1.85347   2 
   0  -3 -10 42.4456 3.51873   2 
   0  -3 -10 43.3473 3.40705   1 
   0   3  10 37.9838 4.54307   3 
   0   3  10 42.1885 4.07276   3 
   0   3  10 47.5680 3.69467   2 
   0   3  10 43.6691 3.38926   4 
  -1  -3 -10 91.2012 4.46687   1 
  -1  -3 -10 89.6292 4.88240   2 
   1   3  10 87.4814 4.81956   2 
   1   3  10 90.2044 4.23751   4 
  -2  -3 -10 12.8125 2.59014   1 
   2   3  10 15.8218 2.60781   4 
   2   3  10 15.5196 3.31202   2 
  -3  -3 -10 -0.7143 2.58848   1 
   3   3  10 3.18217 2.80951   4 
   3   3  10 5.90124 3.42210   2 
  -8   4  10 21.3846 3.90848   4 
  -8   4  10 12.9656 3.89288   3 
  -8   4  10 19.1456 2.11194   2 
   7  -4 -10 3.34050 2.77326   1 
  -7   4  10 -1.0523 2.81778   4 
  -7   4  10 4.86166 3.22105   3 
   6  -4 -10 2.32466 2.47736   1 
  -6   4  10 5.89382 1.45892   2 
  -6   4  10 4.43782 3.03688   3 
  -6   4  10 -1.2658 2.52674   4 
   5  -4 -10 27.6496 3.55779   1 
  -5   4  10 25.7908 2.34582   2 
  -5   4  10 26.6037 3.50514   3 
  -5   4  10 35.7514 4.10310   4 
   4  -4 -10 69.9249 4.07386   1 
   4  -4 -10 65.9570 2.80972   2 
  -4   4  10 68.8991 4.43736   4 
  -4   4  10 64.5198 2.92012   2 
  -4   4  10 69.6813 4.99050   3 
  -4   4  10 71.1394 6.33096   3 
   3  -4 -10 4.39681 1.41215   2 
   3  -4 -10 5.17615 1.95769   1 
  -3   4  10 3.94167 2.21519   4 
  -3   4  10 13.2516 3.67624   3 
  -3   4  10 4.57997 1.58845   2 
  -3   4  10 8.59743 2.88192   3 
   2  -4 -10 11.7877 2.15594   1 
   2  -4 -10 13.1719 1.72435   2 
  -2   4  10 10.3112 1.91852   2 
  -2   4  10 12.6504 3.54965   3 
  -2   4  10 8.22354 2.79483   3 
  -2   4  10 13.0922 2.42542   4 
   1  -4 -10 28.3435 2.95648   2 
   1  -4 -10 22.4528 3.16354   1 
  -1   4  10 35.9686 4.08061   3 
  -1   4  10 29.3949 3.26859   3 
  -1   4  10 30.6059 3.17951   2 
  -1   4  10 24.8797 3.29640   4 
   0  -4 -10 -0.5919 2.01874   1 
   0  -4 -10 5.73991 2.29982   2 
   0   4  10 4.16770 2.03841   4 
   0   4  10 4.95098 2.62511   3 
   0   4  10 0.22206 2.21312   2 
   0   4  10 8.56166 3.55440   3 
  -1  -4 -10 -0.6032 2.77072   2 
  -1  -4 -10 3.87133 2.22365   1 
   1   4  10 -0.3365 2.05689   4 
   1   4  10 4.34805 2.67210   2 
  -2  -4 -10 9.99953 2.73268   1 
   2   4  10 15.0642 3.30756   2 
   2   4  10 12.9432 2.86233   4 
  -8   5  10 56.7101 5.98209   4 
  -8   5  10 60.3077 6.66446   3 
   7  -5 -10 24.0643 3.84886   1 
  -7   5  10 24.0339 3.98492   3 
  -7   5  10 18.5795 3.50312   4 
   6  -5 -10 115.996 5.94398   1 
  -6   5  10 126.190 6.63407   3 
  -6   5  10 130.053 6.03662   4 
   5  -5 -10 3.52167 2.46663   1 
  -5   5  10 7.10668 3.12183   3 
  -5   5  10 3.31092 2.47101   4 
   4  -5 -10 29.7815 3.67870   1 
  -4   5  10 22.4718 3.48979   3 
  -4   5  10 20.8131 2.97496   4 
   3  -5 -10 23.5782 2.94561   1 
  -3   5  10 23.8692 4.93671   3 
  -3   5  10 22.7766 2.81797   4 
  -3   5  10 17.2752 3.41590   3 
   2  -5 -10 27.7534 3.48873   1 
  -2   5  10 32.1480 3.57026   4 
  -2   5  10 26.7623 3.41298   3 
  -2   5  10 33.7932 4.65958   3 
  -2   5  10 34.3568 2.89650   2 
   1  -5 -10 51.1830 3.48689   2 
   1  -5 -10 57.0698 4.11306   1 
  -1   5  10 57.7821 6.56885   3 
  -1   5  10 49.4019 3.85591   4 
  -1   5  10 55.2845 5.13261   3 
  -1   5  10 56.5093 3.60434   2 
   0  -5 -10 13.3328 2.52059   1 
   0  -5 -10 11.0683 2.79285   2 
   0   5  10 13.2508 4.41756   3 
   0   5  10 13.3014 2.67105   2 
   0   5  10 18.4505 2.90635   3 
   0   5  10 14.8061 2.70787   4 
  -1  -5 -10 171.765 6.54845   1 
   1   5  10 169.735 6.35652   2 
   1   5  10 177.020 6.49539   4 
   7  -6 -10 14.2832 4.02348   1 
  -7   6  10 18.3612 4.13907   3 
  -7   6  10 14.0925 3.50810   4 
   6  -6 -10 113.663 6.31830   1 
  -6   6  10 113.007 6.07168   4 
  -6   6  10 137.690 7.00973   3 
   5  -6 -10 11.0277 3.03166   1 
  -5   6  10 15.8209 3.39022   3 
  -5   6  10 14.4964 2.97377   4 
   4  -6 -10 1.41585 2.45472   1 
  -4   6  10 0.13866 3.17596   3 
  -4   6  10 -2.4804 2.36781   4 
   3  -6 -10 23.3346 3.13137   1 
  -3   6  10 21.9491 2.92525   4 
  -3   6  10 20.9890 3.55344   3 
   2  -6 -10 29.4732 4.17958   1 
  -2   6  10 37.5975 4.84860   3 
  -2   6  10 39.3526 3.86456   4 
   1  -6 -10 13.6205 2.88760   1 
  -1   6  10 8.24091 5.11820   3 
  -1   6  10 9.54293 3.16490   3 
   5  -7 -10 -2.3303 3.24138   1 
  -5   7  10 -2.2552 2.82142   4 
  -5   7  10 -0.8554 3.57709   3 
   4  -7 -10 9.80834 3.39079   1 
  -4   7  10 3.40708 2.85867   4 
  -4   7  10 6.70385 3.64610   3 
   3  -7 -10 9.14292 3.07873   1 
  -3   7  10 3.05420 3.40647   3 
  -3   7  10 8.16762 2.61323   4 
   1   7 -11 11.5287 4.52210   3 
  -1  -7  11 12.8449 3.26827   2 
  -1  -7  11 15.1163 4.64043   4 
   0   7 -11 30.1327 4.44120   1 
   0   7 -11 31.4182 4.87901   3 
   0  -7  11 37.1614 5.03371   4 
   0  -7  11 36.7839 5.35120   2 
  -1   7 -11 3.43472 4.05848   3 
   1  -7  11 6.57655 3.39975   2 
   3   6 -11 12.6860 4.36602   3 
  -3  -6  11 6.46868 2.43732   2 
  -3  -6  11 16.6607 4.77786   4 
   2   6 -11 -6.7403 3.66868   3 
  -2  -6  11 -0.0512 4.07006   4 
  -2  -6  11 -4.6259 2.19645   2 
   1   6 -11 -7.6462 3.47323   3 
   1   6 -11 2.04409 2.18666   1 
  -1  -6  11 12.3869 3.84903   4 
  -1  -6  11 -5.1260 3.49869   1 
  -1  -6  11 -6.4176 3.45566   4 
  -1  -6  11 1.75971 2.54346   2 
   0   6 -11 4.41349 3.66499   3 
   0   6 -11 3.33283 2.41982   1 
   0  -6  11 10.3251 3.41249   4 
   0  -6  11 6.27870 3.72869   4 
   0  -6  11 3.80549 2.93431   2 
   0  -6  11 -3.1096 3.85730   1 
  -1   6 -11 6.23952 3.62783   3 
  -1   6 -11 1.38162 2.73644   1 
   1  -6  11 1.97868 2.82855   2 
  -2   6 -11 86.5307 5.49240   1 
  -2   6 -11 84.9043 6.58743   3 
   2  -6  11 86.3675 6.19192   2 
   5   5 -11 101.435 8.37596   3 
  -5  -5  11 103.911 8.77221   4 
  -5  -5  11 113.133 5.83926   2 
   4   5 -11 162.748 8.47529   3 
  -4  -5  11 158.441 6.28070   2 
  -4  -5  11 160.807 8.91846   4 
   3   5 -11 29.8371 4.47091   3 
  -3  -5  11 25.4403 3.54259   2 
  -3  -5  11 26.0632 4.41514   4 
   2   5 -11 -0.3745 3.20692   3 
   2   5 -11 -0.6174 1.85169   1 
  -2  -5  11 6.96340 3.48773   4 
  -2  -5  11 5.36052 3.76954   4 
  -2  -5  11 0.95880 2.27522   2 
  -2  -5  11 1.00842 2.93519   1 
   1   5 -11 26.5740 3.28238   1 
   1   5 -11 33.7081 4.33187   3 
  -1  -5  11 35.6066 3.92887   1 
  -1  -5  11 28.1389 4.47906   4 
  -1  -5  11 48.0861 6.02155   4 
  -1  -5  11 38.3979 4.03491   2 
   0   5 -11 93.7329 6.16221   3 
   0   5 -11 94.2129 4.49557   1 
   0  -5  11 92.3504 5.20480   2 
   0  -5  11 92.3155 5.40607   4 
   0  -5  11 107.711 6.56844   4 
   0  -5  11 89.9168 6.33219   1 
  -1   5 -11 3.59167 3.26967   3 
   1  -5  11 1.99094 2.82867   2 
  -2   5 -11 896.362 19.4027   3 
  -2   5 -11 866.404 18.5647   1 
   2  -5  11 841.108 19.0681   2 
  -3   5 -11 80.4293 6.00474   3 
  -3   5 -11 56.6090 5.16785   1 
   3  -5  11 61.9670 5.97595   2 
   5   4 -11 139.835 8.20322   3 
  -5  -4  11 135.378 8.36243   4 
  -5  -4  11 147.159 5.89249   2 
   4   4 -11 13.5855 3.86875   3 
  -4  -4  11 27.6324 4.55044   4 
  -4  -4  11 15.6705 2.93882   2 
   3   4 -11 2.17172 3.15642   3 
   3   4 -11 3.03836 1.84496   1 
  -3  -4  11 5.74609 2.44569   2 
  -3  -4  11 3.13684 2.51301   1 
  -3  -4  11 -0.8471 3.43750   4 
   2   4 -11 3.80362 1.75175   1 
   2   4 -11 4.49946 3.15997   3 
  -2  -4  11 1.54410 1.93192   2 
  -2  -4  11 5.22963 3.63373   4 
  -2  -4  11 1.37337 3.11423   4 
  -2  -4  11 5.25884 2.73446   1 
   1   4 -11 12.6969 3.26699   3 
   1   4 -11 13.7145 2.11083   1 
  -1  -4  11 17.4273 2.82797   2 
  -1  -4  11 16.4085 3.08055   1 
  -1  -4  11 8.46235 3.29670   4 
  -1  -4  11 14.1692 3.79625   4 
   0   4 -11 155.491 5.45327   1 
   0   4 -11 161.713 6.93288   3 
   0  -4  11 153.428 6.93510   1 
   0  -4  11 163.537 6.18659   2 
   0  -4  11 156.990 7.10447   4 
   0  -4  11 152.249 5.83959   4 
  -1   4 -11 41.6764 4.86170   3 
  -1   4 -11 39.1144 3.94564   1 
   1  -4  11 52.9976 4.59603   2 
   1  -4  11 49.1952 4.47263   3 
   1  -4  11 28.8953 7.19719   1 
   1  -4  11 42.5836 5.56804   4 
   1  -4  11 55.2273 3.89185   4 
  -2   4 -11 351.176 9.77063   3 
  -2   4 -11 334.682 9.12913   1 
   2  -4  11 314.071 9.56076   2 
   2  -4  11 299.957 8.04488   3 
  -3   4 -11 26.9239 3.54275   1 
  -3   4 -11 42.3937 5.19293   3 
   3  -4  11 35.6713 5.21110   2 
   3  -4  11 27.0288 3.90576   3 
   6   3 -11 -1.3059 4.14193   3 
  -6  -3  11 8.16685 4.26796   4 
  -6  -3  11 11.8228 2.77089   2 
   5   3 -11 3.32810 3.77840   3 
  -5  -3  11 5.69914 2.17082   2 
  -5  -3  11 6.14727 3.68753   4 
   4   3 -11 25.7040 4.04865   3 
   4   3 -11 22.0471 2.93943   1 
  -4  -3  11 20.6998 3.96663   4 
  -4  -3  11 26.6106 3.61658   1 
  -4  -3  11 23.2408 2.83777   2 
   3   3 -11 13.6740 1.98396   1 
   3   3 -11 13.7765 3.37671   3 
  -3  -3  11 17.2041 3.54240   4 
  -3  -3  11 11.2612 2.12051   2 
  -3  -3  11 10.4718 2.47260   1 
  -3  -3  11 18.6387 3.73146   4 
   2   3 -11 0.66182 2.76350   3 
   2   3 -11 2.39178 1.58953   1 
  -2  -3  11 6.87372 2.63613   1 
  -2  -3  11 -3.1817 1.80390   2 
  -2  -3  11 -1.7695 2.78859   4 
  -2  -3  11 -0.4206 3.20731   4 
   1   3 -11 64.7831 4.12404   1 
   1   3 -11 69.9536 5.21393   3 
  -1  -3  11 74.2791 4.69097   4 
  -1  -3  11 75.4370 4.91336   1 
  -1  -3  11 72.1169 4.25267   2 
  -1  -3  11 66.6531 4.36339   3 
   0   3 -11 13.3739 2.23211   1 
   0   3 -11 11.8690 2.99564   3 
   0  -3  11 18.9014 2.88314   2 
   0  -3  11 8.11642 2.43470   3 
   0  -3  11 17.1199 3.28893   1 
   0  -3  11 16.2042 2.59531   4 
  -1   3 -11 14.2630 3.02621   3 
  -1   3 -11 10.4287 2.40487   1 
   1  -3  11 9.80394 2.44884   3 
   1  -3  11 8.94773 2.79002   2 
   1  -3  11 9.01638 2.29977   4 
  -2   3 -11 32.3395 4.58340   3 
  -2   3 -11 27.6403 3.71412   1 
   2  -3  11 28.1222 3.53631   3 
   2  -3  11 33.7263 3.95486   2 
   2  -3  11 27.5192 3.06797   4 
  -3   3 -11 2.02546 2.54726   1 
   3  -3  11 -1.7939 3.27632   2 
   3  -3  11 1.93074 2.36152   3 
  -4   3 -11 12.8800 3.48809   1 
   4  -3  11 7.06440 3.25445   2 
   7   2 -11 17.7483 4.91551   3 
  -7  -2  11 26.9191 3.38362   2 
  -7  -2  11 28.0094 5.31643   4 
   6   2 -11 65.4236 6.63561   3 
  -6  -2  11 66.2555 6.84621   4 
  -6  -2  11 66.4933 4.23770   2 
   5   2 -11 1.52764 2.01417   1 
   5   2 -11 -2.3154 3.23196   3 
  -5  -2  11 -5.0963 3.16219   4 
  -5  -2  11 -0.9307 2.06425   1 
  -5  -2  11 0.55984 1.99689   2 
   4   2 -11 17.5019 2.20116   1 
   4   2 -11 18.9462 3.80049   3 
  -4  -2  11 17.6561 2.65172   2 
  -4  -2  11 25.7515 3.71961   4 
  -4  -2  11 14.0208 2.47244   1 
   3   2 -11 55.1700 3.10433   1 
   3   2 -11 44.5089 5.19977   3 
  -3  -2  11 53.0337 5.08108   4 
  -3  -2  11 54.0062 3.54463   2 
  -3  -2  11 54.2156 4.01291   1 
   2   2 -11 32.8310 3.00376   2 
   2   2 -11 28.2522 2.70538   1 
   2   2 -11 34.4309 4.52531   3 
  -2  -2  11 34.0581 3.93884   1 
  -2  -2  11 29.4531 4.30228   4 
  -2  -2  11 41.1073 3.40510   2 
  -2  -2  11 32.7450 4.10044   3 
   1   2 -11 24.5151 3.37465   3 
   1   2 -11 21.7526 2.54493   2 
   1   2 -11 22.4092 2.82112   1 
  -1  -2  11 24.8861 2.86041   2 
  -1  -2  11 26.3126 3.00770   3 
  -1  -2  11 28.7425 4.21662   4 
  -1  -2  11 29.1321 4.03986   1 
   0   2 -11 6.29830 2.73282   3 
   0   2 -11 10.0256 2.75208   2 
   0   2 -11 7.38650 1.93266   1 
   0  -2  11 7.15746 2.20304   4 
   0  -2  11 9.35975 2.39263   3 
   0  -2  11 11.7953 2.88997   1 
   0  -2  11 7.42584 2.24639   2 
  -1   2 -11 50.4781 6.67001   3 
  -1   2 -11 38.9773 3.47637   1 
   1  -2  11 37.5599 3.59090   3 
   1  -2  11 37.6260 3.41938   4 
   1  -2  11 40.8132 4.20246   2 
  -2   2 -11 2.96774 3.19791   4 
  -2   2 -11 -0.6530 2.00591   1 
   2  -2  11 -0.9155 2.67272   2 
   2  -2  11 0.23204 2.05033   3 
   2  -2  11 1.75744 1.80070   4 
  -3   2 -11 8.73915 3.76838   4 
  -3   2 -11 21.3938 3.28313   3 
  -3   2 -11 9.47934 2.75172   1 
   3  -2  11 14.6221 3.20623   2 
   3  -2  11 14.5122 2.09044   4 
   3  -2  11 6.47260 2.20835   3 
  -4   2 -11 8.98400 3.05867   1 
   4  -2  11 1.65678 3.76935   2 
  -7  -1  11 6.69478 4.13570   4 
  -7  -1  11 1.79694 2.28623   2 
   6   1 -11 10.0253 2.60490   1 
   6   1 -11 12.4208 3.83883   3 
  -6  -1  11 12.6727 3.66095   4 
  -6  -1  11 11.1042 2.39559   1 
  -6  -1  11 8.49620 2.40289   2 
   5   1 -11 37.0713 5.23552   3 
   5   1 -11 37.2092 3.57346   2 
   5   1 -11 48.4461 3.39088   1 
  -5  -1  11 50.6235 5.50140   4 
  -5  -1  11 40.8730 3.70639   1 
  -5  -1  11 40.1654 3.39584   2 
   4   1 -11 -2.4641 1.72504   2 
   4   1 -11 3.36999 3.02576   3 
   4   1 -11 -0.2336 1.65327   1 
  -4  -1  11 3.63376 2.83246   4 
  -4  -1  11 0.13350 1.66639   2 
  -4  -1  11 -0.7198 1.99213   1 
   3   1 -11 59.5419 3.24043   1 
   3   1 -11 61.8564 5.08360   3 
   3   1 -11 61.5023 3.42427   2 
  -3  -1  11 52.0454 4.62256   4 
  -3  -1  11 57.7505 3.98085   1 
  -3  -1  11 59.5348 3.55677   2 
  -3  -1  11 54.5982 4.74046   3 
   2   1 -11 8.03522 2.79838   3 
   2   1 -11 10.7278 1.84133   2 
  -2  -1  11 8.27373 2.87914   3 
  -2  -1  11 8.04203 2.48297   4 
  -2  -1  11 11.0289 2.45658   1 
  -2  -1  11 7.00726 2.07002   2 
   1   1 -11 144.407 4.85991   1 
   1   1 -11 134.160 4.77142   2 
   1   1 -11 142.135 6.12488   3 
  -1  -1  11 143.856 5.73259   3 
  -1  -1  11 139.018 6.95282   4 
  -1  -1  11 142.042 5.84957   1 
  -1  -1  11 149.687 5.35779   2 
   0   1 -11 66.5902 4.75221   3 
   0   1 -11 66.9409 3.60428   1 
   0   1 -11 58.7714 5.24489   4 
   0   1 -11 54.1909 3.68056   2 
   0  -1  11 70.3031 4.21495   3 
   0  -1  11 60.0055 4.68944   1 
   0  -1  11 71.0363 4.26959   2 
   0  -1  11 50.5429 5.79374   4 
  -1   1 -11 45.7657 4.28826   3 
  -1   1 -11 44.3340 5.31081   4 
  -1   1 -11 42.1957 3.44530   1 
   1  -1  11 48.5639 3.71386   3 
   1  -1  11 42.4125 4.28614   2 
   1  -1  11 32.1775 4.14880   4 
  -2   1 -11 4.81465 2.67991   3 
  -2   1 -11 0.74533 2.13647   1 
  -2   1 -11 8.54655 3.66059   4 
   2  -1  11 -0.4618 2.05151   3 
   2  -1  11 1.37660 3.10748   4 
   2  -1  11 4.71144 2.84327   2 
  -3   1 -11 -0.1204 2.48960   1 
  -3   1 -11 -3.0739 3.77556   4 
   3  -1  11 0.20871 1.91544   4 
   3  -1  11 0.07835 2.90782   2 
   7   0 -11 112.457 5.61729   1 
  -7   0  11 110.015 4.79145   2 
  -7   0  11 109.332 4.92300   1 
  -7   0  11 112.174 7.39593   4 
   6   0 -11 2.78906 2.32342   1 
   6   0 -11 5.79173 2.51408   2 
  -6   0  11 -0.8694 2.07065   1 
  -6   0  11 5.02970 1.88791   2 
  -6   0  11 0.82519 3.27235   4 
   5   0 -11 107.734 4.36444   1 
   5   0 -11 91.4849 6.16676   3 
   5   0 -11 97.7541 4.47456   2 
  -5   0  11 99.9524 4.13108   2 
  -5   0  11 94.6508 6.13065   4 
  -5   0  11 96.7230 4.56508   1 
   4   0 -11 69.9650 3.76439   1 
   4   0 -11 78.5473 3.76807   2 
   4   0 -11 85.6738 5.70343   3 
  -4   0  11 82.1158 5.33801   4 
  -4   0  11 69.9081 4.13754   2 
  -4   0  11 81.7096 4.26582   1 
   3   0 -11 21.5216 2.64259   2 
   3   0 -11 27.6012 3.48052   3 
   3   0 -11 26.6890 3.98490   1 
  -3   0  11 22.1404 2.76594   1 
  -3   0  11 22.0674 3.38418   3 
  -3   0  11 24.6957 3.16971   4 
  -3   0  11 28.7719 4.24912   2 
   2   0 -11 28.5165 3.44265   3 
   2   0 -11 25.1969 2.74537   2 
   2   0 -11 26.7125 2.68058   1 
  -2   0  11 25.2966 3.04497   4 
  -2   0  11 29.0703 3.79781   1 
  -2   0  11 26.0645 3.32440   3 
   1   0 -11 466.166 10.4290   1 
   1   0 -11 434.037 11.8598   4 
   1   0 -11 443.728 10.1224   2 
  -1   0  11 443.702 11.0794   1 
  -1   0  11 454.812 10.9337   3 
  -1   0  11 459.362 10.7648   4 
  -1   0  11 474.516 10.8016   2 
   0   0 -11 50.4321 3.68300   2 
   0   0 -11 51.0989 5.63624   4 
   0   0 -11 54.9701 3.45765   1 
   0   0 -11 50.4733 4.31103   3 
   0   0  11 60.5629 4.17274   2 
   0   0  11 51.3594 3.84791   4 
   0   0  11 54.9069 4.27640   3 
  -1   0 -11 40.2699 4.39616   4 
  -1   0 -11 40.9927 3.50396   1 
   1   0  11 43.4189 3.33075   4 
   1   0  11 47.3302 4.44072   2 
   1   0  11 43.2279 3.81454   3 
  -2   0 -11 52.3847 3.88169   1 
  -2   0 -11 41.5635 4.55984   4 
   2   0  11 40.4381 4.70574   2 
   2   0  11 43.2145 3.49448   4 
  -3   0 -11 1.05914 2.46183   1 
  -3   0 -11 0.33012 5.51224   4 
   3   0  11 0.20225 2.05660   4 
   3   0  11 -3.4272 3.00385   2 
  -8   1  11 143.275 5.39468   2 
  -8   1  11 122.585 5.72904   1 
  -8   1  11 146.244 8.56548   4 
   7  -1 -11 3.74219 2.88361   1 
  -7   1  11 2.23703 3.60161   4 
  -7   1  11 3.55038 2.05090   2 
  -7   1  11 0.67594 2.42280   1 
   6  -1 -11 11.6562 2.55209   1 
   6  -1 -11 12.2160 2.66504   2 
  -6   1  11 6.13152 2.37480   1 
  -6   1  11 12.9961 2.10391   2 
  -6   1  11 13.7331 3.39964   4 
   5  -1 -11 4.17611 1.95005   1 
   5  -1 -11 3.69446 1.93035   2 
  -5   1  11 1.55782 2.08676   1 
  -5   1  11 3.98003 1.80064   2 
  -5   1  11 1.35116 2.71382   4 
   4  -1 -11 5.92729 1.88530   1 
   4  -1 -11 6.90050 1.89092   2 
  -4   1  11 5.75109 2.75191   4 
  -4   1  11 5.41381 1.80722   2 
  -4   1  11 7.78084 2.27231   1 
  -4   1  11 4.44558 5.02292   3 
   3  -1 -11 72.7524 3.62529   1 
   3  -1 -11 73.1012 3.39386   2 
  -3   1  11 73.4188 4.71713   4 
  -3   1  11 61.2107 5.37442   3 
  -3   1  11 71.5038 3.66377   2 
  -3   1  11 72.6324 4.40596   1 
   2  -1 -11 9.19610 3.10243   4 
   2  -1 -11 5.07649 1.74526   2 
   2  -1 -11 8.67272 1.86618   1 
  -2   1  11 5.49493 2.39212   4 
  -2   1  11 7.28493 3.04725   3 
  -2   1  11 10.0556 2.02474   2 
  -2   1  11 2.01853 2.16542   1 
   1  -1 -11 196.192 6.01694   1 
   1  -1 -11 194.664 7.80168   4 
   1  -1 -11 187.560 5.68321   2 
  -1   1  11 205.886 8.19585   1 
  -1   1  11 195.887 6.85943   3 
  -1   1  11 210.490 6.46823   4 
   0  -1 -11 29.4014 3.47915   2 
   0  -1 -11 22.0790 2.62162   1 
   0  -1 -11 16.3287 3.73161   4 
   0   1  11 25.9408 3.68894   2 
   0   1  11 23.2515 2.95352   3 
   0   1  11 28.2223 3.40415   4 
  -1  -1 -11 3.84864 4.01244   4 
  -1  -1 -11 6.31288 2.27165   1 
   1   1  11 8.02890 2.53899   3 
   1   1  11 9.36285 2.75892   2 
   1   1  11 10.4147 2.18478   4 
  -2  -1 -11 0.48220 2.18208   1 
   2   1  11 -1.7826 3.08500   2 
   2   1  11 -2.0741 2.11964   4 
  -3  -1 -11 2.25667 2.61937   1 
   3   1  11 6.87317 3.64464   2 
   3   1  11 0.95041 2.39547   4 
  -8   2  11 14.3626 2.55917   2 
  -8   2  11 12.7394 4.23950   4 
   7  -2 -11 -0.0851 2.86011   1 
  -7   2  11 -1.2375 1.85794   2 
  -7   2  11 1.37669 3.32533   4 
   6  -2 -11 16.7730 2.84925   1 
   6  -2 -11 17.8507 2.62829   2 
  -6   2  11 10.8656 2.63530   1 
  -6   2  11 16.1452 2.09162   2 
  -6   2  11 20.5378 3.62806   4 
   5  -2 -11 87.6759 3.93366   2 
   5  -2 -11 81.1980 4.42791   1 
  -5   2  11 86.8905 3.80164   2 
  -5   2  11 90.3116 5.63334   4 
  -5   2  11 85.2090 4.48999   1 
   4  -2 -11 0.85371 1.93133   1 
   4  -2 -11 1.66208 1.61551   2 
  -4   2  11 -0.1102 1.66257   2 
  -4   2  11 -3.5062 2.06749   1 
  -4   2  11 0.12506 2.50687   4 
   3  -2 -11 11.9052 2.25819   1 
   3  -2 -11 17.8402 2.06842   2 
  -3   2  11 9.26940 2.45815   1 
  -3   2  11 13.5033 2.12449   2 
  -3   2  11 15.8283 2.72731   4 
  -3   2  11 16.7210 3.65035   3 
   2  -2 -11 8.09960 2.09981   1 
   2  -2 -11 4.31162 1.78730   2 
  -2   2  11 4.95680 3.19845   3 
  -2   2  11 10.3064 2.15397   2 
  -2   2  11 8.33891 2.38326   4 
   1  -2 -11 3.08997 1.86779   2 
   1  -2 -11 -2.0156 1.69804   1 
  -1   2  11 -0.0112 2.09070   2 
  -1   2  11 4.02698 3.00675   3 
   0  -2 -11 0.95311 2.21672   2 
   0  -2 -11 7.22814 2.19774   1 
   0   2  11 6.56429 2.07946   4 
   0   2  11 8.67073 2.54522   2 
   0   2  11 5.39944 2.80624   3 
  -1  -2 -11 6.42179 2.14346   1 
   1   2  11 6.77816 2.78311   2 
   1   2  11 5.09021 2.16062   4 
  -2  -2 -11 24.0745 3.14904   1 
   2   2  11 28.0168 3.89919   4 
   2   2  11 27.7882 3.83364   2 
  -8   3  11 45.0313 6.59104   4 
  -8   3  11 31.5474 3.50301   2 
   7  -3 -11 23.9765 3.62078   1 
  -7   3  11 27.9962 3.04151   2 
   6  -3 -11 12.1693 2.79701   1 
  -6   3  11 8.80940 3.29457   4 
  -6   3  11 12.5734 1.97233   2 
   5  -3 -11 0.23453 1.83257   2 
   5  -3 -11 0.62358 2.10642   1 
  -5   3  11 -2.9415 1.66683   2 
  -5   3  11 -1.4100 2.58344   4 
   4  -3 -11 18.1653 2.70618   1 
   4  -3 -11 18.8118 2.68160   2 
  -4   3  11 20.4954 2.77047   2 
  -4   3  11 18.3001 2.92423   4 
   3  -3 -11 31.8363 2.76376   2 
   3  -3 -11 37.1973 3.42010   1 
  -3   3  11 36.1709 3.08932   2 
  -3   3  11 38.5236 4.13754   4 
  -3   3  11 29.4390 4.21841   3 
   2  -3 -11 85.3997 3.66472   2 
   2  -3 -11 81.1177 4.23012   1 
  -2   3  11 83.9831 6.40713   3 
  -2   3  11 82.6054 4.70874   4 
  -2   3  11 81.0481 4.15661   2 
   1  -3 -11 3.51586 2.06454   2 
   1  -3 -11 7.57084 2.15280   1 
  -1   3  11 5.60183 2.32712   2 
  -1   3  11 13.2663 2.49258   4 
  -1   3  11 4.50102 3.53280   3 
   0  -3 -11 7.28391 2.27962   1 
   0  -3 -11 12.7029 2.62394   2 
   0   3  11 6.84814 3.14088   3 
   0   3  11 8.59671 2.65974   2 
   0   3  11 8.25442 3.50978   3 
  -1  -3 -11 14.3406 2.70370   1 
   1   3  11 13.7624 3.29500   2 
   1   3  11 10.1027 2.52252   4 
   7  -4 -11 7.73818 3.46129   1 
  -7   4  11 2.94215 3.37205   4 
  -7   4  11 8.34807 3.76558   3 
  -7   4  11 9.28554 2.00096   2 
   6  -4 -11 112.021 5.96284   1 
  -6   4  11 108.292 3.89878   2 
  -6   4  11 103.277 6.71188   3 
  -6   4  11 105.436 6.15208   4 
   5  -4 -11 24.2715 3.22555   1 
   5  -4 -11 18.7989 2.42494   2 
  -5   4  11 17.1260 3.51515   3 
  -5   4  11 20.1491 2.67649   2 
  -5   4  11 13.1001 2.91735   4 
   4  -4 -11 106.419 4.00285   2 
   4  -4 -11 123.308 5.36732   1 
  -4   4  11 118.440 5.68142   4 
  -4   4  11 119.666 4.11915   2 
  -4   4  11 119.935 6.41427   3 
   3  -4 -11 13.2012 1.91045   2 
   3  -4 -11 13.2537 2.46292   1 
  -3   4  11 11.4182 2.78103   4 
  -3   4  11 6.52864 2.00510   2 
  -3   4  11 10.0243 3.44028   3 
   2  -4 -11 15.2706 2.17481   2 
   2  -4 -11 25.4333 3.51803   1 
  -2   4  11 24.2301 3.36832   2 
  -2   4  11 19.8372 4.39231   3 
  -2   4  11 15.8491 2.76091   4 
  -2   4  11 21.6055 3.51078   3 
   1  -4 -11 23.6881 3.49334   1 
   1  -4 -11 30.7652 3.59274   2 
  -1   4  11 18.8362 3.50970   3 
  -1   4  11 34.8626 3.78921   2 
  -1   4  11 23.0047 2.82196   4 
  -1   4  11 31.6168 4.70806   3 
   0  -4 -11 18.7850 3.10195   1 
   0  -4 -11 22.3944 3.19281   2 
   0   4  11 22.7037 3.08854   2 
   0   4  11 20.0151 3.45884   3 
   0   4  11 19.6795 2.81075   4 
   0   4  11 18.0132 5.35138   3 
   6  -5 -11 49.4968 5.30852   1 
  -6   5  11 47.6424 5.33599   4 
  -6   5  11 50.6068 6.20360   3 
   5  -5 -11 28.1656 3.85626   1 
  -5   5  11 28.4484 4.07945   3 
  -5   5  11 33.3284 3.86696   4 
   4  -5 -11 184.221 6.94699   1 
  -4   5  11 194.720 7.12021   4 
  -4   5  11 195.725 7.88601   3 
   3  -5 -11 6.17417 2.63599   1 
  -3   5  11 11.2865 2.69705   4 
  -3   5  11 6.01332 3.51540   3 
   2  -5 -11 -0.4230 2.36239   1 
  -2   5  11 4.13414 2.26297   2 
  -2   5  11 2.88438 2.54836   4 
  -2   5  11 0.77648 3.31473   3 
   1  -5 -11 23.7206 3.39298   1 
  -1   5  11 13.9623 2.89424   4 
  -1   5  11 16.6525 3.66354   3 
  -1   5  11 18.3130 5.07406   3 
  -1   5  11 17.8567 2.77199   2 
   5  -6 -11 249.259 8.88849   1 
  -5   6  11 252.177 9.35765   3 
  -5   6  11 261.998 8.55641   4 
   4  -6 -11 247.201 8.62270   1 
  -4   6  11 260.720 8.98289   3 
  -4   6  11 256.191 8.22633   4 
   3  -6 -11 -3.4362 2.85876   1 
  -3   6  11 0.29283 3.62757   3 
  -3   6  11 -3.2619 2.70594   4 
   1   6 -12 16.1597 3.00809   1 
   1   6 -12 16.6255 4.61900   3 
  -1  -6  12 17.0349 3.67100   2 
   3   5 -12 107.910 7.76101   3 
  -3  -5  12 103.388 7.69984   4 
   2   5 -12 14.4848 4.32187   3 
   2   5 -12 12.9703 2.53207   1 
  -2  -5  12 25.5474 4.49568   4 
  -2  -5  12 8.17240 2.72734   2 
  -2  -5  12 14.8543 4.15103   1 
   1   5 -12 -2.2997 2.31262   1 
   1   5 -12 8.35101 3.85417   3 
  -1  -5  12 4.87083 2.87729   2 
  -1  -5  12 2.44292 4.11285   1 
  -1  -5  12 -0.6656 4.35028   4 
  -1  -5  12 4.21023 3.64318   4 
   0   5 -12 0.39069 2.54921   1 
   0   5 -12 10.2321 3.94822   3 
   0  -5  12 1.32960 2.95681   2 
   0  -5  12 2.74276 4.77782   4 
   0  -5  12 0.26520 3.67221   4 
  -1   5 -12 5.69537 2.70399   1 
  -1   5 -12 -1.4103 3.65957   3 
   1  -5  12 2.15712 2.90529   4 
   1  -5  12 -1.7385 3.06650   2 
   4   4 -12 -2.2636 4.07203   3 
  -4  -4  12 -0.0134 4.17334   4 
  -4  -4  12 3.37620 2.74700   2 
   3   4 -12 9.04743 3.89468   3 
   3   4 -12 2.72614 2.15751   1 
  -3  -4  12 -0.1027 3.81270   4 
  -3  -4  12 -1.7757 3.23571   1 
  -3  -4  12 1.81763 2.20034   2 
   2   4 -12 13.3765 3.05800   1 
   2   4 -12 25.4268 4.27199   3 
  -2  -4  12 14.3927 3.92708   4 
  -2  -4  12 21.1799 3.76812   1 
   1   4 -12 -1.7498 3.30032   3 
   1   4 -12 -1.2445 2.04042   1 
  -1  -4  12 -3.2676 2.52234   2 
  -1  -4  12 4.63629 4.23799   4 
  -1  -4  12 -0.3698 3.55184   1 
  -1  -4  12 1.45505 3.14005   4 
   0   4 -12 2.96212 2.26037   1 
   0   4 -12 4.49437 3.57275   3 
   0  -4  12 10.9287 4.35024   4 
   0  -4  12 5.28664 2.98564   4 
   0  -4  12 6.08705 2.86391   2 
  -1   4 -12 65.6414 4.77828   1 
  -1   4 -12 81.5091 6.17502   3 
   1  -4  12 72.4302 5.61861   2 
   1  -4  12 78.8757 7.55268   4 
   1  -4  12 66.0598 4.74887   4 
  -2   4 -12 5.01068 2.97777   1 
  -2   4 -12 8.38844 3.81941   3 
   2  -4  12 11.2892 3.86458   2 
   5   3 -12 47.4887 5.61864   3 
  -5  -3  12 40.8115 4.10073   2 
  -5  -3  12 52.6479 7.17894   4 
   4   3 -12 60.4353 3.91012   1 
   4   3 -12 64.3301 6.70475   3 
  -4  -3  12 64.6110 6.81856   4 
  -4  -3  12 75.5146 5.05122   1 
  -4  -3  12 68.6621 4.30487   2 
   3   3 -12 0.99725 3.59133   3 
   3   3 -12 0.90052 1.99100   1 
  -3  -3  12 -0.7682 3.54343   4 
  -3  -3  12 -4.0723 3.01670   1 
  -3  -3  12 2.68897 2.38246   2 
   2   3 -12 2.85913 3.40176   3 
   2   3 -12 7.93752 2.07585   1 
  -2  -3  12 10.2548 2.74965   2 
  -2  -3  12 5.57589 5.01462   4 
  -2  -3  12 7.53537 3.17160   1 
  -2  -3  12 7.00130 3.33842   4 
   1   3 -12 35.6937 3.45290   1 
   1   3 -12 44.4945 5.37168   3 
  -1  -3  12 48.1052 5.38373   1 
  -1  -3  12 47.8232 4.89242   4 
  -1  -3  12 40.6498 4.36677   2 
   0   3 -12 15.5626 2.64225   1 
   0   3 -12 25.2159 3.77459   3 
   0  -3  12 18.0182 3.15707   2 
   0  -3  12 20.6378 3.02327   4 
  -1   3 -12 6.67629 3.35697   3 
  -1   3 -12 4.82408 2.55557   1 
   1  -3  12 5.29962 2.91832   2 
  -2   3 -12 16.1963 3.72949   3 
  -2   3 -12 9.34590 2.95284   1 
   2  -3  12 16.8832 2.58762   4 
   2  -3  12 20.1244 4.02412   2 
   2  -3  12 15.7258 2.88722   3 
   6   2 -12 55.8491 7.14744   3 
  -6  -2  12 63.2888 7.39228   4 
  -6  -2  12 56.1921 4.51810   2 
   5   2 -12 10.8320 2.49834   1 
   5   2 -12 14.8672 4.28910   3 
  -5  -2  12 8.64535 2.30608   2 
  -5  -2  12 10.3261 3.97716   4 
  -5  -2  12 14.1445 2.99327   1 
   4   2 -12 10.9355 2.36035   1 
   4   2 -12 13.4584 3.90795   3 
  -4  -2  12 7.18872 3.59967   4 
  -4  -2  12 10.2036 3.03714   1 
  -4  -2  12 10.6363 2.54359   2 
   3   2 -12 61.6431 4.35020   1 
   3   2 -12 61.6479 6.13277   3 
  -3  -2  12 65.8926 5.87540   4 
  -3  -2  12 70.0211 4.29742   2 
  -3  -2  12 58.8083 4.99091   1 
   2   2 -12 0.47491 3.27848   3 
   2   2 -12 1.06909 1.85300   1 
  -2  -2  12 5.02429 2.92976   1 
  -2  -2  12 -2.8530 2.89718   4 
  -2  -2  12 2.96661 2.41316   2 
   1   2 -12 62.9565 5.67924   3 
   1   2 -12 59.1805 3.86701   1 
  -1  -2  12 45.9072 5.30347   1 
  -1  -2  12 52.6695 4.81834   4 
  -1  -2  12 49.9627 4.35104   2 
   0   2 -12 13.7045 3.48823   3 
   0   2 -12 18.5964 2.67280   1 
   0  -2  12 13.7704 2.73171   4 
   0  -2  12 15.1931 3.00275   2 
   0  -2  12 11.8684 2.98756   3 
  -1   2 -12 104.546 6.40346   3 
  -1   2 -12 106.816 5.07429   1 
   1  -2  12 108.133 4.88542   4 
   1  -2  12 113.979 6.05561   2 
   1  -2  12 102.725 5.09261   3 
  -2   2 -12 46.5256 5.50885   3 
  -2   2 -12 47.6323 4.56511   1 
   2  -2  12 51.1813 4.42851   3 
   2  -2  12 42.3359 3.76206   4 
   2  -2  12 51.8891 5.54470   2 
   6   1 -12 25.5310 4.63226   3 
   6   1 -12 21.6024 3.22476   1 
  -6  -1  12 22.0012 2.96881   2 
  -6  -1  12 17.4573 3.12023   1 
  -6  -1  12 16.2679 4.43957   4 
   5   1 -12 133.235 7.34594   3 
  -5  -1  12 128.918 5.17992   2 
  -5  -1  12 122.843 5.61534   1 
  -5  -1  12 127.895 7.42190   4 
   4   1 -12 0.63210 2.00211   1 
   4   1 -12 3.88021 3.35720   3 
  -4  -1  12 -4.0145 3.05386   4 
  -4  -1  12 -1.0634 2.57736   1 
  -4  -1  12 1.50691 2.29361   2 
   3   1 -12 84.7143 6.05414   3 
   3   1 -12 76.0956 3.91376   1 
  -3  -1  12 76.1999 5.07639   1 
  -3  -1  12 77.0776 5.64869   4 
  -3  -1  12 76.1739 4.34741   2 
   2   1 -12 75.1183 5.87990   3 
   2   1 -12 71.0204 3.82027   1 
  -2  -1  12 71.6805 4.42978   2 
  -2  -1  12 59.1961 5.11205   1 
  -2  -1  12 70.7846 5.24625   4 
   1   1 -12 6.09593 3.04292   3 
   1   1 -12 6.80504 2.21840   1 
  -1  -1  12 5.23251 2.57591   4 
  -1  -1  12 7.13414 3.01770   3 
  -1  -1  12 4.36943 2.45506   2 
   0   1 -12 7.55943 2.19515   1 
   0   1 -12 11.7418 3.27278   3 
   0  -1  12 11.7331 2.94522   3 
   0  -1  12 8.29930 2.64408   4 
   0  -1  12 10.8031 2.80888   2 
  -1   1 -12 284.559 8.75111   3 
  -1   1 -12 276.285 8.04149   1 
  -1   1 -12 277.935 9.79856   4 
   1  -1  12 274.150 7.75156   3 
   1  -1  12 289.837 8.82749   2 
   1  -1  12 276.039 7.47161   4 
  -2   1 -12 55.8868 5.29006   3 
  -2   1 -12 63.2787 7.35300   4 
  -2   1 -12 50.8561 4.50508   1 
   2  -1  12 55.6178 4.00148   4 
   2  -1  12 54.5990 5.31585   2 
   7   0 -12 590.052 13.3448   1 
  -7   0  12 541.142 15.6057   4 
  -7   0  12 568.317 12.8582   2 
   6   0 -12 161.283 6.23539   1 
  -6   0  12 147.590 6.23561   1 
  -6   0  12 161.647 8.27294   4 
  -6   0  12 161.388 5.73827   2 
   5   0 -12 9.44991 2.34034   1 
  -5   0  12 9.49892 3.42768   4 
  -5   0  12 6.71951 2.75211   1 
  -5   0  12 6.70738 2.22904   2 
   4   0 -12 16.6301 2.52570   1 
   4   0 -12 16.1254 2.58917   2 
   4   0 -12 21.9127 4.03369   3 
  -4   0  12 17.1092 3.39907   4 
  -4   0  12 20.0168 3.03872   1 
  -4   0  12 17.8239 2.55328   2 
   3   0 -12 6.33627 3.39565   3 
   3   0 -12 3.89949 1.97371   2 
   3   0 -12 6.17102 2.01097   1 
  -3   0  12 7.22145 2.21851   2 
  -3   0  12 3.07781 2.78641   4 
  -3   0  12 -1.7333 2.62342   1 
   2   0 -12 2.06412 1.89447   1 
   2   0 -12 -0.9151 1.87401   2 
   2   0 -12 0.82471 3.08196   3 
  -2   0  12 0.97278 3.71879   3 
  -2   0  12 3.86447 2.34953   2 
  -2   0  12 3.31719 2.60168   4 
   1   0 -12 55.4995 4.80630   2 
   1   0 -12 51.6260 3.66745   1 
   1   0 -12 44.1198 5.14768   3 
  -1   0  12 55.4359 4.51260   4 
  -1   0  12 62.7949 4.38240   2 
  -1   0  12 50.8301 5.11514   3 
   0   0 -12 1.07583 2.07504   1 
   0   0  12 -1.0091 2.79392   2 
   0   0  12 1.09392 2.91413   3 
   0   0  12 0.09973 2.32681   4 
  -1   0 -12 91.7877 4.97660   1 
   1   0  12 94.2161 5.21589   3 
   1   0  12 103.788 5.78591   2 
   1   0  12 100.299 4.66724   4 
  -2   0 -12 15.2753 3.19934   1 
   2   0  12 6.14494 3.57419   2 
   2   0  12 12.1258 2.68705   4 
   7  -1 -12 285.648 8.93199   1 
  -7   1  12 282.412 7.87052   2 
  -7   1  12 294.376 10.7966   4 
   6  -1 -12 5.74965 2.83825   1 
   6  -1 -12 1.13292 2.86866   2 
  -6   1  12 6.05605 2.26630   2 
  -6   1  12 7.17032 3.67392   4 
   5  -1 -12 -1.4499 2.15096   1 
   5  -1 -12 1.40785 2.27567   2 
  -5   1  12 -0.9155 3.15664   4 
  -5   1  12 1.11457 1.98026   2 
   4  -1 -12 31.2159 3.41980   2 
   4  -1 -12 36.9936 3.66061   1 
  -4   1  12 36.4150 3.51479   2 
  -4   1  12 38.7560 5.00788   4 
   3  -1 -12 73.7602 3.98331   2 
   3  -1 -12 84.4719 4.29365   1 
  -3   1  12 85.0959 5.36928   4 
  -3   1  12 75.9751 4.26723   2 
   2  -1 -12 9.77721 2.25129   2 
   2  -1 -12 10.5843 2.25380   1 
  -2   1  12 7.42013 3.72683   3 
  -2   1  12 10.7496 2.72865   4 
  -2   1  12 9.18977 2.37277   2 
   1  -1 -12 4.89107 2.26947   2 
   1  -1 -12 2.89236 2.02086   1 
  -1   1  12 5.62426 2.56893   2 
  -1   1  12 -0.1445 2.54381   4 
  -1   1  12 9.07559 3.31463   3 
   0  -1 -12 8.73268 2.31044   1 
   0   1  12 5.09576 2.47773   4 
   0   1  12 8.75961 3.38742   3 
   0   1  12 3.07720 2.82715   2 
  -1  -1 -12 -1.7071 2.22278   1 
   1   1  12 1.19571 3.21026   2 
   1   1  12 0.84603 2.21713   4 
   1   1  12 6.82412 4.21654   3 
   7  -2 -12 10.5001 3.40820   1 
  -7   2  12 4.35761 3.87148   4 
  -7   2  12 11.0805 2.44035   2 
   6  -2 -12 53.6168 4.77552   2 
   6  -2 -12 52.9230 4.87784   1 
  -6   2  12 40.0103 5.84668   4 
  -6   2  12 50.7041 3.73041   2 
   5  -2 -12 19.3778 2.69749   2 
   5  -2 -12 28.4925 3.27102   1 
  -5   2  12 23.1477 3.75111   4 
   4  -2 -12 0.17921 1.99673   2 
   4  -2 -12 -4.3505 2.19328   1 
  -4   2  12 0.05707 2.06420   2 
  -4   2  12 3.89358 2.85665   4 
   3  -2 -12 1.92020 2.06145   1 
   3  -2 -12 -1.0276 1.84154   2 
  -3   2  12 5.16399 2.71405   4 
  -3   2  12 -0.9396 2.43651   2 
   2  -2 -12 24.0238 3.30417   2 
   2  -2 -12 24.5858 3.39749   1 
  -2   2  12 20.9211 2.89234   2 
  -2   2  12 20.6562 6.46271   3 
  -2   2  12 19.6772 3.06611   4 
   1  -2 -12 26.5201 3.74815   2 
   1  -2 -12 29.1813 3.42042   1 
  -1   2  12 28.1692 3.24890   2 
  -1   2  12 26.8765 4.16233   3 
  -1   2  12 33.5910 4.12900   4 
   0  -2 -12 73.8004 4.60128   1 
   0   2  12 75.8331 4.63864   4 
   0   2  12 77.2549 5.43074   2 
   0   2  12 71.2806 6.05426   3 
  -1  -2 -12 3.06335 2.49702   1 
   1   2  12 1.86094 2.56037   4 
   1   2  12 6.73342 3.42869   2 
   6  -3 -12 9.63354 3.22108   1 
  -6   3  12 16.3785 2.40509   2 
  -6   3  12 13.6120 3.70988   4 
   5  -3 -12 0.25026 2.50110   1 
   5  -3 -12 5.63623 2.35929   2 
  -5   3  12 2.74392 2.16692   2 
  -5   3  12 2.60314 3.11539   4 
   4  -3 -12 133.542 5.76952   1 
   4  -3 -12 135.364 4.88475   2 
  -4   3  12 130.299 6.33880   4 
  -4   3  12 140.563 5.02463   2 
   3  -3 -12 15.3846 2.38634   2 
   3  -3 -12 21.3645 2.86044   1 
  -3   3  12 18.7522 2.56732   2 
  -3   3  12 17.8611 3.35153   4 
   2  -3 -12 58.0495 4.31983   1 
   2  -3 -12 61.2241 3.94613   2 
  -2   3  12 49.5914 4.99453   2 
  -2   3  12 49.2661 4.62942   4 
   1  -3 -12 14.2293 2.82950   2 
   1  -3 -12 11.6736 2.70525   1 
  -1   3  12 19.5398 3.85401   3 
  -1   3  12 20.8941 4.34376   3 
  -1   3  12 14.4386 3.06672   2 
  -1   3  12 18.7329 2.91188   4 
   0  -3 -12 12.2833 2.79831   1 
   0   3  12 14.3726 3.00213   4 
   0   3  12 15.4941 3.88953   3 
   0   3  12 17.6838 3.36701   2 
   6  -4 -12 4.10870 3.15993   1 
  -6   4  12 5.86595 2.56549   2 
  -6   4  12 -4.8871 3.90750   3 
  -6   4  12 -1.6214 3.38650   4 
   5  -4 -12 9.15616 2.93443   1 
  -5   4  12 8.43041 2.19291   2 
  -5   4  12 7.58921 3.99924   3 
  -5   4  12 4.11542 3.16181   4 
   4  -4 -12 38.3685 4.46168   1 
  -4   4  12 34.8707 3.87839   4 
  -4   4  12 40.7557 3.62682   2 
  -4   4  12 48.6395 6.08527   3 
   3  -4 -12 45.8384 4.40270   1 
  -3   4  12 66.7402 6.24413   3 
  -3   4  12 44.1588 5.09255   4 
  -3   4  12 57.6410 4.06394   2 
   2  -4 -12 215.132 7.35654   1 
  -2   4  12 212.948 8.35950   3 
  -2   4  12 228.890 6.86769   2 
  -2   4  12 214.177 7.47231   4 
   1  -4 -12 7.09980 2.66279   1 
  -1   4  12 9.86735 2.79495   4 
  -1   4  12 3.97716 2.98089   2 
  -1   4  12 6.17247 3.87719   3 
   4  -5 -12 24.9602 3.67805   1 
  -4   5  12 20.7059 4.39463   3 
  -4   5  12 18.3170 3.71332   4 
   3   4 -13 50.6038 6.07763   3 
  -3  -4  13 43.5437 5.15132   2 
   2   4 -13 70.2959 7.25631   3 
   2   4 -13 60.2762 4.35680   1 
  -2  -4  13 56.9203 5.44867   2 
  -2  -4  13 49.1179 7.13685   1 
  -2  -4  13 52.0547 6.90997   4 
   1   4 -13 5.33165 2.66045   1 
   1   4 -13 4.80712 4.14343   3 
  -1  -4  13 -5.1447 3.59484   4 
  -1  -4  13 3.68331 3.14789   2 
   0   4 -13 1.21622 4.00262   3 
   0   4 -13 3.18871 2.69662   1 
   0  -4  13 -2.6915 3.25024   4 
   0  -4  13 -4.3525 3.40521   2 
   4   3 -13 53.2001 7.56453   3 
   4   3 -13 43.3458 5.21387   1 
  -4  -3  13 45.7907 4.80447   2 
  -4  -3  13 35.8180 5.50545   4 
   3   3 -13 34.3171 3.92163   1 
   3   3 -13 27.2160 5.10455   3 
  -3  -3  13 33.1210 4.63639   2 
  -3  -3  13 27.0664 4.73018   4 
  -3  -3  13 31.2626 4.35056   1 
   2   3 -13 11.8504 4.30220   3 
   2   3 -13 10.0628 2.62371   1 
  -2  -3  13 7.02995 3.80283   4 
  -2  -3  13 12.9570 3.18080   2 
   1   3 -13 60.7385 6.82327   3 
   1   3 -13 59.1064 4.38188   1 
  -1  -3  13 65.5892 5.82554   4 
  -1  -3  13 72.3871 5.53510   2 
   0   3 -13 1.36621 2.50801   1 
   0   3 -13 5.20361 4.00638   3 
   0  -3  13 -2.0602 3.10861   2 
   0  -3  13 6.03599 3.22789   4 
   5   2 -13 43.9636 4.59926   1 
   5   2 -13 44.5202 5.83539   3 
  -5  -2  13 39.1975 4.49973   2 
  -5  -2  13 31.9217 5.36300   4 
   4   2 -13 34.0738 4.09793   1 
   4   2 -13 28.7094 5.16668   3 
  -4  -2  13 27.5603 3.54178   2 
  -4  -2  13 25.2857 3.89728   1 
  -4  -2  13 20.8407 4.70533   4 
   3   2 -13 105.368 4.91397   1 
   3   2 -13 94.6035 7.48829   3 
  -3  -2  13 115.739 5.59172   2 
  -3  -2  13 113.188 7.08956   4 
  -3  -2  13 114.435 7.20270   1 
   2   2 -13 6.30249 2.35559   1 
   2   2 -13 7.69452 4.03816   3 
  -2  -2  13 8.01637 3.51060   4 
  -2  -2  13 3.65939 2.90902   2 
   1   2 -13 42.1489 4.09731   1 
   1   2 -13 53.3306 6.32606   3 
  -1  -2  13 51.3125 5.24880   4 
  -1  -2  13 44.0501 4.96236   2 
   0   2 -13 43.6895 6.26079   3 
   0   2 -13 41.2432 4.16137   1 
   0  -2  13 38.3724 5.20058   2 
   0  -2  13 40.3423 3.88910   4 
  -1   2 -13 2.99396 2.67610   1 
  -1   2 -13 -3.6407 3.81048   3 
   1  -2  13 -2.8437 3.44397   2 
   1  -2  13 -1.0515 2.60265   4 
   5   1 -13 620.923 13.6144   1 
   5   1 -13 605.516 16.3913   3 
  -5  -1  13 591.645 14.1361   1 
  -5  -1  13 614.341 16.0160   4 
  -5  -1  13 626.193 14.0099   2 
   4   1 -13 123.660 5.35052   1 
   4   1 -13 127.926 7.85828   3 
  -4  -1  13 126.837 5.70235   2 
  -4  -1  13 117.469 7.31419   4 
   3   1 -13 18.1076 4.23890   3 
   3   1 -13 10.5657 2.46454   1 
  -3  -1  13 9.91526 3.65298   4 
  -3  -1  13 18.6017 3.11603   2 
   2   1 -13 26.3850 4.40362   3 
   2   1 -13 26.8222 3.63337   1 
  -2  -1  13 22.2518 3.74642   4 
  -2  -1  13 23.2111 3.33246   2 
   1   1 -13 2.90000 2.31455   1 
   1   1 -13 3.78445 3.63209   3 
  -1  -1  13 0.92574 2.87106   2 
  -1  -1  13 -0.8561 2.93965   4 
   0   1 -13 1.61172 3.51066   3 
   0   1 -13 -1.9179 2.43722   1 
   0  -1  13 2.28616 3.37783   2 
   0  -1  13 -3.0426 2.67434   4 
  -1   1 -13 42.6775 6.00988   3 
  -1   1 -13 42.8917 4.69555   1 
   1  -1  13 41.5390 4.33279   4 
   1  -1  13 44.2652 5.77977   2 
   5   0 -13 201.735 6.84820   1 
  -5   0  13 193.148 8.86702   4 
  -5   0  13 205.110 6.90785   2 
   4   0 -13 -0.2998 2.39819   1 
  -4   0  13 -1.0694 2.60460   2 
  -4   0  13 6.38856 3.61480   4 
   3   0 -13 -3.1576 2.14886   1 
  -3   0  13 7.04079 3.35513   4 
  -3   0  13 -0.7175 2.46017   2 
   2   0 -13 41.0886 3.80158   1 
  -2   0  13 41.5522 4.51105   2 
  -2   0  13 31.2841 3.85033   4 
   1   0 -13 59.2953 4.36269   1 
  -1   0  13 66.5107 5.19826   2 
  -1   0  13 56.5432 5.24019   4 
   0   0 -13 17.0146 2.82215   1 
   0   0  13 11.9872 2.98366   4 
   0   0  13 13.6165 3.64039   2 
   5  -1 -13 8.68754 2.71923   1 
  -5   1  13 9.04172 3.81310   4 
  -5   1  13 5.01712 2.61086   2 
   4  -1 -13 47.9232 4.31063   1 
  -4   1  13 41.9306 5.75881   4 
  -4   1  13 52.9662 4.27388   2 
   3  -1 -13 27.1647 3.19828   1 
  -3   1  13 37.3236 4.39341   2 
  -3   1  13 26.8701 3.86525   4 
   2  -1 -13 -1.6996 2.35495   1 
  -2   1  13 3.96804 2.86398   2 
  -2   1  13 2.60363 3.03552   4 
   1  -1 -13 2.83297 2.65551   1 
  -1   1  13 4.02235 2.97515   4 
  -1   1  13 4.50783 3.00970   2 
   0  -1 -13 17.9113 3.12476   1 
   0   1  13 30.7598 4.35939   4 
   0   1  13 23.8224 3.86414   2 
   5  -2 -13 2.99773 2.74248   1 
   5  -2 -13 -0.0183 2.85483   2 
  -5   2  13 1.85579 2.57366   2 
  -5   2  13 3.12530 3.85041   4 
   4  -2 -13 14.8975 2.90340   2 
   4  -2 -13 27.7411 3.45534   1 
  -4   2  13 31.6974 4.15399   2 
  -4   2  13 20.0187 3.97843   4 
   3  -2 -13 -3.4775 2.32849   2 
   3  -2 -13 6.36771 2.63117   1 
  -3   2  13 -7.2043 2.93382   4 
  -3   2  13 4.20467 2.78130   2 
   2  -2 -13 103.307 5.34316   1 
  -2   2  13 107.406 6.11834   4 
  -2   2  13 117.555 5.66980   2 
   1  -2 -13 13.4419 2.85791   1 
  -1   2  13 17.2263 3.50902   2 
  -1   2  13 12.5024 3.12300   4 
   4  -3 -13 2.55105 2.99103   1 
  -4   3  13 0.36810 3.31653   4 
  -4   3  13 3.88946 2.94654   2 
   3  -3 -13 16.0975 3.17977   1 
  -3   3  13 6.81007 3.45071   4 
  -3   3  13 10.7084 2.99587   2 
   0   0   0    0.00    0.00   0 
  
 _exptl_absorpt_process_details 'SADABS 2014/5' 
 _exptl_absorpt_correction_type   multi-scan 
 _exptl_absorpt_correction_T_max  0.7456 
 _exptl_absorpt_correction_T_min  0.7045 
 _exptl_special_details 
) 
 The following wavelength and cell were deduced by SADABS from the 
 direction cosines etc. They are given here for emergency use only: 
 CELL 0.71112    7.934    8.412   10.715   93.044  104.720  106.734 
) 
  
;
_shelx_hkl_checksum              70337
loop_
_space_group_symop_operation_xyz
'x, y, z'
'-x, -y, -z'
loop_
_atom_site_label
_atom_site_type_symbol
_atom_site_fract_x
_atom_site_fract_y
_atom_site_fract_z
_atom_site_U_iso_or_equiv
_atom_site_adp_type
_atom_site_occupancy
_atom_site_site_symmetry_order
_atom_site_calc_flag
_atom_site_refinement_flags_posn
_atom_site_refinement_flags_adp
C1 C 0.25225(14) 0.58491(13) 0.58887(10) 0.0117(2) Uani 1 1 d . .
H1 H 0.2941 0.6965 0.6324 0.014 Uiso 1 1 calc R U
C2 C 0.15574(14) 0.45678(13) 0.64373(10) 0.0121(2) Uani 1 1 d . .
O3 O -0.00921(11) 0.16010(9) 0.62617(8) 0.01916(19) Uani 1 1 d . .
H3 H -0.014(3) 0.207(2) 0.7024(19) 0.053(5) Uiso 1 1 d . .
C3 C 0.09026(14) 0.28976(13) 0.57721(10) 0.0128(2) Uani 1 1 d . .
C4 C 0.12540(14) 0.25636(13) 0.46098(10) 0.0132(2) Uani 1 1 d . .
H4 H 0.0808 0.1448 0.4172 0.016 Uiso 1 1 calc R U
C5 C 0.27110(14) 0.35455(13) 0.28814(10) 0.0123(2) Uani 1 1 d . .
H5 H 0.2304 0.2432 0.2444 0.015 Uiso 1 1 calc R U
O6 O 0.42239(11) 0.46462(9) 0.12627(7) 0.01474(18) Uani 1 1 d . .
C6 C 0.37118(14) 0.48244(13) 0.23706(10) 0.0122(2) Uani 1 1 d . .
O7 O 0.52793(11) 0.76782(9) 0.23875(7) 0.01614(18) Uani 1 1 d . .
C7 C 0.43124(14) 0.65183(13) 0.30062(10) 0.0126(2) Uani 1 1 d . .
C8 C 0.39117(14) 0.68533(13) 0.41409(10) 0.0125(2) Uani 1 1 d . .
H8 H 0.4314 0.7975 0.4561 0.015 Uiso 1 1 calc R U
C9 C 0.28988(13) 0.55392(12) 0.46992(9) 0.0114(2) Uani 1 1 d . .
C10 C 0.22716(14) 0.38648(13) 0.40625(10) 0.0113(2) Uani 1 1 d . .
C11 C 0.36954(15) 0.29761(13) 0.06000(10) 0.0159(2) Uani 1 1 d . .
H11A H 0.4135 0.3005 -0.0177 0.024 Uiso 1 1 calc R U
H11B H 0.2355 0.2500 0.0342 0.024 Uiso 1 1 calc R U
H11C H 0.4235 0.2281 0.1183 0.024 Uiso 1 1 calc R U
C12 C 0.59352(16) 0.93745(13) 0.30087(11) 0.0189(2) Uani 1 1 d . .
H12A H 0.6616 1.0095 0.2494 0.028 Uiso 1 1 calc R U
H12B H 0.6747 0.9448 0.3884 0.028 Uiso 1 1 calc R U
H12C H 0.4892 0.9744 0.3074 0.028 Uiso 1 1 calc R U
C1' C 0.11971(14) 0.48837(13) 0.76992(10) 0.0128(2) Uani 1 1 d . .
O1' O 0.03898(11) 0.37750(9) 0.82324(7) 0.01712(18) Uani 1 1 d . .
C2' C 0.14775(15) 0.68183(13) 0.94697(10) 0.0143(2) Uani 1 1 d . .
H2'A H 0.2200 0.6335 1.0152 0.017 Uiso 1 1 calc R U
H2'B H 0.0159 0.6305 0.9397 0.017 Uiso 1 1 calc R U
O2' O 0.18317(10) 0.64930(9) 0.82223(7) 0.01331(18) Uani 1 1 d . .
C3' C 0.20312(17) 0.86911(15) 0.98140(11) 0.0218(3) Uani 1 1 d . .
H3'A H 0.1796 0.8955 1.0644 0.033 Uiso 1 1 calc R U
H3'B H 0.1316 0.9156 0.9127 0.033 Uiso 1 1 calc R U
H3'C H 0.3341 0.9182 0.9895 0.033 Uiso 1 1 calc R U
loop_
_atom_site_aniso_label
_atom_site_aniso_U_11
_atom_site_aniso_U_22
_atom_site_aniso_U_33
_atom_site_aniso_U_23
_atom_site_aniso_U_13
_atom_site_aniso_U_12
C1 0.0115(5) 0.0113(5) 0.0120(5) 0.0005(4) 0.0027(4) 0.0039(4)
C2 0.0120(5) 0.0140(5) 0.0118(5) 0.0023(4) 0.0050(4) 0.0047(4)
O3 0.0266(4) 0.0114(4) 0.0212(4) 0.0015(3) 0.0156(3) 0.0008(3)
C3 0.0121(5) 0.0112(5) 0.0160(5) 0.0038(4) 0.0061(4) 0.0028(4)
C4 0.0140(5) 0.0102(5) 0.0151(5) 0.0000(4) 0.0048(4) 0.0031(4)
C5 0.0131(5) 0.0119(5) 0.0119(5) 0.0002(4) 0.0032(4) 0.0045(4)
O6 0.0218(4) 0.0130(4) 0.0114(4) 0.0008(3) 0.0095(3) 0.0042(3)
C6 0.0130(5) 0.0151(5) 0.0095(4) 0.0016(4) 0.0034(4) 0.0056(4)
O7 0.0234(4) 0.0120(4) 0.0135(4) 0.0019(3) 0.0100(3) 0.0022(3)
C7 0.0131(5) 0.0127(5) 0.0123(5) 0.0039(4) 0.0043(4) 0.0036(4)
C8 0.0135(5) 0.0099(5) 0.0131(5) 0.0004(4) 0.0033(4) 0.0030(4)
C9 0.0108(5) 0.0129(5) 0.0111(5) 0.0022(4) 0.0036(4) 0.0042(4)
C10 0.0100(5) 0.0125(5) 0.0119(5) 0.0016(4) 0.0028(4) 0.0046(4)
C11 0.0201(5) 0.0144(5) 0.0143(5) -0.0010(4) 0.0077(4) 0.0050(4)
C12 0.0261(6) 0.0116(5) 0.0185(5) 0.0024(4) 0.0102(5) 0.0015(4)
C1' 0.0124(5) 0.0136(5) 0.0124(5) 0.0020(4) 0.0036(4) 0.0043(4)
O1' 0.0221(4) 0.0147(4) 0.0159(4) 0.0031(3) 0.0107(3) 0.0028(3)
C2' 0.0176(5) 0.0160(5) 0.0106(5) 0.0009(4) 0.0074(4) 0.0043(4)
O2' 0.0160(4) 0.0132(4) 0.0111(4) 0.0005(3) 0.0072(3) 0.0024(3)
C3' 0.0267(6) 0.0179(6) 0.0203(6) -0.0020(4) 0.0120(5) 0.0024(5)
loop_
_atom_type_symbol
_atom_type_description
_atom_type_scat_dispersion_real
_atom_type_scat_dispersion_imag
_atom_type_scat_source
C C 0.0033 0.0016 'International Tables Vol C Tables 4.2.6.8 and 6.1.1.4'
H H 0.0000 0.0000 'International Tables Vol C Tables 4.2.6.8 and 6.1.1.4'
O O 0.0106 0.0060 'International Tables Vol C Tables 4.2.6.8 and 6.1.1.4'
loop_
_geom_angle_atom_site_label_1
_geom_angle_atom_site_label_2
_geom_angle_atom_site_label_3
_geom_angle
C2 C1 C9 121.53(9)
C2 C1 H1 119.2
C9 C1 H1 119.2
C1 C2 C3 119.20(9)
C1 C2 C1' 121.64(9)
C3 C2 C1' 119.15(9)
C3 O3 H3 104.8(12)
O3 C3 C4 118.46(9)
O3 C3 C2 121.21(9)
C4 C3 C2 120.32(9)
C3 C4 C10 120.52(10)
C3 C4 H4 119.7
C10 C4 H4 119.7
C6 C5 C10 120.83(9)
C6 C5 H5 119.6
C10 C5 H5 119.6
C6 O6 C11 116.82(8)
O6 C6 C5 125.28(9)
O6 C6 C7 114.32(9)
C5 C6 C7 120.39(9)
C7 O7 C12 116.11(8)
C8 C7 O7 125.65(9)
C8 C7 C6 119.79(9)
O7 C7 C6 114.56(9)
C7 C8 C9 120.70(9)
C7 C8 H8 119.6
C9 C8 H8 119.6
C1 C9 C10 118.59(9)
C1 C9 C8 121.62(9)
C10 C9 C8 119.78(9)
C4 C10 C9 119.80(9)
C4 C10 C5 121.71(9)
C9 C10 C5 118.49(9)
O6 C11 H11A 109.5
O6 C11 H11B 109.5
H11A C11 H11B 109.5
O6 C11 H11C 109.5
H11A C11 H11C 109.5
H11B C11 H11C 109.5
O7 C12 H12A 109.5
O7 C12 H12B 109.5
H12A C12 H12B 109.5
O7 C12 H12C 109.5
H12A C12 H12C 109.5
H12B C12 H12C 109.5
O1' C1' O2' 122.27(9)
O1' C1' C2 123.52(10)
O2' C1' C2 114.22(9)
O2' C2' C3' 107.27(9)
O2' C2' H2'A 110.3
C3' C2' H2'A 110.3
O2' C2' H2'B 110.3
C3' C2' H2'B 110.3
H2'A C2' H2'B 108.5
C1' O2' C2' 114.61(8)
C2' C3' H3'A 109.5
C2' C3' H3'B 109.5
H3'A C3' H3'B 109.5
C2' C3' H3'C 109.5
H3'A C3' H3'C 109.5
H3'B C3' H3'C 109.5
loop_
_geom_bond_atom_site_label_1
_geom_bond_atom_site_label_2
_geom_bond_distance
C1 C2 1.3826(15)
C1 C9 1.4081(14)
C1 H1 0.9500
C2 C3 1.4261(14)
C2 C1' 1.4766(14)
O3 C3 1.3640(13)
O3 H3 0.90(2)
C3 C4 1.3748(14)
C4 C10 1.4110(15)
C4 H4 0.9500
C5 C6 1.3697(15)
C5 C10 1.4266(14)
C5 H5 0.9500
O6 C6 1.3625(12)
O6 C11 1.4332(12)
C6 C7 1.4348(14)
O7 C7 1.3687(13)
O7 C12 1.4290(12)
C7 C8 1.3670(14)
C8 C9 1.4232(14)
C8 H8 0.9500
C9 C10 1.4196(14)
C11 H11A 0.9800
C11 H11B 0.9800
C11 H11C 0.9800
C12 H12A 0.9800
C12 H12B 0.9800
C12 H12C 0.9800
C1' O1' 1.2258(13)
C1' O2' 1.3345(13)
C2' O2' 1.4610(12)
C2' C3' 1.5048(15)
C2' H2'A 0.9900
C2' H2'B 0.9900
C3' H3'A 0.9800
C3' H3'B 0.9800
C3' H3'C 0.9800
loop_
_geom_hbond_atom_site_label_D
_geom_hbond_atom_site_label_H
_geom_hbond_atom_site_label_A
_geom_hbond_distance_DH
_geom_hbond_distance_HA
_geom_hbond_distance_DA
_geom_hbond_angle_DHA
O3 H3 O1' 0.90(2) 1.76(2) 2.5918(11) 152.6(18)
loop_
_geom_torsion_atom_site_label_1
_geom_torsion_atom_site_label_2
_geom_torsion_atom_site_label_3
_geom_torsion_atom_site_label_4
_geom_torsion
C9 C1 C2 C3 -1.03(15)
C9 C1 C2 C1' 178.60(9)
C1 C2 C3 O3 -178.46(9)
C1' C2 C3 O3 1.91(15)
C1 C2 C3 C4 1.06(15)
C1' C2 C3 C4 -178.57(9)
O3 C3 C4 C10 179.78(9)
C2 C3 C4 C10 0.25(16)
C11 O6 C6 C5 -1.27(15)
C11 O6 C6 C7 178.73(8)
C10 C5 C6 O6 178.97(9)
C10 C5 C6 C7 -1.02(15)
C12 O7 C7 C8 0.94(15)
C12 O7 C7 C6 -178.64(9)
O6 C6 C7 C8 -178.81(9)
C5 C6 C7 C8 1.18(15)
O6 C6 C7 O7 0.80(13)
C5 C6 C7 O7 -179.20(9)
O7 C7 C8 C9 -179.74(9)
C6 C7 C8 C9 -0.17(15)
C2 C1 C9 C10 -0.30(15)
C2 C1 C9 C8 -179.21(9)
C7 C8 C9 C1 177.91(10)
C7 C8 C9 C10 -0.98(15)
C3 C4 C10 C9 -1.59(15)
C3 C4 C10 C5 177.79(9)
C1 C9 C10 C4 1.61(15)
C8 C9 C10 C4 -179.46(9)
C1 C9 C10 C5 -177.79(9)
C8 C9 C10 C5 1.13(15)
C6 C5 C10 C4 -179.53(9)
C6 C5 C10 C9 -0.13(15)
C1 C2 C1' O1' -178.00(10)
C3 C2 C1' O1' 1.62(16)
C1 C2 C1' O2' 1.86(14)
C3 C2 C1' O2' -178.52(9)
O1' C1' O2' C2' -0.28(14)
C2 C1' O2' C2' 179.85(8)
C3' C2' O2' C1' -171.95(9)
