#------------------------------------------------------------------------------
#$Date: 2015-12-06 07:32:31 +0200 (Sun, 06 Dec 2015) $
#$Revision: 170764 $
#$URL: svn://www.crystallography.net/cod/cif/1/54/06/1540615.cif $
#------------------------------------------------------------------------------
#
# This file is available in the Crystallography Open Database (COD),
# http://www.crystallography.net/
#
# All data on this site have been placed in the public domain by the
# contributors.
#
data_1540615
loop_
_publ_author_name
'Wagner, Frederic'
'Harms, Klaus'
'Koert, Ulrich'
_publ_section_title
;
 Hauser-Heck: Efficient Synthesis of \g-Aryl-\b-ketoesters en Route to
 Substituted Naphthalenes.
;
_journal_issue                   22
_journal_name_full               'Organic letters'
_journal_page_first              5670
_journal_page_last               5673
_journal_paper_doi               10.1021/acs.orglett.5b02952
_journal_volume                  17
_journal_year                    2015
_chemical_formula_moiety         'C13 H10 N2 O7'
_chemical_formula_sum            'C13 H10 N2 O7'
_chemical_formula_weight         306.23
_space_group_crystal_system      triclinic
_space_group_IT_number           2
_space_group_name_Hall           '-P 1'
_space_group_name_H-M_alt        'P -1'
_symmetry_space_group_name_Hall  '-P 1'
_symmetry_space_group_name_H-M   'P -1'
_atom_sites_solution_hydrogens   mixed
_atom_sites_solution_primary     direct
_atom_sites_solution_secondary   difmap
_audit_creation_method           SHELXL-2014/7
_cell_angle_alpha                92.463(3)
_cell_angle_beta                 91.458(3)
_cell_angle_gamma                99.303(3)
_cell_formula_units_Z            2
_cell_length_a                   6.4851(6)
_cell_length_b                   8.2205(8)
_cell_length_c                   12.0587(10)
_cell_measurement_reflns_used    5546
_cell_measurement_temperature    100(2)
_cell_measurement_theta_max      25.2669
_cell_measurement_theta_min      2.5135
_cell_volume                     633.47(10)
_computing_cell_refinement       'BRUKER SAINT'
_computing_data_collection       'BRUKER APEX2 2014.9-0'
_computing_data_reduction        'SAINT V8.34A (Bruker AXS Inc., 2013)'
_computing_molecular_graphics    'DIAMOND (Crystal Impact)'
_computing_structure_refinement  'SHELXL-2014/7 (Sheldrick, 2014)'
_computing_structure_solution    'XT V2014/1 (Bruker AXS Inc., 2014)'
_diffrn_ambient_temperature      100(2)
_diffrn_detector_area_resol_mean 7.9
_diffrn_measured_fraction_theta_full 0.996
_diffrn_measured_fraction_theta_max 0.996
_diffrn_measurement_device_type  'Bruker D8 QUEST area detector'
_diffrn_measurement_method       '\w and \f scans'
_diffrn_radiation_type           MoK\a
_diffrn_radiation_wavelength     0.71073
_diffrn_reflns_av_R_equivalents  0.0228
_diffrn_reflns_av_unetI/netI     0.0167
_diffrn_reflns_laue_measured_fraction_full 0.996
_diffrn_reflns_laue_measured_fraction_max 0.996
_diffrn_reflns_limit_h_max       7
_diffrn_reflns_limit_h_min       -7
_diffrn_reflns_limit_k_max       9
_diffrn_reflns_limit_k_min       -9
_diffrn_reflns_limit_l_max       14
_diffrn_reflns_limit_l_min       -11
_diffrn_reflns_number            10804
_diffrn_reflns_point_group_measured_fraction_full 0.996
_diffrn_reflns_point_group_measured_fraction_max 0.996
_diffrn_reflns_theta_full        25.242
_diffrn_reflns_theta_max         25.269
_diffrn_reflns_theta_min         2.514
_diffrn_source                   'microfocus sealed X-ray tube'
_exptl_absorpt_coefficient_mu    0.133
_exptl_absorpt_correction_T_max  0.98
_exptl_absorpt_correction_T_min  0.91
_exptl_absorpt_correction_type   numerical
_exptl_absorpt_process_details   'SADABS V2014/5 (Bruker AXS Inc.)'
_exptl_crystal_colour            yellow
_exptl_crystal_density_diffrn    1.605
_exptl_crystal_density_method    'not measured'
_exptl_crystal_description       block
_exptl_crystal_F_000             316
_exptl_crystal_size_max          0.54
_exptl_crystal_size_mid          0.32
_exptl_crystal_size_min          0.17
_refine_diff_density_max         0.300
_refine_diff_density_min         -0.202
_refine_diff_density_rms         0.047
_refine_ls_extinction_method     none
_refine_ls_goodness_of_fit_ref   1.076
_refine_ls_hydrogen_treatment    mixed
_refine_ls_matrix_type           full
_refine_ls_number_parameters     204
_refine_ls_number_reflns         2284
_refine_ls_number_restraints     0
_refine_ls_restrained_S_all      1.076
_refine_ls_R_factor_all          0.0395
_refine_ls_R_factor_gt           0.0328
_refine_ls_shift/su_max          0.000
_refine_ls_shift/su_mean         0.000
_refine_ls_structure_factor_coef Fsqd
_refine_ls_weighting_details
'w=1/[\s^2^(Fo^2^)+(0.0495P)^2^+0.2005P] where P=(Fo^2^+2Fc^2^)/3'
_refine_ls_weighting_scheme      calc
_refine_ls_wR_factor_gt          0.0870
_refine_ls_wR_factor_ref         0.0914
_reflns_Friedel_coverage         0.000
_reflns_number_gt                2005
_reflns_number_total             2284
_reflns_threshold_expression     'I > 2\s(I)'
_cod_data_source_file            ol5b02952_si_001.cif
_cod_data_source_block           38
_cod_database_code               1540615
_shelx_shelxl_version_number     2014/7
_shelx_space_group_comment
; 
The symmetry employed for this shelxl refinement is uniquely defined 
by the following loop, which should always be used as a source of 
symmetry information in preference to the above space-group names. 
They are only intended as comments. 
;
_shelx_estimated_absorpt_t_min   0.931
_shelx_estimated_absorpt_t_max   0.978
_shelx_res_file
; 
  
    FW230_0m.res created by SHELXL-2014/7 
  
  
TITL FW230_0m in P-1 
CELL 0.71073 6.4851    8.2205   12.0587   92.463   91.458   99.303 
ZERR 2.00 0.0006 0.0008 0.0010 0.003 0.003 0.003 
LATT 1 
SFAC C H N O 
UNIT 26 20 4 14 
LIST 4 ! automatically inserted. Change 6 to 4 for CHECKCIF!! 
TEMP -173.140 
SIZE 0.17 0.32 0.54 
ACTA 
LIST 4 
L.S. 12 
FMAP 2 
PLAN -3 0 0.00 
HTAB 
HTAB O3 O2 
BOND $H 
CONF 
REM ##### 
REM ##### 
  
WGHT    0.049500    0.200500 
FVAR       0.50609 
O1    4    0.380601    0.194611    0.175401    11.00000    0.02488    0.02688 = 
         0.01492   -0.00123   -0.00125    0.01201 
O2    4    0.639316    0.042492    0.179352    11.00000    0.02668    0.02521 = 
         0.01931   -0.00282    0.00118    0.01146 
O3    4    0.863239    0.053498    0.365757    11.00000    0.01974    0.02701 = 
         0.01973   -0.00086    0.00173    0.01136 
O4    4    0.748523    0.313905    0.870526    11.00000    0.03190    0.04286 = 
         0.01812   -0.00629   -0.00600    0.01506 
O5    4    0.853124    0.149801    0.748084    11.00000    0.03169    0.03820 = 
         0.02318   -0.00077   -0.00303    0.02229 
O6    4    0.162073    0.560908    0.819820    11.00000    0.02796    0.03706 = 
         0.02038   -0.00760    0.00187    0.01103 
O7    4   -0.021434    0.531265    0.665189    11.00000    0.01889    0.02615 = 
         0.02523    0.00297    0.00054    0.00975 
N1    3    0.739483    0.248230    0.777149    11.00000    0.01797    0.02328 = 
         0.01644    0.00239   -0.00013    0.00285 
N2    3    0.129183    0.507847    0.723653    11.00000    0.01791    0.01892 = 
         0.01936    0.00129    0.00322    0.00362 
C1    1    0.528603    0.129842    0.226233    11.00000    0.01828    0.01645 = 
         0.01968    0.00148    0.00044    0.00329 
C2    1    0.546035    0.171617    0.347108    11.00000    0.01763    0.01381 = 
         0.01822    0.00135    0.00087    0.00204 
C3    1    0.714994    0.129282    0.412412    11.00000    0.01468    0.01297 = 
         0.02157    0.00125    0.00261    0.00256 
C4    1    0.731851    0.164286    0.525249    11.00000    0.01376    0.01645 = 
         0.01859    0.00277   -0.00079    0.00276 
AFIX  43 
H4    2    0.845787    0.135104    0.566728    11.00000   -1.20000 
AFIX   0 
C5    1    0.582648    0.242818    0.580337    11.00000    0.01479    0.01254 = 
         0.01833    0.00216    0.00039   -0.00001 
C6    1    0.582449    0.288625    0.696494    11.00000    0.01467    0.01729 = 
         0.01804    0.00306   -0.00116    0.00128 
C7    1    0.437874    0.372842    0.742280    11.00000    0.01887    0.01751 = 
         0.01586    0.00071    0.00116    0.00084 
AFIX  43 
H7    2    0.446001    0.404066    0.819236    11.00000   -1.20000 
AFIX   0 
C8    1    0.277757    0.412189    0.673725    11.00000    0.01509    0.01449 = 
         0.02050    0.00081    0.00400    0.00247 
C9    1    0.260799    0.368778    0.563189    11.00000    0.01463    0.01441 = 
         0.01948    0.00294   -0.00005    0.00199 
AFIX  43 
H9    2    0.147860    0.394382    0.519143    11.00000   -1.20000 
AFIX   0 
C10   1    0.412253    0.285538    0.514705    11.00000    0.01466    0.01299 = 
         0.01835    0.00190    0.00082    0.00096 
C11   1    0.398441    0.247191    0.399464    11.00000    0.01615    0.01433 = 
         0.01873    0.00239   -0.00100    0.00281 
AFIX  43 
H11   2    0.284433    0.274202    0.356937    11.00000   -1.20000 
AFIX   0 
C12   1    0.344846    0.152048    0.056369    11.00000    0.03098    0.03373 = 
         0.01231   -0.00237   -0.00100    0.01414 
AFIX  23 
H12A  2    0.312265    0.030791    0.043183    11.00000   -1.20000 
H12B  2    0.470985    0.193981    0.015088    11.00000   -1.20000 
AFIX   0 
C13   1    0.164007    0.230900    0.018739    11.00000    0.03743    0.04691 = 
         0.01979   -0.00262   -0.00432    0.02236 
AFIX 137 
H13A  2    0.131300    0.201333   -0.060069    11.00000   -1.50000 
H13B  2    0.200539    0.351084    0.029300    11.00000   -1.50000 
H13C  2    0.041913    0.191854    0.062375    11.00000   -1.50000 
REM ##### 
AFIX   0 
H3    2    0.821180    0.036092    0.293039    11.00000    0.04967 
HKLF 4 1 1 0 0 0 1 0 0 0 1 
  
REM  FW230_0m in P-1 
REM R1 =  0.0328 for    2005 Fo > 4sig(Fo)  and  0.0395 for all    2284 data 
REM    204 parameters refined using      0 restraints 
  
END 
  
WGHT      0.0495      0.2005 
  
REM Instructions for potential hydrogen bonds 
HTAB C4 O5 
EQIV $1 -x, -y+1, -z+1 
HTAB C9 O7_$1 
EQIV $2 x, y, z-1 
HTAB C12 O4_$2 
HTAB O3 O2 
  
REM Highest difference peak  0.300,  deepest hole -0.202,  1-sigma level  0.047 
Q1    1   0.4886  0.2694  0.5493  11.00000  0.05    0.30 
Q2    1   0.6219  0.1512  0.3760  11.00000  0.05    0.28 
Q3    1   0.6358  0.2779  0.7244  11.00000  0.05    0.23 
;
_shelx_res_checksum              2587
_shelx_hkl_file
; 
  -1   0   0 471.214 8.84252   1 
  -1   0   0 467.327 9.02048   2 
   1   0   0 476.358 8.95223   2 
   1   0   0 477.272 9.02760   2 
  -2   0   0 174.193 3.41448   1 
  -2   0   0 175.332 3.52979   2 
   2   0   0 179.278 3.56984   2 
   2   0   0 175.751 3.43613   2 
  -3   0   0 17.8180 0.54559   1 
  -3   0   0 17.6965 0.58549   2 
  -3   0   0 17.7819 0.70619   2 
   3   0   0 17.3553 0.57410   2 
   3   0   0 19.2472 0.75767   2 
  -4   0   0 36.7456 1.05938   2 
  -4   0   0 38.0393 1.21000   2 
  -4   0   0 36.6606 0.95479   1 
   4   0   0 37.5729 1.29227   2 
   4   0   0 36.0998 1.04260   2 
  -5   0   0 13.6770 0.93755   2 
  -5   0   0 12.0119 0.70170   2 
  -5   0   0 12.0466 0.51720   1 
  -5   0   0 12.0165 0.55346   1 
   5   0   0 13.8245 1.03648   2 
   5   0   0 11.5450 0.68476   2 
  -6   0   0 19.7615 0.71470   1 
  -6   0   0 20.8108 0.76592   1 
  -6   0   0 20.4543 1.29620   2 
  -6   0   0 20.8968 1.11536   2 
   6   0   0 18.2570 1.47459   2 
   6   0   0 18.8064 0.99875   2 
  -7   0   0 134.411 2.86605   1 
  -7   0   0 133.644 3.44028   2 
  -7   0   0 137.352 2.86713   1 
  -7   0   0 133.096 3.52082   2 
   7   0   0 140.340 4.00708   2 
   7   0   0 135.856 3.35524   2 
   7  -1   0 13.8875 1.18358   2 
   7  -1   0 15.8405 1.57714   2 
  -7   1   0 15.2712 1.37477   2 
  -7   1   0 12.9835 0.77638   1 
  -7   1   0 14.3143 0.72361   1 
  -7   1   0 11.7387 1.50291   2 
   6  -1   0 101.300 2.53531   2 
   6  -1   0 103.328 2.98348   2 
  -6   1   0 104.147 2.54894   2 
  -6   1   0 103.435 2.62596   2 
  -6   1   0 100.743 2.22352   1 
   5  -1   0 76.1248 2.19190   2 
   5  -1   0 74.9600 1.89231   2 
  -5   1   0 76.8797 1.69476   1 
  -5   1   0 77.1178 1.88965   2 
  -5   1   0 75.5376 1.99035   2 
   4  -1   0 42.1450 1.36760   2 
   4  -1   0 44.1857 1.17586   2 
  -4   1   0 43.0168 1.22544   2 
  -4   1   0 43.3927 1.15924   2 
  -4   1   0 42.7241 1.02886   1 
   3  -1   0 91.0084 2.02606   1 
   3  -1   0 95.6630 2.04921   2 
   3  -1   0 97.7708 2.19335   2 
  -3   1   0 94.7878 1.95406   1 
  -3   1   0 96.1258 2.04327   2 
  -3   1   0 94.5475 2.08698   2 
   2  -1   0 150.683 2.98516   2 
   2  -1   0 151.643 2.96277   1 
   2  -1   0 151.161 3.03869   2 
  -2   1   0 149.029 2.98615   2 
  -2   1   0 150.754 2.92041   1 
  -2   1   0 152.421 2.97735   2 
   1  -1   0 676.956 12.8500   2 
   1  -1   0 677.068 12.8134   1 
   1  -1   0 676.620 12.9316   2 
  -1   1   0 671.914 12.8101   2 
  -1   1   0 670.219 12.8162   1 
  -1   1   0 680.106 12.8801   2 
   0  -1   0 0.63225 0.11885   2 
   0  -1   0 0.74113 0.11170   2 
   0  -1   0 0.69203 0.07678   1 
   0   1   0 0.56059 0.10381   2 
   0   1   0 0.81525 0.13344   2 
   0   1   0 0.57491 0.07275   1 
  -1  -1   0 26.1299 0.56159   1 
   1   1   0 25.9089 0.62986   2 
   1   1   0 27.1625 0.70194   2 
   1   1   0 26.5472 0.56423   1 
  -2  -1   0 50.0802 1.02384   1 
  -2  -1   0 49.2255 1.14790   2 
  -2  -1   0 49.0401 1.25579   2 
   2   1   0 49.1788 1.25015   2 
  -3  -1   0 45.1361 0.98395   1 
  -3  -1   0 44.5079 1.14578   2 
  -3  -1   0 45.5115 1.30420   2 
   3   1   0 44.0527 1.10338   2 
   3   1   0 45.5251 1.32804   2 
  -4  -1   0 84.4048 1.76406   1 
  -4  -1   0 85.2403 2.00667   2 
  -4  -1   0 83.1263 1.90604   1 
   4   1   0 84.1752 1.95327   2 
   4   1   0 86.4425 2.25612   2 
  -5  -1   0 4.56502 0.52712   2 
  -5  -1   0 5.70097 0.72539   2 
  -5  -1   0 4.73642 0.32084   1 
  -5  -1   0 4.52061 0.54068   1 
   5   1   0 5.32446 0.76502   2 
   5   1   0 4.48747 0.49166   2 
  -6  -1   0 17.3017 1.35975   2 
  -6  -1   0 15.1624 1.15479   2 
  -6  -1   0 14.9585 0.57933   1 
  -6  -1   0 15.8611 0.78418   1 
   6   1   0 15.7705 1.51331   2 
   6   1   0 12.2779 0.96628   2 
  -7  -1   0 9.51977 0.71293   1 
  -7  -1   0 7.93094 1.03761   2 
  -7  -1   0 8.68271 1.14070   2 
  -7  -1   0 8.36043 0.55751   1 
   7   1   0 10.1038 1.53753   2 
   7   1   0 7.79822 0.85687   2 
   7  -2   0 6.07392 0.84988   2 
   7  -2   0 3.60331 1.07684   2 
  -7   2   0 4.46092 0.74301   2 
  -7   2   0 5.90152 0.60053   1 
   6  -2   0 401.386 8.07400   2 
   6  -2   0 398.560 8.46290   2 
  -6   2   0 392.305 7.98422   2 
  -6   2   0 402.931 7.74387   1 
  -6   2   0 400.938 8.00701   2 
   5  -2   0 150.623 3.34295   2 
  -5   2   0 153.356 3.29039   2 
  -5   2   0 151.336 3.29508   2 
  -5   2   0 149.510 3.09507   1 
   4  -2   0 1.90703 0.30331   1 
   4  -2   0 1.48859 0.36755   2 
   4  -2   0 2.22667 0.32621   2 
  -4   2   0 2.02149 0.22504   1 
  -4   2   0 2.24190 0.28993   2 
  -4   2   0 1.88559 0.28767   2 
   3  -2   0 3.63273 0.34222   2 
   3  -2   0 3.08176 0.31997   2 
   3  -2   0 3.50861 0.30579   1 
  -3   2   0 3.41104 0.23977   1 
  -3   2   0 3.32839 0.30738   2 
  -3   2   0 3.53912 0.30687   2 
   2  -2   0 15.3075 0.45847   1 
   2  -2   0 15.0619 0.52050   2 
   2  -2   0 15.3543 0.48770   2 
  -2   2   0 14.5996 0.43866   1 
  -2   2   0 15.0509 0.50349   2 
  -2   2   0 14.9666 0.47691   2 
   1  -2   0 169.219 3.24111   1 
   1  -2   0 167.733 3.24999   2 
   1  -2   0 165.619 3.31998   2 
  -1   2   0 162.465 3.29396   2 
  -1   2   0 170.571 3.24431   1 
  -1   2   0 165.514 3.27364   2 
   0  -2   0 338.459 6.44976   2 
   0  -2   0 337.872 6.49713   2 
   0  -2   0 340.382 6.38098   1 
   0   2   0 341.198 6.49135   2 
   0   2   0 332.012 6.45522   2 
   0   2   0 336.716 6.38170   1 
  -1  -2   0 2101.46 38.9638   1 
  -1  -2   0 2036.04 39.2080   2 
  -1  -2   0 2067.24 39.0954   2 
   1   2   0 2089.07 38.9914   1 
   1   2   0 2116.65 39.2777   2 
   1   2   0 2022.45 39.0770   2 
  -2  -2   0 4.88426 0.22165   1 
  -2  -2   0 4.76858 0.46057   2 
   2   2   0 4.82520 0.45513   2 
   2   2   0 4.55098 0.33412   2 
   2   2   0 4.98559 0.22049   1 
  -3  -2   0 1.39380 0.35227   2 
  -3  -2   0 1.48724 0.30783   2 
  -3  -2   0 1.47440 0.17156   1 
   3   2   0 1.55796 0.24139   2 
   3   2   0 1.42553 0.41335   2 
  -4  -2   0 10.4510 0.71448   2 
  -4  -2   0 10.8315 0.39735   1 
  -4  -2   0 10.1197 0.90837   2 
   4   2   0 10.6622 0.60833   2 
   4   2   0 10.4064 0.88356   2 
  -5  -2   0 2.65640 0.30850   1 
  -5  -2   0 3.17365 0.54099   2 
   5   2   0 2.76859 0.66278   2 
   5   2   0 2.80328 0.47202   2 
  -6  -2   0 2.04727 0.73265   2 
  -6  -2   0 2.37563 0.29663   1 
  -6  -2   0 2.38221 0.49760   1 
  -6  -2   0 4.03759 0.87661   2 
   6   2   0 2.44701 0.61123   2 
   6   2   0 2.44755 0.85336   2 
  -7  -2   0 1.08336 0.33776   1 
  -7  -2   0 2.13407 1.11998   2 
  -7  -2   0 2.03198 0.98503   2 
  -7  -2   0 1.34787 0.53620   1 
   7   2   0 -0.2819 1.22839   2 
   7  -3   0 11.7772 1.62518   2 
   7  -3   0 12.5884 1.29202   2 
  -7   3   0 10.2686 1.11115   2 
  -7   3   0 12.7064 0.75640   1 
  -7   3   0 13.2203 1.16614   2 
   6  -3   0 55.7233 1.80434   2 
  -6   3   0 59.0794 1.46541   1 
  -6   3   0 55.1789 1.68628   2 
  -6   3   0 56.9482 1.68435   2 
   5  -3   0 269.792 5.80946   2 
   5  -3   0 267.454 5.58827   1 
   5  -3   0 271.136 5.64677   2 
  -5   3   0 278.256 5.40844   1 
  -5   3   0 273.052 5.56554   2 
  -5   3   0 274.876 5.53239   2 
   4  -3   0 64.9157 1.59224   1 
   4  -3   0 65.3287 1.72425   2 
   4  -3   0 63.7864 1.66679   2 
  -4   3   0 63.8511 1.56886   2 
  -4   3   0 63.4506 1.59385   2 
  -4   3   0 64.5388 1.49147   1 
   3  -3   0 67.5760 1.66406   2 
   3  -3   0 67.3984 1.55537   1 
   3  -3   0 68.4109 1.61177   2 
  -3   3   0 68.4308 1.52623   1 
  -3   3   0 70.0743 1.61459   2 
  -3   3   0 66.8336 1.57384   2 
   2  -3   0 224.626 4.33681   2 
   2  -3   0 215.602 4.44469   2 
   2  -3   0 223.093 4.32218   1 
  -2   3   0 221.051 4.32304   1 
  -2   3   0 222.127 4.40060   2 
  -2   3   0 218.096 4.37253   2 
   1  -3   0 201.424 3.95286   2 
   1  -3   0 195.248 4.04609   2 
   1  -3   0 204.194 3.91979   1 
  -1   3   0 202.614 3.92083   1 
  -1   3   0 196.485 4.01314   2 
  -1   3   0 199.435 3.99974   2 
   0  -3   0 285.931 5.77876   2 
   0  -3   0 296.584 5.60979   1 
   0   3   0 293.664 5.76144   2 
  -1  -3   0 0.41970 0.19444   2 
  -1  -3   0 0.48955 0.12205   1 
  -1  -3   0 0.85688 0.26178   2 
   1   3   0 0.66309 0.24057   2 
   1   3   0 0.39212 0.18917   2 
   1   3   0 0.49649 0.11193   1 
  -2  -3   0 3.85881 0.47362   2 
  -2  -3   0 2.99269 0.35358   2 
  -2  -3   0 3.15729 0.24381   1 
   2   3   0 3.12670 0.43893   2 
   2   3   0 3.41700 0.22695   1 
  -3  -3   0 98.7354 2.47166   2 
  -3  -3   0 98.2133 2.34419   2 
  -3  -3   0 94.5586 2.02956   1 
   3   3   0 98.5155 2.47085   2 
   3   3   0 96.2785 2.05500   1 
   3   3   0 95.9188 2.20031   2 
  -4  -3   0 7.28973 0.84064   2 
  -4  -3   0 6.13410 0.71303   2 
  -4  -3   0 6.61903 0.38015   1 
   4   3   0 7.28580 0.84900   2 
   4   3   0 7.06388 0.61466   2 
  -5  -3   0 61.1253 1.45464   1 
  -5  -3   0 63.1857 2.03445   2 
  -5  -3   0 62.9150 2.22686   2 
   5   3   0 59.4826 1.71881   2 
   5   3   0 61.5631 2.27907   2 
  -6  -3   0 13.5225 0.66100   1 
  -6  -3   0 12.2305 1.52470   2 
  -6  -3   0 14.0279 1.07554   1 
  -6  -3   0 15.0550 1.75065   2 
   6   3   0 13.3515 1.38500   2 
   6   3   0 15.2440 1.21200   2 
   7  -4   0 8.32347 0.96250   2 
  -7   4   0 9.52295 0.89571   2 
  -7   4   0 8.25556 0.84799   2 
   6  -4   0 39.5217 1.57152   2 
   6  -4   0 37.8476 1.80426   2 
   6  -4   0 38.1875 1.51799   1 
  -6   4   0 41.1201 1.41421   2 
  -6   4   0 39.4863 1.19485   1 
  -6   4   0 37.6040 1.37617   2 
   5  -4   0 114.846 2.82105   2 
   5  -4   0 117.001 2.71430   1 
   5  -4   0 116.727 2.88226   2 
  -5   4   0 115.108 2.68184   2 
  -5   4   0 109.896 2.64847   2 
  -5   4   0 114.672 2.53787   1 
   4  -4   0 186.355 4.02543   2 
   4  -4   0 184.561 3.85552   1 
   4  -4   0 187.497 3.95793   2 
  -4   4   0 180.256 3.85509   2 
  -4   4   0 182.306 3.78341   1 
  -4   4   0 185.962 3.89085   2 
   3  -4   0 0.67044 0.24536   2 
   3  -4   0 -0.0034 0.17246   1 
   3  -4   0 0.34490 0.26070   2 
  -3   4   0 0.46685 0.17101   1 
  -3   4   0 0.10153 0.22737   2 
  -3   4   0 0.37462 0.22300   2 
   2  -4   0 183.385 3.63331   1 
   2  -4   0 182.588 3.64056   2 
   2  -4   0 176.965 3.81007   2 
  -2   4   0 177.122 3.72275   2 
  -2   4   0 175.514 3.61738   1 
  -2   4   0 180.245 3.72929   2 
   1  -4   0 18.4491 0.60350   1 
   1  -4   0 18.5966 0.66281   2 
   1  -4   0 18.5132 0.77263   2 
  -1   4   0 18.3048 0.71969   2 
  -1   4   0 18.5372 0.59712   1 
  -1   4   0 18.1656 0.72037   2 
   0  -4   0 13.6227 0.49911   1 
   0  -4   0 14.1812 0.62041   2 
   0  -4   0 13.0741 0.69362   2 
   0   4   0 13.3377 0.63263   2 
   0   4   0 12.9919 0.47665   1 
   0   4   0 13.8994 0.67826   2 
  -1  -4   0 107.203 2.44576   2 
  -1  -4   0 105.832 2.25322   1 
   1   4   0 106.849 2.53309   2 
   1   4   0 105.454 2.43236   2 
   1   4   0 107.734 2.25465   1 
  -2  -4   0 1.52313 0.41462   2 
  -2  -4   0 0.47478 0.18277   1 
  -2  -4   0 0.89041 0.32787   2 
   2   4   0 0.34479 0.15866   1 
   2   4   0 0.91811 0.28685   2 
   2   4   0 0.49297 0.34621   2 
  -3  -4   0 12.6443 0.86849   2 
  -3  -4   0 11.8951 0.51403   1 
  -3  -4   0 12.7145 1.03648   2 
   3   4   0 13.0189 0.50737   1 
   3   4   0 12.8024 1.03674   2 
   3   4   0 13.3718 0.73021   2 
  -4  -4   0 13.1623 0.59158   1 
  -4  -4   0 12.9137 1.25345   2 
  -4  -4   0 13.0170 1.10012   2 
   4   4   0 13.4404 1.27683   2 
   4   4   0 13.1859 0.63722   1 
   4   4   0 12.4888 0.81321   2 
  -5  -4   0 21.1921 0.80902   1 
  -5  -4   0 22.0274 1.53526   2 
  -5  -4   0 22.7607 1.78195   2 
   5   4   0 20.3594 1.76193   2 
   5   4   0 19.7579 1.13196   2 
  -6  -4   0 4.44897 1.17347   2 
   6   4   0 5.14612 0.87614   2 
   6   4   0 2.56832 1.21580   2 
   7  -5   0 2.20355 0.84863   1 
   7  -5   0 3.04082 1.17777   2 
   7  -5   0 -0.1913 0.85651   2 
  -7   5   0 1.36602 0.65667   2 
  -7   5   0 0.95643 0.67369   2 
  -7   5   0 1.68317 0.48716   1 
   6  -5   0 1.57438 0.57566   1 
   6  -5   0 0.12234 0.70194   2 
   6  -5   0 -0.3168 0.57555   2 
  -6   5   0 1.45589 0.37923   1 
  -6   5   0 1.75279 0.52052   2 
  -6   5   0 0.93527 0.49720   2 
   5  -5   0 33.6252 1.26003   1 
   5  -5   0 35.2556 1.38786   2 
   5  -5   0 33.1054 1.43106   2 
  -5   5   0 33.8080 1.26900   2 
  -5   5   0 33.2714 1.24567   2 
  -5   5   0 34.5285 1.10822   1 
   4  -5   0 1.60036 0.32813   1 
   4  -5   0 2.77611 0.43261   2 
   4  -5   0 1.30430 0.46926   2 
  -4   5   0 1.17630 0.35267   2 
  -4   5   0 2.18026 0.32810   1 
  -4   5   0 1.42175 0.35873   2 
   3  -5   0 1.38364 0.35429   2 
   3  -5   0 1.40369 0.29745   2 
   3  -5   0 1.69337 0.29793   1 
  -3   5   0 1.38920 0.36610   2 
  -3   5   0 1.78019 0.28634   1 
  -3   5   0 1.60447 0.32181   2 
   2  -5   0 0.31924 0.29879   2 
   2  -5   0 0.29105 0.20881   1 
   2  -5   0 0.67462 0.27221   2 
  -2   5   0 0.67220 0.30326   2 
  -2   5   0 0.52227 0.16194   1 
  -2   5   0 0.60006 0.26615   2 
   1  -5   0 76.7266 1.83127   2 
   1  -5   0 74.6981 1.73165   1 
   1  -5   0 71.4542 1.96836   2 
  -1   5   0 72.5855 1.72523   1 
  -1   5   0 75.2379 1.90673   2 
   0  -5   0 1.06467 0.33451   2 
   0  -5   0 1.14706 0.40974   2 
   0  -5   0 0.62927 0.18479   1 
   0   5   0 0.95821 0.19355   1 
   0   5   0 1.06796 0.31142   2 
   0   5   0 0.99985 0.31853   2 
  -1  -5   0 0.14099 0.20172   1 
  -1  -5   0 0.13686 0.34863   2 
  -1  -5   0 0.23844 0.34136   2 
   1   5   0 0.47904 0.31036   2 
   1   5   0 0.17085 0.18575   1 
   1   5   0 0.17351 0.35919   2 
  -2  -5   0 11.8915 0.57525   1 
  -2  -5   0 12.3006 1.03152   2 
  -2  -5   0 12.3874 0.87979   2 
   2   5   0 12.2545 0.76536   2 
   2   5   0 12.1781 0.53121   1 
   2   5   0 11.8065 1.04638   2 
  -3  -5   0 5.37036 0.78182   2 
  -3  -5   0 6.38336 0.49206   1 
  -3  -5   0 6.28222 0.79227   2 
   3   5   0 6.58518 0.43217   1 
   3   5   0 6.16032 0.86342   2 
   3   5   0 6.84257 0.78264   2 
  -4  -5   0 0.66730 0.31053   1 
  -4  -5   0 1.18795 0.82282   2 
  -4  -5   0 -0.1608 0.65010   2 
   4   5   0 0.82539 0.80072   2 
   4   5   0 0.87005 0.32694   1 
   4   5   0 0.26451 0.45325   2 
  -5  -5   0 11.8303 1.30790   2 
  -5  -5   0 12.1960 1.23529   2 
  -5  -5   0 12.4691 0.75913   1 
   5   5   0 12.3178 1.34497   2 
   5   5   0 15.8654 1.96127   2 
   6  -6   0 6.31303 1.15170   2 
   6  -6   0 8.44549 1.09772   2 
   6  -6   0 7.13347 0.82094   1 
  -6   6   0 5.98139 0.57964   1 
  -6   6   0 6.28962 0.86553   2 
  -6   6   0 6.93749 0.83434   2 
   5  -6   0 0.42465 0.60883   2 
   5  -6   0 0.64185 0.54525   2 
   5  -6   0 -0.1794 0.43491   1 
  -5   6   0 0.36460 0.46862   2 
  -5   6   0 0.31399 0.41430   2 
  -5   6   0 0.10752 0.29146   1 
   4  -6   0 9.96894 0.71647   1 
   4  -6   0 11.2861 1.04416   2 
   4  -6   0 9.84001 0.82230   2 
  -4   6   0 9.01991 0.60314   1 
  -4   6   0 10.2287 0.91240   2 
  -4   6   0 9.97000 0.81859   2 
   3  -6   0 7.66360 0.56889   1 
   3  -6   0 7.64944 0.65090   2 
   3  -6   0 6.67924 0.74046   2 
  -3   6   0 7.86946 0.75635   2 
  -3   6   0 6.89334 0.52328   1 
  -3   6   0 7.18743 0.67641   2 
   2  -6   0 2.16052 0.39866   2 
   2  -6   0 1.52825 0.49006   2 
   2  -6   0 2.02407 0.32071   1 
  -2   6   0 1.49168 0.44924   2 
  -2   6   0 1.96402 0.30664   1 
  -2   6   0 1.96077 0.42180   2 
   1  -6   0 77.9871 1.87443   1 
   1  -6   0 79.8496 2.00158   2 
   1  -6   0 77.9630 2.22814   2 
  -1   6   0 78.4447 2.11805   2 
  -1   6   0 75.1153 2.08112   2 
   0  -6   0 4.83123 0.44567   1 
   0  -6   0 3.66383 0.48880   2 
   0  -6   0 3.82780 0.61760   2 
   0   6   0 3.89571 0.59819   2 
   0   6   0 4.84747 0.56700   2 
  -1  -6   0 20.7519 1.24600   2 
  -1  -6   0 19.8672 0.79204   1 
   1   6   0 20.3874 1.05163   2 
   1   6   0 21.9106 1.19902   2 
   1   6   0 21.0845 0.77478   1 
  -2  -6   0 2.09692 0.33381   1 
  -2  -6   0 1.39067 0.54074   2 
  -2  -6   0 1.44832 0.65806   2 
   2   6   0 1.24319 0.58779   2 
   2   6   0 1.27992 0.45630   2 
   2   6   0 1.88186 0.30371   1 
  -3  -6   0 9.03920 0.63032   1 
  -3  -6   0 6.15750 0.89640   2 
  -3  -6   0 7.69790 0.87386   2 
   3   6   0 6.46938 1.03198   2 
   3   6   0 7.29620 0.56741   1 
   3   6   0 8.82131 0.98708   2 
  -4  -6   0 12.7434 1.37100   2 
  -4  -6   0 9.04188 1.99775   2 
  -4  -6   0 15.1641 0.83402   1 
   4   6   0 15.4118 1.89871   2 
   4   6   0 13.6707 1.28738   2 
   4   6   0 13.6341 0.82788   1 
  -5  -6   0 28.3653 2.30622   2 
  -5  -6   0 27.7283 1.14284   1 
  -5  -6   0 24.6308 2.53702   2 
   5   6   0 27.2316 1.74205   2 
   5   6   0 24.6748 3.32814   2 
   6  -7   0 10.3182 1.03258   1 
   6  -7   0 10.6939 1.22151   2 
   6  -7   0 10.6670 1.27791   2 
  -6   7   0 12.6688 1.23757   2 
  -6   7   0 9.70522 0.87345   1 
  -6   7   0 9.74557 0.94856   2 
   5  -7   0 1.59465 0.71594   2 
   5  -7   0 0.20035 0.54104   1 
   5  -7   0 -0.1021 0.72848   2 
  -5   7   0 0.31618 0.36720   1 
  -5   7   0 -0.0273 0.56186   2 
  -5   7   0 -0.2817 0.53323   2 
   4  -7   0 36.6482 1.74454   2 
   4  -7   0 36.1466 1.31698   1 
   4  -7   0 39.0256 1.39652   2 
  -4   7   0 34.3983 1.41308   2 
  -4   7   0 38.8525 1.58767   2 
  -4   7   0 35.9392 1.22857   1 
   3  -7   0 -0.2146 0.33524   1 
   3  -7   0 0.74101 0.42923   2 
   3  -7   0 0.27170 0.57648   2 
  -3   7   0 -0.5706 0.43226   2 
  -3   7   0 0.04952 0.49135   2 
  -3   7   0 0.03941 0.27705   1 
   2  -7   0 12.2059 0.88787   2 
   2  -7   0 12.2767 0.73730   1 
   2  -7   0 9.21912 1.15420   2 
  -2   7   0 11.8143 0.68185   1 
  -2   7   0 13.5977 0.99892   2 
  -2   7   0 12.2048 0.99607   2 
   1  -7   0 91.3592 2.33760   2 
   1  -7   0 88.2123 2.63300   2 
  -1   7   0 90.7459 2.48245   2 
  -1   7   0 91.5924 2.49431   2 
   0  -7   0 13.0775 0.73525   1 
   0  -7   0 13.1998 1.22474   2 
   0  -7   0 12.7370 0.99410   2 
   0   7   0 10.5676 0.99974   2 
   0   7   0 12.5947 1.14490   2 
   0   7   0 11.6934 0.70583   1 
  -1  -7   0 2.40900 0.69923   2 
  -1  -7   0 1.74438 0.60262   2 
  -1  -7   0 2.26201 0.45638   1 
   1   7   0 2.01682 0.74136   2 
   1   7   0 2.05045 0.39869   1 
   1   7   0 2.30490 0.60262   2 
  -2  -7   0 0.19905 0.77940   2 
  -2  -7   0 -0.1743 0.64469   2 
   2   7   0 0.74712 0.77567   2 
   2   7   0 -0.0252 0.57803   2 
   2   7   0 -0.3535 0.57041   1 
  -3  -7   0 0.77451 1.01981   2 
  -3  -7   0 0.79152 0.44170   1 
   3   7   0 0.48434 0.90900   2 
   3   7   0 1.23370 0.38438   1 
   3   7   0 0.72764 0.75929   2 
  -4  -7   0 0.01446 1.34372   2 
  -4  -7   0 0.59914 1.03664   2 
  -4  -7   0 0.16311 0.52720   1 
   4   7   0 -0.3355 0.51774   1 
   4   7   0 -0.0647 1.37424   2 
   4   7   0 -0.9822 0.82117   2 
   5  -8   0 0.88893 0.98209   2 
   5  -8   0 3.35805 0.75642   2 
   5  -8   0 1.26402 0.61791   1 
  -5   8   0 1.29091 0.49484   1 
  -5   8   0 1.31068 0.68627   2 
  -5   8   0 1.82179 0.90327   2 
   4  -8   0 15.0236 1.43231   2 
   4  -8   0 16.6980 1.09619   1 
   4  -8   0 17.7702 1.73245   2 
  -4   8   0 18.6003 1.29992   2 
  -4   8   0 18.1621 1.50024   2 
  -4   8   0 17.1556 0.91432   1 
   3  -8   0 6.91838 1.00344   2 
   3  -8   0 7.69666 0.83048   2 
   3  -8   0 7.46012 0.80244   1 
  -3   8   0 7.49011 0.98212   2 
  -3   8   0 6.84171 0.67033   1 
  -3   8   0 7.10623 0.82837   2 
   2  -8   0 0.63256 0.44000   1 
   2  -8   0 0.34226 0.53367   2 
   2  -8   0 0.28851 0.73243   2 
  -2   8   0 -0.0628 0.30138   1 
  -2   8   0 0.64596 0.61124   2 
  -2   8   0 0.57010 0.59458   2 
   1  -8   0 25.3994 1.06077   1 
   1  -8   0 23.7108 1.72607   2 
   1  -8   0 23.9891 1.27061   2 
  -1   8   0 24.9134 1.48099   2 
  -1   8   0 22.7594 1.43114   2 
   0  -8   0 6.28424 0.78394   2 
   0  -8   0 7.09861 0.75192   1 
   0  -8   0 7.30878 1.03385   2 
   0   8   0 7.88432 0.89717   2 
   0   8   0 8.08411 0.95070   2 
   0   8   0 9.07717 0.74969   1 
  -1  -8   0 1.03257 0.82311   2 
  -1  -8   0 0.44526 0.42280   1 
  -1  -8   0 -0.9748 0.66127   2 
   1   8   0 -0.9733 0.67218   2 
   1   8   0 0.42489 0.83385   2 
   1   8   0 0.94757 0.37878   1 
  -2  -8   0 0.35826 0.83639   2 
  -2  -8   0 0.53809 0.45452   1 
  -2  -8   0 -0.3743 1.08647   2 
   2   8   0 1.03873 0.82322   2 
   2   8   0 0.00818 0.94756   2 
   2   8   0 0.15223 0.40945   1 
  -3  -8   0 0.61250 1.01556   2 
  -3  -8   0 1.00068 0.60509   1 
  -3  -8   0 0.18417 1.20881   2 
   3   8   0 1.33118 2.35831   2 
   3   8   0 2.08235 0.57342   1 
   3   8   0 0.05767 0.88109   2 
   4  -9   0 4.64821 0.88328   2 
   4  -9   0 8.43230 1.49865   2 
   4  -9   0 4.29505 0.77474   1 
  -4   9   0 6.68409 0.99075   2 
  -4   9   0 4.78079 1.09576   2 
  -4   9   0 7.18156 0.87739   1 
   3  -9   0 -0.4355 0.97618   2 
   3  -9   0 0.42748 0.63177   2 
   3  -9   0 0.61206 0.57870   1 
  -3   9   0 -0.9323 0.40047   1 
  -3   9   0 -0.5034 0.83787   2 
  -3   9   0 0.80187 0.97122   2 
   2  -9   0 0.76613 0.64665   2 
   2  -9   0 1.39000 1.14956   2 
   2  -9   0 0.51820 0.52768   1 
  -2   9   0 1.11674 0.76364   2 
  -2   9   0 0.25559 0.43867   1 
  -2   9   0 1.72883 0.90146   2 
   1  -9   0 -0.2338 0.50123   1 
   1  -9   0 -0.2267 1.05015   2 
   1  -9   0 0.24726 0.72259   2 
  -1   9   0 1.17382 0.86162   2 
  -1   9   0 1.33593 0.81418   2 
  -1   9   0 0.15223 0.41426   1 
   0  -9   0 33.1372 1.77091   2 
   0  -9   0 32.7613 1.38500   1 
   0  -9   0 31.8538 2.29187   2 
   0   9   0 33.2789 1.36259   1 
   0   9   0 32.5292 2.03126   2 
   0   9   0 34.9315 1.99615   2 
  -1  -9   0 19.7229 1.85449   2 
  -1  -9   0 19.6010 2.23959   2 
  -1  -9   0 18.4745 1.21952   1 
   1   9   0 20.7029 2.29910   2 
   1   9   0 21.8678 1.81344   2 
   1   9   0 20.6450 1.13289   1 
   2   9  -1 -0.0200 0.56012   1 
   2   9  -1 0.80298 1.31336   2 
  -2  -9   1 -0.0841 0.66657   1 
  -2  -9   1 0.42009 1.07462   2 
   1   9  -1 -0.4088 0.90281   2 
   1   9  -1 0.49373 0.47995   1 
   1   9  -1 0.34596 1.09746   2 
  -1  -9   1 1.41127 1.14847   2 
  -1  -9   1 -1.0016 0.89535   2 
  -1  -9   1 0.57018 0.60403   1 
   0   9  -1 29.6677 2.05031   2 
   0   9  -1 28.2467 1.91006   2 
   0   9  -1 30.7666 1.27165   1 
   0  -9   1 30.2027 2.27466   2 
   0  -9   1 28.7453 1.34789   1 
   0  -9   1 28.7477 2.77861   2 
  -1   9  -1 0.69511 0.78594   2 
  -1   9  -1 0.71980 0.48542   1 
  -1   9  -1 -0.5329 1.47970   2 
   1  -9   1 0.35213 1.11933   2 
   1  -9   1 -0.7075 0.72097   2 
   1  -9   1 0.01925 0.50176   1 
  -2   9  -1 -0.3811 0.43026   1 
  -2   9  -1 0.47067 0.81986   2 
  -2   9  -1 0.50927 0.79476   2 
   2  -9   1 -0.4581 0.77000   2 
   2  -9   1 -0.9434 0.48462   1 
   2  -9   1 0.97878 1.09577   2 
  -3   9  -1 14.8854 1.70132   2 
  -3   9  -1 12.4211 0.91752   1 
  -3   9  -1 12.7914 1.43827   2 
   3  -9   1 12.8909 1.38862   2 
   3  -9   1 14.1163 1.50074   2 
   3  -9   1 13.6374 1.08429   1 
  -4   9  -1 3.85930 0.54422   1 
  -4   9  -1 3.79269 1.13178   2 
  -4   9  -1 4.85916 0.92656   2 
   4  -9   1 4.68469 0.79974   1 
   4  -9   1 1.66028 0.80181   2 
   4  -9   1 6.09990 1.37150   2 
   3   8  -1 2.51680 1.00462   2 
   3   8  -1 1.45206 0.53566   1 
   3   8  -1 2.33487 1.37870   2 
  -3  -8   1 1.83088 1.13502   2 
  -3  -8   1 1.03284 0.60781   1 
  -3  -8   1 2.37459 1.30991   2 
   2   8  -1 4.29380 0.92363   2 
   2   8  -1 3.28541 1.08837   2 
   2   8  -1 4.66866 0.59271   1 
  -2  -8   1 3.47775 0.61091   1 
  -2  -8   1 6.07719 1.33072   2 
  -2  -8   1 4.27734 0.94820   2 
   1   8  -1 0.41126 0.36045   1 
   1   8  -1 1.05213 0.63864   2 
   1   8  -1 0.72161 0.79330   2 
  -1  -8   1 0.69402 0.69979   2 
  -1  -8   1 0.52537 0.85809   2 
  -1  -8   1 -0.3714 0.42753   1 
   0   8  -1 32.6426 1.67160   2 
   0   8  -1 34.0362 1.73120   2 
   0   8  -1 34.8248 1.22194   1 
   0  -8   1 32.9912 1.93081   2 
   0  -8   1 35.2533 1.59993   2 
   0  -8   1 33.7209 1.22549   1 
  -1   8  -1 0.01621 0.63471   2 
  -1   8  -1 -0.1660 0.28521   1 
  -1   8  -1 0.66195 0.61777   2 
   1  -8   1 0.74657 0.76692   2 
   1  -8   1 -0.2749 0.54595   2 
   1  -8   1 -0.1961 0.37630   1 
  -2   8  -1 -0.6304 0.29852   1 
  -2   8  -1 1.22368 0.62779   2 
  -2   8  -1 0.73518 0.60285   2 
   2  -8   1 1.06579 0.75073   2 
   2  -8   1 0.38774 0.37622   1 
   2  -8   1 -0.1714 0.54112   2 
  -3   8  -1 13.7329 1.19580   2 
  -3   8  -1 14.2576 1.29769   2 
   3  -8   1 14.3562 1.10426   2 
   3  -8   1 14.2714 0.94076   1 
   3  -8   1 15.2389 1.65536   2 
  -4   8  -1 3.57918 0.53538   1 
  -4   8  -1 4.26314 0.90580   2 
  -4   8  -1 3.69143 0.88641   2 
   4  -8   1 3.38370 0.63256   1 
   4  -8   1 4.17126 0.93073   2 
   4  -8   1 4.89741 0.71788   2 
  -5   8  -1 1.09957 0.49446   1 
  -5   8  -1 2.80763 0.83590   2 
  -5   8  -1 1.09769 0.73910   2 
   5  -8   1 2.50949 0.76769   2 
   5  -8   1 3.80169 1.18061   2 
   5  -8   1 1.09165 0.64256   1 
   4   7  -1 3.18199 0.84848   2 
   4   7  -1 2.66595 1.44543   2 
   4   7  -1 1.94719 0.53316   1 
  -4  -7   1 2.77725 0.57857   1 
  -4  -7   1 2.13561 1.05353   2 
  -4  -7   1 3.54747 1.39785   2 
   3   7  -1 5.71656 1.06235   2 
   3   7  -1 5.52605 0.83944   2 
   3   7  -1 8.00144 0.72336   1 
  -3  -7   1 7.80739 1.17745   2 
  -3  -7   1 6.03090 1.02169   2 
  -3  -7   1 8.68774 0.78373   1 
   2   7  -1 14.6933 1.55417   2 
   2   7  -1 11.2409 1.11267   2 
   2   7  -1 12.5582 0.77391   1 
  -2  -7   1 10.9824 1.35531   2 
  -2  -7   1 12.0624 0.81657   1 
  -2  -7   1 10.0787 1.11660   2 
   1   7  -1 2.32167 0.63526   2 
   1   7  -1 2.14257 0.42179   1 
   1   7  -1 3.04656 0.72456   2 
  -1  -7   1 2.14590 0.64867   1 
  -1  -7   1 2.29037 0.60919   2 
  -1  -7   1 1.92844 0.75591   2 
   0   7  -1 55.7580 1.89967   2 
   0   7  -1 52.7899 1.82078   2 
   0  -7   1 55.2244 2.02461   2 
  -1   7  -1 2.26315 0.59825   2 
  -1   7  -1 2.21916 0.55755   2 
  -1   7  -1 1.38697 0.57796   1 
   1  -7   1 2.00542 0.66768   2 
   1  -7   1 2.76864 0.52929   2 
   1  -7   1 1.45742 0.60213   1 
  -2   7  -1 9.44979 0.60240   1 
  -2   7  -1 9.72421 0.98644   2 
  -2   7  -1 9.04737 0.89792   2 
   2  -7   1 10.8625 0.88412   2 
   2  -7   1 8.91891 0.90786   2 
   2  -7   1 10.3177 0.68898   1 
  -3   7  -1 1.68530 0.56850   2 
  -3   7  -1 1.27540 0.30837   1 
  -3   7  -1 0.95857 0.51197   2 
   3  -7   1 0.16067 0.55930   2 
   3  -7   1 1.22228 0.47667   2 
   3  -7   1 0.75975 0.33286   1 
  -4   7  -1 1.08908 0.57102   2 
  -4   7  -1 0.13849 0.32173   1 
  -4   7  -1 0.19022 0.51356   2 
   4  -7   1 0.50646 0.48754   2 
   4  -7   1 -0.8512 0.36087   1 
   4  -7   1 0.32047 0.65363   2 
  -5   7  -1 12.2100 1.53508   2 
  -5   7  -1 12.4050 1.29844   2 
  -5   7  -1 11.9034 0.79721   1 
   5  -7   1 12.2979 1.18261   2 
   5  -7   1 10.6563 1.02005   1 
   5  -7   1 13.6003 1.18561   2 
  -6   7  -1 4.08104 0.83974   2 
  -6   7  -1 4.63889 0.63063   1 
  -6   7  -1 6.54112 1.01093   2 
   6  -7   1 6.13126 1.20132   2 
   6  -7   1 5.90508 0.87862   1 
   6  -7   1 5.97987 1.08523   2 
   5   6  -1 6.20751 1.45652   2 
   5   6  -1 6.62690 0.95621   2 
  -5  -6   1 8.52352 0.91017   1 
  -5  -6   1 4.91097 1.39025   2 
  -5  -6   1 8.60433 1.43155   2 
   4   6  -1 11.3668 1.19239   2 
   4   6  -1 11.4002 1.36128   2 
   4   6  -1 10.2235 0.79798   1 
  -4  -6   1 11.4279 0.78331   1 
  -4  -6   1 8.66715 1.22968   2 
  -4  -6   1 10.8815 1.19105   2 
   3   6  -1 11.3295 0.69297   1 
   3   6  -1 12.2385 1.04453   2 
   3   6  -1 11.4011 1.20898   2 
  -3  -6   1 10.5090 0.73012   1 
  -3  -6   1 13.6394 1.30757   2 
  -3  -6   1 10.6714 1.16101   2 
   2   6  -1 1.32022 0.47841   2 
   2   6  -1 0.89542 0.28989   1 
   2   6  -1 1.53905 0.68148   2 
  -2  -6   1 2.29369 0.61830   2 
  -2  -6   1 1.05746 0.57903   2 
  -2  -6   1 1.26383 0.34350   1 
   1   6  -1 16.2064 0.68275   1 
   1   6  -1 14.9463 0.96449   2 
   1   6  -1 15.2252 1.09790   2 
  -1  -6   1 15.8811 0.71800   1 
  -1  -6   1 16.1370 0.98486   2 
  -1  -6   1 15.0429 1.13441   2 
   0   6  -1 6.10431 0.62374   2 
   0   6  -1 6.31253 0.65372   2 
   0   6  -1 5.94454 0.46143   1 
   0  -6   1 6.35514 0.80020   2 
   0  -6   1 5.98826 0.49800   1 
   0  -6   1 5.36919 0.57219   2 
  -1   6  -1 56.2108 1.46165   1 
  -1   6  -1 55.6765 1.67483   2 
  -1   6  -1 56.9768 1.70311   2 
   1  -6   1 55.2556 1.58914   2 
   1  -6   1 56.1593 1.46042   1 
   1  -6   1 55.1821 1.79535   2 
  -2   6  -1 2.57392 0.46829   2 
  -2   6  -1 3.42737 0.44183   2 
  -2   6  -1 3.47036 0.40187   1 
   2  -6   1 3.32332 0.59763   2 
   2  -6   1 3.30579 0.44299   2 
   2  -6   1 2.60511 0.33292   1 
  -3   6  -1 110.324 2.52060   1 
  -3   6  -1 111.033 2.66707   2 
  -3   6  -1 109.344 2.74176   2 
   3  -6   1 109.476 2.85156   2 
   3  -6   1 112.482 2.52418   1 
   3  -6   1 112.911 2.56133   2 
  -4   6  -1 315.925 6.66278   2 
  -4   6  -1 323.217 6.58435   2 
  -4   6  -1 323.887 6.46401   1 
   4  -6   1 320.845 6.52351   2 
   4  -6   1 319.287 6.82423   2 
   4  -6   1 322.014 6.46348   1 
  -5   6  -1 47.6321 1.56944   2 
  -5   6  -1 44.1129 1.37100   1 
  -5   6  -1 46.0314 1.68142   2 
   5  -6   1 46.1064 1.82866   2 
   5  -6   1 47.8135 1.68819   2 
   5  -6   1 47.2490 1.49156   1 
  -6   6  -1 10.9768 1.23408   2 
  -6   6  -1 9.23669 0.73377   1 
  -6   6  -1 12.4558 1.11256   2 
   6  -6   1 9.56403 0.90981   1 
   6  -6   1 9.80640 1.06052   2 
   6  -6   1 10.4277 1.15972   2 
   5   5  -1 1.17107 0.59525   2 
   5   5  -1 0.54448 1.07487   2 
  -5  -5   1 1.23905 0.94545   2 
  -5  -5   1 0.55231 1.07704   2 
  -5  -5   1 0.98295 0.40885   1 
   4   5  -1 34.8432 1.15118   1 
   4   5  -1 35.4938 1.36825   2 
   4   5  -1 35.5865 1.88530   2 
  -4  -5   1 33.9927 1.73568   2 
  -4  -5   1 35.3067 1.11097   1 
  -4  -5   1 35.4624 1.89561   2 
   3   5  -1 0.31399 0.21694   1 
   3   5  -1 0.75651 0.56195   2 
   3   5  -1 0.63441 0.41984   2 
  -3  -5   1 0.05592 0.53560   2 
  -3  -5   1 0.01805 0.26645   1 
  -3  -5   1 -0.2524 0.49293   2 
   2   5  -1 0.40140 0.21237   1 
   2   5  -1 0.48487 0.38351   2 
   2   5  -1 0.20393 0.45303   2 
  -2  -5   1 0.87759 0.47947   2 
  -2  -5   1 0.24905 0.21494   1 
  -2  -5   1 0.83012 0.42770   2 
   1   5  -1 88.5265 2.01716   1 
   1   5  -1 92.4325 2.36217   2 
   1   5  -1 90.3969 2.24295   2 
  -1  -5   1 90.7629 2.04670   1 
  -1  -5   1 90.2189 2.39940   2 
  -1  -5   1 90.2072 2.26112   2 
   0   5  -1 142.868 3.19627   2 
   0   5  -1 139.613 3.15841   2 
   0  -5   1 139.248 3.27046   2 
   0  -5   1 140.040 3.11129   2 
   0  -5   1 139.794 2.95839   1 
  -1   5  -1 58.7972 1.46077   1 
  -1   5  -1 61.2865 1.65087   2 
  -1   5  -1 59.8710 1.65134   2 
   1  -5   1 59.2898 1.73609   2 
   1  -5   1 63.8266 1.58673   2 
   1  -5   1 61.9073 1.49014   1 
  -2   5  -1 69.0643 1.65589   1 
  -2   5  -1 70.6590 1.78768   2 
  -2   5  -1 69.1055 1.81362   2 
   2  -5   1 69.4143 1.68981   2 
   2  -5   1 69.5788 1.90075   2 
   2  -5   1 70.9017 1.66476   1 
  -3   5  -1 34.0556 1.13862   2 
  -3   5  -1 33.4522 0.98578   1 
  -3   5  -1 32.1000 1.08400   2 
   3  -5   1 32.6545 1.23325   2 
   3  -5   1 32.1671 1.03373   2 
   3  -5   1 33.0486 0.99055   1 
  -4   5  -1 325.226 6.74916   2 
  -4   5  -1 340.778 6.73763   2 
  -4   5  -1 328.056 6.60201   1 
   4  -5   1 337.475 6.63622   1 
   4  -5   1 332.808 6.89879   2 
   4  -5   1 338.335 6.71644   2 
  -5   5  -1 120.555 2.90430   2 
  -5   5  -1 121.083 2.72320   1 
  -5   5  -1 126.699 2.91411   2 
   5  -5   1 123.293 2.83328   1 
   5  -5   1 120.806 3.00397   2 
   5  -5   1 120.934 3.06662   2 
  -6   5  -1 17.6613 1.14808   2 
  -6   5  -1 19.6278 1.65096   2 
  -6   5  -1 17.8242 0.83745   1 
   6  -5   1 17.6246 1.39865   2 
   6  -5   1 17.5116 1.46572   2 
   6  -5   1 18.2191 1.12820   1 
  -7   5  -1 11.8980 0.81125   1 
  -7   5  -1 12.8604 1.29774   2 
  -7   5  -1 10.7050 1.22291   2 
   7  -5   1 9.81208 1.58106   2 
   7  -5   1 14.0471 1.50746   1 
   7  -5   1 13.0758 1.60822   2 
   6   4  -1 -0.8509 1.12485   2 
   6   4  -1 -0.3995 0.63363   2 
  -6  -4   1 0.76458 0.40058   1 
  -6  -4   1 1.01325 1.19883   2 
  -6  -4   1 0.00823 1.03441   2 
   5   4  -1 7.62156 1.09080   2 
   5   4  -1 7.38571 0.92072   2 
  -5  -4   1 8.06616 1.04329   2 
  -5  -4   1 8.43596 0.59828   1 
  -5  -4   1 8.54783 0.97563   2 
   4   4  -1 2.91066 0.44468   2 
   4   4  -1 2.39989 0.77808   2 
  -4  -4   1 3.27244 0.40730   1 
  -4  -4   1 3.10519 0.69315   2 
  -4  -4   1 1.42566 0.60536   2 
   3   4  -1 1.00089 0.33732   2 
   3   4  -1 1.29964 0.53665   2 
   3   4  -1 1.32460 0.24834   1 
  -3  -4   1 1.49780 0.43372   2 
  -3  -4   1 1.29146 0.52246   2 
  -3  -4   1 1.37714 0.22786   1 
   2   4  -1 1113.28 21.1925   2 
   2   4  -1 1129.96 21.4021   2 
   2   4  -1 1120.36 21.0109   1 
  -2  -4   1 1132.40 21.2853   2 
  -2  -4   1 1103.83 21.3783   2 
  -2  -4   1 1127.25 21.0296   1 
   1   4  -1 302.044 5.79188   1 
   1   4  -1 297.574 5.96099   2 
   1   4  -1 296.047 6.05614   2 
  -1  -4   1 297.747 5.97257   2 
  -1  -4   1 296.285 5.79223   1 
  -1  -4   1 294.301 6.09082   2 
   0   4  -1 45.4001 1.29303   2 
   0   4  -1 45.8380 1.27131   2 
   0   4  -1 45.0010 1.11722   1 
   0  -4   1 46.3790 1.25675   2 
   0  -4   1 47.2281 1.35839   2 
   0  -4   1 45.5558 1.12780   1 
  -1   4  -1 16.5262 0.55798   1 
  -1   4  -1 16.6654 0.68328   2 
  -1   4  -1 16.4369 0.67768   2 
   1  -4   1 15.7541 0.73605   2 
   1  -4   1 15.8638 0.63243   2 
   1  -4   1 15.5199 0.55339   1 
  -2   4  -1 57.2629 1.35834   1 
  -2   4  -1 56.6822 1.45039   2 
   2  -4   1 56.0168 1.52808   2 
   2  -4   1 58.2180 1.39312   2 
   2  -4   1 58.1202 1.36349   1 
  -3   4  -1 1.01819 0.20588   1 
  -3   4  -1 0.94957 0.24085   2 
  -3   4  -1 0.65032 0.21967   2 
   3  -4   1 1.12480 0.33049   2 
   3  -4   1 0.70178 0.18086   1 
   3  -4   1 1.89487 0.30300   2 
  -4   4  -1 17.0495 0.75254   2 
  -4   4  -1 16.5685 0.62663   1 
  -4   4  -1 17.6461 0.75849   2 
   4  -4   1 17.1970 0.69654   1 
   4  -4   1 17.7661 0.83022   2 
   4  -4   1 16.9234 0.88091   2 
  -5   4  -1 631.366 12.3120   1 
  -5   4  -1 654.161 12.4940   2 
  -5   4  -1 643.780 12.4727   2 
   5  -4   1 640.060 12.6209   2 
   5  -4   1 644.384 12.4481   1 
   5  -4   1 657.045 12.6830   2 
  -6   4  -1 3.65845 0.52126   2 
  -6   4  -1 3.10733 0.53590   2 
  -6   4  -1 3.17379 0.38594   1 
   6  -4   1 3.15640 0.67395   2 
   6  -4   1 2.81962 0.59704   1 
   6  -4   1 3.16257 0.82687   2 
  -7   4  -1 5.96867 0.79175   2 
  -7   4  -1 7.44069 0.69016   1 
  -7   4  -1 6.46970 0.80027   2 
   7  -4   1 7.02350 0.97929   2 
   6   3  -1 8.22196 1.30961   2 
   6   3  -1 10.4881 1.14077   2 
  -6  -3   1 7.75274 0.60409   1 
  -6  -3   1 8.07384 1.07898   2 
   5   3  -1 4.26127 0.81141   2 
   5   3  -1 3.55615 0.51923   2 
  -5  -3   1 2.81236 0.82493   2 
  -5  -3   1 3.78374 0.72554   2 
  -5  -3   1 3.64962 0.35508   1 
   4   3  -1 5.10596 0.72806   2 
   4   3  -1 5.53039 0.58654   2 
  -4  -3   1 5.35362 0.36447   1 
  -4  -3   1 4.84614 0.62427   2 
  -4  -3   1 5.24902 0.68682   2 
   3   3  -1 6.96548 0.79391   2 
   3   3  -1 7.85148 0.55741   2 
   3   3  -1 9.05389 0.43393   1 
  -3  -3   1 8.05561 0.82509   2 
  -3  -3   1 8.74196 0.39096   1 
  -3  -3   1 8.02307 0.68952   2 
   2   3  -1 0.84489 0.15112   1 
   2   3  -1 1.06165 0.31873   2 
   2   3  -1 0.64572 0.23881   2 
  -2  -3   1 0.62961 0.13184   1 
  -2  -3   1 1.24881 0.33378   2 
  -2  -3   1 1.11482 0.28029   2 
   1   3  -1 16.0268 0.62281   2 
   1   3  -1 16.5923 0.49645   1 
   1   3  -1 16.1616 0.69493   2 
  -1  -3   1 15.8589 0.50190   1 
  -1  -3   1 15.6973 0.70306   2 
  -1  -3   1 16.4680 0.64964   2 
   0   3  -1 239.269 4.61548   1 
   0   3  -1 238.858 4.72446   2 
   0   3  -1 239.536 4.74678   2 
   0  -3   1 235.883 4.70749   2 
   0  -3   1 239.167 4.61294   1 
   0  -3   1 233.544 4.78041   2 
  -1   3  -1 86.5915 1.81718   1 
  -1   3  -1 86.7067 1.89945   2 
  -1   3  -1 86.3161 1.90158   2 
   1  -3   1 85.6086 1.94241   2 
   1  -3   1 87.1894 1.81539   1 
   1  -3   1 85.7005 1.85082   2 
  -2   3  -1 80.2309 1.77405   2 
  -2   3  -1 75.9265 1.75083   2 
  -2   3  -1 76.3807 1.68126   1 
   2  -3   1 79.7000 1.69267   1 
   2  -3   1 79.4333 1.71303   2 
   2  -3   1 77.2959 1.81528   2 
  -3   3  -1 27.5566 0.83449   2 
  -3   3  -1 27.7174 0.75016   1 
  -3   3  -1 27.1349 0.81670   2 
   3  -3   1 27.1969 0.89630   2 
   3  -3   1 27.6350 0.75804   1 
   3  -3   1 28.1879 0.84433   2 
  -4   3  -1 149.420 3.12931   2 
  -4   3  -1 145.610 2.99043   1 
  -4   3  -1 143.052 3.08248   2 
   4  -3   1 144.700 3.19937   2 
   4  -3   1 148.594 3.06094   1 
   4  -3   1 144.766 3.23213   2 
  -5   3  -1 47.5823 1.38224   2 
  -5   3  -1 47.2437 1.20226   1 
  -5   3  -1 47.1488 1.36111   2 
   5  -3   1 47.6775 1.45484   2 
   5  -3   1 47.9485 1.38057   1 
   5  -3   1 47.8286 1.61968   2 
  -6   3  -1 16.2643 0.98493   2 
  -6   3  -1 17.4274 0.70054   1 
  -6   3  -1 16.6747 0.98282   2 
   6  -3   1 15.2253 1.11196   2 
   6  -3   1 17.9212 1.02873   1 
   6  -3   1 15.3837 1.37853   2 
  -7   3  -1 0.58942 0.58992   2 
  -7   3  -1 -0.0342 0.55815   2 
  -7   3  -1 0.85966 0.35041   1 
   7  -3   1 0.46887 0.64883   2 
   7  -3   1 -0.6355 0.96855   2 
   7   2  -1 68.3869 3.13519   2 
   7   2  -1 70.6883 2.31593   2 
  -7  -2   1 67.4420 2.03133   1 
  -7  -2   1 71.4968 2.89346   2 
  -7  -2   1 75.0224 2.71740   2 
  -7  -2   1 75.1342 1.76537   1 
   6   2  -1 8.56975 1.09184   2 
   6   2  -1 8.48976 0.99483   2 
  -6  -2   1 10.5453 1.24963   2 
  -6  -2   1 10.6403 0.54805   1 
  -6  -2   1 10.5640 1.18099   2 
  -6  -2   1 8.50516 0.97200   1 
   5   2  -1 10.4349 0.76097   2 
   5   2  -1 10.9709 1.04149   2 
  -5  -2   1 10.0938 0.93907   2 
  -5  -2   1 9.64908 0.47298   1 
   4   2  -1 6.40837 0.51116   2 
   4   2  -1 5.85795 0.63668   2 
  -4  -2   1 6.48535 0.34680   1 
  -4  -2   1 6.74850 0.64816   2 
  -4  -2   1 5.88272 0.67264   2 
   3   2  -1 40.5672 1.30819   2 
   3   2  -1 41.6872 1.08837   2 
  -3  -2   1 40.1704 1.29946   2 
  -3  -2   1 41.8079 0.97759   1 
  -3  -2   1 41.5141 1.17529   2 
   2   2  -1 103.663 2.22971   2 
   2   2  -1 108.904 2.17470   1 
   2   2  -1 111.310 2.42300   2 
  -2  -2   1 103.812 2.29046   2 
  -2  -2   1 108.388 2.14979   1 
  -2  -2   1 102.024 2.37506   2 
   1   2  -1 9537.17 182.617   2 
   1   2  -1 9999.99 183.175   2 
  -1  -2   1 9879.96 182.836   2 
  -1  -2   1 9803.85 183.039   2 
   0   2  -1 621.850 11.8570   2 
   0   2  -1 633.299 11.9597   1 
   0   2  -1 623.738 11.7846   2 
   0  -2   1 632.142 11.9398   1 
   0  -2   1 607.724 11.7971   2 
   0  -2   1 630.801 11.7630   2 
  -1   2  -1 222.831 4.33544   2 
  -1   2  -1 221.734 4.32904   2 
  -1   2  -1 223.921 4.28343   1 
   1  -2   1 224.439 4.28246   1 
   1  -2   1 226.350 4.36853   2 
   1  -2   1 222.695 4.30436   2 
  -2   2  -1 0.93488 0.14371   2 
  -2   2  -1 0.81637 0.14611   2 
  -2   2  -1 1.03553 0.12682   1 
   2  -2   1 0.87594 0.15434   2 
   2  -2   1 0.82418 0.15111   2 
   2  -2   1 0.82516 0.12497   1 
  -3   2  -1 61.2183 1.41080   2 
  -3   2  -1 58.5800 1.38638   2 
  -3   2  -1 60.2518 1.30973   1 
   3  -2   1 61.3053 1.33657   1 
   3  -2   1 59.8912 1.48351   2 
   3  -2   1 59.8609 1.44136   2 
  -4   2  -1 5.08409 0.29280   1 
  -4   2  -1 4.92129 0.41212   2 
  -4   2  -1 5.77328 0.45869   2 
   4  -2   1 5.43300 0.40160   1 
   4  -2   1 5.37878 0.57933   2 
   4  -2   1 4.58167 0.45421   2 
  -5   2  -1 1.88780 0.22319   1 
  -5   2  -1 1.68879 0.34350   2 
  -5   2  -1 1.81713 0.36513   2 
   5  -2   1 1.58314 0.36113   1 
   5  -2   1 1.68077 0.36137   2 
  -6   2  -1 219.521 4.69801   2 
  -6   2  -1 219.566 4.39869   1 
  -6   2  -1 220.328 4.70592   2 
   6  -2   1 222.720 4.77682   2 
   6  -2   1 221.348 5.13946   2 
  -7   2  -1 37.6000 1.62176   2 
  -7   2  -1 38.5199 1.58267   2 
  -7   2  -1 37.8768 1.08782   1 
   7  -2   1 35.8524 2.17733   2 
   7  -2   1 38.0642 1.65180   2 
   7   1  -1 82.8020 2.41088   2 
   7   1  -1 84.7619 3.10866   2 
  -7  -1   1 81.3015 2.11300   1 
  -7  -1   1 85.2124 1.95740   1 
  -7  -1   1 82.6324 2.86840   2 
   6   1  -1 22.4654 1.11058   2 
   6   1  -1 27.6668 1.63615   2 
  -6  -1   1 22.4555 1.01721   1 
  -6  -1   1 24.5922 1.30258   2 
  -6  -1   1 23.7882 0.79793   1 
  -6  -1   1 24.6026 1.54403   2 
   5   1  -1 5.01325 0.59317   2 
   5   1  -1 5.06840 0.71441   2 
  -5  -1   1 6.11106 0.66845   2 
  -5  -1   1 6.01427 0.62135   1 
  -5  -1   1 7.04745 0.70804   2 
  -5  -1   1 5.33331 0.37358   1 
   4   1  -1 68.5904 1.94262   2 
   4   1  -1 68.4252 1.66741   2 
  -4  -1   1 69.4703 1.54328   1 
  -4  -1   1 69.5347 1.71053   2 
   3   1  -1 29.3821 0.83319   2 
   3   1  -1 30.9860 1.03477   2 
  -3  -1   1 30.7168 0.76175   1 
  -3  -1   1 28.6724 1.02523   2 
  -3  -1   1 30.1978 0.86937   2 
   2   1  -1 543.679 10.3785   2 
   2   1  -1 531.732 10.2160   2 
  -2  -1   1 535.654 10.3716   2 
  -2  -1   1 543.689 10.2498   2 
  -2  -1   1 555.439 10.3043   1 
   1   1  -1 48.0412 1.09862   2 
   1   1  -1 47.6979 0.99630   1 
   1   1  -1 47.3161 1.01681   2 
  -1  -1   1 46.6605 1.09273   2 
  -1  -1   1 47.3842 0.98434   1 
  -1  -1   1 48.0117 1.03578   2 
   0   1  -1 -0.2239 0.06053   1 
   0   1  -1 -0.3442 0.07651   2 
   0  -1   1 -0.3251 0.04927   1 
   0  -1   1 -0.4520 0.07150   2 
   0  -1   1 -0.3862 0.07498   2 
  -1   1  -1 87.8705 1.67692   1 
  -1   1  -1 78.4507 1.72682   2 
  -1   1  -1 87.9252 1.71251   2 
   1  -1   1 85.3253 1.71941   2 
   1  -1   1 87.9345 1.69906   2 
   1  -1   1 89.3615 1.67717   1 
  -2   1  -1 71.7622 1.41636   1 
  -2   1  -1 72.4332 1.50037   2 
  -2   1  -1 68.9195 1.49508   2 
   2  -1   1 70.4128 1.50328   2 
   2  -1   1 69.7859 1.54714   2 
   2  -1   1 72.5518 1.42933   1 
  -3   1  -1 360.755 6.76304   2 
  -3   1  -1 353.411 6.62039   1 
  -3   1  -1 339.833 6.78221   2 
   3  -1   1 350.525 6.69882   1 
   3  -1   1 351.550 6.77235   2 
   3  -1   1 349.236 6.89882   2 
  -4   1  -1 7.55439 0.31940   1 
  -4   1  -1 6.34628 0.52726   2 
  -4   1  -1 8.13344 0.46969   2 
   4  -1   1 7.20506 0.47736   2 
  -5   1  -1 10.0795 0.41646   1 
  -5   1  -1 9.82701 0.73570   2 
  -5   1  -1 8.82215 0.61898   2 
   5  -1   1 8.93656 0.64946   2 
   5  -1   1 10.8375 0.94319   2 
  -6   1  -1 55.6393 1.67478   2 
  -6   1  -1 56.7913 1.73524   2 
  -6   1  -1 53.5674 1.28633   1 
   6  -1   1 54.2037 2.06900   2 
   6  -1   1 54.6117 1.65948   2 
  -7   1  -1 4.23348 0.48397   1 
  -7   1  -1 2.68537 0.37050   1 
  -7   1  -1 0.62772 0.67736   2 
  -7   1  -1 2.23491 0.67047   2 
   7  -1   1 3.05029 0.99507   2 
   7  -1   1 3.51763 0.64540   2 
   7   0  -1 138.646 3.39027   2 
   7   0  -1 139.303 4.04560   2 
  -7   0   1 134.656 3.60282   2 
  -7   0   1 139.087 3.50042   2 
  -7   0   1 139.284 3.00649   1 
  -7   0   1 134.268 3.01513   1 
   6   0  -1 234.535 4.98039   2 
   6   0  -1 231.622 5.42564   2 
  -6   0   1 235.211 4.77984   1 
  -6   0   1 236.020 4.80464   1 
  -6   0   1 238.829 5.20451   2 
  -6   0   1 240.910 5.06281   2 
   5   0  -1 10.1830 0.66127   2 
   5   0  -1 10.9122 0.99404   2 
  -5   0   1 10.3097 0.67764   2 
  -5   0   1 11.5159 0.89982   2 
  -5   0   1 10.3991 0.60145   1 
   4   0  -1 0.13320 0.19613   2 
   4   0  -1 0.64759 0.31923   2 
  -4   0   1 0.20088 0.22345   2 
  -4   0   1 0.30771 0.22747   1 
  -4   0   1 0.00036 0.33661   2 
   3   0  -1 23.3297 0.69631   2 
   3   0  -1 23.8105 0.86439   2 
  -3   0   1 24.1460 0.83902   2 
  -3   0   1 23.2881 0.73152   1 
  -3   0   1 23.9720 0.70120   2 
   2   0  -1 157.805 3.18179   2 
   2   0  -1 154.273 3.04308   2 
  -2   0   1 154.462 3.09423   1 
  -2   0   1 154.278 3.14520   2 
  -2   0   1 153.744 3.04138   2 
   1   0  -1 20.3759 0.52952   2 
  -1   0   1 20.5599 0.52818   2 
  -1   0   1 20.1949 0.46622   2 
  -1   0  -1 65.1530 1.29504   2 
   1   0   1 64.8358 1.29345   2 
  -2   0  -1 5.27477 0.17774   1 
  -2   0  -1 5.61385 0.32514   2 
  -2   0  -1 5.57211 0.26089   2 
   2   0   1 5.71019 0.26296   2 
   2   0   1 5.57328 0.36130   2 
  -3   0  -1 2.90850 0.19645   1 
  -3   0  -1 2.72919 0.32938   2 
  -3   0  -1 3.35275 0.29403   2 
   3   0   1 2.59791 0.27263   2 
   3   0   1 2.93058 0.35123   2 
  -4   0  -1 43.9028 1.32666   2 
  -4   0  -1 44.6209 1.00271   1 
  -4   0  -1 45.2442 1.20477   2 
   4   0   1 45.7382 1.43599   2 
   4   0   1 43.2367 1.18754   2 
  -5   0  -1 9.47998 0.68580   2 
  -5   0  -1 10.7446 0.86590   2 
  -5   0  -1 9.16657 0.40722   1 
  -5   0  -1 9.58015 0.41956   1 
   5   0   1 10.6955 0.97148   2 
   5   0   1 9.05688 0.64137   2 
  -6   0  -1 0.74647 0.22413   1 
  -6   0  -1 0.73122 0.51911   2 
  -6   0  -1 1.22144 0.22272   1 
  -6   0  -1 0.89247 0.56741   2 
   6   0   1 0.83882 0.45260   2 
   6   0   1 0.59855 0.71707   2 
  -7   0  -1 11.9401 0.56435   1 
  -7   0  -1 10.8059 1.09909   2 
  -7   0  -1 11.5614 1.35401   2 
  -7   0  -1 10.8807 0.52856   1 
   7   0   1 14.0023 1.20699   2 
   7   0   1 12.7051 1.53024   2 
   7  -1  -1 9.13698 1.12777   2 
   7  -1  -1 8.91315 1.24604   2 
  -7   1   1 9.82611 0.98314   2 
  -7   1   1 8.66871 0.87756   2 
  -7   1   1 9.78648 0.73427   1 
   6  -1  -1 107.937 2.68423   2 
   6  -1  -1 114.925 3.13080   2 
  -6   1   1 111.152 2.70724   2 
  -6   1   1 110.499 2.47229   1 
  -6   1   1 111.913 2.80414   2 
   5  -1  -1 22.1332 1.17751   2 
   5  -1  -1 23.4192 0.91190   2 
  -5   1   1 22.0308 0.88229   2 
  -5   1   1 22.9621 1.00326   2 
  -5   1   1 22.3441 0.76182   1 
   4  -1  -1 3.49792 0.47927   2 
   4  -1  -1 3.15939 0.38847   2 
  -4   1   1 3.36610 0.42336   2 
  -4   1   1 3.24151 0.33758   1 
  -4   1   1 3.14632 0.36879   2 
   3  -1  -1 87.6712 1.89813   2 
   3  -1  -1 87.7596 1.94851   1 
  -3   1   1 85.1736 1.93795   2 
  -3   1   1 88.7534 1.89015   2 
  -3   1   1 86.2981 1.86109   1 
   2  -1  -1 9.43469 0.40061   2 
   2  -1  -1 9.38061 0.37902   1 
   2  -1  -1 9.45343 0.35204   2 
  -2   1   1 9.36863 0.34035   2 
  -2   1   1 9.40671 0.36431   2 
  -2   1   1 9.24956 0.33968   1 
   1  -1  -1 189.831 3.57501   1 
   1  -1  -1 183.013 3.53770   2 
  -1   1   1 183.386 3.54927   1 
  -1   1   1 187.228 3.55605   2 
  -1   1   1 184.208 3.52896   2 
   0  -1  -1 66.7506 1.34671   2 
   0  -1  -1 68.0520 1.32460   1 
   0   1   1 65.9800 1.35179   2 
   0   1   1 68.3136 1.32389   1 
   0   1   1 67.7774 1.37492   2 
  -1  -1  -1 126.691 2.80753   2 
  -1  -1  -1 138.478 2.69024   2 
  -1  -1  -1 140.142 2.58287   1 
   1   1   1 135.837 2.67022   2 
   1   1   1 140.526 2.57990   1 
  -2  -1  -1 222.188 4.14131   1 
  -2  -1  -1 219.851 4.42828   2 
  -2  -1  -1 217.759 4.30991   2 
   2   1   1 220.196 4.28076   2 
  -3  -1  -1 11.5544 0.50608   2 
  -3  -1  -1 10.8042 0.30885   1 
   3   1   1 12.1659 0.66169   2 
   3   1   1 10.5848 0.46135   2 
  -4  -1  -1 90.1315 2.26945   2 
  -4  -1  -1 86.2888 1.89787   1 
  -4  -1  -1 91.2942 2.11583   2 
  -4  -1  -1 89.9642 1.80052   1 
   4   1   1 89.5197 2.34545   2 
   4   1   1 89.7024 2.04651   2 
  -5  -1  -1 47.3860 1.17096   1 
  -5  -1  -1 46.8425 1.64618   2 
  -5  -1  -1 49.5261 1.51030   2 
  -5  -1  -1 48.5606 1.08220   1 
   5   1   1 48.7817 1.40739   2 
   5   1   1 48.6146 1.78728   2 
  -6  -1  -1 0.85645 0.24912   1 
  -6  -1  -1 0.80391 0.60345   2 
  -6  -1  -1 1.11409 0.62694   2 
  -6  -1  -1 0.65824 0.18684   1 
   6   1   1 0.60148 0.77219   2 
   6   1   1 -0.7075 0.41634   2 
  -7  -1  -1 2.05276 0.93855   2 
  -7  -1  -1 1.42456 0.90111   2 
   7   1   1 0.61749 0.65535   2 
   7   1   1 2.91095 1.13734   2 
   7  -2  -1 21.1643 1.37646   2 
   7  -2  -1 19.4169 1.87123   2 
  -7   2   1 21.7293 1.31611   2 
  -7   2   1 20.5838 1.29267   2 
  -7   2   1 20.1760 0.90744   1 
   6  -2  -1 3.32112 0.55193   2 
   6  -2  -1 3.28467 0.77329   2 
  -6   2   1 2.48406 0.48608   2 
  -6   2   1 1.56019 0.50306   2 
  -6   2   1 2.42034 0.34063   1 
   5  -2  -1 176.325 3.78052   2 
  -5   2   1 173.541 3.73389   2 
  -5   2   1 171.558 3.57506   1 
  -5   2   1 177.671 3.73126   2 
   4  -2  -1 0.37805 0.25462   1 
   4  -2  -1 0.21230 0.22950   2 
   4  -2  -1 1.24095 0.38055   2 
  -4   2   1 0.22244 0.15598   1 
  -4   2   1 0.01728 0.21309   2 
  -4   2   1 0.19535 0.20586   2 
   3  -2  -1 145.708 3.10957   2 
   3  -2  -1 148.101 3.07198   2 
   3  -2  -1 146.871 3.06293   1 
  -3   2   1 150.632 3.02350   2 
  -3   2   1 149.201 3.03184   2 
  -3   2   1 144.294 2.96282   1 
   2  -2  -1 15.3305 0.49687   2 
   2  -2  -1 15.1801 0.52117   2 
   2  -2  -1 14.9163 0.48487   1 
  -2   2   1 15.2922 0.46906   2 
  -2   2   1 15.4875 0.50441   2 
  -2   2   1 15.2011 0.45792   1 
   1  -2  -1 0.37412 0.09460   1 
   1  -2  -1 0.64409 0.14594   2 
   1  -2  -1 0.48025 0.10538   2 
  -1   2   1 0.45166 0.10628   2 
  -1   2   1 0.45432 0.14134   2 
  -1   2   1 0.52468 0.10284   1 
   0  -2  -1 550.277 10.3325   2 
   0  -2  -1 547.518 10.4374   1 
   0  -2  -1 543.271 10.3816   2 
   0   2   1 549.061 10.4967   1 
   0   2   1 562.559 10.3873   2 
   0   2   1 536.931 10.3412   2 
  -1  -2  -1 160.075 3.19515   2 
  -1  -2  -1 155.965 3.23882   2 
  -1  -2  -1 157.052 3.05882   1 
   1   2   1 156.656 3.05805   1 
   1   2   1 156.340 3.17917   2 
   1   2   1 165.763 3.27203   2 
  -2  -2  -1 7.02058 0.51118   2 
  -2  -2  -1 7.03835 0.25900   1 
  -2  -2  -1 7.12267 0.43686   2 
   2   2   1 7.36362 0.38735   2 
   2   2   1 7.41052 0.25234   1 
  -3  -2  -1 38.2433 1.11070   2 
  -3  -2  -1 35.8873 0.82184   1 
  -3  -2  -1 36.0211 1.20788   2 
   3   2   1 36.5400 1.22963   2 
   3   2   1 35.2439 0.99599   2 
  -4  -2  -1 117.863 2.92334   2 
  -4  -2  -1 118.815 2.37794   1 
   4   2   1 116.960 2.63230   2 
   4   2   1 122.349 2.97208   2 
  -5  -2  -1 4.54793 0.31789   1 
  -5  -2  -1 4.08186 0.71920   2 
  -5  -2  -1 4.48836 0.61465   2 
  -5  -2  -1 3.51881 0.40238   1 
   5   2   1 4.45969 0.51706   2 
   5   2   1 3.81233 0.73989   2 
  -6  -2  -1 0.93078 0.37407   1 
  -6  -2  -1 1.37785 1.04088   2 
  -6  -2  -1 1.53721 0.23707   1 
  -6  -2  -1 1.30444 0.80863   2 
   6   2   1 0.90404 0.54705   2 
   6   2   1 1.14238 0.87450   2 
  -7  -2  -1 9.97171 1.28456   2 
  -7  -2  -1 10.5559 1.21545   2 
   7   2   1 7.88442 1.21399   2 
   7   2   1 7.18693 1.55412   2 
   7  -3  -1 2.89872 0.98360   2 
   7  -3  -1 1.69092 0.69431   2 
  -7   3   1 2.13309 0.42771   1 
  -7   3   1 1.86162 0.64267   2 
  -7   3   1 4.32763 0.79566   2 
   6  -3  -1 79.0209 2.24022   2 
  -6   3   1 80.9040 2.12377   2 
  -6   3   1 81.7731 1.94112   1 
  -6   3   1 80.4167 2.12428   2 
   5  -3  -1 8.22010 0.91933   2 
   5  -3  -1 8.50848 0.72564   2 
   5  -3  -1 9.23460 0.77220   1 
  -5   3   1 8.84316 0.63039   2 
  -5   3   1 9.50583 0.54679   1 
  -5   3   1 9.42141 0.63532   2 
   4  -3  -1 54.2573 1.52638   2 
   4  -3  -1 51.9301 1.41911   1 
   4  -3  -1 52.8851 1.47290   2 
  -4   3   1 51.3199 1.36912   2 
  -4   3   1 53.1184 1.36660   2 
  -4   3   1 53.4931 1.30799   1 
   3  -3  -1 0.27954 0.19115   2 
   3  -3  -1 0.02921 0.14412   1 
   3  -3  -1 0.41510 0.22869   2 
  -3   3   1 0.13037 0.17678   2 
  -3   3   1 0.28037 0.17691   2 
  -3   3   1 0.27900 0.12873   1 
   2  -3  -1 -0.1589 0.17539   2 
   2  -3  -1 0.05475 0.12562   1 
   2  -3  -1 0.00960 0.13840   2 
  -2   3   1 -0.0963 0.13198   2 
  -2   3   1 -0.1043 0.14368   2 
  -2   3   1 0.07314 0.09902   1 
   1  -3  -1 66.5975 1.48088   2 
   1  -3  -1 66.0735 1.57934   2 
  -1   3   1 67.6240 1.55654   2 
  -1   3   1 67.0540 1.52636   2 
  -1   3   1 67.0420 1.45706   1 
   0  -3  -1 186.207 3.95714   2 
   0  -3  -1 197.896 3.89556   2 
   0  -3  -1 198.519 3.79955   1 
   0   3   1 198.566 3.96546   2 
   0   3   1 192.282 3.79425   1 
   0   3   1 189.752 3.90604   2 
  -1  -3  -1 9.81122 0.55714   2 
  -1  -3  -1 8.39227 0.47720   2 
  -1  -3  -1 8.69115 0.34114   1 
   1   3   1 8.33797 0.46928   2 
   1   3   1 9.12901 0.53818   2 
   1   3   1 8.17686 0.32179   1 
  -2  -3  -1 6.91439 0.30815   1 
  -2  -3  -1 5.94779 0.56044   2 
  -2  -3  -1 7.77412 0.53677   2 
   2   3   1 6.52298 0.28612   1 
   2   3   1 6.05246 0.46665   2 
   2   3   1 6.66114 0.59889   2 
  -3  -3  -1 53.0837 1.49139   2 
  -3  -3  -1 49.5155 1.15248   1 
  -3  -3  -1 52.1842 1.61832   2 
   3   3   1 50.7701 1.35895   2 
   3   3   1 51.1759 1.63248   2 
   3   3   1 49.5800 1.15499   1 
  -4  -3  -1 46.6828 1.68705   2 
  -4  -3  -1 44.9752 1.08400   1 
  -4  -3  -1 46.9146 1.51381   2 
   4   3   1 45.2757 1.34049   2 
   4   3   1 46.6748 1.73134   2 
  -5  -3  -1 24.3382 1.53924   2 
  -5  -3  -1 23.2944 0.71843   1 
  -5  -3  -1 23.2468 1.39235   2 
   5   3   1 21.4691 1.56681   2 
   5   3   1 23.8922 1.04408   2 
  -6  -3  -1 4.11155 0.55395   1 
  -6  -3  -1 5.62459 1.03354   2 
  -6  -3  -1 5.32890 0.93619   2 
  -6  -3  -1 4.42006 0.49264   1 
   6   3   1 5.68532 0.81300   2 
   6   3   1 4.72963 1.09568   2 
   7  -4  -1 11.1923 1.33225   2 
  -7   4   1 9.60862 0.89962   2 
  -7   4   1 9.57681 0.80763   1 
  -7   4   1 8.53589 0.85171   2 
   6  -4  -1 9.71256 1.04461   1 
   6  -4  -1 9.22599 0.97601   2 
   6  -4  -1 11.1262 1.03303   2 
  -6   4   1 9.18615 0.88539   2 
  -6   4   1 10.9164 0.69333   1 
  -6   4   1 10.1715 0.87496   2 
   5  -4  -1 85.4467 2.27586   2 
   5  -4  -1 84.7794 2.34860   2 
   5  -4  -1 85.7229 2.22141   1 
  -5   4   1 85.3025 2.02081   1 
  -5   4   1 88.8079 2.16061   2 
  -5   4   1 86.2501 2.13590   2 
   4  -4  -1 53.3879 1.45684   1 
   4  -4  -1 50.3480 1.52045   2 
  -4   4   1 51.9317 1.40409   2 
  -4   4   1 52.4853 1.42723   2 
  -4   4   1 51.7525 1.33110   1 
   3  -4  -1 0.90981 0.24701   1 
   3  -4  -1 1.17369 0.33058   2 
   3  -4  -1 1.67870 0.30184   2 
  -3   4   1 1.20724 0.21399   1 
  -3   4   1 1.58097 0.26341   2 
  -3   4   1 0.87541 0.25156   2 
   2  -4  -1 84.0668 1.81445   2 
   2  -4  -1 80.9659 1.98562   2 
   2  -4  -1 82.1795 1.81651   1 
  -2   4   1 79.7011 1.90382   2 
  -2   4   1 78.9827 1.80293   1 
  -2   4   1 80.6009 1.89870   2 
   1  -4  -1 4.77583 0.32260   1 
   1  -4  -1 4.31649 0.49510   2 
   1  -4  -1 4.38115 0.37210   2 
  -1   4   1 5.01446 0.43803   2 
  -1   4   1 5.07398 0.31092   1 
  -1   4   1 4.48077 0.44347   2 
   0  -4  -1 59.0248 1.45340   2 
   0  -4  -1 55.1289 1.54962   2 
   0  -4  -1 58.5059 1.33804   1 
   0   4   1 56.1092 1.47594   2 
   0   4   1 57.1774 1.32728   1 
   0   4   1 57.5566 1.52668   2 
  -1  -4  -1 5.97675 0.59229   2 
  -1  -4  -1 5.95347 0.53698   2 
  -1  -4  -1 4.95846 0.32665   1 
   1   4   1 5.97600 0.51577   2 
   1   4   1 6.50986 0.60125   2 
   1   4   1 4.77840 0.30984   1 
  -2  -4  -1 6.78588 0.71948   2 
  -2  -4  -1 5.96983 0.62495   2 
  -2  -4  -1 6.32795 0.36268   1 
   2   4   1 5.73272 0.32861   1 
   2   4   1 5.27266 0.56197   2 
   2   4   1 5.61826 0.55040   2 
  -3  -4  -1 0.74939 0.20362   1 
  -3  -4  -1 0.62787 0.38553   2 
  -3  -4  -1 0.36212 0.47016   2 
   3   4   1 1.20631 0.48873   2 
   3   4   1 0.34004 0.28902   2 
   3   4   1 0.97104 0.17692   1 
  -4  -4  -1 68.6910 2.24051   2 
  -4  -4  -1 67.9045 2.07994   2 
  -4  -4  -1 65.9030 1.55228   1 
   4   4   1 68.6504 2.29085   2 
   4   4   1 67.5822 1.82309   2 
   4   4   1 67.1062 1.59887   1 
  -5  -4  -1 57.3158 2.37062   2 
  -5  -4  -1 61.3149 1.47308   1 
   5   4   1 59.5451 2.48102   2 
   5   4   1 65.2479 1.88110   2 
  -6  -4  -1 1.36176 0.35834   1 
  -6  -4  -1 0.61353 0.96858   2 
   6   4   1 3.13288 0.83323   2 
   6   4   1 -0.2435 1.16422   2 
   7  -5  -1 10.7492 1.19138   1 
   7  -5  -1 10.5554 1.23807   2 
   7  -5  -1 10.6140 1.35819   2 
  -7   5   1 8.91419 1.23825   2 
  -7   5   1 10.3697 1.24619   2 
  -7   5   1 10.2906 0.90690   1 
   6  -5  -1 14.3037 1.26922   2 
   6  -5  -1 15.6712 1.19369   1 
   6  -5  -1 11.5486 1.91311   2 
  -6   5   1 14.8513 1.04632   2 
  -6   5   1 15.0003 1.03828   2 
  -6   5   1 14.0413 0.81515   1 
   5  -5  -1 33.3755 1.31032   1 
   5  -5  -1 33.5418 1.45259   2 
   5  -5  -1 34.2211 1.42722   2 
  -5   5   1 33.6547 1.27013   2 
  -5   5   1 35.3596 1.12133   1 
  -5   5   1 35.4388 1.26994   2 
   4  -5  -1 -0.0899 0.27364   1 
   4  -5  -1 -0.3914 0.38540   2 
   4  -5  -1 0.02095 0.32386   2 
  -4   5   1 -0.1684 0.32271   2 
  -4   5   1 -0.2718 0.20137   1 
  -4   5   1 0.08738 0.29863   2 
   3  -5  -1 42.1388 1.20654   1 
   3  -5  -1 42.9950 1.20740   2 
   3  -5  -1 41.1566 1.39691   2 
  -3   5   1 43.8725 1.31057   2 
  -3   5   1 41.7180 1.16755   1 
  -3   5   1 42.0815 1.30597   2 
   2  -5  -1 209.638 4.19381   2 
   2  -5  -1 207.025 4.18368   1 
   2  -5  -1 197.580 4.40294   2 
  -2   5   1 204.678 4.33170   2 
  -2   5   1 202.641 4.17351   1 
  -2   5   1 207.877 4.32366   2 
   1  -5  -1 243.349 5.24379   2 
   1  -5  -1 253.659 4.98724   1 
   1  -5  -1 246.971 5.03658   2 
  -1   5   1 256.770 5.19223   2 
  -1   5   1 252.634 4.99779   1 
  -1   5   1 244.673 5.15655   2 
   0  -5  -1 31.0453 0.90709   1 
   0  -5  -1 31.1732 1.05219   2 
   0   5   1 30.5268 0.89658   1 
   0   5   1 30.4996 1.08556   2 
   0   5   1 30.7555 1.13823   2 
  -1  -5  -1 8.29075 0.69977   2 
  -1  -5  -1 7.59179 0.46011   1 
  -1  -5  -1 8.50040 0.79678   2 
   1   5   1 8.61854 0.68195   2 
   1   5   1 7.42582 0.77995   2 
   1   5   1 7.78524 0.44302   1 
  -2  -5  -1 13.1001 0.57327   1 
  -2  -5  -1 12.0059 0.86819   2 
  -2  -5  -1 14.5696 1.06635   2 
   2   5   1 12.3477 0.54321   1 
   2   5   1 13.9137 0.81407   2 
   2   5   1 13.5403 1.04172   2 
  -3  -5  -1 0.83087 0.25968   1 
  -3  -5  -1 0.71917 0.51525   2 
  -3  -5  -1 -0.1655 0.54157   2 
   3   5   1 0.56663 0.58917   2 
   3   5   1 0.40697 0.21415   1 
   3   5   1 0.27570 0.41006   2 
  -4  -5  -1 6.69877 0.90001   2 
  -4  -5  -1 5.53927 0.93656   2 
  -4  -5  -1 6.43347 0.55496   1 
   4   5   1 6.04408 0.65881   2 
   4   5   1 5.58982 0.52721   1 
   4   5   1 5.40551 0.99147   2 
  -5  -5  -1 15.2929 1.89072   2 
  -5  -5  -1 15.2581 0.78587   1 
  -5  -5  -1 15.3327 1.76787   2 
   5   5   1 15.5408 1.35590   2 
   5   5   1 17.5702 2.03732   2 
   6  -6  -1 -0.1290 0.83732   2 
   6  -6  -1 1.71325 0.68108   1 
   6  -6  -1 2.54097 0.88385   2 
  -6   6   1 0.82942 0.68248   2 
  -6   6   1 1.13968 0.43077   1 
  -6   6   1 0.81840 0.58686   2 
   5  -6  -1 20.3896 1.22499   2 
   5  -6  -1 18.9395 1.09765   1 
   5  -6  -1 20.9076 1.34761   2 
  -5   6   1 19.4967 1.07681   2 
  -5   6   1 19.6856 0.91673   1 
  -5   6   1 19.2271 1.15771   2 
   4  -6  -1 2.36712 0.45853   2 
   4  -6  -1 2.49966 0.58696   2 
   4  -6  -1 1.87597 0.54482   1 
  -4   6   1 2.26542 0.46377   1 
  -4   6   1 2.21100 0.49940   2 
  -4   6   1 2.73322 0.46119   2 
   3  -6  -1 17.5289 1.08228   2 
   3  -6  -1 16.3686 0.76391   1 
   3  -6  -1 17.0590 0.80920   2 
  -3   6   1 16.0870 0.92269   2 
  -3   6   1 17.4453 0.73951   1 
  -3   6   1 18.2576 0.96528   2 
   2  -6  -1 106.845 2.80584   2 
   2  -6  -1 110.426 2.52133   2 
   2  -6  -1 110.668 2.50235   1 
  -2   6   1 111.856 2.67610   2 
  -2   6   1 110.762 2.50285   1 
  -2   6   1 110.204 2.71109   2 
   1  -6  -1 -0.0985 0.30355   2 
   1  -6  -1 0.51442 0.25832   1 
   1  -6  -1 0.47890 0.46288   2 
  -1   6   1 0.47567 0.34669   2 
  -1   6   1 0.38936 0.18484   1 
  -1   6   1 0.09221 0.39159   2 
   0  -6  -1 3.09939 0.51512   2 
   0  -6  -1 2.65530 0.56548   2 
   0  -6  -1 2.36811 0.34241   1 
   0   6   1 2.45159 0.45987   2 
   0   6   1 3.23886 0.58551   2 
   0   6   1 2.24989 0.28661   1 
  -1  -6  -1 12.0389 0.88230   2 
  -1  -6  -1 12.3714 0.61035   1 
  -1  -6  -1 12.0100 1.04812   2 
   1   6   1 11.6141 0.59168   1 
   1   6   1 12.8891 1.08670   2 
   1   6   1 11.1642 0.90456   2 
  -2  -6  -1 0.97988 0.30187   1 
  -2  -6  -1 0.96996 0.61757   2 
  -2  -6  -1 0.32335 0.56222   2 
   2   6   1 1.04159 0.62009   2 
   2   6   1 0.49096 0.48267   2 
   2   6   1 1.37969 0.27682   1 
  -3  -6  -1 0.86467 0.34755   1 
  -3  -6  -1 1.09899 0.72154   2 
  -3  -6  -1 0.19433 0.75997   2 
   3   6   1 0.86094 0.29348   1 
   3   6   1 -0.1674 0.74738   2 
   3   6   1 0.25839 0.47828   2 
  -4  -6  -1 9.52930 1.20577   2 
  -4  -6  -1 9.94074 0.75597   1 
  -4  -6  -1 8.49736 1.13448   2 
   4   6   1 8.97612 0.73564   1 
   4   6   1 10.3218 1.37418   2 
   4   6   1 11.6191 1.24783   2 
  -5  -6  -1 8.14093 1.40236   2 
  -5  -6  -1 6.29278 0.62697   1 
  -5  -6  -1 5.55030 1.23269   2 
   5   6   1 7.72215 1.24635   2 
   5   6   1 7.43690 1.53902   2 
   6  -7  -1 3.08068 0.98086   2 
   6  -7  -1 4.15392 0.88266   1 
   6  -7  -1 3.42804 0.98858   2 
  -6   7   1 2.88496 0.86107   2 
  -6   7   1 3.32308 0.59810   1 
  -6   7   1 2.36701 1.09331   2 
   5  -7  -1 18.8339 1.17257   1 
   5  -7  -1 20.9898 1.59943   2 
   5  -7  -1 17.4814 1.32424   2 
  -5   7   1 18.1993 1.23975   2 
  -5   7   1 19.8231 1.39872   2 
  -5   7   1 17.2576 0.92818   1 
   4  -7  -1 -0.2452 0.66693   2 
   4  -7  -1 0.19974 0.48052   2 
   4  -7  -1 -1.0051 0.40201   1 
  -4   7   1 1.41365 0.56636   2 
  -4   7   1 -0.2722 0.29725   1 
  -4   7   1 -0.2606 0.45244   2 
   3  -7  -1 -0.2872 0.30846   1 
   3  -7  -1 0.00780 0.55512   2 
   3  -7  -1 -0.2996 0.40236   2 
  -3   7   1 0.30322 0.47419   2 
  -3   7   1 -0.0694 0.25861   1 
  -3   7   1 -0.1048 0.43860   2 
   2  -7  -1 0.39240 0.34211   1 
   2  -7  -1 -0.0232 0.57739   2 
   2  -7  -1 -0.1930 0.38555   2 
  -2   7   1 -0.0563 0.43849   2 
  -2   7   1 0.19247 0.45324   2 
  -2   7   1 0.12082 0.24607   1 
   1  -7  -1 41.9282 1.75525   2 
   1  -7  -1 41.3445 1.40177   2 
  -1   7   1 41.4868 1.54426   2 
  -1   7   1 42.7098 1.60780   2 
   0  -7  -1 99.6446 2.57500   2 
   0  -7  -1 100.086 2.36613   1 
   0  -7  -1 97.7871 2.83793   2 
   0   7   1 98.8799 2.73455   2 
   0   7   1 97.5785 2.64713   2 
  -1  -7  -1 0.36755 0.57938   2 
  -1  -7  -1 0.10349 0.56101   2 
  -1  -7  -1 -0.3552 0.33200   1 
   1   7   1 -0.0817 0.53294   2 
   1   7   1 0.33038 0.58527   2 
   1   7   1 -0.2576 0.29871   1 
  -2  -7  -1 3.11870 0.44493   1 
  -2  -7  -1 2.44707 0.85278   2 
  -2  -7  -1 3.26204 0.78920   2 
   2   7   1 3.10224 0.87480   2 
   2   7   1 2.72102 0.41059   1 
   2   7   1 2.18193 0.67523   2 
  -3  -7  -1 17.3129 1.88409   2 
  -3  -7  -1 13.7579 1.62884   2 
   3   7   1 15.6585 1.43339   2 
   3   7   1 17.7776 1.89238   2 
   3   7   1 16.7294 1.33234   1 
  -4  -7  -1 1.65391 1.25491   2 
  -4  -7  -1 0.10280 1.13231   2 
  -4  -7  -1 1.94835 0.53539   1 
   4   7   1 1.08999 0.48817   1 
   4   7   1 0.62877 1.36893   2 
   4   7   1 2.22505 1.59047   2 
   5  -8  -1 3.57462 0.86706   2 
   5  -8  -1 2.91758 1.04196   2 
   5  -8  -1 0.83694 0.64532   1 
  -5   8   1 2.72305 0.77640   2 
  -5   8   1 2.26482 0.53533   1 
  -5   8   1 2.71064 0.95081   2 
   4  -8  -1 4.14733 0.72317   2 
   4  -8  -1 3.06917 0.92879   2 
   4  -8  -1 4.04405 0.68502   1 
  -4   8   1 2.93947 0.49912   1 
  -4   8   1 2.67665 0.69571   2 
  -4   8   1 3.14014 0.82561   2 
   3  -8  -1 18.8181 1.65311   2 
   3  -8  -1 19.4355 1.15704   2 
   3  -8  -1 16.7434 0.97799   1 
  -3   8   1 19.6540 1.31566   2 
  -3   8   1 18.7148 0.92102   1 
  -3   8   1 20.2600 1.42418   2 
   2  -8  -1 17.0293 0.92168   1 
   2  -8  -1 16.8305 1.55613   2 
   2  -8  -1 16.9299 1.16296   2 
  -2   8   1 18.5466 1.35104   2 
  -2   8   1 17.6811 0.87603   1 
  -2   8   1 18.7380 1.37717   2 
   1  -8  -1 36.9274 1.95898   2 
   1  -8  -1 39.2096 1.56694   2 
   1  -8  -1 38.8485 1.35772   1 
  -1   8   1 38.1621 1.71357   2 
  -1   8   1 38.3120 1.72641   2 
  -1   8   1 39.0810 1.27634   1 
   0  -8  -1 1.21319 0.81070   2 
   0  -8  -1 1.92716 0.47957   1 
   0  -8  -1 2.92504 1.21723   2 
   0   8   1 1.21616 0.39659   1 
   0   8   1 2.63478 0.70044   2 
   0   8   1 2.20773 0.77830   2 
  -1  -8  -1 8.09800 0.89503   2 
  -1  -8  -1 7.28642 0.76873   1 
  -1  -8  -1 8.16697 1.02953   2 
   1   8   1 6.70909 0.75412   1 
   1   8   1 6.49681 0.89874   2 
   1   8   1 5.78226 0.97478   2 
  -2  -8  -1 0.74222 0.98083   2 
  -2  -8  -1 -0.7988 0.43071   1 
  -2  -8  -1 -0.0341 0.80237   2 
   2   8   1 -1.1617 0.90089   2 
   2   8   1 -0.5712 0.40198   1 
   2   8   1 -0.4029 0.82203   2 
  -3  -8  -1 0.63255 1.06081   2 
  -3  -8  -1 0.80932 0.55378   1 
  -3  -8  -1 0.59181 1.22164   2 
   3   8   1 0.62989 1.11494   2 
   3   8   1 1.60253 0.52912   1 
   3   8   1 1.08459 1.44393   2 
   4  -9  -1 2.00521 0.68956   1 
   4  -9  -1 0.19960 1.21394   2 
   4  -9  -1 1.63721 0.75052   2 
  -4   9   1 1.52179 0.48474   1 
  -4   9   1 0.47837 1.94767   2 
  -4   9   1 1.48101 0.94925   2 
   3  -9  -1 20.5519 1.20268   1 
   3  -9  -1 22.9319 1.44523   2 
   3  -9  -1 25.7726 2.07930   2 
  -3   9   1 24.5216 1.90937   2 
  -3   9   1 23.5148 1.65819   2 
   2  -9  -1 2.91962 1.04856   2 
   2  -9  -1 2.96884 0.54882   1 
   2  -9  -1 2.21870 0.70052   2 
  -2   9   1 2.92649 0.86388   2 
  -2   9   1 1.42043 0.36875   1 
  -2   9   1 3.63348 0.88544   2 
   1  -9  -1 4.04140 0.59102   1 
   1  -9  -1 5.21411 1.08741   2 
   1  -9  -1 5.46165 0.88295   2 
  -1   9   1 4.69018 0.57280   1 
  -1   9   1 5.52541 0.94715   2 
  -1   9   1 5.24443 0.93558   2 
   0  -9  -1 4.17129 1.12124   2 
   0  -9  -1 2.98721 0.78888   2 
   0  -9  -1 2.65095 0.61404   1 
   0   9   1 3.62753 1.06773   2 
   0   9   1 4.21830 0.62883   1 
   0   9   1 3.09631 0.97063   2 
  -1  -9  -1 6.59712 0.74713   1 
  -1  -9  -1 6.36309 1.35102   2 
  -1  -9  -1 4.87055 1.02546   2 
   1   9   1 5.64424 1.80973   2 
   1   9   1 6.95353 1.38303   2 
   1   9   1 9.20860 0.95658   1 
   1   9  -2 17.0010 1.78038   2 
   1   9  -2 18.7857 2.07222   2 
   1   9  -2 18.2470 1.11234   1 
  -1  -9   2 18.4912 2.03446   2 
  -1  -9   2 22.0514 2.38084   2 
  -1  -9   2 15.5292 1.22610   1 
   0   9  -2 0.64368 0.39822   1 
   0   9  -2 1.69325 1.00504   2 
   0   9  -2 1.45512 0.80865   2 
   0  -9   2 0.74570 0.51430   1 
   0  -9   2 0.49201 0.77082   2 
   0  -9   2 0.24126 1.09299   2 
  -1   9  -2 16.5214 1.58503   2 
  -1   9  -2 13.6781 0.96170   1 
  -1   9  -2 13.4590 1.60986   2 
   1  -9   2 15.5527 1.44114   2 
   1  -9   2 12.9510 1.51639   2 
   1  -9   2 12.2473 1.03447   1 
  -2   9  -2 9.24086 0.93085   1 
  -2   9  -2 10.1610 1.22655   2 
  -2   9  -2 12.3989 1.42014   2 
   2  -9   2 8.53858 1.33770   2 
   2  -9   2 8.48292 0.96105   1 
   2  -9   2 10.7243 1.04240   2 
  -3   9  -2 10.4212 0.91512   1 
  -3   9  -2 9.03700 1.04047   2 
  -3   9  -2 10.9722 1.27399   2 
   3  -9   2 10.3580 1.40611   2 
   3  -9   2 13.4441 1.39745   2 
   3  -9   2 9.25385 1.02263   1 
  -4   9  -2 11.2117 1.20418   2 
  -4   9  -2 13.2902 1.44230   2 
  -4   9  -2 10.6139 1.01221   1 
   4  -9   2 10.4392 1.46492   2 
   4  -9   2 10.5546 1.13840   1 
   4  -9   2 15.3793 2.14130   2 
   3   8  -2 13.5766 1.06627   1 
   3   8  -2 15.0727 1.71928   2 
   3   8  -2 14.3260 1.70474   2 
  -3  -8   2 11.5665 2.51995   2 
  -3  -8   2 16.2797 1.80552   2 
  -3  -8   2 15.2279 1.19124   1 
   2   8  -2 8.51663 1.21158   2 
   2   8  -2 9.54064 1.02153   2 
   2   8  -2 11.9447 0.88713   1 
  -2  -8   2 8.13800 1.12408   2 
  -2  -8   2 11.1013 1.36250   2 
  -2  -8   2 9.86926 0.98317   1 
   1   8  -2 0.29625 0.35924   1 
   1   8  -2 0.23911 1.56111   2 
   1   8  -2 1.07652 0.67419   2 
  -1  -8   2 -0.4090 0.92928   2 
  -1  -8   2 0.72222 0.75000   2 
  -1  -8   2 0.25119 0.47293   1 
   0   8  -2 6.48869 0.66784   1 
   0   8  -2 5.63895 0.77331   2 
   0   8  -2 6.96367 0.98067   2 
   0  -8   2 6.57197 0.83792   2 
   0  -8   2 7.06136 1.03964   2 
   0  -8   2 6.81151 0.64243   1 
  -1   8  -2 1.18544 0.70687   2 
  -1   8  -2 1.02760 0.33435   1 
  -1   8  -2 0.89420 0.65338   2 
   1  -8   2 1.90489 0.44375   1 
   1  -8   2 1.21610 0.67802   2 
   1  -8   2 1.39738 0.86858   2 
  -2   8  -2 55.5930 2.05138   2 
  -2   8  -2 55.0918 1.92173   2 
  -2   8  -2 54.4119 1.61932   1 
   2  -8   2 53.0740 1.84616   2 
   2  -8   2 56.7679 2.28876   2 
   2  -8   2 52.7884 1.62209   1 
  -3   8  -2 288.175 6.56642   2 
  -3   8  -2 299.512 6.57970   2 
  -3   8  -2 302.986 6.22392   1 
   3  -8   2 302.206 6.21731   1 
   3  -8   2 300.927 6.26351   2 
   3  -8   2 303.294 6.80271   2 
  -4   8  -2 45.9219 1.74030   2 
  -4   8  -2 45.6364 2.01745   2 
  -4   8  -2 45.1088 1.48361   1 
   4  -8   2 45.0842 2.18213   2 
   4  -8   2 45.4841 1.72952   2 
   4  -8   2 42.9402 1.54720   1 
  -5   8  -2 6.14053 0.87567   2 
  -5   8  -2 6.09282 0.76819   1 
  -5   8  -2 6.33321 1.10429   2 
   5  -8   2 8.14056 1.28901   2 
   5  -8   2 6.35370 0.78833   1 
   5  -8   2 7.84633 0.91535   2 
   4   7  -2 1.27609 0.55731   1 
   4   7  -2 0.79029 0.86569   2 
   4   7  -2 4.16650 1.37749   2 
  -4  -7   2 1.49583 1.42176   2 
  -4  -7   2 -0.3560 1.25535   2 
  -4  -7   2 2.15564 0.59288   1 
   3   7  -2 0.31780 0.71101   2 
   3   7  -2 0.35240 0.37287   1 
   3   7  -2 -0.8142 0.93681   2 
  -3  -7   2 0.45490 0.42983   1 
  -3  -7   2 1.82747 1.05702   2 
  -3  -7   2 0.66896 0.84431   2 
   2   7  -2 15.5624 1.19947   2 
   2   7  -2 16.2674 0.83405   1 
   2   7  -2 19.8000 1.63038   2 
  -2  -7   2 17.0128 0.93118   1 
  -2  -7   2 16.4342 1.68136   2 
  -2  -7   2 13.0242 1.41967   2 
   1   7  -2 18.9084 1.34455   2 
   1   7  -2 18.1238 0.81163   1 
   1   7  -2 18.2201 1.17252   2 
  -1  -7   2 19.4434 1.27429   2 
  -1  -7   2 19.0149 0.87080   1 
  -1  -7   2 19.3262 1.45234   2 
   0   7  -2 4.25152 0.69467   2 
   0   7  -2 4.91161 0.52450   1 
   0   7  -2 4.03012 0.64478   2 
   0  -7   2 3.23390 0.63947   2 
   0  -7   2 3.72034 0.46862   1 
   0  -7   2 5.13839 0.89250   2 
  -1   7  -2 13.5732 0.75228   1 
  -1   7  -2 13.3476 1.05932   2 
  -1   7  -2 15.7026 1.06034   2 
   1  -7   2 13.8814 0.78640   1 
   1  -7   2 14.3400 1.26131   2 
   1  -7   2 13.8512 0.98376   2 
  -2   7  -2 1.17227 0.53686   2 
  -2   7  -2 1.55960 0.49053   2 
  -2   7  -2 1.75142 0.36520   1 
   2  -7   2 1.50753 0.49212   2 
   2  -7   2 1.33562 0.33487   1 
   2  -7   2 1.04342 0.64882   2 
  -3   7  -2 198.512 4.43482   2 
  -3   7  -2 200.093 4.57855   2 
  -3   7  -2 201.567 4.27474   1 
   3  -7   2 198.980 4.70552   2 
   3  -7   2 201.508 4.26624   1 
   3  -7   2 198.116 4.29484   2 
  -4   7  -2 120.227 3.02331   2 
  -4   7  -2 124.381 3.14706   2 
  -4   7  -2 120.533 2.81694   1 
   4  -7   2 120.262 2.83431   1 
   4  -7   2 114.368 3.27282   2 
   4  -7   2 122.695 2.91901   2 
  -5   7  -2 11.6351 0.82492   1 
  -5   7  -2 10.7833 1.25951   2 
  -5   7  -2 12.9023 1.14738   2 
   5  -7   2 14.8064 1.26152   2 
   5  -7   2 10.9481 0.96174   1 
   5  -7   2 9.55912 1.12082   2 
  -6   7  -2 8.47183 0.90943   2 
  -6   7  -2 9.23557 0.91653   1 
  -6   7  -2 10.3505 1.10770   2 
   6  -7   2 10.5181 1.20803   2 
   6  -7   2 8.70435 0.89126   1 
   5   6  -2 2.06761 0.82835   2 
   5   6  -2 -0.0402 1.24163   2 
  -5  -6   2 0.30969 1.33656   2 
  -5  -6   2 1.69570 2.57595   2 
  -5  -6   2 1.48827 0.56660   1 
   4   6  -2 0.39825 0.67271   2 
   4   6  -2 1.01244 1.16166   2 
   4   6  -2 0.87073 0.43183   1 
  -4  -6   2 0.74450 0.85668   2 
  -4  -6   2 0.80941 0.43697   1 
  -4  -6   2 0.17713 0.99560   2 
   3   6  -2 377.147 7.86307   2 
   3   6  -2 393.679 8.28825   2 
   3   6  -2 385.288 7.65391   1 
  -3  -6   2 386.419 8.28260   2 
  -3  -6   2 382.245 7.65549   1 
  -3  -6   2 390.162 8.09516   2 
   2   6  -2 233.269 4.67963   1 
   2   6  -2 223.010 4.90251   2 
   2   6  -2 225.395 5.14469   2 
  -2  -6   2 231.606 5.23576   2 
  -2  -6   2 225.994 5.03295   2 
  -2  -6   2 222.749 4.68197   1 
   1   6  -2 6.97073 0.74307   2 
   1   6  -2 7.73296 0.52180   1 
   1   6  -2 7.44395 0.80005   2 
  -1  -6   2 7.35995 0.79880   2 
  -1  -6   2 7.97654 0.87233   2 
  -1  -6   2 8.16701 0.57063   1 
   0   6  -2 11.3241 0.57745   1 
   0   6  -2 11.1549 0.83760   2 
   0   6  -2 10.0647 0.89259   2 
   0  -6   2 11.7659 0.60672   1 
   0  -6   2 11.1830 0.83991   2 
   0  -6   2 10.0652 1.00785   2 
  -1   6  -2 52.4815 1.39376   1 
  -1   6  -2 52.0558 1.60578   2 
  -1   6  -2 51.3610 1.59805   2 
   1  -6   2 53.3737 1.74123   2 
   1  -6   2 52.5935 1.53492   2 
   1  -6   2 51.5064 1.40164   1 
  -2   6  -2 0.41028 0.21837   1 
  -2   6  -2 1.05916 0.40608   2 
  -2   6  -2 0.22270 0.37745   2 
   2  -6   2 0.67185 0.31643   2 
   2  -6   2 0.13955 0.40563   2 
   2  -6   2 0.54969 0.25697   1 
  -3   6  -2 2.61120 0.50554   2 
  -3   6  -2 2.12532 0.33589   1 
  -3   6  -2 2.43493 0.43851   2 
   3  -6   2 1.92264 0.34716   1 
   3  -6   2 1.53060 0.50857   2 
   3  -6   2 2.66992 0.43070   2 
  -4   6  -2 475.591 9.30872   1 
  -4   6  -2 478.897 9.44632   2 
  -4   6  -2 471.997 9.53402   2 
   4  -6   2 467.294 9.68096   2 
   4  -6   2 478.079 9.30163   1 
   4  -6   2 481.312 9.39709   2 
  -5   6  -2 4.75060 0.72982   2 
  -5   6  -2 4.69355 1.02974   2 
  -5   6  -2 4.91892 0.55056   1 
   5  -6   2 4.36944 0.67138   2 
   5  -6   2 3.91834 0.71562   2 
   5  -6   2 4.87724 0.61945   1 
  -6   6  -2 10.2402 0.97713   2 
  -6   6  -2 10.1268 0.76382   1 
  -6   6  -2 11.0983 1.13067   2 
   6  -6   2 9.13507 1.03451   2 
   6  -6   2 9.93502 1.11070   2 
   6  -6   2 9.65812 1.07901   1 
   5   5  -2 -0.1427 0.94201   2 
   5   5  -2 0.89278 0.63660   2 
  -5  -5   2 -0.8530 1.04333   2 
  -5  -5   2 0.42185 0.92152   2 
  -5  -5   2 0.51986 0.42147   1 
   4   5  -2 -0.7531 0.80661   2 
   4   5  -2 1.50608 0.52759   2 
   4   5  -2 1.41568 0.38153   1 
  -4  -5   2 -1.1124 0.87288   2 
  -4  -5   2 0.00859 0.65864   2 
  -4  -5   2 0.93946 0.31784   1 
   3   5  -2 -0.2165 0.21752   1 
   3   5  -2 -0.4500 0.57589   2 
   3   5  -2 0.16146 0.39991   2 
  -3  -5   2 -0.2390 0.54841   2 
  -3  -5   2 -0.6063 0.57614   2 
  -3  -5   2 0.02049 0.24259   1 
   2   5  -2 6.80708 0.69843   2 
   2   5  -2 6.23668 0.44453   1 
   2   5  -2 8.18640 0.94286   2 
  -2  -5   2 7.88212 0.94648   2 
  -2  -5   2 6.91607 0.49588   1 
  -2  -5   2 7.27038 0.79553   2 
   1   5  -2 29.3950 1.08347   2 
   1   5  -2 31.2336 0.91174   1 
   1   5  -2 32.9866 1.23912   2 
  -1  -5   2 30.2525 0.92452   1 
  -1  -5   2 30.4318 1.26505   2 
  -1  -5   2 30.2208 1.16310   2 
   0   5  -2 0.28149 0.32659   2 
   0   5  -2 -0.1056 0.27249   2 
   0   5  -2 0.23817 0.16023   1 
   0  -5   2 -0.0485 0.35025   2 
   0  -5   2 0.12154 0.18544   1 
   0  -5   2 -0.0618 0.28296   2 
  -1   5  -2 29.0281 1.02971   2 
  -1   5  -2 27.8829 0.85308   1 
  -1   5  -2 29.0621 1.04298   2 
   1  -5   2 26.5581 1.09892   2 
   1  -5   2 28.2031 0.86821   1 
  -2   5  -2 -0.0824 0.23132   2 
  -2   5  -2 -0.1818 0.26154   2 
  -2   5  -2 -0.0947 0.14947   1 
   2  -5   2 0.50284 0.20853   1 
   2  -5   2 0.02145 0.27412   2 
   2  -5   2 0.31702 0.31651   2 
  -3   5  -2 99.0398 2.32558   2 
  -3   5  -2 96.8731 2.37709   2 
  -3   5  -2 98.1295 2.21312   1 
   3  -5   2 99.8546 2.25780   2 
   3  -5   2 95.1675 2.46594   2 
   3  -5   2 101.206 2.21971   1 
  -4   5  -2 0.74400 0.22669   1 
  -4   5  -2 0.67432 0.38131   2 
  -4   5  -2 0.78894 0.33025   2 
   4  -5   2 0.45783 0.43805   2 
   4  -5   2 0.16963 0.24515   1 
   4  -5   2 0.87082 0.36866   2 
  -5   5  -2 8.43284 0.56799   1 
  -5   5  -2 8.75305 0.83401   2 
  -5   5  -2 9.69422 0.78097   2 
   5  -5   2 10.4433 1.00321   2 
   5  -5   2 9.10835 0.68610   1 
   5  -5   2 8.39851 0.85843   2 
  -6   5  -2 -0.1753 0.28628   1 
  -6   5  -2 0.35324 0.52424   2 
  -6   5  -2 0.60160 0.46491   2 
   6  -5   2 -0.3785 0.51681   1 
   6  -5   2 0.71756 0.69616   2 
   6  -5   2 -0.6006 0.71842   2 
  -7   5  -2 7.81692 0.94068   2 
  -7   5  -2 9.61567 0.94989   2 
  -7   5  -2 8.58867 0.76422   1 
   7  -5   2 8.16050 1.06354   1 
   7  -5   2 7.05082 1.32928   2 
   7  -5   2 10.2390 1.21604   2 
   6   4  -2 0.67627 1.26378   2 
   6   4  -2 1.73126 0.69230   2 
  -6  -4   2 2.02991 1.15651   2 
  -6  -4   2 1.52211 1.24624   2 
  -6  -4   2 1.16595 0.42382   1 
   5   4  -2 2.16349 0.96318   2 
   5   4  -2 1.78865 0.54239   2 
  -5  -4   2 1.70535 0.94465   2 
  -5  -4   2 2.15856 0.78041   2 
  -5  -4   2 2.07835 0.36170   1 
   4   4  -2 6.55395 0.72956   2 
   4   4  -2 7.09028 0.90189   2 
  -4  -4   2 6.92289 0.77941   2 
  -4  -4   2 5.61751 0.81561   2 
  -4  -4   2 6.47967 0.48107   1 
   3   4  -2 26.0551 1.27139   2 
   3   4  -2 25.7284 0.95909   2 
   3   4  -2 25.1644 0.83540   1 
  -3  -4   2 25.9390 1.25346   2 
  -3  -4   2 25.3565 0.81278   1 
   2   4  -2 1337.85 24.9052   2 
   2   4  -2 1271.41 24.6521   2 
   2   4  -2 1325.85 24.5328   1 
  -2  -4   2 1337.35 24.7788   2 
  -2  -4   2 1302.26 24.5384   1 
  -2  -4   2 1284.51 24.8754   2 
   1   4  -2 417.469 8.32946   2 
   1   4  -2 430.739 8.18230   1 
   1   4  -2 430.894 8.44002   2 
  -1  -4   2 427.658 8.20236   1 
  -1  -4   2 429.774 8.37300   2 
  -1  -4   2 421.121 8.47870   2 
   0   4  -2 82.6869 1.83836   1 
   0   4  -2 86.3772 1.99962   2 
   0   4  -2 84.4909 2.01660   2 
   0  -4   2 82.7528 2.06772   2 
   0  -4   2 84.7356 1.85876   1 
  -1   4  -2 0.50696 0.12137   1 
  -1   4  -2 0.45993 0.23946   2 
  -1   4  -2 0.37873 0.24032   2 
   1  -4   2 0.40381 0.25849   2 
   1  -4   2 0.49393 0.20953   2 
   1  -4   2 0.70556 0.16793   1 
  -2   4  -2 1.19355 0.27333   2 
  -2   4  -2 0.94189 0.24826   2 
  -2   4  -2 0.94252 0.18050   1 
   2  -4   2 0.96719 0.17956   1 
   2  -4   2 0.73748 0.26226   2 
   2  -4   2 1.16786 0.25287   2 
  -3   4  -2 1.33533 0.27292   2 
  -3   4  -2 1.67823 0.27021   2 
  -3   4  -2 1.68889 0.21493   1 
   3  -4   2 1.53610 0.24408   1 
   3  -4   2 2.15349 0.30474   2 
   3  -4   2 1.84259 0.32283   2 
  -4   4  -2 9.26090 0.46685   1 
  -4   4  -2 10.0008 0.61869   2 
  -4   4  -2 9.78530 0.64877   2 
   4  -4   2 9.12403 0.67470   2 
   4  -4   2 10.0798 0.70947   2 
   4  -4   2 9.24727 0.51278   1 
  -5   4  -2 144.325 3.07734   1 
  -5   4  -2 143.106 3.23358   2 
  -5   4  -2 150.455 3.27065   2 
   5  -4   2 144.455 3.44239   2 
   5  -4   2 145.767 3.40382   2 
   5  -4   2 147.076 3.16813   1 
  -6   4  -2 26.5002 0.90331   1 
  -6   4  -2 26.0622 1.22480   2 
  -6   4  -2 27.0338 1.23929   2 
   6  -4   2 26.9376 1.18667   1 
   6  -4   2 26.8950 1.61571   2 
   6  -4   2 26.3781 1.34656   2 
  -7   4  -2 22.3700 1.30777   2 
  -7   4  -2 20.2949 0.88249   1 
  -7   4  -2 20.8088 1.37009   2 
   7  -4   2 24.5665 2.02883   2 
   7  -4   2 20.3445 1.43344   1 
   6   3  -2 0.60991 0.63832   2 
   6   3  -2 -0.2333 0.93782   2 
  -6  -3   2 0.30229 0.32297   1 
  -6  -3   2 -0.7992 0.81488   2 
   5   3  -2 39.0180 1.33069   2 
   5   3  -2 36.9180 1.86134   2 
  -5  -3   2 38.3555 1.60793   2 
  -5  -3   2 35.3950 1.79882   2 
  -5  -3   2 38.0175 1.07553   1 
   4   3  -2 -0.1810 0.49234   2 
   4   3  -2 -0.1717 0.28062   2 
  -4  -3   2 -0.2807 0.46400   2 
  -4  -3   2 0.16615 0.16801   1 
  -4  -3   2 -0.2220 0.39145   2 
   3   3  -2 148.387 3.13028   1 
   3   3  -2 150.763 3.46252   2 
   3   3  -2 144.390 3.15338   2 
  -3  -3   2 148.656 3.45310   2 
  -3  -3   2 149.146 3.05189   1 
  -3  -3   2 153.729 3.31949   2 
   2   3  -2 8.33417 0.48305   2 
   2   3  -2 7.65649 0.36403   1 
   2   3  -2 8.08840 0.64461   2 
  -2  -3   2 7.61615 0.35690   1 
  -2  -3   2 8.43758 0.57321   2 
  -2  -3   2 8.41451 0.66984   2 
   1   3  -2 46.2329 1.20566   2 
   1   3  -2 48.7141 1.11670   1 
   1   3  -2 49.4886 1.31174   2 
  -1  -3   2 47.4083 1.32215   2 
  -1  -3   2 47.0093 1.11339   1 
  -1  -3   2 48.5861 1.25375   2 
   0   3  -2 82.4586 1.71947   1 
   0   3  -2 80.6692 1.81778   2 
   0   3  -2 80.8028 1.83573   2 
   0  -3   2 79.3028 1.87454   2 
   0  -3   2 80.5652 1.72044   1 
  -1   3  -2 0.10850 0.14527   2 
  -1   3  -2 -0.1042 0.13933   2 
  -1   3  -2 0.05365 0.08716   1 
   1  -3   2 0.12236 0.15634   2 
   1  -3   2 0.06647 0.13960   2 
   1  -3   2 0.25701 0.11190   1 
  -2   3  -2 246.402 4.77245   1 
  -2   3  -2 240.069 4.83935   2 
  -2   3  -2 248.081 4.84584   2 
   2  -3   2 245.405 4.90813   2 
   2  -3   2 244.917 4.79113   2 
   2  -3   2 245.953 4.76579   1 
  -3   3  -2 11.0181 0.50474   2 
  -3   3  -2 10.4659 0.50661   2 
  -3   3  -2 10.3263 0.41622   1 
   3  -3   2 11.7673 0.52392   2 
   3  -3   2 10.6417 0.42422   1 
   3  -3   2 10.7983 0.57662   2 
  -4   3  -2 0.19642 0.13763   1 
  -4   3  -2 0.45006 0.24814   2 
  -4   3  -2 0.11277 0.24166   2 
   4  -3   2 0.38211 0.32557   2 
   4  -3   2 -0.0267 0.17550   1 
   4  -3   2 0.44457 0.30361   2 
  -5   3  -2 122.702 2.55729   1 
  -5   3  -2 120.283 2.72432   2 
  -5   3  -2 124.903 2.76509   2 
   5  -3   2 120.559 2.66729   1 
   5  -3   2 119.205 2.98337   2 
   5  -3   2 120.634 2.84396   2 
  -6   3  -2 11.1565 0.85667   2 
  -6   3  -2 10.5613 0.53824   1 
  -6   3  -2 10.4356 0.88989   2 
   6  -3   2 12.2982 1.01657   2 
   6  -3   2 10.7410 1.30565   2 
   6  -3   2 9.70866 0.87688   1 
  -7   3  -2 1.36744 0.30737   1 
  -7   3  -2 1.81346 0.61450   2 
  -7   3  -2 0.89920 0.64012   2 
   7  -3   2 2.48810 0.74588   2 
   7  -3   2 0.65148 0.94414   2 
   7   2  -2 156.231 4.49652   2 
   7   2  -2 152.980 3.75890   2 
  -7  -2   2 147.064 3.60624   1 
  -7  -2   2 158.275 3.32844   1 
  -7  -2   2 160.758 4.62338   2 
  -7  -2   2 149.255 4.25235   2 
   6   2  -2 2.99091 0.59259   2 
   6   2  -2 3.47666 1.31944   2 
  -6  -2   2 3.07447 0.38071   1 
  -6  -2   2 3.93282 0.79545   2 
  -6  -2   2 1.78885 0.88581   2 
  -6  -2   2 1.22474 0.61226   1 
   5   2  -2 2.68412 0.66204   2 
   5   2  -2 3.79140 0.47592   2 
  -5  -2   2 2.32431 0.30497   1 
  -5  -2   2 3.00472 0.59201   2 
   4   2  -2 7.71480 0.89013   2 
   4   2  -2 8.81598 0.57703   2 
  -4  -2   2 8.05447 0.88818   2 
  -4  -2   2 8.88528 0.70552   2 
  -4  -2   2 7.95707 0.41498   1 
   3   2  -2 32.4349 1.15695   2 
   3   2  -2 32.0770 0.91043   2 
  -3  -2   2 31.9324 1.00287   2 
  -3  -2   2 31.2633 0.82890   1 
  -3  -2   2 32.5374 1.17244   2 
   2   2  -2 15.3524 0.54028   2 
   2   2  -2 15.4527 0.67918   2 
   2   2  -2 15.1908 0.50635   1 
  -2  -2   2 16.2856 0.60863   2 
  -2  -2   2 15.0297 0.47206   1 
  -2  -2   2 14.8379 0.67569   2 
   1   2  -2 117.209 2.42791   2 
   1   2  -2 119.692 2.52383   2 
  -1  -2   2 116.556 2.52423   2 
  -1  -2   2 119.544 2.38280   1 
  -1  -2   2 121.206 2.47372   2 
   0   2  -2 472.794 8.88293   2 
   0  -2   2 463.935 8.90906   2 
   0  -2   2 471.005 8.86842   2 
   0  -2   2 465.391 8.88038   1 
  -1   2  -2 13.3495 0.39321   1 
  -1   2  -2 13.3066 0.43129   2 
   1  -2   2 13.2456 0.45718   2 
   1  -2   2 13.3823 0.39419   1 
   1  -2   2 13.3598 0.42019   2 
  -2   2  -2 0.12205 0.08387   1 
  -2   2  -2 0.26707 0.11053   2 
  -2   2  -2 0.16073 0.10196   2 
   2  -2   2 0.30509 0.13373   2 
   2  -2   2 0.61488 0.13807   2 
   2  -2   2 0.16880 0.09668   1 
  -3   2  -2 185.490 3.65026   1 
  -3   2  -2 192.588 3.77609   2 
  -3   2  -2 185.703 3.74262   2 
   3  -2   2 185.117 3.83496   2 
   3  -2   2 193.067 3.66333   1 
   3  -2   2 184.928 3.80334   2 
  -4   2  -2 29.9767 0.92361   2 
  -4   2  -2 31.6484 0.93494   2 
  -4   2  -2 30.8040 0.77345   1 
   4  -2   2 30.7114 0.85006   1 
   4  -2   2 30.3912 1.10271   2 
   4  -2   2 31.4026 0.98093   2 
  -5   2  -2 1.49132 0.20371   1 
  -5   2  -2 1.02205 0.30372   2 
  -5   2  -2 1.20131 0.34254   2 
   5  -2   2 1.19171 0.49419   2 
   5  -2   2 1.55950 0.34180   2 
   5  -2   2 1.51082 0.34891   1 
  -6   2  -2 0.41601 0.21672   1 
  -6   2  -2 -0.1449 0.41331   2 
  -6   2  -2 0.21257 0.41271   2 
   6  -2   2 0.66298 0.41429   2 
   6  -2   2 -0.3600 0.71021   2 
  -7   2  -2 -1.5774 0.56917   2 
  -7   2  -2 -0.1176 0.25740   1 
  -7   2  -2 0.10807 0.54966   2 
   7  -2   2 -0.3564 0.92834   2 
   7  -2   2 -0.0418 0.65128   2 
   7   1  -2 31.3353 2.27938   2 
   7   1  -2 31.7541 1.50008   2 
  -7  -1   2 33.0319 1.08085   1 
  -7  -1   2 29.2655 1.90163   2 
  -7  -1   2 31.5418 2.06401   2 
  -7  -1   2 33.8623 1.43137   1 
   6   1  -2 0.02593 0.43984   2 
   6   1  -2 0.36374 0.72811   2 
  -6  -1   2 -0.7864 0.47071   1 
  -6  -1   2 -0.1978 0.53931   2 
  -6  -1   2 0.15305 0.25169   1 
  -6  -1   2 -0.4138 0.68861   2 
   5   1  -2 1.52188 0.36096   2 
   5   1  -2 2.37812 0.58778   2 
  -5  -1   2 1.76271 0.42266   2 
  -5  -1   2 1.96689 0.56498   2 
  -5  -1   2 0.71265 0.39123   1 
  -5  -1   2 2.00355 0.29505   1 
   4   1  -2 2.62567 0.33728   2 
   4   1  -2 2.48466 0.46489   2 
  -4  -1   2 2.62381 0.29573   1 
  -4  -1   2 2.50849 0.34469   2 
   3   1  -2 39.9874 1.20802   2 
   3   1  -2 39.0688 1.00787   2 
  -3  -1   2 40.0913 0.98550   1 
  -3  -1   2 39.0479 1.21591   2 
  -3  -1   2 39.2510 1.05138   2 
   2   1  -2 18.4589 0.53432   2 
   2   1  -2 18.3811 0.66877   2 
  -2  -1   2 18.2140 0.56339   2 
  -2  -1   2 19.1805 0.53999   1 
  -2  -1   2 19.4810 0.70653   2 
   1   1  -2 164.279 3.24853   2 
   1   1  -2 164.079 3.20504   1 
  -1  -1   2 160.241 3.24475   2 
  -1  -1   2 165.094 3.18305   2 
  -1  -1   2 164.971 3.18079   1 
   0   1  -2 183.427 3.41695   2 
   0   1  -2 179.948 3.40814   2 
   0   1  -2 177.491 3.41236   1 
   0  -1   2 179.031 3.41651   2 
   0  -1   2 174.370 3.42791   2 
  -1   1  -2 233.819 4.30737   2 
  -1   1  -2 235.210 4.28298   1 
   1  -1   2 240.898 4.29050   1 
   1  -1   2 233.408 4.32109   2 
   1  -1   2 191.383 4.33691   2 
  -2   1  -2 1.96378 0.17357   2 
  -2   1  -2 1.84074 0.11566   1 
   2  -1   2 1.66957 0.20066   2 
   2  -1   2 1.78230 0.18542   2 
   2  -1   2 1.53866 0.12117   1 
  -3   1  -2 -0.0600 0.16980   2 
  -3   1  -2 0.12926 0.14091   2 
  -3   1  -2 0.32864 0.08315   1 
   3  -1   2 0.33448 0.22662   2 
   3  -1   2 0.22545 0.15384   2 
   3  -1   2 0.05957 0.11178   1 
  -4   1  -2 68.7567 1.69318   2 
  -4   1  -2 70.6682 1.44825   1 
  -4   1  -2 71.5510 1.66526   2 
   4  -1   2 70.3127 1.68482   2 
  -5   1  -2 5.78798 0.60051   2 
  -5   1  -2 6.49670 0.31801   1 
  -5   1  -2 7.79501 0.67729   2 
   5  -1   2 8.27586 0.93728   2 
   5  -1   2 7.01369 0.61031   2 
  -6   1  -2 0.07163 0.39972   2 
  -6   1  -2 -0.0044 0.16825   1 
  -6   1  -2 0.50320 0.45720   2 
   6  -1   2 -0.5201 0.70481   2 
   6  -1   2 0.06860 0.45395   2 
  -7   1  -2 -0.0110 0.65261   2 
  -7   1  -2 -0.9762 0.62348   2 
   7  -1   2 1.69364 0.95141   2 
   7  -1   2 0.06004 0.65320   2 
   7   0  -2 14.1413 1.48608   2 
   7   0  -2 15.7198 1.21935   2 
  -7   0   2 15.5985 1.01738   1 
  -7   0   2 16.3664 1.47815   2 
  -7   0   2 13.9116 1.62692   2 
  -7   0   2 16.0507 0.84787   1 
   6   0  -2 86.5235 2.22479   2 
   6   0  -2 83.9114 2.67681   2 
  -6   0   2 87.3053 2.14790   1 
  -6   0   2 83.1143 2.04968   1 
  -6   0   2 86.1370 2.28936   2 
  -6   0   2 85.3487 2.45561   2 
   5   0  -2 4.71182 0.61704   2 
   5   0  -2 5.04845 0.50803   2 
  -5   0   2 4.02449 0.46269   1 
  -5   0   2 7.67371 0.83937   2 
  -5   0   2 4.98181 0.60534   2 
   4   0  -2 59.9339 1.72565   2 
   4   0  -2 59.1955 1.47741   2 
  -4   0   2 60.8441 1.50116   2 
  -4   0   2 60.1075 1.54482   1 
  -4   0   2 61.9897 1.66476   2 
   3   0  -2 20.2507 0.77829   2 
   3   0  -2 19.7037 0.61625   2 
  -3   0   2 18.8966 0.74239   2 
  -3   0   2 18.0549 0.68336   1 
  -3   0   2 19.5563 0.61608   2 
   2   0  -2 25.1105 0.64788   2 
   2   0  -2 25.6739 0.75233   2 
  -2   0   2 25.0891 0.64201   2 
   1   0  -2 307.315 5.84338   2 
   1   0  -2 316.702 5.87910   2 
  -1   0   2 314.005 5.88228   2 
  -1   0   2 301.122 5.99388   2 
  -1   0  -2 345.168 6.67259   2 
  -1   0  -2 363.084 6.68805   2 
   1   0   2 352.859 6.65524   2 
   1   0   2 361.354 6.71162   2 
  -2   0  -2 122.455 2.46168   2 
   2   0   2 123.329 2.46239   2 
   2   0   2 124.554 2.58924   2 
  -3   0  -2 388.565 7.66792   2 
  -3   0  -2 400.416 7.59303   2 
   3   0   2 396.793 7.58708   2 
   3   0   2 395.682 7.78439   2 
  -4   0  -2 -0.3026 0.18533   2 
  -4   0  -2 -0.3849 0.27359   2 
   4   0   2 0.15048 0.29837   2 
   4   0   2 -0.3430 0.18257   2 
  -5   0  -2 3.96112 0.45287   2 
  -5   0  -2 3.55797 0.52640   2 
   5   0   2 3.08856 0.44463   2 
   5   0   2 3.71032 0.61256   2 
  -6   0  -2 14.3423 1.09018   2 
  -6   0  -2 12.2804 1.26218   2 
   6   0   2 13.4970 0.91767   2 
   6   0   2 12.5193 1.41281   2 
  -7   0  -2 0.83940 0.68114   2 
  -7   0  -2 -0.2807 0.71600   2 
   7   0   2 1.33049 1.17000   2 
   7   0   2 0.64146 0.98160   2 
   7  -1  -2 54.8857 2.56308   2 
   7  -1  -2 58.5400 1.95520   2 
  -7   1   2 58.4092 1.66351   1 
  -7   1   2 59.6551 2.09598   2 
  -7   1   2 59.4552 2.00361   2 
   6  -1  -2 7.33849 0.92686   2 
   6  -1  -2 5.85741 0.64088   2 
  -6   1   2 6.14210 0.65256   1 
  -6   1   2 5.88871 0.62175   2 
  -6   1   2 6.02675 0.76562   2 
   5  -1  -2 75.2395 1.88913   2 
   5  -1  -2 74.3799 2.17086   2 
  -5   1   2 76.0824 1.97605   2 
  -5   1   2 75.7283 1.83194   1 
  -5   1   2 75.4805 1.87855   2 
   4  -1  -2 0.22556 0.20404   2 
   4  -1  -2 0.45178 0.32588   2 
  -4   1   2 -0.2727 0.24173   2 
  -4   1   2 0.28405 0.20457   1 
  -4   1   2 -0.1035 0.17073   2 
   3  -1  -2 83.4896 1.83359   2 
  -3   1   2 83.2225 1.86890   1 
  -3   1   2 83.5159 1.88968   2 
  -3   1   2 84.6031 1.82425   2 
   2  -1  -2 138.415 2.75442   2 
   2  -1  -2 120.551 2.75895   2 
   2  -1  -2 136.096 2.78614   1 
  -2   1   2 135.463 2.73896   1 
  -2   1   2 135.097 2.69914   2 
  -2   1   2 138.603 2.67249   2 
   1  -1  -2 1145.14 21.3904   2 
   1  -1  -2 1035.98 21.3986   2 
   1  -1  -2 1163.12 21.6068   1 
  -1   1   2 1160.50 21.7936   1 
  -1   1   2 1168.50 21.4197   2 
   0  -1  -2 25.1376 0.58290   1 
   0  -1  -2 24.3357 0.53854   2 
   0  -1  -2 24.5975 0.57276   2 
   0   1   2 24.0400 0.55791   2 
   0   1   2 24.8074 0.58351   2 
   0   1   2 24.4718 0.56083   1 
  -1  -1  -2 11.8232 0.38197   2 
  -1  -1  -2 11.5109 0.28096   1 
   1   1   2 11.9442 0.48652   2 
   1   1   2 11.4001 0.36215   2 
   1   1   2 11.6339 0.27671   1 
  -2  -1  -2 312.118 5.91233   2 
  -2  -1  -2 290.563 6.42206   2 
   2   1   2 313.036 6.02852   2 
   2   1   2 308.950 5.87479   2 
  -3  -1  -2 133.301 2.77020   2 
   3   1   2 127.458 2.70530   2 
   3   1   2 131.160 2.92855   2 
  -4  -1  -2 215.995 4.65958   2 
  -4  -1  -2 224.128 4.54879   2 
   4   1   2 220.069 4.47407   2 
   4   1   2 220.508 4.76720   2 
  -5  -1  -2 0.61901 0.50231   2 
  -5  -1  -2 -0.2183 0.38271   2 
   5   1   2 0.46310 0.55796   2 
   5   1   2 0.37963 0.36435   2 
  -6  -1  -2 0.82291 0.71195   2 
  -6  -1  -2 0.39918 0.54914   2 
   6   1   2 -0.9934 0.46101   2 
   6   1   2 0.39453 0.74543   2 
  -7  -1  -2 -0.0699 0.92677   2 
  -7  -1  -2 1.37985 0.90575   2 
   7   1   2 -0.1648 0.67880   2 
   7   1   2 0.90105 1.20957   2 
   7  -2  -2 22.3020 1.37400   2 
   7  -2  -2 20.0437 1.97292   2 
  -7   2   2 22.1336 1.33657   2 
  -7   2   2 19.9954 1.31442   2 
  -7   2   2 21.2676 0.97836   1 
   6  -2  -2 89.9100 2.77187   2 
   6  -2  -2 95.2204 2.41732   2 
  -6   2   2 93.6617 2.18231   1 
  -6   2   2 92.1907 2.33781   2 
  -6   2   2 91.5587 2.36374   2 
   5  -2  -2 66.7614 1.77254   2 
   5  -2  -2 65.8916 2.01483   2 
  -5   2   2 66.7091 1.71337   2 
  -5   2   2 66.2187 1.74743   2 
  -5   2   2 67.4934 1.65177   1 
   4  -2  -2 1.31109 0.34161   1 
   4  -2  -2 1.03678 0.29276   2 
   4  -2  -2 1.07714 0.33761   2 
  -4   2   2 0.29985 0.22838   2 
  -4   2   2 0.67005 0.20731   1 
  -4   2   2 0.72669 0.20648   2 
   3  -2  -2 41.1900 1.15373   2 
   3  -2  -2 40.0847 1.14187   1 
   3  -2  -2 41.6976 1.09697   2 
  -3   2   2 41.1082 1.04922   2 
  -3   2   2 42.2742 1.06614   2 
  -3   2   2 41.3879 1.05133   1 
   2  -2  -2 4.44877 0.30965   1 
   2  -2  -2 4.49906 0.29352   2 
   2  -2  -2 4.40121 0.31520   2 
  -2   2   2 4.54044 0.28299   2 
  -2   2   2 4.02356 0.26606   1 
   1  -2  -2 63.0812 1.29805   2 
   1  -2  -2 63.2032 1.36128   1 
  -1   2   2 62.6585 1.33177   1 
  -1   2   2 60.6068 1.32154   2 
  -1   2   2 62.1055 1.36799   2 
   0  -2  -2 190.316 3.67680   1 
   0  -2  -2 193.979 3.71977   2 
   0   2   2 191.951 3.77696   2 
   0   2   2 186.987 3.73736   2 
   0   2   2 191.149 3.67506   1 
  -1  -2  -2 4.31454 0.19227   1 
  -1  -2  -2 4.07826 0.30629   2 
   1   2   2 3.83537 0.18745   1 
   1   2   2 3.98412 0.29460   2 
   1   2   2 4.63557 0.36393   2 
  -2  -2  -2 45.3674 0.98134   1 
  -2  -2  -2 47.5491 1.20892   2 
  -2  -2  -2 46.7714 1.28611   2 
   2   2   2 46.5388 0.97385   1 
   2   2   2 49.1188 1.30365   2 
  -3  -2  -2 225.024 4.34488   1 
  -3  -2  -2 229.750 4.81176   2 
  -3  -2  -2 229.453 4.67211   2 
   3   2   2 227.506 4.57541   2 
   3   2   2 232.560 4.83586   2 
  -4  -2  -2 118.057 2.69438   2 
   4   2   2 113.908 2.86727   2 
   4   2   2 111.177 2.53877   2 
  -5  -2  -2 6.17973 0.70565   2 
  -5  -2  -2 4.34848 0.74703   2 
   5   2   2 6.10120 0.70106   2 
   5   2   2 5.92391 0.80157   2 
  -6  -2  -2 -0.3989 0.76929   2 
  -6  -2  -2 2.72965 0.75502   2 
   6   2   2 1.59716 0.93186   2 
   6   2   2 1.35485 0.58282   2 
  -7  -2  -2 1.53007 1.14180   2 
  -7  -2  -2 0.51811 0.98685   2 
   7   2   2 -1.0334 0.78064   2 
   7   2   2 -1.3564 1.25892   2 
   7  -3  -2 17.2825 1.35303   2 
   7  -3  -2 21.8125 1.86934   2 
  -7   3   2 17.8860 1.25898   2 
  -7   3   2 17.9266 0.96858   1 
  -7   3   2 16.0169 1.26896   2 
   6  -3  -2 6.16599 0.67180   2 
  -6   3   2 8.09188 0.73502   2 
  -6   3   2 6.83526 0.63054   1 
  -6   3   2 6.30036 0.78619   2 
   5  -3  -2 0.40385 0.36770   2 
   5  -3  -2 0.37122 0.43663   1 
   5  -3  -2 0.27943 0.49352   2 
  -5   3   2 0.67403 0.25176   1 
  -5   3   2 0.39020 0.28177   2 
  -5   3   2 -0.0281 0.29504   2 
   4  -3  -2 34.5937 1.17378   2 
   4  -3  -2 34.0541 1.11536   2 
   4  -3  -2 34.6007 1.14587   1 
  -4   3   2 34.2424 0.97326   1 
  -4   3   2 34.1212 1.02019   2 
  -4   3   2 34.7368 1.03138   2 
   3  -3  -2 228.938 4.70330   1 
   3  -3  -2 238.445 4.68016   2 
   3  -3  -2 227.078 4.70864   2 
  -3   3   2 231.010 4.59027   1 
  -3   3   2 237.237 4.65516   2 
  -3   3   2 226.397 4.58808   2 
   2  -3  -2 1051.42 20.2304   2 
   2  -3  -2 1110.78 20.4288   2 
   2  -3  -2 1085.33 20.4047   1 
  -2   3   2 1069.83 20.4443   2 
  -2   3   2 1039.66 20.3391   2 
  -2   3   2 1089.86 20.3141   1 
   1  -3  -2 129.040 2.58297   1 
   1  -3  -2 128.830 2.56551   2 
   1  -3  -2 123.059 2.67838   2 
  -1   3   2 124.570 2.65278   2 
  -1   3   2 124.787 2.62601   2 
  -1   3   2 125.761 2.56668   1 
   0  -3  -2 12.7272 0.49268   2 
   0  -3  -2 12.8009 0.42349   1 
   0   3   2 12.8963 0.53076   2 
   0   3   2 12.9065 0.42501   1 
   0   3   2 12.6211 0.57024   2 
  -1  -3  -2 106.880 2.31679   2 
  -1  -3  -2 104.536 2.37924   2 
  -1  -3  -2 104.932 2.14659   1 
   1   3   2 107.111 2.15844   1 
   1   3   2 105.926 2.31983   2 
   1   3   2 105.844 2.39568   2 
  -2  -3  -2 2.81844 0.23044   1 
  -2  -3  -2 3.09135 0.38409   2 
  -2  -3  -2 2.46350 0.38735   2 
   2   3   2 3.40502 0.40412   2 
   2   3   2 3.20233 0.21844   1 
   2   3   2 3.44910 0.43595   2 
  -3  -3  -2 5.31545 0.61280   2 
  -3  -3  -2 5.55808 0.29762   1 
  -3  -3  -2 5.69160 0.61920   2 
   3   3   2 5.98841 0.50848   2 
   3   3   2 5.67214 0.27968   1 
   3   3   2 4.78862 0.58441   2 
  -4  -3  -2 23.5800 1.26454   2 
  -4  -3  -2 23.9717 1.14124   2 
  -4  -3  -2 22.4557 0.62224   1 
   4   3   2 22.4087 1.31849   2 
   4   3   2 23.0272 0.92941   2 
  -5  -3  -2 12.7023 1.34953   2 
   5   3   2 9.94273 1.05790   2 
   5   3   2 11.3446 0.87069   2 
  -6  -3  -2 1.95606 0.82728   2 
  -6  -3  -2 0.93392 0.97493   2 
   6   3   2 2.28595 0.64582   2 
   6   3   2 -0.6966 0.98309   2 
   7  -4  -2 1.08105 0.81640   2 
  -7   4   2 0.27903 0.45741   1 
  -7   4   2 -1.5438 0.57545   2 
  -7   4   2 -0.5477 0.62683   2 
   6  -4  -2 5.92827 1.05073   2 
   6  -4  -2 6.60202 0.92329   1 
   6  -4  -2 5.91322 0.75777   2 
  -6   4   2 6.68449 0.68668   2 
  -6   4   2 4.70764 0.63072   1 
  -6   4   2 5.34804 0.60215   2 
   5  -4  -2 3.13990 0.53432   1 
   5  -4  -2 3.62731 0.53767   2 
   5  -4  -2 3.88992 0.59272   2 
  -5   4   2 3.52631 0.45400   2 
  -5   4   2 3.65191 0.45314   2 
  -5   4   2 4.07908 0.41364   1 
   4  -4  -2 19.1126 0.89842   2 
   4  -4  -2 19.2821 0.90449   2 
   4  -4  -2 19.3180 0.87142   1 
  -4   4   2 19.2833 0.79905   2 
  -4   4   2 18.8824 0.71158   1 
  -4   4   2 19.0034 0.78617   2 
   3  -4  -2 219.151 4.36874   2 
   3  -4  -2 218.377 4.42868   1 
   3  -4  -2 211.823 4.51466   2 
  -3   4   2 208.821 4.37951   2 
  -3   4   2 214.945 4.34654   1 
  -3   4   2 217.781 4.41727   2 
   2  -4  -2 18.8988 0.66355   1 
   2  -4  -2 18.6333 0.81482   2 
   2  -4  -2 18.5479 0.64373   2 
  -2   4   2 18.4003 0.70810   2 
  -2   4   2 18.9491 0.73193   2 
  -2   4   2 18.4645 0.63131   1 
   1  -4  -2 43.5670 1.29042   2 
   1  -4  -2 44.8115 1.09994   1 
   1  -4  -2 43.8457 1.11384   2 
  -1   4   2 43.5699 1.08979   1 
  -1   4   2 41.8241 1.19771   2 
   0  -4  -2 43.3231 1.16384   2 
   0  -4  -2 41.3487 1.04710   1 
   0  -4  -2 42.1639 1.27423   2 
   0   4   2 42.4713 1.24380   2 
   0   4   2 42.6201 1.21154   2 
   0   4   2 41.3853 1.04224   1 
  -1  -4  -2 1.35751 0.20441   1 
  -1  -4  -2 2.26123 0.39454   2 
  -1  -4  -2 1.29033 0.32649   2 
   1   4   2 1.41272 0.18512   1 
   1   4   2 1.38756 0.29364   2 
   1   4   2 1.54112 0.39265   2 
  -2  -4  -2 0.25257 0.36676   2 
  -2  -4  -2 0.20698 0.14861   1 
  -2  -4  -2 -0.0244 0.28398   2 
   2   4   2 0.10063 0.38003   2 
   2   4   2 0.22830 0.14160   1 
   2   4   2 0.11938 0.27460   2 
  -3  -4  -2 64.8220 1.86415   2 
  -3  -4  -2 62.4211 1.97877   2 
  -3  -4  -2 63.6375 1.45908   1 
   3   4   2 66.5978 2.02684   2 
   3   4   2 66.1634 1.73821   2 
   3   4   2 65.6853 1.44937   1 
  -4  -4  -2 21.3071 1.20782   2 
  -4  -4  -2 20.4775 0.68065   1 
  -4  -4  -2 20.1229 1.35283   2 
   4   4   2 23.2240 1.45914   2 
   4   4   2 20.5341 0.69449   1 
   4   4   2 21.0966 0.98616   2 
  -5  -4  -2 1.59058 0.76272   2 
  -5  -4  -2 0.45459 0.82085   2 
  -5  -4  -2 0.29317 0.25779   1 
   5   4   2 1.67082 0.59527   2 
   5   4   2 0.24658 0.92824   2 
  -6  -4  -2 1.15197 0.99678   2 
   6   4   2 2.45743 0.76501   2 
   6   4   2 -0.8038 1.20523   2 
   7  -5  -2 1.34578 1.15994   2 
   7  -5  -2 0.01795 0.95848   1 
   7  -5  -2 0.49637 0.83010   2 
  -7   5   2 1.97658 0.70548   2 
  -7   5   2 0.44764 0.46610   1 
  -7   5   2 1.23010 0.73915   2 
   6  -5  -2 11.7709 1.23181   2 
   6  -5  -2 13.0387 1.37496   2 
   6  -5  -2 13.6899 1.26837   1 
  -6   5   2 12.6078 0.82168   1 
  -6   5   2 11.9526 0.99978   2 
  -6   5   2 12.1262 1.00927   2 
   5  -5  -2 0.33329 0.48461   1 
   5  -5  -2 0.36308 0.56318   2 
   5  -5  -2 0.60157 0.49661   2 
  -5   5   2 0.46872 0.34364   1 
  -5   5   2 1.06604 0.44919   2 
  -5   5   2 0.49717 0.38774   2 
   4  -5  -2 0.23520 0.38956   2 
   4  -5  -2 0.23846 0.34777   1 
   4  -5  -2 -0.4884 0.32407   2 
  -4   5   2 -0.1695 0.30825   2 
  -4   5   2 -0.2962 0.31556   2 
  -4   5   2 0.01248 0.23443   1 
   3  -5  -2 -0.5013 0.19921   1 
   3  -5  -2 0.22685 0.24629   2 
   3  -5  -2 0.22716 0.34461   2 
  -3   5   2 -0.1908 0.17415   1 
  -3   5   2 -0.1626 0.25317   2 
  -3   5   2 0.21375 0.29493   2 
   2  -5  -2 22.5423 0.99220   2 
   2  -5  -2 23.1403 0.79962   2 
   2  -5  -2 23.1235 0.79974   1 
  -2   5   2 21.5328 0.88942   2 
  -2   5   2 22.0409 0.90367   2 
  -2   5   2 22.6508 0.77293   1 
   1  -5  -2 273.796 5.39709   2 
   1  -5  -2 265.479 5.60656   2 
   1  -5  -2 275.501 5.35559   1 
  -1   5   2 270.721 5.54381   2 
  -1   5   2 266.758 5.34659   1 
  -1   5   2 261.181 5.50586   2 
   0  -5  -2 3.31349 0.46706   2 
   0  -5  -2 3.59507 0.43032   2 
   0  -5  -2 3.62935 0.36183   1 
   0   5   2 3.46490 0.33001   1 
   0   5   2 3.68287 0.45693   2 
   0   5   2 3.61287 0.51116   2 
  -1  -5  -2 24.1600 1.07566   2 
  -1  -5  -2 21.9749 0.73740   1 
  -1  -5  -2 24.3068 0.97690   2 
   1   5   2 22.5781 1.06243   2 
   1   5   2 22.1754 0.73117   1 
  -2  -5  -2 38.7181 1.49333   2 
  -2  -5  -2 38.8638 1.37343   2 
  -2  -5  -2 38.1403 1.04164   1 
   2   5   2 37.6234 1.02049   1 
   2   5   2 39.3637 1.53959   2 
   2   5   2 37.9128 1.28917   2 
  -3  -5  -2 8.51365 0.51502   1 
  -3  -5  -2 9.02521 1.01772   2 
  -3  -5  -2 9.57591 1.16181   2 
   3   5   2 7.68530 0.85289   2 
   3   5   2 8.32448 0.80714   2 
   3   5   2 8.59551 0.48112   1 
  -4  -5  -2 2.79584 0.36056   1 
  -4  -5  -2 3.04437 0.75373   2 
  -4  -5  -2 3.59769 0.94399   2 
   4   5   2 3.05134 0.87077   2 
   4   5   2 3.37293 0.62115   2 
   4   5   2 3.21813 0.37280   1 
  -5  -5  -2 8.09929 1.11116   2 
  -5  -5  -2 7.90963 1.23154   2 
  -5  -5  -2 7.57884 0.62981   1 
   5   5   2 8.94923 1.33205   2 
   5   5   2 8.80068 1.41106   2 
   6  -6  -2 7.49471 1.06812   2 
   6  -6  -2 7.84921 0.96627   1 
   6  -6  -2 7.01403 0.99972   2 
  -6   6   2 7.03918 0.74435   2 
  -6   6   2 6.96229 0.81350   1 
  -6   6   2 8.11550 0.93911   2 
   5  -6  -2 17.0222 1.13286   2 
   5  -6  -2 13.3892 1.08841   1 
   5  -6  -2 16.0871 1.25675   2 
  -5   6   2 15.1014 1.11704   2 
  -5   6   2 16.1334 1.02115   2 
  -5   6   2 14.6440 0.83737   1 
   4  -6  -2 20.1519 0.96004   2 
   4  -6  -2 18.0298 0.92081   1 
   4  -6  -2 17.2788 1.21307   2 
  -4   6   2 18.2610 0.98773   2 
  -4   6   2 17.1134 1.05934   2 
  -4   6   2 17.7020 0.83815   1 
   3  -6  -2 35.7617 1.18573   1 
   3  -6  -2 33.5859 1.41957   2 
   3  -6  -2 35.4892 1.14155   2 
  -3   6   2 34.7204 1.31711   2 
  -3   6   2 36.9136 1.12777   1 
  -3   6   2 33.8581 1.25833   2 
   2  -6  -2 33.9076 1.11352   2 
   2  -6  -2 32.0875 1.06264   1 
   2  -6  -2 32.3217 1.36615   2 
  -2   6   2 33.2299 1.04508   1 
  -2   6   2 33.3892 1.24942   2 
  -2   6   2 33.3089 1.26143   2 
   1  -6  -2 5.34200 0.63908   2 
   1  -6  -2 6.35067 0.51361   1 
   1  -6  -2 5.43012 0.65409   2 
  -1   6   2 5.57633 0.45587   1 
  -1   6   2 6.40185 0.73019   2 
  -1   6   2 6.59014 0.68145   2 
   0  -6  -2 33.1603 1.01561   1 
   0  -6  -2 30.9499 1.37018   2 
   0  -6  -2 33.1728 1.21186   2 
   0   6   2 32.9368 1.33723   2 
   0   6   2 32.8498 1.01067   1 
   0   6   2 32.7480 1.26503   2 
  -1  -6  -2 2.76964 0.35129   1 
  -1  -6  -2 3.35612 0.58399   2 
  -1  -6  -2 2.65127 0.63043   2 
   1   6   2 3.47110 0.69259   2 
   1   6   2 4.02295 0.58188   2 
   1   6   2 3.09934 0.36762   1 
  -2  -6  -2 3.24857 0.39196   1 
  -2  -6  -2 3.52442 0.69184   2 
  -2  -6  -2 3.43463 0.62666   2 
   2   6   2 2.76530 0.56287   2 
   2   6   2 3.87785 0.72442   2 
   2   6   2 4.25556 0.47739   1 
  -3  -6  -2 0.10789 0.69100   2 
  -3  -6  -2 0.21009 0.61502   2 
  -3  -6  -2 0.22711 0.31850   1 
   3   6   2 -1.2300 0.80133   2 
   3   6   2 -0.4538 0.52896   2 
   3   6   2 0.17534 0.27508   1 
  -4  -6  -2 0.06658 0.77988   2 
  -4  -6  -2 0.61076 0.38049   1 
  -4  -6  -2 0.33885 0.96678   2 
   4   6   2 -0.1274 0.33393   1 
   4   6   2 -0.2992 0.95271   2 
   4   6   2 0.92909 0.65935   2 
  -5  -6  -2 1.27172 0.48818   1 
  -5  -6  -2 1.50655 1.14060   2 
  -5  -6  -2 1.80006 1.31002   2 
   5   6   2 0.76217 1.39308   2 
   5   6   2 2.16114 0.84171   2 
   6  -7  -2 13.7184 1.46840   1 
   6  -7  -2 11.2643 1.32087   2 
   6  -7  -2 11.8349 1.25197   2 
  -6   7   2 12.7371 1.55401   2 
  -6   7   2 11.2210 1.01330   2 
  -6   7   2 11.2029 0.99194   1 
   5  -7  -2 0.48553 0.76154   2 
   5  -7  -2 1.10246 0.60986   1 
   5  -7  -2 1.43771 0.70851   2 
  -5   7   2 1.48357 0.46420   1 
  -5   7   2 0.64482 0.54719   2 
  -5   7   2 1.82728 0.71377   2 
   4  -7  -2 26.9295 1.21096   1 
   4  -7  -2 26.7236 1.21240   2 
   4  -7  -2 26.5823 1.57186   2 
  -4   7   2 27.2098 1.07290   1 
  -4   7   2 23.6929 1.24374   2 
  -4   7   2 26.4469 1.40330   2 
   3  -7  -2 6.53268 0.85472   2 
   3  -7  -2 5.66190 0.68710   1 
   3  -7  -2 6.33536 0.74486   2 
  -3   7   2 6.13361 0.69092   2 
  -3   7   2 4.42532 0.55707   1 
  -3   7   2 5.21155 0.63706   2 
   2  -7  -2 2.83876 0.40370   1 
   2  -7  -2 2.39845 0.49915   2 
   2  -7  -2 3.80068 0.72467   2 
  -2   7   2 2.88546 0.61849   2 
  -2   7   2 2.35413 0.33957   1 
  -2   7   2 2.77367 0.55828   2 
   1  -7  -2 0.03629 0.37900   1 
   1  -7  -2 0.32836 0.44464   2 
   1  -7  -2 0.76939 0.56675   2 
  -1   7   2 0.07706 0.45414   2 
  -1   7   2 0.04736 0.32676   1 
  -1   7   2 0.32276 0.43578   2 
   0  -7  -2 4.23352 0.46602   1 
   0  -7  -2 4.18874 0.75469   2 
   0  -7  -2 4.78237 0.62510   2 
   0   7   2 4.93864 0.75466   2 
   0   7   2 3.26545 0.37633   1 
   0   7   2 4.48434 0.75307   2 
  -1  -7  -2 8.13121 0.67739   1 
  -1  -7  -2 5.08397 0.74874   2 
  -1  -7  -2 8.71520 1.01345   2 
   1   7   2 5.58871 0.56568   1 
   1   7   2 6.33732 0.75572   2 
   1   7   2 6.36030 0.85636   2 
  -2  -7  -2 32.1966 1.58580   2 
  -2  -7  -2 31.3908 1.13018   1 
  -2  -7  -2 34.9351 1.89230   2 
   2   7   2 33.9431 1.11351   1 
   2   7   2 31.9411 1.86586   2 
   2   7   2 31.8251 1.56313   2 
  -3  -7  -2 1.61147 0.85694   2 
  -3  -7  -2 1.22808 0.47858   1 
  -3  -7  -2 0.75109 0.91501   2 
   3   7   2 1.53628 0.40739   1 
   3   7   2 2.96238 1.06826   2 
   3   7   2 0.64909 0.74095   2 
  -4  -7  -2 -0.7242 0.59453   1 
  -4  -7  -2 -1.5336 1.08589   2 
  -4  -7  -2 -0.3171 1.21890   2 
   4   7   2 0.02870 0.50528   1 
   4   7   2 -1.1501 1.24198   2 
   4   7   2 -0.7908 0.81076   2 
   5  -8  -2 0.39663 0.95227   2 
   5  -8  -2 0.54568 0.72650   1 
   5  -8  -2 0.03127 0.84269   2 
  -5   8   2 1.67647 0.92100   2 
  -5   8   2 0.64353 0.74545   2 
  -5   8   2 0.15327 0.48361   1 
   4  -8  -2 4.55194 0.70362   1 
   4  -8  -2 4.25730 0.79424   2 
   4  -8  -2 3.85736 0.94849   2 
  -4   8   2 3.95896 0.80948   2 
  -4   8   2 4.31674 0.59570   1 
  -4   8   2 4.99879 0.84381   2 
   3  -8  -2 0.53718 0.49425   1 
   3  -8  -2 0.22117 0.54723   2 
   3  -8  -2 -0.5009 0.78380   2 
  -3   8   2 -0.3639 0.63091   2 
  -3   8   2 0.08490 0.57083   2 
  -3   8   2 -0.8573 0.33303   1 
   2  -8  -2 6.72854 0.69696   2 
   2  -8  -2 6.98463 0.70449   1 
   2  -8  -2 5.99449 0.96695   2 
  -2   8   2 7.70779 0.90649   2 
  -2   8   2 6.18427 0.64171   1 
  -2   8   2 6.91493 0.83069   2 
   1  -8  -2 0.14048 0.72426   2 
   1  -8  -2 0.29941 0.42851   1 
   1  -8  -2 0.37831 0.53587   2 
  -1   8   2 -0.5258 0.59273   2 
  -1   8   2 0.00513 0.36920   1 
  -1   8   2 -1.0205 0.64276   2 
   0  -8  -2 4.34846 0.66978   2 
   0  -8  -2 6.42908 0.77839   1 
   0  -8  -2 4.88715 0.96521   2 
   0   8   2 4.85445 0.87332   2 
   0   8   2 4.65858 0.85575   2 
   0   8   2 3.55869 0.45383   1 
  -1  -8  -2 0.72708 0.48174   1 
  -1  -8  -2 1.37789 0.88854   2 
  -1  -8  -2 0.32397 0.76910   2 
   1   8   2 0.20166 0.40563   1 
   1   8   2 0.04811 0.87995   2 
   1   8   2 1.59749 0.77540   2 
  -2  -8  -2 0.25108 0.51111   1 
  -2  -8  -2 1.81643 1.06389   2 
  -2  -8  -2 0.15564 0.78916   2 
   2   8   2 0.33789 1.02998   2 
   2   8   2 0.59052 0.45714   1 
   2   8   2 0.24872 0.86440   2 
  -3  -8  -2 3.54265 0.62979   1 
  -3  -8  -2 3.58654 1.14827   2 
  -3  -8  -2 0.36579 1.22960   2 
   3   8   2 2.09257 1.00653   2 
   3   8   2 2.97732 0.56628   1 
   3   8   2 3.23318 1.33368   2 
   4  -9  -2 -1.7713 1.23082   2 
   4  -9  -2 -0.6738 0.66099   1 
   4  -9  -2 0.57925 0.73768   2 
  -4   9   2 2.54227 0.94144   2 
  -4   9   2 -0.1524 0.49684   1 
  -4   9   2 -0.9175 0.96195   2 
   3  -9  -2 17.7882 2.01964   2 
   3  -9  -2 16.0635 1.31824   2 
   3  -9  -2 16.5140 1.20158   1 
  -3   9   2 16.9231 1.55220   2 
  -3   9   2 17.5596 1.75813   2 
  -3   9   2 15.6385 1.01522   1 
   2  -9  -2 -0.0356 0.62667   2 
   2  -9  -2 -0.4189 0.50544   1 
   2  -9  -2 0.02570 0.96523   2 
  -2   9   2 0.74075 0.85754   2 
  -2   9   2 0.24095 0.43612   1 
  -2   9   2 -0.1646 0.84354   2 
   1  -9  -2 14.4624 1.38486   2 
   1  -9  -2 15.1615 1.88098   2 
   1  -9  -2 12.0012 1.05241   1 
  -1   9   2 14.3596 1.69219   2 
  -1   9   2 15.5946 1.67741   2 
  -1   9   2 13.0110 0.92806   1 
   0  -9  -2 7.22153 0.94019   2 
   0  -9  -2 7.77077 1.29133   2 
   0  -9  -2 8.67725 1.02253   1 
   0   9   2 7.65849 1.04643   2 
   0   9   2 7.34047 0.79222   1 
   0   9   2 6.58709 1.09424   2 
  -1  -9  -2 -0.0055 0.59694   1 
  -1  -9  -2 0.46969 0.95246   2 
  -1  -9  -2 1.78150 1.19368   2 
   1   9   2 0.01644 0.99461   2 
   1   9   2 0.79989 0.52640   1 
   1   9   2 0.11668 1.08391   2 
   1   9  -3 1.50001 1.04379   2 
   1   9  -3 0.39703 0.93469   2 
   1   9  -3 1.10806 0.55119   1 
  -1  -9   3 -0.3420 1.05291   2 
  -1  -9   3 0.13409 0.63458   1 
  -1  -9   3 0.70857 2.23921   2 
   0   9  -3 0.21257 0.88510   2 
   0   9  -3 -0.6789 0.85109   2 
   0   9  -3 -0.5430 0.38436   1 
   0  -9   3 -0.2316 0.80532   2 
   0  -9   3 0.79273 1.22861   2 
   0  -9   3 -1.2430 0.50627   1 
  -1   9  -3 1.30822 0.81639   2 
  -1   9  -3 0.57281 0.41290   1 
  -1   9  -3 1.09917 0.87545   2 
   1  -9   3 1.09390 0.50039   1 
   1  -9   3 -0.6151 0.78803   2 
   1  -9   3 -0.3316 1.16233   2 
  -2   9  -3 59.6489 2.24646   2 
  -2   9  -3 57.7764 1.82205   1 
  -2   9  -3 58.1109 2.40056   2 
   2  -9   3 57.0312 2.85215   2 
   2  -9   3 55.4413 1.82370   1 
   2  -9   3 58.5150 2.14735   2 
  -3   9  -3 60.8311 2.27379   2 
  -3   9  -3 61.3941 1.90561   1 
  -3   9  -3 61.6647 2.55134   2 
   3  -9   3 59.0915 1.93925   1 
   3  -9   3 63.7901 2.96149   2 
   3  -9   3 62.2241 2.17804   2 
   3   8  -3 153.726 4.45084   2 
   3   8  -3 145.652 3.84879   2 
   3   8  -3 146.888 3.50282   1 
  -3  -8   3 150.331 3.54831   1 
  -3  -8   3 142.359 4.89129   2 
  -3  -8   3 143.383 4.28953   2 
   2   8  -3 3.12871 0.84121   2 
   2   8  -3 5.55173 0.61570   1 
   2   8  -3 3.18766 1.05278   2 
  -2  -8   3 4.66352 0.63232   1 
  -2  -8   3 4.25081 0.98928   2 
  -2  -8   3 6.56867 1.24672   2 
   1   8  -3 3.66159 0.55023   1 
   1   8  -3 1.70695 0.88003   2 
   1   8  -3 2.89254 0.78541   2 
  -1  -8   3 2.95018 0.80079   2 
  -1  -8   3 3.17896 0.54754   1 
  -1  -8   3 3.66588 1.11186   2 
   0   8  -3 20.7095 1.43664   2 
   0   8  -3 22.0542 1.48283   2 
   0  -8   3 21.3741 1.07586   1 
   0  -8   3 21.1739 1.79224   2 
   0  -8   3 20.3989 1.43940   2 
  -1   8  -3 9.11587 0.96204   2 
  -1   8  -3 7.53661 0.88255   2 
  -1   8  -3 8.95053 0.73061   1 
   1  -8   3 6.57142 1.08833   2 
   1  -8   3 7.88349 0.74928   1 
   1  -8   3 8.40599 0.94331   2 
  -2   8  -3 6.65907 0.70043   1 
  -2   8  -3 7.02592 0.84963   2 
  -2   8  -3 6.48150 0.84064   2 
   2  -8   3 5.90138 0.81118   2 
   2  -8   3 5.79335 0.98474   2 
   2  -8   3 7.28340 0.78883   1 
  -3   8  -3 174.098 4.31192   2 
  -3   8  -3 177.660 4.14689   2 
  -3   8  -3 181.250 3.96448   1 
   3  -8   3 175.215 3.95235   1 
   3  -8   3 178.112 4.55472   2 
   3  -8   3 175.013 4.01918   2 
  -4   8  -3 14.2134 1.49141   2 
  -4   8  -3 11.7120 0.90549   1 
  -4   8  -3 13.9745 1.22527   2 
   4  -8   3 13.1810 1.23790   2 
   4  -8   3 13.1858 1.00982   1 
   4  -8   3 12.6065 1.34552   2 
  -5   8  -3 6.01427 0.71880   1 
  -5   8  -3 5.36804 1.12299   2 
  -5   8  -3 5.55915 0.86729   2 
   5  -8   3 5.69464 1.19352   2 
   5  -8   3 5.90322 0.87308   2 
   5  -8   3 4.00844 0.74072   1 
   4   7  -3 -0.1000 0.59738   1 
   4   7  -3 0.57761 1.26091   2 
   4   7  -3 0.36092 0.81017   2 
  -4  -7   3 -0.1766 0.59497   1 
  -4  -7   3 1.11222 1.21074   2 
   3   7  -3 0.02987 0.43256   1 
   3   7  -3 0.95328 1.04211   2 
   3   7  -3 1.26403 0.76296   2 
  -3  -7   3 0.39509 0.89107   2 
  -3  -7   3 1.08179 1.10809   2 
  -3  -7   3 0.26857 0.44379   1 
   2   7  -3 0.05429 1.43553   2 
   2   7  -3 2.64381 0.68438   2 
   2   7  -3 3.75166 0.49621   1 
  -2  -7   3 2.97411 0.50607   1 
  -2  -7   3 4.01019 0.98119   2 
  -2  -7   3 2.49827 0.78869   2 
   1   7  -3 13.5341 1.27875   2 
   1   7  -3 12.7982 0.72927   1 
   1   7  -3 12.4884 1.08119   2 
  -1  -7   3 13.3466 1.17656   2 
  -1  -7   3 12.8080 0.81423   1 
  -1  -7   3 12.0548 1.39962   2 
   0   7  -3 19.4632 0.80847   1 
   0   7  -3 16.9467 1.18710   2 
   0   7  -3 18.9513 1.17022   2 
   0  -7   3 19.1024 1.45955   2 
   0  -7   3 17.8552 0.86614   1 
   0  -7   3 17.0517 1.14473   2 
  -1   7  -3 7.60461 0.60117   1 
  -1   7  -3 6.53100 0.73303   2 
  -1   7  -3 7.72711 0.92559   2 
   1  -7   3 6.77961 0.65514   1 
   1  -7   3 7.01263 0.74467   2 
   1  -7   3 5.84131 0.88818   2 
  -2   7  -3 18.9089 1.09436   2 
  -2   7  -3 19.9163 0.87372   1 
  -2   7  -3 20.3895 1.17184   2 
   2  -7   3 19.8712 0.86430   1 
   2  -7   3 18.6489 1.05771   2 
   2  -7   3 19.1670 1.38326   2 
  -3   7  -3 18.4292 0.85008   1 
  -3   7  -3 18.1334 1.07383   2 
  -3   7  -3 17.7924 1.22796   2 
   3  -7   3 19.0810 0.90672   1 
   3  -7   3 20.4497 1.04942   2 
   3  -7   3 19.1974 1.38505   2 
  -4   7  -3 0.18092 0.59721   2 
  -4   7  -3 -0.5088 0.28149   1 
  -4   7  -3 0.11982 0.50328   2 
   4  -7   3 0.11926 0.67920   2 
   4  -7   3 0.03006 0.47185   2 
   4  -7   3 -0.5889 0.37601   1 
  -5   7  -3 0.04892 0.36463   1 
  -5   7  -3 0.53788 0.62496   2 
  -5   7  -3 0.12546 0.73421   2 
   5  -7   3 -0.2243 0.46986   1 
   5  -7   3 1.73130 0.67700   2 
   5  -7   3 -0.5808 0.76307   2 
  -6   7  -3 3.51841 0.56996   1 
  -6   7  -3 3.76187 0.77621   2 
  -6   7  -3 4.54079 1.02386   2 
   6  -7   3 4.46310 0.76877   1 
   6  -7   3 3.38238 1.08352   2 
   6  -7   3 3.78207 1.02826   2 
   5   6  -3 1.42748 0.77854   2 
   5   6  -3 0.74783 1.33893   2 
  -5  -6   3 0.14994 1.51796   2 
  -5  -6   3 2.08531 0.58998   1 
  -5  -6   3 1.11729 1.36004   2 
   4   6  -3 4.90328 0.79139   2 
   4   6  -3 4.96520 1.20660   2 
   4   6  -3 6.17707 0.70420   1 
  -4  -6   3 5.06706 0.59733   1 
  -4  -6   3 5.35813 1.09119   2 
  -4  -6   3 5.25961 1.21834   2 
   3   6  -3 126.247 3.58855   2 
   3   6  -3 121.676 2.92064   1 
   3   6  -3 126.411 3.09409   2 
  -3  -6   3 127.616 2.95619   1 
  -3  -6   3 130.006 3.57039   2 
  -3  -6   3 130.944 3.38651   2 
   2   6  -3 214.531 4.74735   2 
   2   6  -3 218.516 4.99870   2 
   2   6  -3 217.753 4.54154   1 
  -2  -6   3 224.483 5.11384   2 
  -2  -6   3 217.980 4.89976   2 
  -2  -6   3 220.223 4.57745   1 
   1   6  -3 8.44441 0.94298   2 
   1   6  -3 9.55351 0.83297   2 
   1   6  -3 9.21363 0.56083   1 
  -1  -6   3 8.80942 0.62426   1 
  -1  -6   3 8.49205 0.90309   2 
  -1  -6   3 8.04544 0.86563   2 
   0   6  -3 1.32431 0.26204   1 
   0   6  -3 1.15365 0.40407   2 
   0   6  -3 2.05357 0.49642   2 
   0  -6   3 1.09186 0.53161   2 
   0  -6   3 1.67203 0.29672   1 
   0  -6   3 1.77975 0.47151   2 
  -1   6  -3 7.85840 0.78375   2 
  -1   6  -3 8.21418 0.53396   1 
  -1   6  -3 8.78788 0.78763   2 
   1  -6   3 8.66108 0.58627   1 
   1  -6   3 7.79588 0.90587   2 
   1  -6   3 7.38048 0.71174   2 
  -2   6  -3 6.62116 0.77589   2 
  -2   6  -3 5.53750 0.67511   2 
  -2   6  -3 6.03872 0.48174   1 
   2  -6   3 7.65699 0.69846   2 
   2  -6   3 6.64688 0.75908   2 
   2  -6   3 7.24600 0.55491   1 
  -3   6  -3 0.21737 0.23479   1 
  -3   6  -3 0.50102 0.41009   2 
  -3   6  -3 0.16423 0.35508   2 
   3  -6   3 0.85276 0.29926   1 
   3  -6   3 0.46610 0.34403   2 
   3  -6   3 0.59666 0.52161   2 
  -4   6  -3 28.8226 1.31688   2 
  -4   6  -3 28.5117 1.18013   2 
  -4   6  -3 29.5120 1.00834   1 
   4  -6   3 29.4236 1.40533   2 
   4  -6   3 29.1571 1.03837   1 
   4  -6   3 30.6347 1.20310   2 
  -5   6  -3 0.26773 0.44239   2 
  -5   6  -3 0.18609 0.57285   2 
   5  -6   3 0.19394 0.66570   2 
   5  -6   3 -0.2113 0.77375   1 
   5  -6   3 0.34719 0.56483   2 
  -6   6  -3 20.6954 1.42555   2 
  -6   6  -3 20.0118 1.28563   2 
  -6   6  -3 16.7420 0.87495   1 
   6  -6   3 19.6526 1.73871   2 
   6  -6   3 20.4944 1.63083   2 
   6  -6   3 18.0631 1.15414   1 
   5   5  -3 2.80686 1.08432   2 
   5   5  -3 3.54668 0.67931   2 
  -5  -5   3 4.20459 1.12162   2 
  -5  -5   3 1.93573 1.06586   2 
  -5  -5   3 3.82656 0.50854   1 
   4   5  -3 27.7123 2.22681   2 
   4   5  -3 31.9727 1.28534   2 
   4   5  -3 30.0109 1.20483   1 
  -4  -5   3 34.3985 1.10957   1 
  -4  -5   3 33.4436 1.73839   2 
  -4  -5   3 30.7211 1.92574   2 
   3   5  -3 0.49725 0.41036   2 
   3   5  -3 1.69802 0.66139   2 
  -3  -5   3 2.11015 0.61052   2 
  -3  -5   3 1.68758 0.33991   1 
  -3  -5   3 0.22546 0.56461   2 
   2   5  -3 39.5706 1.30870   2 
   2   5  -3 40.9159 1.54690   2 
   2   5  -3 41.8077 1.16114   1 
  -2  -5   3 41.0198 1.46033   2 
  -2  -5   3 42.1835 1.61529   2 
  -2  -5   3 41.0160 1.16170   1 
   1   5  -3 27.2540 0.84731   1 
   1   5  -3 26.0395 1.01607   2 
   1   5  -3 26.1422 1.12142   2 
  -1  -5   3 26.1910 1.07767   2 
  -1  -5   3 25.1280 1.17217   2 
  -1  -5   3 27.0682 0.86179   1 
   0   5  -3 6.38727 0.40086   1 
   0   5  -3 6.89055 0.65177   2 
   0   5  -3 6.12094 0.61753   2 
   0  -5   3 6.63794 0.64098   2 
   0  -5   3 6.88733 0.74901   2 
   0  -5   3 6.46364 0.44386   1 
  -1   5  -3 6.49003 0.42058   1 
  -1   5  -3 5.92589 0.60488   2 
  -1   5  -3 6.64873 0.57507   2 
   1  -5   3 6.04712 0.43426   1 
   1  -5   3 5.77266 0.55477   2 
   1  -5   3 5.42491 0.67941   2 
  -2   5  -3 4.40242 0.38026   1 
  -2   5  -3 5.76267 0.60675   2 
  -2   5  -3 5.13656 0.52299   2 
   2  -5   3 4.49528 0.42967   1 
   2  -5   3 5.49137 0.54753   2 
   2  -5   3 4.91947 0.53555   2 
  -3   5  -3 15.4384 0.83717   2 
  -3   5  -3 13.9381 0.59465   1 
  -3   5  -3 13.7255 0.73063   2 
   3  -5   3 15.5876 0.70862   2 
   3  -5   3 14.3606 0.87120   2 
   3  -5   3 14.6099 0.63060   1 
  -4   5  -3 121.952 2.69072   1 
  -4   5  -3 122.937 2.89553   2 
  -4   5  -3 124.929 2.81172   2 
   4  -5   3 121.915 2.68506   1 
   4  -5   3 123.070 2.81436   2 
   4  -5   3 122.100 2.98960   2 
  -5   5  -3 21.9756 1.07182   2 
  -5   5  -3 20.6610 0.81773   1 
   5  -5   3 22.1506 1.22626   2 
   5  -5   3 21.1457 1.20238   2 
   5  -5   3 20.4434 0.91050   1 
  -6   5  -3 4.83547 0.69914   2 
  -6   5  -3 5.13186 0.64303   2 
  -6   5  -3 5.36856 0.61392   1 
   6  -5   3 4.57319 0.89535   2 
   6  -5   3 3.84408 0.61598   1 
   6  -5   3 4.62727 0.85534   2 
  -7   5  -3 0.26592 0.72887   2 
  -7   5  -3 1.43409 0.45990   1 
  -7   5  -3 1.49899 0.81221   2 
   7  -5   3 2.39724 1.21654   2 
   7  -5   3 2.45915 0.84385   1 
   7  -5   3 2.58778 1.00762   2 
   6   4  -3 1.99653 0.75791   2 
   6   4  -3 1.72418 1.21571   2 
  -6  -4   3 1.00246 1.13110   2 
  -6  -4   3 1.19000 0.45730   1 
   5   4  -3 2.69994 0.55841   2 
   5   4  -3 1.77065 0.87030   2 
  -5  -4   3 2.38722 0.37839   1 
  -5  -4   3 1.66302 0.77852   2 
  -5  -4   3 3.90998 0.99897   2 
   4   4  -3 1.65102 0.69110   2 
   4   4  -3 0.55419 0.42903   2 
  -4  -4   3 1.18693 0.29035   1 
  -4  -4   3 1.16728 0.72988   2 
  -4  -4   3 1.43073 0.57324   2 
   3   4  -3 13.4054 0.64473   1 
   3   4  -3 11.7758 0.71279   2 
   3   4  -3 13.0838 1.04270   2 
  -3  -4   3 12.1308 1.04274   2 
  -3  -4   3 11.9278 0.55661   1 
  -3  -4   3 12.9842 0.93924   2 
   2   4  -3 233.743 4.92040   2 
   2   4  -3 222.977 4.67940   2 
   2   4  -3 228.180 4.59875   1 
  -2  -4   3 223.680 4.92260   2 
  -2  -4   3 232.601 4.60553   1 
  -2  -4   3 232.043 4.81469   2 
   1   4  -3 265.954 5.24514   1 
   1   4  -3 256.033 5.33724   2 
   1   4  -3 271.511 5.48653   2 
  -1  -4   3 273.340 5.43435   2 
  -1  -4   3 268.245 5.26526   1 
  -1  -4   3 262.842 5.52667   2 
   0   4  -3 1.48703 0.29113   2 
   0   4  -3 2.04773 0.24695   1 
   0   4  -3 1.70447 0.33184   2 
   0  -4   3 1.57568 0.30628   2 
   0  -4   3 1.61892 0.21943   1 
   0  -4   3 1.37147 0.36660   2 
  -1   4  -3 2.27468 0.33030   2 
  -1   4  -3 2.22768 0.26213   1 
  -1   4  -3 1.82184 0.26314   2 
   1  -4   3 1.90047 0.28311   2 
   1  -4   3 2.01433 0.23643   1 
   1  -4   3 2.16552 0.34141   2 
  -2   4  -3 85.0999 2.01065   2 
  -2   4  -3 84.9956 1.89134   1 
  -2   4  -3 87.2384 1.96969   2 
   2  -4   3 86.1767 1.89704   1 
   2  -4   3 84.7640 2.06827   2 
   2  -4   3 86.1035 1.92170   2 
  -3   4  -3 46.3909 1.25034   2 
  -3   4  -3 45.3167 1.29797   2 
  -3   4  -3 45.4303 1.14998   1 
   3  -4   3 47.7376 1.17050   1 
   3  -4   3 46.1282 1.22287   2 
   3  -4   3 45.4199 1.36566   2 
  -4   4  -3 0.73128 0.20112   1 
  -4   4  -3 0.69849 0.28610   2 
  -4   4  -3 0.59325 0.33351   2 
   4  -4   3 1.04338 0.24447   1 
   4  -4   3 1.03368 0.37731   2 
   4  -4   3 0.51728 0.30095   2 
  -5   4  -3 22.0437 0.91073   2 
  -5   4  -3 21.4220 0.74102   1 
  -5   4  -3 20.9524 0.93074   2 
   5  -4   3 18.9219 1.13789   2 
   5  -4   3 20.7141 1.06839   2 
   5  -4   3 20.4787 0.82740   1 
  -6   4  -3 28.2981 0.92388   1 
  -6   4  -3 26.8093 1.20450   2 
  -6   4  -3 26.4599 1.21608   2 
   6  -4   3 28.2397 1.40715   2 
   6  -4   3 27.7930 1.14217   1 
   6  -4   3 26.8084 1.64460   2 
  -7   4  -3 18.9126 1.37397   2 
  -7   4  -3 21.8641 0.89299   1 
  -7   4  -3 20.9115 1.43615   2 
   7  -4   3 20.0010 1.40948   1 
   7  -4   3 20.2053 2.11222   2 
   7  -4   3 23.1931 1.61681   2 
   6   3  -3 1.21684 1.00708   2 
   6   3  -3 4.31998 0.74187   2 
  -6  -3   3 3.63446 0.47016   1 
  -6  -3   3 2.56739 0.91517   2 
   5   3  -3 0.12637 0.72124   2 
   5   3  -3 0.38151 0.38608   2 
  -5  -3   3 0.36140 0.25671   1 
  -5  -3   3 -0.9232 0.71902   2 
  -5  -3   3 -0.0633 0.61708   2 
   4   3  -3 18.1823 1.19556   2 
   4   3  -3 18.2433 0.79767   2 
  -4  -3   3 18.5448 1.19592   2 
  -4  -3   3 18.7470 0.68396   1 
  -4  -3   3 18.1866 1.03688   2 
   3   3  -3 90.7082 2.32988   2 
   3   3  -3 83.8849 1.98997   2 
  -3  -3   3 85.9122 1.93044   1 
  -3  -3   3 88.3834 2.32725   2 
  -3  -3   3 87.7665 2.16941   2 
   2   3  -3 39.5256 1.25107   2 
   2   3  -3 38.4665 1.05882   2 
   2   3  -3 38.8011 1.03120   1 
  -2  -3   3 39.1700 0.99837   1 
  -2  -3   3 40.2891 1.17860   2 
  -2  -3   3 39.0878 1.26709   2 
   1   3  -3 27.9130 0.91032   2 
   1   3  -3 26.7917 0.73934   1 
   1   3  -3 29.6315 0.82760   2 
  -1  -3   3 25.6297 0.73070   1 
  -1  -3   3 27.0292 0.86844   2 
  -1  -3   3 26.9557 0.93027   2 
   0   3  -3 48.9258 1.13496   1 
   0   3  -3 50.2749 1.24123   2 
   0  -3   3 48.2047 1.28575   2 
   0  -3   3 48.3472 1.14393   1 
   0  -3   3 50.3688 1.23733   2 
  -1   3  -3 5.74245 0.35666   2 
  -1   3  -3 6.17397 0.28785   1 
   1  -3   3 5.30141 0.41168   2 
   1  -3   3 6.16127 0.30966   1 
   1  -3   3 5.59779 0.37016   2 
  -2   3  -3 168.272 3.36445   2 
  -2   3  -3 167.817 3.30835   1 
  -2   3  -3 159.892 3.41572   2 
   2  -3   3 163.042 3.43690   2 
   2  -3   3 166.656 3.32713   2 
   2  -3   3 168.773 3.30853   1 
  -3   3  -3 22.6470 0.74136   2 
  -3   3  -3 21.1735 0.63119   1 
  -3   3  -3 22.5147 0.72828   2 
   3  -3   3 22.8564 0.65230   1 
   3  -3   3 22.6877 0.75417   2 
   3  -3   3 21.8897 0.80093   2 
  -4   3  -3 30.3719 0.81333   1 
  -4   3  -3 30.2819 0.96730   2 
  -4   3  -3 31.1835 0.96005   2 
   4  -3   3 29.9870 0.83864   1 
   4  -3   3 29.7525 1.04185   2 
   4  -3   3 30.8179 1.09868   2 
  -5   3  -3 3.34846 0.33801   1 
  -5   3  -3 3.25069 0.43759   2 
  -5   3  -3 3.34355 0.42174   2 
   5  -3   3 3.32417 0.52117   2 
   5  -3   3 3.59198 0.59982   2 
   5  -3   3 3.39028 0.39385   1 
  -6   3  -3 3.39964 0.56248   2 
  -6   3  -3 3.64883 0.54644   2 
  -6   3  -3 3.46166 0.41158   1 
   6  -3   3 3.71396 0.80859   2 
   6  -3   3 3.69844 0.67089   2 
   6  -3   3 4.01783 0.52279   1 
  -7   3  -3 6.11688 0.52382   1 
  -7   3  -3 5.83234 0.80699   2 
  -7   3  -3 5.78580 0.74938   2 
   7  -3   3 6.02669 0.83717   2 
   7  -3   3 6.35169 1.23955   2 
   7   2  -3 24.3784 2.35777   2 
   7   2  -3 18.9723 1.44829   2 
  -7  -2   3 20.0481 1.58585   1 
  -7  -2   3 20.0396 2.13401   2 
  -7  -2   3 20.0035 0.99716   1 
  -7  -2   3 21.0989 2.04299   2 
   6   2  -3 18.3907 1.15432   2 
   6   2  -3 21.0346 1.70908   2 
  -6  -2   3 20.2752 1.30873   1 
  -6  -2   3 19.5724 0.83253   1 
  -6  -2   3 15.6779 1.65644   2 
  -6  -2   3 20.6417 1.45011   2 
   5   2  -3 12.8770 0.81979   2 
   5   2  -3 14.9595 1.26422   2 
  -5  -2   3 13.5027 0.61464   1 
  -5  -2   3 14.9757 1.03882   2 
   4   2  -3 10.9377 0.59704   2 
   4   2  -3 9.39647 0.90287   2 
  -4  -2   3 10.5684 0.93651   2 
  -4  -2   3 10.7159 0.49571   1 
  -4  -2   3 11.5088 0.76018   2 
   3   2  -3 12.0242 0.76427   2 
   3   2  -3 11.3259 0.51544   2 
  -3  -2   3 11.7993 0.46648   1 
  -3  -2   3 11.9027 0.63364   2 
  -3  -2   3 11.8858 0.79175   2 
   2   2  -3 7.42367 0.36269   2 
   2   2  -3 7.81140 0.38592   1 
   2   2  -3 8.11167 0.52839   2 
  -2  -2   3 7.70681 0.34335   1 
  -2  -2   3 7.34709 0.52115   2 
  -2  -2   3 8.07580 0.47495   2 
   1   2  -3 552.432 10.3424   1 
   1   2  -3 547.541 10.4213   2 
  -1  -2   3 554.429 10.3757   2 
  -1  -2   3 532.722 10.4342   2 
  -1  -2   3 546.445 10.3154   1 
   0   2  -3 377.752 6.83885   2 
   0   2  -3 373.504 6.84326   2 
   0   2  -3 379.311 6.81668   1 
   0  -2   3 304.360 6.91816   2 
   0  -2   3 355.680 6.88125   2 
  -1   2  -3 118.777 2.33233   2 
  -1   2  -3 115.619 2.30337   1 
  -1   2  -3 114.724 2.35309   2 
   1  -2   3 113.713 2.36854   2 
   1  -2   3 116.438 2.31526   1 
  -2   2  -3 724.571 13.7797   2 
  -2   2  -3 739.731 13.8275   1 
   2  -2   3 736.148 13.7281   1 
   2  -2   3 733.882 13.7796   2 
   2  -2   3 735.876 13.8315   2 
  -3   2  -3 75.7378 1.55343   1 
  -3   2  -3 75.1789 1.65878   2 
  -3   2  -3 75.3703 1.67516   2 
   3  -2   3 71.4913 1.70523   2 
   3  -2   3 74.7757 1.74743   2 
   3  -2   3 75.5183 1.54953   1 
  -4   2  -3 14.5377 0.61343   2 
  -4   2  -3 14.6710 0.45480   1 
  -4   2  -3 13.1316 0.61164   2 
   4  -2   3 14.2769 0.49915   1 
   4  -2   3 14.4048 0.67186   2 
   4  -2   3 15.6503 0.81379   2 
  -5   2  -3 5.22013 0.56651   2 
  -5   2  -3 4.80246 0.30318   1 
  -5   2  -3 5.09209 0.58976   2 
   5  -2   3 4.89223 0.48662   1 
   5  -2   3 4.98471 0.64293   2 
   5  -2   3 4.75728 0.49502   2 
  -6   2  -3 0.47584 0.19923   1 
  -6   2  -3 0.14801 0.42110   2 
  -6   2  -3 0.62900 0.42163   2 
   6  -2   3 -0.0425 0.67382   2 
   6  -2   3 1.77085 0.51324   2 
  -7   2  -3 10.2392 1.20278   2 
  -7   2  -3 9.84797 1.19472   2 
   7  -2   3 10.7824 1.26747   2 
   7  -2   3 10.3929 1.40079   2 
   7   1  -3 3.93335 0.74065   2 
   7   1  -3 2.07352 1.13535   2 
  -7  -1   3 3.51433 1.50306   2 
  -7  -1   3 3.62342 0.87603   1 
  -7  -1   3 3.25815 0.99741   2 
   6   1  -3 39.6539 1.88991   2 
   6   1  -3 37.7630 1.36757   2 
  -6  -1   3 34.8891 1.74412   2 
  -6  -1   3 38.5033 1.53963   2 
  -6  -1   3 37.5459 1.16566   1 
  -6  -1   3 35.9210 1.43416   1 
   5   1  -3 0.68908 0.49582   2 
   5   1  -3 0.08506 0.32649   2 
  -5  -1   3 0.66170 0.23583   1 
  -5  -1   3 0.54363 0.40034   1 
  -5  -1   3 -0.0062 0.52221   2 
  -5  -1   3 0.15528 0.36850   2 
   4   1  -3 84.7419 1.98161   2 
   4   1  -3 87.0440 2.26004   2 
  -4  -1   3 88.2662 2.05319   2 
  -4  -1   3 86.4454 1.97325   1 
   3   1  -3 9.76399 0.62151   2 
   3   1  -3 9.50233 0.43570   2 
  -3  -1   3 8.82522 0.42762   1 
  -3  -1   3 9.25547 0.65899   2 
  -3  -1   3 9.80150 0.48527   2 
   2   1  -3 664.393 12.6496   2 
  -2  -1   3 659.608 12.5242   2 
  -2  -1   3 668.135 12.5642   1 
  -2  -1   3 669.667 12.6750   2 
   1   1  -3 195.779 3.74446   2 
   1   1  -3 194.529 3.83924   2 
  -1  -1   3 197.353 3.78324   2 
  -1  -1   3 200.830 3.83233   1 
  -1  -1   3 192.569 3.84561   2 
   0   1  -3 34.1244 0.72241   2 
   0  -1   3 34.4995 0.76828   2 
   0  -1   3 34.2991 0.75211   2 
   0  -1   3 34.3667 0.77100   1 
  -1   1  -3 517.149 9.82968   2 
  -1   1  -3 530.635 9.84938   2 
  -1   1  -3 534.940 9.96040   1 
   1  -1   3 525.542 9.83465   2 
   1  -1   3 514.626 9.85424   2 
   1  -1   3 538.157 9.98340   1 
  -2   1  -3 220.962 4.02880   1 
  -2   1  -3 185.957 4.08820   2 
  -2   1  -3 215.899 4.11377   2 
   2  -1   3 225.675 4.03743   1 
   2  -1   3 212.635 4.13178   2 
   2  -1   3 216.486 4.18351   2 
  -3   1  -3 695.341 13.0750   2 
   3  -1   3 692.130 13.2336   2 
   3  -1   3 703.254 12.9175   1 
   3  -1   3 682.425 13.1000   2 
  -4   1  -3 32.3856 0.94839   2 
  -4   1  -3 31.3226 0.96754   2 
   4  -1   3 31.5180 0.95715   2 
  -5   1  -3 10.0834 0.67584   2 
  -5   1  -3 8.42134 0.68852   2 
   5  -1   3 10.0369 1.02446   2 
   5  -1   3 9.91431 0.68776   2 
  -6   1  -3 6.63106 0.67959   2 
  -6   1  -3 6.96907 0.65065   2 
   6  -1   3 5.87270 0.88886   2 
   6  -1   3 8.47922 0.85344   2 
  -7   1  -3 9.53027 0.92053   2 
  -7   1  -3 10.4445 0.96972   2 
   7  -1   3 9.73320 1.19708   2 
   7  -1   3 10.8356 1.39715   2 
   7   0  -3 28.5142 2.07062   2 
   7   0  -3 26.3670 1.39136   2 
  -7   0   3 26.4703 1.30801   1 
  -7   0   3 26.2370 1.84926   1 
  -7   0   3 30.9477 1.66165   2 
  -7   0   3 25.6958 2.41173   2 
   6   0  -3 20.8122 1.03484   2 
   6   0  -3 20.6381 2.25431   2 
  -6   0   3 19.2419 1.35772   2 
  -6   0   3 20.8406 1.13272   2 
  -6   0   3 20.2994 0.91131   1 
  -6   0   3 20.6995 1.08267   1 
   5   0  -3 3.07666 0.58274   2 
   5   0  -3 4.04563 0.46065   2 
  -5   0   3 2.86233 0.48253   1 
  -5   0   3 3.11585 0.53576   2 
  -5   0   3 2.82760 0.41295   2 
   4   0  -3 8.03310 0.69713   2 
   4   0  -3 6.90156 0.48384   2 
  -4   0   3 7.32191 0.60621   1 
  -4   0   3 7.29982 0.50159   2 
  -4   0   3 6.87222 0.68095   2 
   3   0  -3 26.2656 0.90686   2 
   3   0  -3 25.4623 0.73200   2 
  -3   0   3 24.0857 0.87134   1 
  -3   0   3 26.0553 0.73582   2 
  -3   0   3 23.3982 0.88699   2 
   2   0  -3 10.0154 0.46152   2 
  -2   0   3 9.88346 0.36004   2 
   1   0  -3 285.744 5.46663   2 
   1   0  -3 284.086 5.41128   2 
  -1   0   3 293.577 5.49219   2 
  -1   0   3 290.025 5.42051   2 
  -1   0  -3 141.136 2.82761   2 
  -1   0  -3 153.180 2.84651   2 
   1   0   3 152.389 2.82908   1 
   1   0   3 149.688 2.89013   2 
   1   0   3 148.406 2.84047   2 
  -2   0  -3 564.991 10.3847   2 
  -2   0  -3 541.873 10.4092   2 
   2   0   3 549.344 10.3802   2 
  -3   0  -3 173.398 3.45746   2 
   3   0   3 171.748 3.64598   2 
   3   0   3 168.804 3.44360   2 
  -4   0  -3 24.5196 0.92696   2 
  -4   0  -3 24.5866 0.84817   2 
   4   0   3 23.5311 1.05238   2 
   4   0   3 23.5651 0.80812   2 
  -5   0  -3 4.38005 0.53379   2 
  -5   0  -3 4.60717 0.51163   2 
   5   0   3 4.31481 0.48368   2 
   5   0   3 4.36094 0.65556   2 
  -6   0  -3 1.89593 0.59456   2 
  -6   0  -3 2.46026 0.56997   2 
   6   0   3 2.12912 0.80151   2 
   6   0   3 2.37469 0.52709   2 
  -7   0  -3 12.0166 1.41576   2 
  -7   0  -3 7.48657 0.97844   2 
   7   0   3 6.66860 0.83144   2 
   7   0   3 8.28416 1.28807   2 
   7  -1  -3 1.20941 0.94210   2 
   7  -1  -3 0.54718 0.63230   2 
  -7   1   3 0.11799 0.83422   2 
  -7   1   3 1.72785 0.69157   1 
  -7   1   3 -0.0440 0.60502   2 
   6  -1  -3 4.67852 0.56741   2 
  -6   1   3 3.79997 0.60011   2 
  -6   1   3 4.27995 0.54396   1 
  -6   1   3 3.80271 0.70011   2 
   5  -1  -3 8.30845 0.89587   2 
   5  -1  -3 7.64909 0.61967   2 
  -5   1   3 7.28006 0.75089   2 
  -5   1   3 5.37795 0.58055   2 
  -5   1   3 6.86741 0.65200   1 
   4  -1  -3 80.4556 2.10253   2 
   4  -1  -3 80.9250 1.88582   2 
  -4   1   3 82.2331 1.87869   2 
  -4   1   3 79.5437 1.94021   1 
  -4   1   3 81.3048 1.97577   2 
   3  -1  -3 1196.51 22.1859   2 
   3  -1  -3 1177.24 22.1280   2 
  -3   1   3 1192.63 22.4024   2 
  -3   1   3 1162.17 22.0706   2 
  -3   1   3 1149.36 22.1014   1 
  -2   1   3 37.8314 0.92158   2 
  -2   1   3 38.3717 0.89485   2 
  -2   1   3 39.0088 1.01659   1 
   1  -1  -3 34.7464 0.90445   1 
   1  -1  -3 33.6461 0.76775   2 
   1  -1  -3 33.5790 0.76151   2 
  -1   1   3 34.9286 0.76400   2 
  -1   1   3 33.6696 0.73656   2 
  -1   1   3 34.2211 0.86069   1 
   0  -1  -3 251.312 4.80118   1 
   0   1   3 247.995 4.71478   2 
   0   1   3 244.415 4.69037   2 
   0   1   3 250.464 4.76169   1 
  -1  -1  -3 0.06234 0.09987   2 
  -1  -1  -3 0.04000 0.08445   1 
  -1  -1  -3 0.12325 0.10958   2 
   1   1   3 0.06321 0.05585   1 
   1   1   3 0.11203 0.12881   2 
   1   1   3 0.07096 0.09336   2 
  -2  -1  -3 2.35179 0.28827   2 
   2   1   3 2.65524 0.30881   2 
   2   1   3 2.45591 0.23045   2 
  -3  -1  -3 10.6173 0.53121   2 
   3   1   3 10.7856 0.47082   2 
   3   1   3 10.8765 0.66487   2 
  -4  -1  -3 33.9599 1.18204   2 
  -4  -1  -3 33.3927 1.08431   2 
   4   1   3 33.0297 1.01437   2 
   4   1   3 32.4514 1.28606   2 
  -5  -1  -3 18.4574 1.08401   2 
  -5  -1  -3 17.0108 0.96257   2 
   5   1   3 18.7399 1.25281   2 
   5   1   3 17.4860 0.86974   2 
  -6  -1  -3 11.6209 1.26327   2 
  -6  -1  -3 9.72071 1.15005   2 
   6   1   3 7.73996 0.76834   2 
   6   1   3 10.3564 1.19962   2 
  -7  -1  -3 1.82215 0.90991   2 
  -7  -1  -3 3.26233 0.91711   2 
   7   1   3 4.37440 1.30080   2 
   7   1   3 3.38446 0.76804   2 
   7  -2  -3 0.22302 0.56989   2 
   7  -2  -3 1.47611 0.95389   2 
  -7   2   3 1.63266 0.47331   1 
  -7   2   3 -0.1191 0.55412   2 
  -7   2   3 -1.2888 1.02553   2 
   6  -2  -3 26.2057 1.71118   2 
   6  -2  -3 28.2560 1.21265   2 
  -6   2   3 28.3505 1.07776   1 
  -6   2   3 26.2752 1.14505   2 
  -6   2   3 22.8641 1.15017   2 
   5  -2  -3 0.57523 0.32829   2 
   5  -2  -3 0.88764 0.47618   2 
  -5   2   3 -0.0888 0.26630   2 
  -5   2   3 1.02349 0.29579   1 
  -5   2   3 0.00354 0.33521   2 
   4  -2  -3 114.423 2.56247   2 
  -4   2   3 114.518 2.51719   2 
  -4   2   3 114.091 2.52216   1 
  -4   2   3 114.459 2.51102   2 
   3  -2  -3 16.4539 0.69854   1 
   3  -2  -3 15.9812 0.63263   2 
   3  -2  -3 16.4033 0.69517   2 
  -3   2   3 16.1380 0.58667   2 
  -3   2   3 16.5539 0.61781   1 
  -3   2   3 15.8847 0.58881   2 
   2  -2  -3 113.307 2.49551   1 
   2  -2  -3 116.670 2.38669   2 
  -2   2   3 115.883 2.37349   2 
  -2   2   3 112.913 2.40326   1 
  -2   2   3 115.827 2.33415   2 
   1  -2  -3 34.5095 0.90831   1 
   1  -2  -3 34.5730 0.87926   2 
   1  -2  -3 35.2922 0.79053   2 
  -1   2   3 34.7365 0.86299   2 
  -1   2   3 35.3083 0.82283   2 
  -1   2   3 35.2000 0.85916   1 
   0  -2  -3 12.4039 0.44631   2 
   0  -2  -3 12.0314 0.38926   2 
   0  -2  -3 12.2861 0.40562   1 
   0   2   3 12.0891 0.46655   2 
   0   2   3 12.3976 0.42939   2 
   0   2   3 11.9870 0.37492   1 
  -1  -2  -3 0.64628 0.15771   2 
  -1  -2  -3 0.56329 0.16527   2 
   1   2   3 0.27363 0.08554   1 
   1   2   3 0.51271 0.16219   2 
  -2  -2  -3 134.136 2.58801   1 
  -2  -2  -3 135.750 2.83326   2 
   2   2   3 134.072 2.78071   2 
   2   2   3 135.137 2.92596   2 
   2   2   3 132.191 2.58384   1 
  -3  -2  -3 31.7823 1.01572   2 
  -3  -2  -3 29.9804 1.12326   2 
   3   2   3 31.9791 1.15172   2 
   3   2   3 31.4598 0.91219   2 
  -4  -2  -3 7.79669 0.72451   2 
   4   2   3 7.64747 0.90965   2 
   4   2   3 7.75400 0.56712   2 
  -5  -2  -3 3.58927 0.67921   2 
  -5  -2  -3 3.17896 0.77129   2 
   5   2   3 3.04441 0.77447   2 
   5   2   3 4.17551 0.51341   2 
  -6  -2  -3 9.17568 0.94837   2 
  -6  -2  -3 9.28135 1.03903   2 
   6   2   3 7.46654 1.39649   2 
   6   2   3 7.72283 1.13205   2 
  -7  -2  -3 2.45932 1.15531   2 
  -7  -2  -3 3.45571 1.16467   2 
   7   2   3 1.39327 1.46299   2 
   7   2   3 0.97898 0.85018   2 
   7  -3  -3 0.12626 0.66506   2 
   7  -3  -3 0.68350 0.97923   2 
  -7   3   3 0.27224 0.44351   1 
  -7   3   3 -1.0699 0.63719   2 
  -7   3   3 -0.4530 0.64403   2 
   6  -3  -3 1.30006 0.70663   2 
   6  -3  -3 2.26694 0.59643   2 
  -6   3   3 1.66398 0.51102   2 
  -6   3   3 1.88884 0.52281   2 
  -6   3   3 2.12159 0.50151   1 
   5  -3  -3 1.13987 0.48020   2 
   5  -3  -3 0.52080 0.47217   1 
   5  -3  -3 0.98483 0.41677   2 
  -5   3   3 1.06505 0.33862   2 
  -5   3   3 0.70230 0.27888   1 
  -5   3   3 1.19489 0.32776   2 
   4  -3  -3 3.02577 0.42150   2 
   4  -3  -3 2.04426 0.36401   2 
   4  -3  -3 1.94835 0.39230   1 
  -4   3   3 2.68954 0.34198   2 
  -4   3   3 2.24633 0.29560   1 
  -4   3   3 2.33705 0.33734   2 
   3  -3  -3 0.43395 0.22518   1 
   3  -3  -3 0.54611 0.22505   2 
   3  -3  -3 0.53447 0.26299   2 
  -3   3   3 0.11916 0.18214   2 
  -3   3   3 0.39168 0.15828   1 
  -3   3   3 0.26855 0.17397   2 
   2  -3  -3 310.394 5.83215   2 
   2  -3  -3 301.916 5.96341   1 
  -2   3   3 294.779 5.85787   1 
  -2   3   3 294.786 5.84421   2 
  -2   3   3 304.070 5.90653   2 
   1  -3  -3 3.34420 0.28163   1 
   1  -3  -3 3.40192 0.27348   2 
  -1   3   3 3.03753 0.33628   2 
  -1   3   3 3.02220 0.24531   1 
  -1   3   3 2.93372 0.31330   2 
   0  -3  -3 35.9955 0.88658   1 
   0  -3  -3 35.1118 0.91925   2 
   0   3   3 33.8701 0.96322   2 
   0   3   3 35.7613 0.87142   1 
   0   3   3 36.5256 1.02136   2 
  -1  -3  -3 27.8930 0.85260   2 
  -1  -3  -3 27.9134 0.70286   1 
   1   3   3 27.6189 0.93312   2 
   1   3   3 26.2580 0.68806   1 
  -2  -3  -3 16.3175 0.48436   1 
  -2  -3  -3 17.4888 0.72845   2 
   2   3   3 17.0132 0.66801   2 
   2   3   3 17.7637 0.83722   2 
   2   3   3 16.7020 0.48487   1 
  -3  -3  -3 26.3393 1.01731   2 
  -3  -3  -3 26.5289 0.66444   1 
  -3  -3  -3 26.7730 1.11553   2 
   3   3   3 27.2535 0.92282   2 
   3   3   3 27.3053 0.65518   1 
   3   3   3 26.5795 1.19825   2 
  -4  -3  -3 -0.3926 0.52271   2 
  -4  -3  -3 0.12102 0.42909   2 
   4   3   3 0.17348 0.51985   2 
   4   3   3 0.54747 0.35205   2 
  -5  -3  -3 2.55373 0.68945   2 
   5   3   3 2.47922 0.51587   2 
   5   3   3 1.48787 0.72709   2 
  -6  -3  -3 7.17095 0.99854   2 
  -6  -3  -3 8.74375 1.21175   2 
   6   3   3 10.4888 1.23768   2 
   6   3   3 6.03818 1.22285   2 
   7  -4  -3 10.9834 1.19045   2 
   7  -4  -3 8.18856 1.34896   2 
  -7   4   3 9.68898 1.17822   2 
  -7   4   3 9.94522 0.88520   1 
  -7   4   3 10.3556 1.01128   2 
   6  -4  -3 21.8791 1.28686   2 
   6  -4  -3 19.4111 1.37466   1 
   6  -4  -3 21.0188 1.48038   2 
  -6   4   3 21.7092 1.09482   2 
  -6   4   3 21.1134 1.11169   2 
  -6   4   3 21.1328 0.99131   1 
   5  -4  -3 7.18894 0.88996   1 
   5  -4  -3 6.97710 0.82465   2 
   5  -4  -3 9.22451 0.92815   2 
  -5   4   3 7.19197 0.66335   2 
  -5   4   3 7.83876 0.68127   2 
  -5   4   3 7.51139 0.62452   1 
   4  -4  -3 20.6153 0.94985   2 
   4  -4  -3 19.3715 0.92722   1 
   4  -4  -3 20.6577 0.92407   2 
  -4   4   3 20.4876 0.81963   2 
  -4   4   3 19.4903 0.81188   2 
  -4   4   3 19.6540 0.77240   1 
   3  -4  -3 0.34909 0.23645   2 
   3  -4  -3 -0.0426 0.28857   2 
   3  -4  -3 -0.0400 0.22440   1 
  -3   4   3 0.13876 0.19400   2 
  -3   4   3 0.16892 0.21277   2 
  -3   4   3 0.19941 0.17879   1 
   2  -4  -3 35.4076 1.02680   1 
   2  -4  -3 34.8590 1.13079   2 
   2  -4  -3 36.6217 0.95789   2 
  -2   4   3 34.8030 1.04594   2 
  -2   4   3 34.4917 1.02843   2 
  -2   4   3 35.0374 0.97482   1 
   1  -4  -3 61.3340 1.42232   2 
   1  -4  -3 59.6471 1.44418   1 
  -1   4   3 61.7612 1.56162   2 
  -1   4   3 61.1329 1.42998   1 
  -1   4   3 58.9700 1.52326   2 
   0  -4  -3 23.7782 0.72101   1 
   0  -4  -3 24.5172 0.81733   2 
   0   4   3 24.7671 0.92034   2 
   0   4   3 23.9925 0.85883   2 
   0   4   3 22.9201 0.70446   1 
  -1  -4  -3 16.8710 0.55327   1 
  -1  -4  -3 13.8345 1.18413   2 
  -1  -4  -3 15.8107 0.72500   2 
   1   4   3 15.8900 0.54136   1 
   1   4   3 16.6371 0.84958   2 
  -2  -4  -3 20.4510 0.62242   1 
  -2  -4  -3 19.8777 0.97746   2 
  -2  -4  -3 21.3875 0.90645   2 
   2   4   3 19.9654 0.61731   1 
   2   4   3 20.9590 1.02354   2 
   2   4   3 19.9752 0.86379   2 
  -3  -4  -3 4.92302 0.58733   2 
  -3  -4  -3 3.78857 0.60485   2 
  -3  -4  -3 4.22845 0.33831   1 
   3   4   3 4.75675 0.49206   2 
   3   4   3 4.42843 0.61729   2 
   3   4   3 4.51188 0.31713   1 
  -4  -4  -3 1.16108 1.07805   2 
  -4  -4  -3 1.05822 0.66230   2 
  -4  -4  -3 0.81541 0.20764   1 
   4   4   3 1.57218 0.44092   2 
   4   4   3 1.71440 0.74025   2 
   4   4   3 1.34483 0.23552   1 
  -5  -4  -3 8.85876 1.14778   2 
  -5  -4  -3 9.70938 1.04259   2 
   5   4   3 8.72599 1.13720   2 
   5   4   3 9.81736 1.37691   2 
  -6  -4  -3 -1.3740 0.99441   2 
  -6  -4  -3 -0.4868 1.15015   2 
   6   4   3 0.08488 1.23073   2 
   6   4   3 1.36647 0.76686   2 
   7  -5  -3 27.2622 1.83783   2 
  -7   5   3 30.3768 1.55375   2 
  -7   5   3 24.1120 1.56046   2 
  -7   5   3 28.5939 1.30515   1 
   6  -5  -3 22.7649 1.47907   1 
   6  -5  -3 19.6090 1.43493   2 
   6  -5  -3 18.7375 1.60185   2 
  -6   5   3 19.5563 1.19578   2 
  -6   5   3 21.3062 1.18760   2 
  -6   5   3 20.9819 1.01077   1 
   5  -5  -3 5.14867 0.73096   2 
   5  -5  -3 7.87877 0.81916   2 
   5  -5  -3 5.89481 0.72402   1 
  -5   5   3 5.17452 0.58536   2 
  -5   5   3 6.05601 0.60218   1 
  -5   5   3 5.32752 0.59735   2 
   4  -5  -3 4.40809 0.53301   2 
   4  -5  -3 4.96152 0.61787   2 
   4  -5  -3 3.62061 0.51097   1 
  -4   5   3 3.64981 0.47760   2 
  -4   5   3 4.08642 0.49661   1 
  -4   5   3 3.46025 0.45344   2 
   3  -5  -3 0.37502 0.29243   1 
   3  -5  -3 -0.3011 0.34915   2 
   3  -5  -3 0.11553 0.25460   2 
  -3   5   3 0.14340 0.32684   2 
  -3   5   3 0.14568 0.23020   1 
  -3   5   3 0.14604 0.30093   2 
   2  -5  -3 26.4859 1.07060   2 
   2  -5  -3 26.4806 0.85780   2 
   2  -5  -3 24.4235 0.89012   1 
  -2   5   3 27.1055 0.98450   2 
  -2   5   3 25.7865 0.98765   2 
  -2   5   3 26.4092 0.84821   1 
   1  -5  -3 0.11102 0.23413   2 
   1  -5  -3 -0.2253 0.18036   1 
   1  -5  -3 -0.3277 0.29706   2 
  -1   5   3 0.56270 0.34851   2 
  -1   5   3 0.05499 0.16419   1 
  -1   5   3 -0.0921 0.26770   2 
   0  -5  -3 2.55019 0.27984   1 
   0  -5  -3 3.03551 0.46594   2 
   0  -5  -3 3.03196 0.39768   2 
   0   5   3 2.54437 0.28090   1 
   0   5   3 2.26929 0.40656   2 
   0   5   3 2.98241 0.45277   2 
  -1  -5  -3 28.1155 1.06801   2 
  -1  -5  -3 30.3668 0.88363   1 
  -1  -5  -3 27.8905 1.18597   2 
   1   5   3 28.0777 1.09495   2 
   1   5   3 28.6116 0.85724   1 
  -2  -5  -3 33.7381 0.94220   1 
  -2  -5  -3 33.1534 1.37438   2 
  -2  -5  -3 32.6435 1.26679   2 
   2   5   3 32.5928 0.92857   1 
   2   5   3 31.3758 1.19385   2 
  -3  -5  -3 13.1844 1.25227   2 
  -3  -5  -3 14.1336 0.60386   1 
  -3  -5  -3 14.4780 1.08337   2 
   3   5   3 14.2833 0.95251   2 
   3   5   3 13.1548 0.56132   1 
   3   5   3 13.4223 1.25499   2 
  -4  -5  -3 -0.8322 0.66176   2 
  -4  -5  -3 -0.0754 0.27574   1 
  -4  -5  -3 -0.8591 0.74876   2 
   4   5   3 0.49964 0.54889   2 
   4   5   3 -0.2354 0.24449   1 
   4   5   3 0.34414 0.81678   2 
  -5  -5  -3 0.95825 0.31713   1 
  -5  -5  -3 0.62240 0.91437   2 
  -5  -5  -3 0.05270 1.09009   2 
   5   5   3 0.48848 0.66452   2 
   5   5   3 1.98243 1.19948   2 
   6  -6  -3 1.84218 0.86894   1 
   6  -6  -3 2.22554 0.91744   2 
   6  -6  -3 0.45257 0.82760   2 
  -6   6   3 1.58752 0.63277   2 
  -6   6   3 0.79772 0.55576   2 
  -6   6   3 1.66330 0.45450   1 
   5  -6  -3 1.69079 0.62776   2 
   5  -6  -3 2.26106 0.70099   2 
   5  -6  -3 0.91425 0.57374   1 
  -5   6   3 1.81181 0.55117   2 
  -5   6   3 0.96351 0.56571   2 
  -5   6   3 1.23953 0.37595   1 
   4  -6  -3 1.99259 0.45316   1 
   4  -6  -3 2.59412 0.64776   2 
   4  -6  -3 2.63472 0.89402   2 
  -4   6   3 3.22101 0.52431   2 
  -4   6   3 2.63182 0.50647   2 
  -4   6   3 2.52897 0.41215   1 
   3  -6  -3 0.32446 0.42898   2 
   3  -6  -3 0.36599 0.30924   2 
  -3   6   3 -0.0682 0.40396   2 
  -3   6   3 0.09842 0.34432   2 
  -3   6   3 -0.5149 0.40158   1 
   2  -6  -3 6.19354 0.57636   1 
   2  -6  -3 6.64671 0.76265   2 
   2  -6  -3 7.53072 0.62126   2 
  -2   6   3 7.10750 0.51725   1 
  -2   6   3 6.45015 0.73060   2 
  -2   6   3 7.30295 0.77406   2 
   1  -6  -3 0.15581 0.25390   1 
   1  -6  -3 0.16057 0.39536   2 
   1  -6  -3 0.33879 0.29896   2 
  -1   6   3 0.17123 0.20831   1 
  -1   6   3 0.76542 0.40555   2 
  -1   6   3 0.29898 0.40806   2 
   0  -6  -3 1.26028 0.26959   1 
   0  -6  -3 1.78593 0.39041   2 
   0  -6  -3 1.63760 0.48106   2 
   0   6   3 1.91002 0.47921   2 
   0   6   3 1.50084 0.47447   2 
   0   6   3 1.06842 0.26958   1 
  -1  -6  -3 1.93233 0.34799   1 
  -1  -6  -3 1.94816 0.46870   2 
  -1  -6  -3 1.63552 0.55752   2 
   1   6   3 1.81593 0.31582   1 
   1   6   3 2.36375 0.58952   2 
   1   6   3 1.97054 0.49583   2 
  -2  -6  -3 5.19831 0.53463   1 
  -2  -6  -3 6.00343 0.74861   2 
  -2  -6  -3 5.93200 1.03571   2 
   2   6   3 6.38242 0.86018   2 
   2   6   3 6.08246 0.70152   2 
   2   6   3 6.16687 0.53849   1 
  -3  -6  -3 13.0271 1.53702   2 
  -3  -6  -3 14.6332 0.72012   1 
  -3  -6  -3 13.3054 1.33166   2 
   3   6   3 14.1132 1.58027   2 
   3   6   3 13.4766 0.65635   1 
   3   6   3 12.2551 1.18651   2 
  -4  -6  -3 3.54840 1.08342   2 
  -4  -6  -3 5.35239 0.93822   2 
  -4  -6  -3 3.49483 0.44962   1 
   4   6   3 2.88198 0.68831   2 
   4   6   3 4.10553 1.09690   2 
   4   6   3 4.93622 0.61464   1 
  -5  -6  -3 -0.3441 0.44252   1 
  -5  -6  -3 0.23343 1.16622   2 
  -5  -6  -3 0.76460 1.25785   2 
   5   6   3 1.00752 0.82913   2 
   5   6   3 -2.4534 1.43318   2 
   6  -7  -3 2.28698 0.92346   1 
   6  -7  -3 2.03824 0.98369   2 
   6  -7  -3 1.81743 0.94167   2 
  -6   7   3 1.86655 0.88289   2 
  -6   7   3 1.07360 0.69140   2 
  -6   7   3 2.20090 0.55507   1 
   5  -7  -3 3.46129 0.77884   1 
   5  -7  -3 2.80335 0.94230   2 
   5  -7  -3 2.91168 0.75220   2 
  -5   7   3 3.34012 0.70441   2 
  -5   7   3 2.24304 0.64195   2 
  -5   7   3 3.43197 0.52292   1 
   4  -7  -3 64.4779 1.90507   2 
   4  -7  -3 64.4510 2.28788   2 
   4  -7  -3 68.6585 2.01365   1 
  -4   7   3 63.5977 2.13027   2 
  -4   7   3 65.7455 1.83939   1 
  -4   7   3 65.9615 2.01752   2 
   3  -7  -3 2.00686 0.46773   2 
   3  -7  -3 1.20487 0.40255   1 
   3  -7  -3 2.02221 0.76022   2 
  -3   7   3 1.72017 0.37100   1 
  -3   7   3 2.31036 0.64183   2 
  -3   7   3 1.68423 0.51628   2 
   2  -7  -3 19.3491 1.30842   2 
   2  -7  -3 18.0949 0.91828   1 
  -2   7   3 18.8595 1.16493   2 
  -2   7   3 17.7373 0.81381   1 
  -2   7   3 18.8648 1.15911   2 
   1  -7  -3 27.3762 1.25423   2 
   1  -7  -3 27.7913 1.05872   1 
   1  -7  -3 28.4718 1.51758   2 
  -1   7   3 27.8415 1.02381   1 
  -1   7   3 28.3872 1.35557   2 
  -1   7   3 27.3054 1.36898   2 
   0  -7  -3 -0.2387 0.56352   2 
   0  -7  -3 0.35060 0.45173   1 
   0   7   3 0.36022 0.60568   2 
   0   7   3 -0.3748 0.49696   1 
   0   7   3 0.28232 0.54225   2 
  -1  -7  -3 8.08514 0.69574   1 
  -1  -7  -3 8.22697 0.97225   2 
  -1  -7  -3 7.67729 0.77190   2 
   1   7   3 7.08485 0.74815   2 
   1   7   3 6.06249 0.88655   2 
   1   7   3 6.15126 0.60027   1 
  -2  -7  -3 12.8977 0.82633   1 
  -2  -7  -3 13.3771 1.31238   2 
  -2  -7  -3 15.2196 1.55724   2 
   2   7   3 12.9397 1.59090   2 
   2   7   3 12.3573 1.27366   2 
   2   7   3 14.3258 0.76672   1 
  -3  -7  -3 105.504 3.10688   2 
  -3  -7  -3 104.806 2.47884   1 
  -3  -7  -3 98.3058 3.30842   2 
   3   7   3 109.324 3.41096   2 
   3   7   3 106.704 2.44236   1 
   3   7   3 105.739 2.94385   2 
  -4  -7  -3 6.37874 1.45864   2 
  -4  -7  -3 2.61575 1.17731   2 
  -4  -7  -3 4.70411 0.64239   1 
   4   7   3 4.28501 0.56235   1 
   4   7   3 4.64111 0.95957   2 
   4   7   3 4.11166 1.38751   2 
   5  -8  -3 -0.2187 0.79494   2 
   5  -8  -3 -0.4657 0.79316   1 
   5  -8  -3 1.17404 1.01295   2 
  -5   8   3 -0.5885 0.72789   2 
  -5   8   3 1.16742 0.79854   2 
  -5   8   3 0.38146 0.52097   1 
   4  -8  -3 2.80830 0.68247   2 
   4  -8  -3 4.84692 1.03982   2 
   4  -8  -3 2.12283 0.65961   1 
  -4   8   3 2.54487 0.47234   1 
  -4   8   3 3.68127 0.81053   2 
  -4   8   3 2.53462 0.88457   2 
   3  -8  -3 46.8555 1.64740   1 
   3  -8  -3 51.2179 2.18749   2 
   3  -8  -3 46.2617 1.58435   2 
  -3   8   3 48.6523 1.83500   2 
  -3   8   3 46.4788 1.50151   1 
  -3   8   3 41.8333 2.28718   2 
   2  -8  -3 22.1612 1.11013   1 
   2  -8  -3 22.1663 1.65362   2 
   2  -8  -3 21.5684 1.24990   2 
  -2   8   3 23.2562 1.55316   2 
  -2   8   3 21.8751 1.00919   1 
  -2   8   3 23.6413 1.44293   2 
   1  -8  -3 -0.4539 0.40917   1 
   1  -8  -3 0.12486 0.52348   2 
   1  -8  -3 -0.5095 0.76640   2 
  -1   8   3 -0.1256 0.33853   1 
  -1   8   3 -0.3443 0.63980   2 
  -1   8   3 -0.0258 0.64457   2 
   0  -8  -3 0.18654 0.80300   2 
   0  -8  -3 0.15147 0.58632   2 
   0  -8  -3 0.15804 0.42570   1 
   0   8   3 0.40566 1.25905   2 
   0   8   3 0.51557 0.37809   1 
   0   8   3 1.16280 0.75365   2 
  -1  -8  -3 0.22731 0.47420   1 
  -1  -8  -3 0.37048 0.85163   2 
  -1  -8  -3 -0.0555 0.69809   2 
   1   8   3 0.70275 0.90480   2 
   1   8   3 0.00378 0.80705   2 
   1   8   3 -1.0183 0.37275   1 
  -2  -8  -3 2.74260 0.55897   1 
  -2  -8  -3 2.25913 0.86574   2 
  -2  -8  -3 2.79020 1.04386   2 
   2   8   3 1.58388 0.78704   2 
   2   8   3 3.07344 0.52380   1 
   2   8   3 2.47784 1.07578   2 
  -3  -8  -3 4.37330 1.34101   2 
  -3  -8  -3 4.94674 0.73395   1 
  -3  -8  -3 6.18889 1.20116   2 
   3   8   3 6.57730 1.43471   2 
   3   8   3 4.73071 0.62467   1 
   3   8   3 3.63624 1.03665   2 
   3  -9  -3 60.9408 2.12205   1 
   3  -9  -3 65.1362 2.13137   2 
   3  -9  -3 66.6792 2.85588   2 
  -3   9   3 69.1333 2.46175   2 
  -3   9   3 67.1095 2.59775   2 
   2  -9  -3 0.76980 0.54587   1 
   2  -9  -3 1.49878 1.00196   2 
   2  -9  -3 3.00197 0.77002   2 
  -2   9   3 2.78159 0.93716   2 
  -2   9   3 2.18847 0.95677   2 
  -2   9   3 2.61139 0.48346   1 
   1  -9  -3 -1.1856 0.53369   1 
   1  -9  -3 0.62745 0.73307   2 
   1  -9  -3 -0.2119 0.99575   2 
  -1   9   3 1.66785 0.87161   2 
  -1   9   3 -0.2291 0.39398   1 
  -1   9   3 1.15906 0.95577   2 
   0  -9  -3 11.8647 1.12998   1 
   0  -9  -3 8.72631 1.01496   2 
   0  -9  -3 9.92402 1.36484   2 
   0   9   3 9.67560 1.18869   2 
   0   9   3 9.16538 0.93102   1 
   0   9   3 10.6503 1.20211   2 
  -1  -9  -3 0.61480 0.87622   2 
  -1  -9  -3 2.73340 1.30443   2 
  -1  -9  -3 1.07918 0.62203   1 
   1   9   3 2.08262 1.05810   2 
   1   9   3 1.61174 1.14001   2 
   1   9   3 2.08684 0.62862   1 
   1   9  -4 6.11202 1.05623   2 
   1   9  -4 9.92280 1.06702   1 
   1   9  -4 10.2688 1.37485   2 
  -1  -9   4 7.91903 0.87870   1 
  -1  -9   4 8.48752 1.50563   2 
  -1  -9   4 5.96091 1.13711   2 
   0   9  -4 3.11519 0.97223   2 
   0   9  -4 2.28663 0.98225   2 
   0   9  -4 2.79035 0.55224   1 
   0  -9   4 4.17359 1.26252   2 
   0  -9   4 3.36233 0.96247   2 
   0  -9   4 2.90360 0.69262   1 
  -1   9  -4 0.43994 0.88535   2 
  -1   9  -4 -0.4694 0.81809   2 
  -1   9  -4 0.35344 0.48981   1 
   1  -9   4 -0.8933 0.73381   2 
   1  -9   4 -0.1989 0.52188   1 
   1  -9   4 -0.8534 1.11455   2 
  -2   9  -4 27.6510 1.93792   2 
  -2   9  -4 30.1776 1.29604   1 
  -2   9  -4 29.0872 1.72663   2 
   2  -9   4 29.0941 1.74758   2 
   2  -9   4 27.4005 1.34695   1 
   2  -9   4 26.5910 2.31068   2 
  -3   9  -4 2.49301 0.85860   2 
  -3   9  -4 1.63713 0.98370   2 
  -3   9  -4 3.46171 0.60775   1 
   3  -9   4 1.84130 1.22126   2 
   3  -9   4 4.35738 0.90620   2 
   3  -9   4 2.62869 0.64876   1 
   3   8  -4 87.1810 3.51015   2 
   3   8  -4 92.4697 2.89909   2 
   3   8  -4 87.8540 2.54166   1 
  -3  -8   4 96.8151 3.74363   2 
  -3  -8   4 89.1907 2.56225   1 
  -3  -8   4 93.4038 3.41224   2 
   2   8  -4 -0.2685 1.01214   2 
   2   8  -4 0.15286 0.47399   1 
   2   8  -4 -0.2487 0.72402   2 
  -2  -8   4 -0.3649 1.01705   2 
  -2  -8   4 0.72263 0.55192   1 
  -2  -8   4 1.20570 1.20010   2 
   1   8  -4 0.85570 0.41074   1 
   1   8  -4 0.09237 0.83795   2 
   1   8  -4 0.49894 0.75579   2 
  -1  -8   4 0.35015 0.97141   2 
  -1  -8   4 0.32493 0.82914   2 
  -1  -8   4 -0.2292 0.43625   1 
   0   8  -4 6.25733 0.95978   2 
   0   8  -4 5.96517 0.70139   1 
   0   8  -4 6.04487 0.82670   2 
   0  -8   4 6.18973 1.03421   2 
   0  -8   4 5.66018 0.65212   1 
   0  -8   4 4.92628 0.83419   2 
  -1   8  -4 2.37923 0.45277   1 
  -1   8  -4 2.32518 0.72981   2 
  -1   8  -4 0.94033 0.68628   2 
   1  -8   4 2.43675 0.74191   2 
   1  -8   4 2.53438 1.00947   2 
   1  -8   4 2.50795 0.52231   1 
  -2   8  -4 1.39243 0.75938   2 
  -2   8  -4 2.01193 0.64171   2 
  -2   8  -4 2.92309 0.44598   1 
   2  -8   4 2.58793 0.87747   2 
   2  -8   4 1.97957 0.47946   1 
   2  -8   4 2.32070 0.65038   2 
  -3   8  -4 -0.0504 0.42439   1 
  -3   8  -4 -0.1616 0.70409   2 
  -3   8  -4 0.41369 0.56562   2 
   3  -8   4 -0.4397 0.43855   1 
   3  -8   4 0.54533 0.60462   2 
   3  -8   4 2.69612 1.57471   2 
  -4   8  -4 9.59224 1.09691   2 
  -4   8  -4 9.18728 0.90793   2 
  -4   8  -4 10.2593 0.91813   1 
   4  -8   4 7.93142 0.75111   1 
   4  -8   4 10.0753 1.24002   2 
   4  -8   4 10.1998 1.23972   2 
  -5   8  -4 14.8886 1.13898   1 
  -5   8  -4 14.2648 1.36467   2 
  -5   8  -4 15.3316 1.44272   2 
   5  -8   4 16.0203 1.22383   1 
   5  -8   4 16.3211 1.59553   2 
   5  -8   4 14.2997 1.49674   2 
   4   7  -4 -0.6326 1.21504   2 
   4   7  -4 -0.0837 0.86045   2 
   4   7  -4 0.17164 0.61741   1 
  -4  -7   4 -0.0630 0.63840   1 
  -4  -7   4 -0.8697 1.25130   2 
  -4  -7   4 1.34810 1.51336   2 
   3   7  -4 24.2172 1.18935   1 
   3   7  -4 25.2821 1.50560   2 
   3   7  -4 28.6055 2.04530   2 
  -3  -7   4 25.0893 1.98863   2 
  -3  -7   4 23.3310 1.21420   1 
   2   7  -4 4.97481 0.55357   1 
   2   7  -4 4.70351 0.93853   2 
   2   7  -4 4.43206 0.70178   2 
  -2  -7   4 5.82905 0.96683   2 
  -2  -7   4 5.66909 0.61791   1 
  -2  -7   4 4.06878 0.83557   2 
   1   7  -4 1.30361 0.63206   2 
   1   7  -4 0.53948 0.51690   2 
   1   7  -4 2.43610 0.38620   1 
  -1  -7   4 2.16610 0.66671   2 
  -1  -7   4 2.38405 0.43726   1 
  -1  -7   4 2.47105 0.80601   2 
   0   7  -4 5.13606 0.75021   2 
   0   7  -4 5.48032 0.55874   1 
   0   7  -4 4.67035 0.71291   2 
   0  -7   4 6.13959 0.93502   2 
   0  -7   4 3.72403 0.63263   2 
   0  -7   4 6.58699 0.69140   1 
  -1   7  -4 0.42994 0.27653   1 
  -1   7  -4 0.44121 0.52760   2 
  -1   7  -4 -0.3494 0.47558   2 
   1  -7   4 -1.1018 0.58715   2 
   1  -7   4 -0.0761 0.31464   1 
   1  -7   4 0.12539 0.44747   2 
  -2   7  -4 20.2403 1.23232   2 
  -2   7  -4 19.6102 0.85495   1 
   2  -7   4 17.8573 1.36690   2 
   2  -7   4 17.2948 0.87453   1 
   2  -7   4 19.1141 1.08246   2 
  -3   7  -4 50.5804 1.49244   1 
  -3   7  -4 49.6853 1.80898   2 
  -3   7  -4 50.5139 1.65737   2 
   3  -7   4 50.9491 1.59729   2 
   3  -7   4 50.6199 1.99004   2 
   3  -7   4 49.4212 1.51760   1 
  -4   7  -4 17.7900 0.94117   1 
  -4   7  -4 16.9773 1.13385   2 
  -4   7  -4 16.6900 1.29292   2 
   4  -7   4 15.7162 0.92454   1 
   4  -7   4 15.7825 1.49682   2 
   4  -7   4 17.0632 1.13730   2 
  -5   7  -4 12.0283 1.39917   2 
  -5   7  -4 8.72018 0.83174   1 
  -5   7  -4 10.7047 1.10481   2 
   5  -7   4 7.98650 0.90646   1 
   5  -7   4 8.62145 1.08330   2 
   5  -7   4 12.9675 1.29730   2 
   5   6  -4 -0.3375 1.50932   2 
   5   6  -4 0.83529 0.76872   2 
  -5  -6   4 0.52028 1.19959   2 
  -5  -6   4 -0.9276 1.42431   2 
  -5  -6   4 1.34249 0.58101   1 
   4   6  -4 7.01340 1.18307   2 
   4   6  -4 8.20236 0.83757   2 
   4   6  -4 8.74008 0.96745   1 
  -4  -6   4 6.33044 2.43378   2 
  -4  -6   4 8.36379 1.19612   2 
  -4  -6   4 10.9874 0.90696   1 
   3   6  -4 101.506 3.03691   2 
   3   6  -4 99.6548 2.61860   2 
   3   6  -4 102.522 2.52499   1 
  -3  -6   4 101.622 2.92910   2 
  -3  -6   4 103.441 3.18887   2 
  -3  -6   4 105.040 2.50723   1 
   2   6  -4 82.1023 2.46760   2 
   2   6  -4 76.1306 1.99942   1 
   2   6  -4 77.1109 2.13641   2 
  -2  -6   4 77.7754 2.07492   1 
  -2  -6   4 79.1082 2.51345   2 
  -2  -6   4 78.7358 2.34863   2 
   1   6  -4 1.08114 0.27209   1 
   1   6  -4 0.50188 0.47785   2 
   1   6  -4 0.69883 0.40613   2 
  -1  -6   4 0.28705 0.55769   2 
  -1  -6   4 0.78541 0.27394   1 
  -1  -6   4 1.23306 0.55955   2 
   0   6  -4 7.37427 0.78307   2 
   0   6  -4 7.58584 0.52583   1 
   0   6  -4 8.71459 0.84351   2 
   0  -6   4 9.67700 0.60700   1 
   0  -6   4 8.07829 0.86324   2 
   0  -6   4 8.20626 0.81823   2 
  -1   6  -4 2.01382 0.31187   1 
  -1   6  -4 1.99646 0.46219   2 
  -1   6  -4 2.31134 0.45867   2 
   1  -6   4 2.03123 0.44109   2 
   1  -6   4 2.69087 0.55302   2 
   1  -6   4 2.14547 0.34416   1 
  -2   6  -4 29.0422 1.21227   2 
  -2   6  -4 28.9045 0.95550   1 
  -2   6  -4 28.0843 1.08989   2 
   2  -6   4 28.8603 1.08499   2 
   2  -6   4 27.7472 1.30685   2 
   2  -6   4 27.9844 0.99002   1 
  -3   6  -4 4.39586 0.52468   1 
  -3   6  -4 5.79160 0.66308   2 
  -3   6  -4 5.20179 0.62438   2 
   3  -6   4 5.67868 0.56889   2 
   3  -6   4 4.81223 0.55443   1 
   3  -6   4 4.25598 0.69765   2 
  -4   6  -4 56.2637 1.65484   2 
  -4   6  -4 56.0886 1.80923   2 
  -4   6  -4 56.1791 1.53102   1 
   4  -6   4 55.5539 1.94002   2 
   4  -6   4 55.6262 1.67674   2 
   4  -6   4 54.2395 1.52687   1 
  -5   6  -4 63.5940 1.87213   2 
  -5   6  -4 60.7385 2.03403   2 
   5  -6   4 63.4444 2.01262   2 
   5  -6   4 64.0340 2.13510   1 
   5  -6   4 54.7252 3.24356   2 
  -6   6  -4 26.2967 1.10517   1 
  -6   6  -4 28.4738 1.67090   2 
  -6   6  -4 30.3939 1.44018   2 
   6  -6   4 25.3001 1.91399   2 
   6  -6   4 28.7017 1.83658   2 
   6  -6   4 28.9246 1.31114   1 
   5   5  -4 0.14708 1.08408   2 
   5   5  -4 0.39368 0.57619   2 
  -5  -5   4 0.18396 0.42218   1 
  -5  -5   4 -0.8212 1.11133   2 
  -5  -5   4 0.40628 0.95047   2 
   4   5  -4 50.5192 1.64831   2 
   4   5  -4 51.3852 2.23486   2 
  -4  -5   4 51.8377 1.49945   1 
  -4  -5   4 54.7551 2.08898   2 
  -4  -5   4 53.6938 2.34714   2 
   3   5  -4 10.9824 0.69354   1 
   3   5  -4 10.0068 0.79831   2 
   3   5  -4 11.3498 1.32622   2 
  -3  -5   4 11.7127 1.31944   2 
  -3  -5   4 10.5152 0.64323   1 
  -3  -5   4 10.8736 1.15175   2 
   2   5  -4 3.90683 0.43823   1 
   2   5  -4 3.61830 0.47086   2 
   2   5  -4 3.30898 0.57055   2 
  -2  -5   4 4.85004 0.69858   2 
  -2  -5   4 4.21562 0.63557   2 
  -2  -5   4 4.71592 0.44929   1 
   1   5  -4 4.25228 0.52701   2 
   1   5  -4 4.76744 0.42300   1 
   1   5  -4 5.67405 0.56447   2 
  -1  -5   4 4.05349 0.55847   2 
  -1  -5   4 5.72758 0.42583   1 
  -1  -5   4 3.89543 0.61092   2 
   0   5  -4 11.1403 0.75986   2 
   0   5  -4 11.6292 0.54080   1 
   0   5  -4 11.8022 0.71527   2 
   0  -5   4 11.8053 0.75213   2 
   0  -5   4 11.9343 0.56653   1 
   0  -5   4 11.4166 0.87517   2 
  -1   5  -4 143.972 3.05216   1 
  -1   5  -4 143.383 3.20563   2 
  -1   5  -4 142.215 3.15419   2 
   1  -5   4 144.238 3.06729   1 
   1  -5   4 146.539 3.15646   2 
   1  -5   4 142.862 3.32539   2 
  -2   5  -4 0.26990 0.18460   1 
  -2   5  -4 0.37445 0.30536   2 
  -2   5  -4 0.63268 0.33282   2 
   2  -5   4 0.49618 0.29401   2 
   2  -5   4 0.55724 0.35914   2 
   2  -5   4 -0.0499 0.20400   1 
  -3   5  -4 37.2492 1.16329   2 
  -3   5  -4 37.1438 1.25638   2 
  -3   5  -4 37.0245 1.07517   1 
   3  -5   4 36.1050 1.32752   2 
   3  -5   4 37.8665 1.14884   2 
   3  -5   4 38.0354 1.09077   1 
  -4   5  -4 19.8367 0.75351   1 
  -4   5  -4 20.6786 1.00473   2 
  -4   5  -4 19.5679 0.89167   2 
   4  -5   4 20.4894 1.10408   2 
   4  -5   4 21.7809 0.95884   2 
   4  -5   4 19.1074 0.78307   1 
  -5   5  -4 12.8496 0.94954   2 
  -5   5  -4 10.6382 0.61495   1 
  -5   5  -4 12.1715 0.87088   2 
   5  -5   4 11.8416 0.71340   1 
   5  -5   4 12.3905 1.10453   2 
   5  -5   4 12.9240 1.07920   2 
  -6   5  -4 5.78228 0.63864   2 
  -6   5  -4 4.93963 0.50273   1 
  -6   5  -4 5.81482 0.75134   2 
   6  -5   4 7.00381 0.85948   1 
   6  -5   4 4.83682 0.87082   2 
   6  -5   4 4.89791 0.90617   2 
   6   4  -4 3.25907 1.31108   2 
   6   4  -4 4.02062 0.76068   2 
  -6  -4   4 2.43806 1.33733   2 
  -6  -4   4 4.87876 1.24314   2 
   5   4  -4 10.5548 0.95988   2 
   5   4  -4 10.8002 1.21413   2 
  -5  -4   4 9.87810 0.70184   1 
  -5  -4   4 8.34945 1.04524   2 
  -5  -4   4 9.51025 1.15803   2 
   4   4  -4 0.96675 0.38769   2 
   4   4  -4 0.27281 0.64080   2 
  -4  -4   4 1.00549 0.28078   1 
  -4  -4   4 1.50172 0.60121   2 
  -4  -4   4 -0.0630 0.69805   2 
   3   4  -4 1.23642 0.32262   1 
   3   4  -4 0.62721 0.48621   2 
   3   4  -4 0.49648 0.30229   2 
  -3  -4   4 0.80816 0.24229   1 
  -3  -4   4 1.09907 0.45655   2 
  -3  -4   4 1.15813 0.58710   2 
   2   4  -4 112.110 2.54632   2 
   2   4  -4 116.775 2.77890   2 
   2   4  -4 113.448 2.53301   1 
  -2  -4   4 116.428 2.83891   2 
  -2  -4   4 115.631 2.70732   2 
  -2  -4   4 111.792 2.48725   1 
   1   4  -4 74.4259 1.98216   2 
   1   4  -4 79.2498 1.97695   2 
   1   4  -4 76.2349 1.77466   1 
  -1  -4   4 79.3874 1.79340   1 
  -1  -4   4 76.9665 2.03768   2 
  -1  -4   4 80.0811 1.94428   2 
   0   4  -4 23.2908 0.84121   2 
   0  -4   4 23.7801 0.87109   2 
   0  -4   4 21.0760 0.91078   2 
   0  -4   4 23.5275 0.72741   1 
  -1   4  -4 464.666 8.88434   1 
  -1   4  -4 464.796 8.95251   2 
   1  -4   4 472.365 8.96287   2 
   1  -4   4 446.390 9.05125   2 
   1  -4   4 469.861 8.91098   1 
  -2   4  -4 150.243 3.12203   2 
  -2   4  -4 148.055 3.05880   1 
   2  -4   4 148.192 3.09060   2 
   2  -4   4 147.236 3.25596   2 
   2  -4   4 150.324 3.07933   1 
  -3   4  -4 33.3722 0.91857   1 
  -3   4  -4 32.4549 0.99197   2 
  -3   4  -4 31.5110 1.06034   2 
   3  -4   4 34.3640 1.13034   2 
   3  -4   4 32.7872 0.92636   1 
   3  -4   4 32.2970 0.98305   2 
  -4   4  -4 0.26120 0.28989   2 
  -4   4  -4 0.34199 0.27133   2 
  -4   4  -4 -0.2348 0.16853   1 
   4  -4   4 0.37489 0.20630   1 
   4  -4   4 0.28280 0.33853   2 
   4  -4   4 0.14061 0.36378   2 
  -5   4  -4 7.24585 0.75773   2 
  -5   4  -4 6.07427 0.43565   1 
  -5   4  -4 7.06866 0.64775   2 
   5  -4   4 7.70812 0.84490   2 
   5  -4   4 5.12351 0.70494   2 
   5  -4   4 4.66959 0.55468   1 
  -6   4  -4 15.9383 0.68982   1 
  -6   4  -4 17.9187 1.07119   2 
  -6   4  -4 15.1843 1.01497   2 
   6  -4   4 16.8548 1.50643   2 
   6  -4   4 17.3202 1.27426   2 
   6  -4   4 16.2916 0.93097   1 
  -7   4  -4 27.8208 0.99959   1 
  -7   4  -4 30.7352 1.54349   2 
  -7   4  -4 29.3453 1.52075   2 
   7  -4   4 32.7691 1.78903   2 
   7  -4   4 28.8139 2.25220   2 
   7  -4   4 28.0767 1.47662   1 
   6   3  -4 1.59742 0.62711   2 
   6   3  -4 0.33207 0.94491   2 
  -6  -3   4 1.32874 0.37415   1 
  -6  -3   4 1.92024 0.97151   2 
   5   3  -4 52.4522 2.10231   2 
   5   3  -4 54.7580 1.63151   2 
  -5  -3   4 54.4120 1.47542   1 
  -5  -3   4 54.8952 1.93611   2 
  -5  -3   4 54.7350 2.17652   2 
   4   3  -4 10.6529 0.65408   2 
   4   3  -4 10.8915 1.10617   2 
  -4  -3   4 9.38304 1.08496   2 
  -4  -3   4 10.7077 0.56061   1 
  -4  -3   4 12.0865 0.95669   2 
   3   3  -4 100.563 2.29194   2 
   3   3  -4 107.907 2.62216   2 
  -3  -3   4 103.227 2.28228   1 
  -3  -3   4 104.895 2.64640   2 
  -3  -3   4 101.510 2.47045   2 
   2   3  -4 78.4963 1.84666   1 
   2   3  -4 82.8206 2.02697   2 
  -2  -3   4 80.3286 1.94263   2 
  -2  -3   4 78.9918 2.03424   2 
  -2  -3   4 78.7227 1.78460   1 
   1   3  -4 8.31569 0.39357   1 
   1   3  -4 7.83513 0.51556   2 
  -1  -3   4 8.60396 0.58997   2 
  -1  -3   4 8.30015 0.37186   1 
  -1  -3   4 8.75128 0.52739   2 
   0   3  -4 198.946 3.97074   2 
   0   3  -4 200.979 3.91651   1 
   0   3  -4 193.187 3.94612   2 
   0  -3   4 195.382 3.91045   1 
   0  -3   4 198.558 4.12996   2 
   0  -3   4 195.375 4.04459   2 
  -1   3  -4 68.0951 1.49718   1 
  -1   3  -4 69.7187 1.53577   2 
  -1   3  -4 69.3416 1.58299   2 
   1  -3   4 65.2110 1.67276   2 
   1  -3   4 69.7085 1.51828   1 
   1  -3   4 66.6078 1.61273   2 
  -2   3  -4 557.045 10.5398   1 
  -2   3  -4 557.780 10.5821   2 
   2  -3   4 556.288 10.5599   2 
   2  -3   4 565.657 10.5587   1 
   2  -3   4 549.339 10.6778   2 
  -3   3  -4 40.0736 0.97891   1 
  -3   3  -4 40.3246 1.05986   2 
   3  -3   4 39.2902 1.15228   2 
   3  -3   4 40.6226 0.99156   1 
   3  -3   4 40.8255 1.09839   2 
  -4   3  -4 18.0658 0.58186   1 
  -4   3  -4 18.8057 0.73547   2 
  -4   3  -4 18.5760 0.72603   2 
   4  -3   4 18.1908 0.88427   2 
   4  -3   4 17.5991 0.82677   2 
   4  -3   4 18.1603 0.60149   1 
  -5   3  -4 29.6999 1.06468   2 
  -5   3  -4 29.7510 0.82183   1 
  -5   3  -4 29.5118 1.12123   2 
   5  -3   4 29.3735 0.91137   1 
   5  -3   4 30.2555 1.16227   2 
   5  -3   4 30.8094 1.36129   2 
  -6   3  -4 6.44117 0.43736   1 
  -6   3  -4 7.39106 0.67687   2 
  -6   3  -4 8.00031 0.83975   2 
   6  -3   4 6.37536 1.14211   2 
   6  -3   4 7.20032 0.95613   2 
   6  -3   4 7.07440 0.76299   1 
  -7   3  -4 -0.1674 0.26624   1 
  -7   3  -4 -0.9723 0.62874   2 
  -7   3  -4 -0.7363 0.62746   2 
   7  -3   4 0.74115 0.79602   2 
   7  -3   4 -1.5475 1.16413   2 
   7   2  -4 -0.4727 0.68582   2 
   7   2  -4 -2.4554 1.23563   2 
  -7  -2   4 -3.4359 1.16651   2 
  -7  -2   4 0.46320 0.46007   1 
  -7  -2   4 1.68748 0.91925   1 
  -7  -2   4 0.98276 1.02485   2 
   6   2  -4 5.01629 0.70306   2 
   6   2  -4 3.98377 0.95272   2 
  -6  -2   4 6.35370 1.56703   1 
  -6  -2   4 8.09744 0.92507   2 
  -6  -2   4 6.96026 1.18181   2 
  -6  -2   4 4.57199 0.81327   1 
   5   2  -4 5.58822 0.69143   2 
   5   2  -4 5.06771 1.01935   2 
  -5  -2   4 5.49602 0.50067   1 
  -5  -2   4 5.83571 0.69738   2 
   4   2  -4 40.5354 1.17409   2 
   4   2  -4 43.5154 1.54425   2 
  -4  -2   4 40.9464 1.53606   2 
  -4  -2   4 41.0618 1.14728   1 
  -4  -2   4 42.0788 1.34508   2 
   3   2  -4 0.16638 0.29662   2 
   3   2  -4 -0.0567 0.18249   2 
  -3  -2   4 0.75353 0.28872   2 
  -3  -2   4 0.17250 0.34394   2 
  -3  -2   4 0.12241 0.14272   1 
   2   2  -4 59.5816 1.52539   2 
  -2  -2   4 60.7369 1.45271   2 
  -2  -2   4 57.9879 1.53428   2 
  -2  -2   4 58.7382 1.37471   1 
   1   2  -4 68.1894 1.46002   2 
   1   2  -4 68.4464 1.56131   2 
   1   2  -4 67.9667 1.54332   1 
  -1  -2   4 68.0256 1.50253   1 
  -1  -2   4 66.8641 1.59749   2 
  -1  -2   4 69.7865 1.54261   2 
   0   2  -4 61.3802 1.31293   2 
   0   2  -4 60.2408 1.30381   2 
   0  -2   4 60.6772 1.34133   2 
   0  -2   4 58.7332 1.37299   2 
   0  -2   4 60.1864 1.31602   1 
  -1   2  -4 388.357 7.13955   1 
  -1   2  -4 371.798 7.15219   2 
  -1   2  -4 376.899 7.11136   2 
   1  -2   4 368.940 7.17477   2 
   1  -2   4 371.785 7.12381   2 
   1  -2   4 376.422 7.13597   1 
  -2   2  -4 82.9828 1.68947   1 
  -2   2  -4 83.0035 1.76327   2 
  -2   2  -4 82.1901 1.72903   2 
   2  -2   4 83.4231 1.70259   1 
   2  -2   4 82.5851 1.78497   2 
   2  -2   4 78.4552 1.81437   2 
  -3   2  -4 39.3692 0.87645   1 
  -3   2  -4 38.6980 0.98467   2 
   3  -2   4 37.9510 1.07237   2 
   3  -2   4 37.1663 1.02432   2 
   3  -2   4 38.3286 0.87933   1 
  -4   2  -4 3.93932 0.45745   2 
  -4   2  -4 4.36486 0.25610   1 
  -4   2  -4 4.74989 0.41743   2 
   4  -2   4 4.10018 0.49492   2 
   4  -2   4 4.96796 0.48936   2 
   4  -2   4 3.54443 0.28480   1 
  -5   2  -4 13.3100 0.71467   2 
  -5   2  -4 12.2844 0.73064   2 
  -5   2  -4 11.6482 0.42296   1 
   5  -2   4 12.7138 0.80401   2 
   5  -2   4 14.0364 1.07460   2 
  -6   2  -4 24.1364 1.09604   2 
  -6   2  -4 22.6450 1.13716   2 
   6  -2   4 24.8848 1.26743   2 
   6  -2   4 22.3788 1.58987   2 
  -7   2  -4 0.57155 0.64954   2 
  -7   2  -4 -0.0781 0.62261   2 
   7  -2   4 -0.1740 0.66886   2 
   7  -2   4 -0.7953 1.08116   2 
   7   1  -4 10.4118 1.21426   2 
   7   1  -4 7.42673 1.28371   2 
  -7  -1   4 8.45048 0.95282   1 
  -7  -1   4 9.26418 1.25249   2 
  -7  -1   4 9.03599 0.80717   1 
  -7  -1   4 9.67005 1.19231   2 
   6   1  -4 -0.6441 0.75972   2 
   6   1  -4 -0.4532 0.43919   2 
  -6  -1   4 0.34027 0.61673   1 
  -6  -1   4 -0.6367 0.69828   2 
  -6  -1   4 0.64547 0.34378   1 
  -6  -1   4 1.12717 0.59968   2 
   5   1  -4 16.1620 0.81505   2 
   5   1  -4 15.5156 1.14406   2 
  -5  -1   4 14.8372 1.02533   1 
  -5  -1   4 16.4930 0.91304   2 
  -5  -1   4 16.5043 1.18083   2 
  -5  -1   4 17.0823 0.74611   1 
   4   1  -4 444.258 8.78421   2 
   4   1  -4 432.991 8.46894   2 
  -4  -1   4 437.543 8.52345   1 
  -4  -1   4 433.988 8.53474   2 
   3   1  -4 2.00264 0.33903   2 
  -3  -1   4 1.87401 0.23046   1 
  -3  -1   4 2.27406 0.37802   2 
  -3  -1   4 2.19239 0.29310   2 
   2   1  -4 152.182 3.16289   2 
   2   1  -4 151.249 2.99823   2 
  -2  -1   4 152.247 3.18525   2 
  -2  -1   4 151.173 3.11859   1 
   1   1  -4 36.8109 0.88142   2 
   1   1  -4 36.5072 0.78594   2 
  -1  -1   4 36.3271 0.90658   2 
  -1  -1   4 37.1013 0.91205   1 
  -1  -1   4 36.3793 0.83771   2 
   0   1  -4 0.07429 0.08506   1 
   0  -1   4 0.00195 0.09736   2 
   0  -1   4 0.05436 0.06816   1 
  -1   1  -4 67.5908 1.34649   2 
  -1   1  -4 69.9673 1.41919   1 
  -1   1  -4 68.8767 1.38090   2 
   1  -1   4 67.4478 1.38905   1 
   1  -1   4 66.5749 1.38171   2 
   1  -1   4 67.9360 1.36557   2 
  -2   1  -4 4.83147 0.25284   2 
  -2   1  -4 5.17768 0.27138   2 
  -2   1  -4 4.87967 0.19408   1 
   2  -1   4 5.17082 0.32737   2 
   2  -1   4 4.74536 0.27034   2 
   2  -1   4 5.06476 0.20348   1 
  -3   1  -4 33.5437 0.86947   2 
  -3   1  -4 32.2999 0.86989   2 
   3  -1   4 33.1885 0.89911   2 
   3  -1   4 34.2361 1.03541   2 
  -4   1  -4 23.5264 0.79833   2 
   4  -1   4 23.4634 0.81571   2 
  -5   1  -4 4.99151 0.61770   2 
  -5   1  -4 5.95732 0.61712   2 
   5  -1   4 8.30284 1.02247   2 
   5  -1   4 6.05521 0.64849   2 
  -6   1  -4 0.85225 0.51424   2 
  -6   1  -4 0.96594 0.49051   2 
   6  -1   4 0.16436 0.47879   2 
   6  -1   4 0.10593 0.64445   2 
  -7   1  -4 -0.3213 0.67234   2 
  -7   1  -4 2.50405 0.77691   2 
   7  -1   4 2.04570 0.67552   2 
   7  -1   4 4.34469 1.16592   2 
   7   0  -4 28.6231 1.42741   2 
   7   0  -4 31.3700 2.19856   2 
  -7   0   4 32.2983 1.51999   1 
  -7   0   4 30.3899 1.69783   2 
  -7   0   4 28.8318 1.92873   2 
  -7   0   4 31.4066 1.25856   1 
   6   0  -4 6.45569 0.63578   2 
   6   0  -4 6.67710 0.96839   2 
  -6   0   4 5.29892 0.79325   2 
  -6   0   4 5.55609 0.58143   1 
  -6   0   4 6.32571 0.69874   2 
  -6   0   4 5.92084 0.69522   1 
   5   0  -4 17.8090 1.19050   2 
   5   0  -4 16.7213 0.79354   2 
  -5   0   4 16.9868 0.83439   2 
  -5   0   4 17.1104 1.07381   2 
  -5   0   4 16.1520 0.95733   1 
   4   0  -4 0.25801 0.24430   2 
   4   0  -4 0.51849 0.37611   2 
  -4   0   4 0.23283 0.36486   2 
  -4   0   4 -0.2132 0.22332   2 
  -4   0   4 0.18927 0.31461   1 
   3   0  -4 86.6855 2.03798   2 
  -3   0   4 85.1735 1.85370   2 
  -3   0   4 82.9732 2.06082   1 
  -3   0   4 85.0399 2.01204   2 
   2   0  -4 2.33236 0.29898   2 
   2   0  -4 2.16965 0.21644   2 
  -2   0   4 2.29679 0.21586   2 
  -1   0   4 10.7332 0.29671   2 
  -1   0   4 10.8916 0.36955   2 
   1   0   4 30.2836 0.67425   1 
   1   0   4 29.8773 0.69735   2 
   1   0   4 29.4104 0.64132   2 
  -2   0  -4 0.15482 0.12858   2 
  -2   0  -4 -0.0399 0.12574   2 
   2   0   4 0.26187 0.11855   2 
  -3   0  -4 78.2380 1.78770   2 
  -3   0  -4 80.7884 1.76653   2 
   3   0   4 81.8849 1.95715   2 
   3   0   4 78.6949 1.75519   2 
  -4   0  -4 16.0896 0.67983   2 
   4   0   4 14.5376 0.63855   2 
   4   0   4 14.3981 0.86970   2 
  -5   0  -4 0.93517 0.36300   2 
  -5   0  -4 1.23194 0.43137   2 
   5   0   4 1.94594 0.57709   2 
   5   0   4 1.07818 0.37252   2 
  -6   0  -4 3.83886 0.64826   2 
  -6   0  -4 3.93284 0.64683   2 
   6   0   4 1.41955 0.99574   2 
   6   0   4 3.25479 0.79809   2 
  -7   0  -4 8.41298 1.02637   2 
  -7   0  -4 7.50578 0.95819   2 
   7   0   4 8.77158 1.39834   2 
   7   0   4 8.59714 0.92665   2 
   7  -1  -4 2.75990 1.05986   2 
   7  -1  -4 2.09853 0.68294   2 
  -7   1   4 3.41859 0.65594   1 
  -7   1   4 2.82232 0.70709   2 
  -7   1   4 1.75599 0.86520   2 
   6  -1  -4 0.53365 0.66871   2 
   6  -1  -4 0.54435 0.44245   2 
  -6   1   4 -0.1136 0.46546   1 
  -6   1   4 -0.8957 0.57870   2 
  -6   1   4 -0.2106 0.41207   2 
   5  -1  -4 3.43540 0.43292   2 
   5  -1  -4 3.05334 0.55393   2 
  -5   1   4 3.39033 0.42213   2 
  -5   1   4 3.21795 0.49357   2 
  -5   1   4 3.34785 0.49427   1 
   4  -1  -4 8.41162 0.54161   2 
   4  -1  -4 8.18347 0.67349   2 
  -4   1   4 7.54115 0.48879   2 
  -4   1   4 7.44586 0.59560   1 
  -4   1   4 8.36017 0.65045   2 
   3  -1  -4 38.2994 1.13310   2 
  -3   1   4 37.6787 0.96837   2 
  -3   1   4 38.3766 1.05313   2 
  -3   1   4 35.9795 1.10483   1 
   2  -1  -4 82.2732 1.72428   2 
   2  -1  -4 83.5058 1.79967   2 
  -2   1   4 82.0472 1.69784   2 
  -2   1   4 79.8250 1.72811   2 
  -2   1   4 79.4863 1.88145   1 
   1  -1  -4 1.39936 0.14904   2 
  -1   1   4 1.16750 0.13631   2 
  -1   1   4 1.43320 0.21514   1 
  -1   1   4 1.95088 0.17040   2 
   0   1   4 19.3879 0.56902   1 
  -1  -1  -4 24.2971 0.59629   2 
   1   1   4 23.2860 0.59586   2 
   1   1   4 23.6586 0.57186   1 
   1   1   4 24.3082 0.66081   2 
  -2  -1  -4 105.897 2.20622   2 
  -2  -1  -4 105.456 2.23718   2 
   2   1   4 102.096 2.30985   2 
   2   1   4 107.740 2.17052   2 
  -3  -1  -4 10.0001 0.59359   2 
  -3  -1  -4 11.0363 0.55565   2 
   3   1   4 10.8922 0.68389   2 
   3   1   4 10.6921 0.48479   2 
  -4  -1  -4 0.79549 0.32095   2 
   4   1   4 1.42800 0.30920   2 
   4   1   4 0.83868 0.42436   2 
  -5  -1  -4 8.11370 0.93982   2 
  -5  -1  -4 9.34855 0.93507   2 
   5   1   4 10.8384 1.17906   2 
   5   1   4 8.97323 0.72777   2 
  -6  -1  -4 16.3800 1.28911   2 
  -6  -1  -4 16.3008 1.30664   2 
   6   1   4 17.0941 1.68968   2 
   6   1   4 15.4799 1.09331   2 
  -7  -1  -4 10.3591 1.16502   2 
  -7  -1  -4 7.55172 1.15790   2 
   7   1   4 6.98181 0.88512   2 
   7   1   4 8.36337 1.48408   2 
   7  -2  -4 10.4239 1.23456   2 
   7  -2  -4 8.50646 1.19255   2 
  -7   2   4 9.81542 1.02831   1 
  -7   2   4 8.05035 0.88695   2 
  -7   2   4 9.53737 1.13846   2 
   6  -2  -4 1.22156 0.48906   2 
   6  -2  -4 1.67901 0.72108   2 
  -6   2   4 0.18149 0.49700   2 
  -6   2   4 1.74393 0.81824   1 
  -6   2   4 1.43834 0.48965   2 
   5  -2  -4 1.94905 0.44727   2 
   5  -2  -4 2.09090 0.54902   2 
  -5   2   4 1.79966 0.36958   1 
  -5   2   4 1.65274 0.37451   2 
  -5   2   4 2.12053 0.46150   2 
   4  -2  -4 32.8662 1.19234   2 
   4  -2  -4 30.8139 1.03131   2 
  -4   2   4 33.9442 0.98741   2 
  -4   2   4 31.1117 1.03040   1 
  -4   2   4 31.6615 0.98661   2 
   3  -2  -4 93.2380 2.16951   2 
   3  -2  -4 95.0887 2.29763   1 
  -3   2   4 92.1566 2.14732   1 
  -3   2   4 97.8125 2.07427   2 
  -3   2   4 94.7802 2.04615   2 
   2  -2  -4 24.6728 0.72277   2 
   2  -2  -4 24.4852 0.85429   1 
   2  -2  -4 24.8467 0.73037   2 
  -2   2   4 24.9596 0.69947   2 
  -2   2   4 24.5397 0.65899   2 
  -2   2   4 24.6803 0.77001   1 
   1  -2  -4 39.2492 1.07782   1 
   1  -2  -4 39.7519 0.98388   2 
   1  -2  -4 40.8034 0.89584   2 
  -1   2   4 38.3423 0.92176   2 
  -1   2   4 39.4260 0.96621   2 
  -1   2   4 39.6176 1.00398   1 
   0  -2  -4 49.5525 1.13199   2 
   0  -2  -4 50.6445 1.19180   1 
   0  -2  -4 49.5606 1.06116   2 
   0   2   4 50.7962 1.17987   2 
   0   2   4 49.8525 1.12415   1 
   0   2   4 49.9455 1.14054   2 
  -1  -2  -4 91.9244 1.89064   1 
  -1  -2  -4 90.9616 1.95984   2 
  -1  -2  -4 91.2573 1.92314   2 
   1   2   4 89.7066 2.00262   2 
   1   2   4 90.4031 1.93439   2 
   1   2   4 90.3787 1.82953   1 
  -2  -2  -4 72.6783 1.75119   2 
  -2  -2  -4 74.5172 1.69391   2 
  -2  -2  -4 73.0892 1.49583   1 
   2   2   4 70.5464 1.44905   1 
   2   2   4 71.9553 1.63518   2 
  -3  -2  -4 7.68090 0.58734   2 
   3   2   4 7.58313 0.46873   2 
   3   2   4 6.42995 0.68116   2 
  -4  -2  -4 7.60561 0.72558   2 
  -4  -2  -4 4.04730 0.89498   2 
   4   2   4 6.25924 0.72930   2 
   4   2   4 6.77339 0.58777   2 
  -5  -2  -4 3.07414 0.63292   2 
  -5  -2  -4 1.67951 0.59569   2 
   5   2   4 3.69585 0.73501   2 
   5   2   4 3.46601 0.52094   2 
  -6  -2  -4 30.9527 1.70576   2 
  -6  -2  -4 30.5997 1.76263   2 
   6   2   4 29.3787 2.06264   2 
   6   2   4 30.0245 1.45854   2 
   7  -3  -4 28.8716 2.07809   2 
   7  -3  -4 30.5047 1.61381   2 
  -7   3   4 28.6995 1.45484   2 
  -7   3   4 28.3728 1.26695   1 
  -7   3   4 26.8024 1.48998   2 
   6  -3  -4 2.20577 0.80401   2 
   6  -3  -4 1.61345 0.57675   2 
  -6   3   4 1.93806 0.56743   2 
  -6   3   4 3.02189 0.47278   1 
  -6   3   4 0.94856 0.47383   2 
   5  -3  -4 1.88051 0.47578   2 
  -5   3   4 2.13612 0.38528   2 
  -5   3   4 2.23394 0.39855   1 
  -5   3   4 2.49536 0.39592   2 
   4  -3  -4 1.79345 0.42539   2 
   4  -3  -4 1.54015 0.42150   1 
   4  -3  -4 2.04191 0.36341   2 
  -4   3   4 1.54681 0.30623   1 
  -4   3   4 2.00404 0.33997   2 
  -4   3   4 1.61307 0.29144   2 
   3  -3  -4 74.6644 1.79575   2 
   3  -3  -4 75.7971 1.94283   1 
  -3   3   4 75.4511 1.77808   1 
  -3   3   4 74.2330 1.70406   2 
  -3   3   4 74.8590 1.75202   2 
   2  -3  -4 25.5361 0.87640   1 
   2  -3  -4 26.8066 0.74681   2 
   2  -3  -4 25.8637 0.85141   2 
  -2   3   4 26.2684 0.80469   2 
  -2   3   4 26.9885 0.79286   1 
  -2   3   4 25.3158 0.75076   2 
   1  -3  -4 4.31287 0.40381   2 
   1  -3  -4 4.37259 0.36114   1 
   1  -3  -4 4.14113 0.28323   2 
  -1   3   4 4.69266 0.39536   2 
  -1   3   4 4.05889 0.34858   2 
  -1   3   4 4.40446 0.30639   1 
   0  -3  -4 0.28249 0.15835   2 
   0  -3  -4 0.32903 0.14246   1 
   0  -3  -4 0.16340 0.19433   2 
   0   3   4 0.12382 0.21881   2 
   0   3   4 0.26106 0.12122   1 
   0   3   4 0.29768 0.18423   2 
  -1  -3  -4 301.963 5.86580   2 
  -1  -3  -4 304.115 5.76375   1 
  -1  -3  -4 293.267 5.92106   2 
   1   3   4 300.537 5.90044   2 
   1   3   4 286.989 6.02229   2 
   1   3   4 306.513 5.74147   1 
  -2  -3  -4 107.614 2.37925   2 
  -2  -3  -4 101.173 2.43028   2 
  -2  -3  -4 105.768 2.12479   1 
   2   3   4 103.137 2.10834   1 
   2   3   4 104.795 2.49076   2 
   2   3   4 102.988 2.31577   2 
  -3  -3  -4 -0.3996 0.29305   2 
  -3  -3  -4 -0.1292 0.14232   1 
   3   3   4 -0.3771 0.40201   2 
   3   3   4 -0.1697 0.27196   2 
  -4  -3  -4 10.6928 1.08273   2 
   4   3   4 10.1940 1.17129   2 
   4   3   4 11.7999 0.77058   2 
  -5  -3  -4 4.54148 0.78036   2 
  -5  -3  -4 2.89551 0.74567   2 
   5   3   4 3.07812 0.87406   2 
  -6  -3  -4 0.37347 0.89650   2 
  -6  -3  -4 0.48955 0.96371   2 
   6   3   4 0.63293 0.71959   2 
   6   3   4 -0.2093 1.15157   2 
   7  -4  -4 3.18341 1.25039   2 
   7  -4  -4 4.85616 0.91881   2 
  -7   4   4 2.05073 0.60301   1 
  -7   4   4 1.58707 0.72360   2 
  -7   4   4 2.76263 0.72388   2 
   6  -4  -4 0.56726 0.63907   2 
  -6   4   4 -0.1217 0.54954   2 
  -6   4   4 0.18926 0.48581   2 
  -6   4   4 0.45457 0.40782   1 
   5  -4  -4 5.33647 0.68958   1 
   5  -4  -4 5.50959 0.74084   2 
   5  -4  -4 5.09045 0.62971   2 
  -5   4   4 6.48171 0.58403   2 
  -5   4   4 5.44224 0.59466   1 
  -5   4   4 6.61985 0.63977   2 
   4  -4  -4 15.5100 0.89213   2 
   4  -4  -4 13.6278 0.88776   1 
   4  -4  -4 15.3930 0.86471   2 
  -4   4   4 13.0925 0.71244   2 
  -4   4   4 15.3857 0.74121   2 
  -4   4   4 14.8153 0.69119   1 
   3  -4  -4 44.0230 1.21054   2 
   3  -4  -4 42.6428 1.32333   1 
  -3   4   4 43.1009 1.21036   2 
  -3   4   4 41.6995 1.18769   2 
  -3   4   4 42.2217 1.17585   1 
   2  -4  -4 10.3227 0.58907   1 
   2  -4  -4 10.6572 0.47913   2 
  -2   4   4 10.2981 0.49914   1 
  -2   4   4 9.94580 0.55877   2 
  -2   4   4 10.0978 0.55896   2 
   1  -4  -4 24.5860 0.91175   2 
   1  -4  -4 23.7461 0.71403   2 
   1  -4  -4 22.6415 0.78542   1 
  -1   4   4 23.7576 0.73600   1 
  -1   4   4 24.2753 0.85162   2 
  -1   4   4 23.7971 0.86609   2 
   0  -4  -4 8.08045 0.47476   2 
   0  -4  -4 8.97554 0.60847   2 
   0  -4  -4 8.20375 0.45068   1 
   0   4   4 8.11723 0.39957   1 
   0   4   4 8.12247 0.57100   2 
   0   4   4 8.32262 0.62393   2 
  -1  -4  -4 9.98754 0.45986   1 
  -1  -4  -4 9.63117 0.67987   2 
  -1  -4  -4 10.5395 0.60706   2 
   1   4   4 9.76579 0.42565   1 
   1   4   4 10.1219 0.74320   2 
   1   4   4 9.86462 0.63830   2 
  -2  -4  -4 12.4488 0.75355   2 
  -2  -4  -4 12.9450 0.49500   1 
   2   4   4 12.2616 0.48067   1 
   2   4   4 12.0725 0.69664   2 
   2   4   4 13.3821 0.88180   2 
  -3  -4  -4 10.4828 0.45532   1 
  -3  -4  -4 9.48514 0.87864   2 
   3   4   4 10.0755 0.78410   2 
   3   4   4 9.96018 0.41928   1 
   3   4   4 11.6199 1.04402   2 
  -4  -4  -4 0.04888 0.63424   2 
  -4  -4  -4 0.91298 0.62838   2 
   4   4   4 1.18532 0.22031   1 
   4   4   4 1.79753 0.74765   2 
   4   4   4 1.42397 0.47790   2 
  -5  -4  -4 0.99532 0.77535   2 
   5   4   4 0.27917 0.93370   2 
   5   4   4 1.12502 0.57165   2 
  -6  -4  -4 5.00059 1.16647   2 
  -6  -4  -4 2.57438 1.23234   2 
   6   4   4 3.64226 1.47913   2 
   6   4   4 3.38393 0.86848   2 
   6  -5  -4 1.03225 0.87232   1 
   6  -5  -4 1.84367 0.82704   2 
   6  -5  -4 2.10453 0.80934   2 
  -6   5   4 2.08522 0.48253   1 
  -6   5   4 1.89918 0.52229   2 
  -6   5   4 1.76934 0.54923   2 
   5  -5  -4 105.503 2.85768   1 
   5  -5  -4 104.683 2.79663   2 
   5  -5  -4 106.617 2.78555   2 
  -5   5   4 101.972 2.56865   2 
  -5   5   4 103.006 2.50727   1 
  -5   5   4 105.689 2.58378   2 
   4  -5  -4 3.79681 0.61699   2 
   4  -5  -4 3.89797 0.57652   2 
   4  -5  -4 3.16740 0.53362   1 
  -4   5   4 3.11101 0.47648   2 
  -4   5   4 3.48117 0.48841   2 
  -4   5   4 3.70764 0.42532   1 
   3  -5  -4 5.04517 0.59261   2 
   3  -5  -4 5.75533 0.53331   2 
   3  -5  -4 4.52882 0.52696   1 
  -3   5   4 5.58075 0.60943   2 
  -3   5   4 5.28455 0.63209   2 
  -3   5   4 4.46513 0.46435   1 
   2  -5  -4 35.4821 1.00966   2 
  -2   5   4 34.4614 1.14252   2 
  -2   5   4 35.0218 1.17109   2 
   1  -5  -4 0.55608 0.26599   1 
   1  -5  -4 1.00502 0.29236   2 
  -1   5   4 0.97146 0.21916   1 
  -1   5   4 0.62935 0.33198   2 
  -1   5   4 0.66827 0.31826   2 
   0  -5  -4 8.03020 0.58499   2 
   0  -5  -4 8.21826 0.50896   1 
   0   5   4 6.94480 0.63571   2 
   0   5   4 8.95767 0.73723   2 
   0   5   4 8.24901 0.46000   1 
  -1  -5  -4 2.19832 0.31120   1 
  -1  -5  -4 2.27715 0.42049   2 
   1   5   4 2.04037 0.26803   1 
   1   5   4 2.82967 0.48561   2 
   1   5   4 2.02527 0.46881   2 
  -2  -5  -4 380.875 7.63998   2 
  -2  -5  -4 377.274 7.32110   1 
   2   5   4 381.520 7.85097   2 
   2   5   4 369.435 7.60661   2 
   2   5   4 381.843 7.32889   1 
  -3  -5  -4 7.75557 0.88844   2 
  -3  -5  -4 7.47792 0.77781   2 
  -3  -5  -4 7.73489 0.51855   1 
   3   5   4 6.65575 0.89947   2 
   3   5   4 8.32093 0.46081   1 
   3   5   4 8.62698 0.89988   2 
  -4  -5  -4 2.86322 0.34862   1 
  -4  -5  -4 3.21120 0.79718   2 
  -4  -5  -4 3.59950 0.89652   2 
   4   5   4 3.64156 0.34957   1 
   4   5   4 3.73628 0.62737   2 
   4   5   4 4.08469 0.95979   2 
  -5  -5  -4 36.9966 2.08569   2 
  -5  -5  -4 37.7837 2.34477   2 
   5   5   4 38.7890 2.49426   2 
   5   5   4 39.0677 1.78218   2 
   6  -6  -4 2.12259 0.93362   2 
   6  -6  -4 1.13735 0.84583   1 
   6  -6  -4 -0.0531 0.87372   2 
  -6   6   4 0.16520 0.46649   1 
  -6   6   4 -0.5678 0.55501   2 
  -6   6   4 -0.7177 0.61390   2 
   5  -6  -4 3.59764 0.69237   2 
   5  -6  -4 4.55709 0.75619   1 
   5  -6  -4 4.75183 0.82496   2 
  -5   6   4 4.74949 0.59420   1 
  -5   6   4 3.27147 0.55085   2 
  -5   6   4 3.71566 0.64540   2 
   4  -6  -4 66.6360 2.06830   1 
   4  -6  -4 70.4252 2.20539   2 
  -4   6   4 69.3950 1.84642   1 
  -4   6   4 68.9912 1.95905   2 
  -4   6   4 68.9473 2.03094   2 
   3  -6  -4 66.2899 2.04320   2 
   3  -6  -4 65.8323 1.87370   1 
  -3   6   4 66.3607 1.74141   1 
  -3   6   4 65.9773 1.88811   2 
  -3   6   4 65.2532 1.91588   2 
   2  -6  -4 10.7618 0.69332   2 
   2  -6  -4 11.1824 0.71785   1 
   2  -6  -4 10.7763 0.96388   2 
  -2   6   4 10.0840 0.82798   2 
  -2   6   4 10.7543 0.87122   2 
  -2   6   4 11.1147 0.63343   1 
   1  -6  -4 9.93590 1.16011   2 
   1  -6  -4 11.3610 0.71967   2 
   1  -6  -4 11.6954 0.69692   1 
  -1   6   4 10.7350 0.85369   2 
  -1   6   4 12.0383 0.89000   2 
  -1   6   4 10.6218 0.61336   1 
   0  -6  -4 3.92659 0.41626   1 
   0  -6  -4 5.01713 0.55167   2 
   0  -6  -4 2.37116 0.87896   2 
   0   6   4 4.42655 0.45712   1 
   0   6   4 4.21986 0.57417   2 
   0   6   4 4.06643 0.60566   2 
  -1  -6  -4 0.88028 0.52564   2 
  -1  -6  -4 0.95960 0.79669   2 
  -1  -6  -4 1.46971 0.32803   1 
   1   6   4 1.05348 0.55133   2 
   1   6   4 1.46466 0.48995   2 
   1   6   4 0.94124 0.27946   1 
  -2  -6  -4 6.54817 0.59388   1 
  -2  -6  -4 6.27758 0.82404   2 
  -2  -6  -4 7.31491 0.79783   2 
   2   6   4 6.36472 0.54895   1 
   2   6   4 6.55703 0.83099   2 
   2   6   4 6.39002 0.71955   2 
  -3  -6  -4 0.31780 0.77686   2 
  -3  -6  -4 0.88830 0.68185   2 
  -3  -6  -4 1.04725 0.35613   1 
   3   6   4 0.87594 0.59906   2 
   3   6   4 1.03217 0.30861   1 
   3   6   4 0.22818 0.81762   2 
  -4  -6  -4 25.9280 2.02905   2 
  -4  -6  -4 24.5490 1.78577   2 
  -4  -6  -4 28.1048 1.00274   1 
   4   6   4 29.1678 0.94912   1 
   4   6   4 29.8179 2.25977   2 
   4   6   4 27.6307 1.55508   2 
   5  -7  -4 2.42282 0.89040   2 
   5  -7  -4 2.21798 0.71899   2 
   5  -7  -4 2.50142 0.69433   1 
  -5   7   4 2.44720 0.49968   1 
  -5   7   4 2.41447 0.69025   2 
  -5   7   4 1.66820 0.69465   2 
   4  -7  -4 89.3309 2.75726   2 
   4  -7  -4 90.4320 2.59993   1 
   4  -7  -4 92.7192 2.42280   2 
  -4   7   4 94.5142 2.50671   2 
  -4   7   4 93.8253 2.38820   1 
  -4   7   4 91.5941 2.64825   2 
   3  -7  -4 11.5378 0.87855   2 
   3  -7  -4 11.1846 1.26459   2 
   3  -7  -4 11.8717 0.92052   1 
  -3   7   4 13.9285 0.80679   1 
  -3   7   4 11.8965 1.02404   2 
  -3   7   4 12.2906 1.14331   2 
   2  -7  -4 5.10888 0.82931   2 
   2  -7  -4 8.33398 0.78098   2 
   2  -7  -4 6.61609 0.63653   1 
  -2   7   4 6.28662 0.75658   2 
  -2   7   4 6.52821 0.74077   2 
  -2   7   4 6.89616 0.64095   1 
   1  -7  -4 1.61441 0.48065   2 
   1  -7  -4 1.43692 0.39635   1 
   1  -7  -4 2.05896 0.61582   2 
  -1   7   4 1.77108 0.33404   1 
  -1   7   4 2.50103 0.58932   2 
  -1   7   4 1.62644 0.60834   2 
   0  -7  -4 2.15393 0.66827   2 
   0  -7  -4 2.04761 0.48564   1 
   0  -7  -4 2.61803 0.60955   2 
   0   7   4 2.99306 0.63751   2 
   0   7   4 2.62221 0.66606   2 
   0   7   4 2.37926 0.47804   1 
  -1  -7  -4 41.5365 1.32285   1 
  -1  -7  -4 42.2739 1.83941   2 
  -1  -7  -4 40.5739 1.58510   2 
   1   7   4 35.1117 2.47395   2 
   1   7   4 41.1292 1.29789   1 
   1   7   4 40.6515 1.82156   2 
  -2  -7  -4 2.68265 0.84151   2 
  -2  -7  -4 4.64882 0.53458   1 
  -2  -7  -4 3.86274 0.81389   2 
   2   7   4 3.46996 0.48980   1 
   2   7   4 3.21639 0.95290   2 
   2   7   4 3.54052 0.74290   2 
  -3  -7  -4 12.6835 1.39660   2 
  -3  -7  -4 17.4251 1.59031   2 
  -3  -7  -4 17.0928 0.94314   1 
   3   7   4 14.4957 0.85111   1 
   3   7   4 14.6528 1.54188   2 
   3   7   4 18.0849 1.98982   2 
   4  -8  -4 8.74956 0.85250   2 
   4  -8  -4 9.10469 1.23157   2 
   4  -8  -4 9.68443 0.91449   1 
  -4   8   4 9.20247 1.05927   2 
  -4   8   4 10.2331 0.91392   1 
  -4   8   4 10.5872 1.26626   2 
   3  -8  -4 11.1494 1.05184   2 
   3  -8  -4 11.5710 1.07732   1 
   3  -8  -4 13.1334 1.60613   2 
  -3   8   4 11.5533 1.39474   2 
  -3   8   4 12.4831 0.86187   1 
  -3   8   4 11.1050 1.25448   2 
   2  -8  -4 9.82214 1.00903   2 
   2  -8  -4 6.19438 0.69957   1 
   2  -8  -4 7.29562 1.04434   2 
  -2   8   4 6.82493 0.92717   2 
  -2   8   4 7.54478 0.73142   1 
  -2   8   4 7.99431 0.93316   2 
   1  -8  -4 1.73035 0.55916   1 
   1  -8  -4 1.41759 0.80760   2 
   1  -8  -4 1.76066 0.55786   2 
  -1   8   4 0.84704 0.38985   1 
  -1   8   4 1.00727 0.72995   2 
  -1   8   4 0.75390 0.76282   2 
   0  -8  -4 63.6334 1.86850   1 
   0  -8  -4 62.1484 2.37994   2 
   0  -8  -4 63.3032 2.04905   2 
   0   8   4 65.4706 2.31344   2 
   0   8   4 66.3978 2.36548   2 
   0   8   4 65.4045 1.83125   1 
  -1  -8  -4 1.71924 0.54161   1 
  -1  -8  -4 3.56846 0.79856   2 
  -1  -8  -4 2.27949 0.97711   2 
   1   8   4 1.22479 0.86576   2 
   1   8   4 1.87406 0.47006   1 
   1   8   4 0.40537 0.77964   2 
  -2  -8  -4 2.66043 1.14457   2 
  -2  -8  -4 5.15559 0.94537   2 
  -2  -8  -4 3.81902 0.63264   1 
   2   8   4 4.60599 1.00081   2 
   2   8   4 3.80027 0.60299   1 
   2   8   4 4.21907 1.18122   2 
   3  -9  -4 15.3377 1.34905   2 
   3  -9  -4 12.9792 1.48584   2 
   3  -9  -4 14.5402 1.34059   1 
  -3   9   4 13.9916 1.06319   1 
  -3   9   4 18.4113 1.64303   2 
  -3   9   4 19.8449 1.86582   2 
   2  -9  -4 28.3795 1.51343   2 
   2  -9  -4 24.2728 2.22260   2 
   2  -9  -4 21.1714 1.43245   1 
  -2   9   4 24.4203 1.81744   2 
  -2   9   4 30.8828 2.00032   2 
  -2   9   4 26.0160 1.24872   1 
   1  -9  -4 -0.3239 1.01152   2 
   1  -9  -4 1.23020 0.69265   1 
   1  -9  -4 0.69788 0.74022   2 
  -1   9   4 1.49549 0.95813   2 
  -1   9   4 0.47415 0.43844   1 
  -1   9   4 2.28576 1.00528   2 
   0  -9  -4 37.9911 1.82894   2 
   0  -9  -4 39.2937 2.35586   2 
   0  -9  -4 34.3532 1.54732   1 
   0   9   4 34.4456 1.41628   1 
   0   9   4 33.4657 2.23233   2 
   0   9   4 38.0228 2.18505   2 
   1   9  -5 5.75039 1.25808   2 
   1   9  -5 6.63137 0.78194   1 
  -1  -9   5 8.43683 1.52578   2 
  -1  -9   5 5.65927 1.25176   2 
  -1  -9   5 7.23296 0.85418   1 
   0   9  -5 1.30709 0.94473   2 
   0   9  -5 2.88028 1.00584   2 
   0   9  -5 1.49037 0.56009   1 
   0  -9   5 0.86691 0.65914   1 
   0  -9   5 0.55281 1.22150   2 
   0  -9   5 1.77933 0.93147   2 
  -1   9  -5 10.5529 1.00407   1 
  -1   9  -5 7.50196 1.10257   2 
  -1   9  -5 6.75606 1.08538   2 
   1  -9   5 8.77440 1.14243   2 
   1  -9   5 7.86104 1.53967   2 
   1  -9   5 7.52450 0.83606   1 
  -2   9  -5 11.8690 0.99443   1 
  -2   9  -5 15.8107 1.78436   2 
  -2   9  -5 13.7495 1.52201   2 
   2  -9   5 10.8593 1.12454   2 
   2  -9   5 12.0133 1.57223   2 
   2  -9   5 11.4736 1.12454   1 
  -3   9  -5 10.1667 1.25124   2 
  -3   9  -5 11.3732 1.04286   1 
  -3   9  -5 13.7026 1.49692   2 
   3  -9   5 13.6336 1.58520   2 
   3  -9   5 9.75890 1.52995   2 
   3  -9   5 9.66937 1.16968   1 
   2   8  -5 5.74236 1.18339   2 
   2   8  -5 4.46786 0.64645   1 
   2   8  -5 5.14656 0.88979   2 
  -2  -8   5 5.46481 1.04591   2 
  -2  -8   5 5.57809 1.28975   2 
  -2  -8   5 4.02970 0.67511   1 
   1   8  -5 7.51475 0.93612   2 
   1   8  -5 12.0864 0.90299   1 
   1   8  -5 12.8834 1.55912   2 
  -1  -8   5 11.4495 1.35062   2 
  -1  -8   5 11.6982 1.02624   1 
  -1  -8   5 10.2963 1.08041   2 
   0   8  -5 6.95972 0.89734   2 
   0   8  -5 7.84774 0.94037   2 
   0   8  -5 8.54979 0.81824   1 
   0  -8   5 8.18292 1.24549   2 
   0  -8   5 9.77090 0.94409   1 
   0  -8   5 7.76819 0.96784   2 
  -1   8  -5 11.8429 1.24349   2 
  -1   8  -5 12.3047 0.83919   1 
  -1   8  -5 14.8294 1.37840   2 
   1  -8   5 10.6553 1.24312   2 
   1  -8   5 11.8817 0.97441   1 
   1  -8   5 15.3089 1.75905   2 
  -2   8  -5 1.34811 0.60916   2 
  -2   8  -5 1.51450 0.37588   1 
  -2   8  -5 2.01061 0.74899   2 
   2  -8   5 1.69200 0.94841   2 
   2  -8   5 0.90651 0.44912   1 
   2  -8   5 1.27923 0.69438   2 
  -3   8  -5 42.7548 1.96455   2 
  -3   8  -5 43.9967 1.47839   1 
  -3   8  -5 45.8224 1.69330   2 
   3  -8   5 43.6186 1.70334   2 
   3  -8   5 42.1440 1.54207   1 
   3  -8   5 43.5060 2.21506   2 
  -4   8  -5 38.7581 1.40734   1 
  -4   8  -5 36.1138 1.67421   2 
  -4   8  -5 38.5104 1.97697   2 
   4  -8   5 36.4374 1.70339   2 
   4  -8   5 41.3063 2.24523   2 
   4  -8   5 36.2321 1.46126   1 
   4   7  -5 -0.1792 1.21967   2 
   4   7  -5 1.52078 0.73016   1 
   4   7  -5 3.26672 0.80111   2 
  -4  -7   5 2.43265 1.29841   2 
  -4  -7   5 2.81983 0.71571   1 
  -4  -7   5 2.01097 1.55934   2 
   3   7  -5 -0.3416 0.46781   1 
   3   7  -5 1.69924 1.13771   2 
   3   7  -5 -0.6509 0.67580   2 
  -3  -7   5 0.56849 1.06273   2 
  -3  -7   5 -0.7021 0.94166   2 
  -3  -7   5 0.40450 0.51687   1 
   2   7  -5 0.00751 0.58114   2 
   2   7  -5 0.61145 0.36867   1 
   2   7  -5 -0.1733 0.75672   2 
  -2  -7   5 0.64138 0.42371   1 
  -2  -7   5 1.15967 1.04656   2 
  -2  -7   5 0.26925 0.76232   2 
   1   7  -5 12.6234 1.04792   2 
   1   7  -5 11.6781 1.29412   2 
   1   7  -5 12.4990 0.79194   1 
  -1  -7   5 15.1967 1.53148   2 
  -1  -7   5 12.7424 0.85562   1 
  -1  -7   5 13.8917 1.28002   2 
   0   7  -5 52.9193 1.80472   2 
   0   7  -5 51.0669 1.76538   2 
   0   7  -5 53.1019 1.52414   1 
   0  -7   5 51.2986 1.55106   1 
   0  -7   5 47.1761 1.78094   2 
   0  -7   5 50.9958 2.09365   2 
  -1   7  -5 0.50713 0.49918   2 
  -1   7  -5 -0.1013 0.50000   2 
  -1   7  -5 -0.0534 0.27491   1 
   1  -7   5 0.53635 0.71664   2 
   1  -7   5 0.59432 0.35015   1 
   1  -7   5 0.28562 0.50480   2 
  -2   7  -5 16.6374 1.14842   2 
  -2   7  -5 14.9107 1.01890   2 
  -2   7  -5 14.3637 0.78322   1 
   2  -7   5 15.1052 0.86719   1 
   2  -7   5 15.3427 1.04728   2 
   2  -7   5 14.2642 1.37317   2 
  -3   7  -5 26.0353 1.42017   2 
  -3   7  -5 26.1105 1.21482   2 
  -3   7  -5 28.5555 1.04589   1 
   3  -7   5 25.8614 1.09172   1 
   3  -7   5 25.9933 1.20755   2 
  -4   7  -5 9.09051 0.76600   1 
  -4   7  -5 10.0062 0.98699   2 
  -4   7  -5 8.63592 0.81301   2 
   4  -7   5 10.3448 0.86307   1 
   4  -7   5 10.0675 1.07254   2 
   4  -7   5 9.31279 1.05819   2 
  -5   7  -5 3.83929 0.89496   2 
  -5   7  -5 4.43067 0.72573   2 
  -5   7  -5 4.30614 0.60603   1 
   5  -7   5 5.92587 0.81745   2 
   5  -7   5 4.50369 0.61281   1 
   5  -7   5 2.63317 1.03812   2 
   4   6  -5 1.47102 1.14044   2 
   4   6  -5 1.62098 0.63847   2 
  -4  -6   5 0.11640 1.06952   2 
  -4  -6   5 2.45644 0.52737   1 
  -4  -6   5 1.06947 1.02504   2 
   3   6  -5 13.2834 0.91402   1 
   3   6  -5 10.4222 1.13054   2 
   3   6  -5 12.4034 1.03173   2 
  -3  -6   5 13.9776 0.88366   1 
  -3  -6   5 13.6375 1.66157   2 
  -3  -6   5 12.9384 1.44041   2 
   2   6  -5 0.80054 0.29541   1 
   2   6  -5 0.57567 0.61846   2 
   2   6  -5 1.74981 0.50896   2 
  -2  -6   5 2.21951 0.36650   1 
  -2  -6   5 1.24219 0.67143   2 
  -2  -6   5 1.70881 0.75922   2 
   1   6  -5 0.43536 0.53595   2 
   1   6  -5 0.55296 0.44004   2 
   1   6  -5 0.53429 0.26949   1 
  -1  -6   5 0.87735 0.30811   1 
  -1  -6   5 0.66995 0.51560   2 
  -1  -6   5 -0.3896 0.65365   2 
   0   6  -5 175.153 3.97808   2 
   0   6  -5 178.696 4.00347   2 
   0   6  -5 183.358 3.84523   1 
   0  -6   5 176.500 3.99549   2 
   0  -6   5 180.203 4.23732   2 
   0  -6   5 183.893 3.86913   1 
  -1   6  -5 111.072 2.51083   1 
  -1   6  -5 110.795 2.72977   2 
  -1   6  -5 109.976 2.65401   2 
   1  -6   5 109.309 2.88060   2 
   1  -6   5 110.522 2.54482   1 
   1  -6   5 109.232 2.64534   2 
  -2   6  -5 24.7853 1.04238   2 
  -2   6  -5 25.3925 1.14897   2 
  -2   6  -5 24.2910 0.88396   1 
   2  -6   5 24.7177 1.27418   2 
   2  -6   5 25.4627 1.06271   2 
   2  -6   5 23.5209 0.93596   1 
  -3   6  -5 0.53159 0.27207   1 
  -3   6  -5 -0.1556 0.35971   2 
  -3   6  -5 -0.7879 0.43392   2 
   3  -6   5 -0.5840 0.52688   2 
   3  -6   5 0.04110 0.30849   1 
   3  -6   5 0.05756 0.36626   2 
  -4   6  -5 4.57890 0.58243   1 
  -4   6  -5 5.21277 0.56807   2 
  -4   6  -5 4.32540 0.62004   2 
   4  -6   5 5.50255 0.61615   2 
   4  -6   5 5.08740 0.62503   1 
   4  -6   5 4.83726 0.84499   2 
  -5   6  -5 5.22508 0.75594   2 
  -5   6  -5 6.30487 0.67929   2 
   5  -6   5 6.49176 0.85796   1 
   5  -6   5 6.27381 0.91569   2 
   5  -6   5 6.07539 0.82351   2 
  -6   6  -5 12.7037 1.17295   2 
  -6   6  -5 15.2009 1.58960   2 
  -6   6  -5 13.8591 0.91917   1 
   6  -6   5 16.1027 1.66999   2 
   6  -6   5 12.0418 1.08579   1 
   6  -6   5 14.8557 1.77204   2 
   5   5  -5 20.1082 2.21658   2 
   5   5  -5 24.1133 1.28502   2 
  -5  -5   5 17.7638 1.68307   2 
  -5  -5   5 21.6615 2.07730   2 
  -5  -5   5 22.8562 1.10598   1 
   4   5  -5 3.55969 0.96022   2 
   4   5  -5 5.12595 0.63872   2 
  -4  -5   5 5.59940 0.63958   1 
  -4  -5   5 6.46139 0.96719   2 
   3   5  -5 27.5048 1.52732   2 
   3   5  -5 25.9205 1.09995   2 
   3   5  -5 25.3848 1.06201   1 
  -3  -5   5 26.1072 1.60111   2 
  -3  -5   5 26.1992 1.03108   1 
  -3  -5   5 26.1499 1.43228   2 
   2   5  -5 6.15023 0.54246   1 
   2   5  -5 7.65409 0.95184   2 
   2   5  -5 6.54374 0.68934   2 
  -2  -5   5 5.66596 0.65995   2 
  -2  -5   5 6.34266 0.79163   2 
  -2  -5   5 7.04234 0.52010   1 
   1   5  -5 44.5351 1.24674   1 
   1   5  -5 43.8544 1.44463   2 
  -1  -5   5 45.0219 1.45321   2 
  -1  -5   5 43.1490 1.59119   2 
  -1  -5   5 45.5096 1.25992   1 
   0   5  -5 9.09330 0.51409   1 
   0   5  -5 8.00382 0.66862   2 
   0  -5   5 7.76807 0.68902   2 
   0  -5   5 10.1113 0.55524   1 
   0  -5   5 9.78393 0.83769   2 
  -1   5  -5 155.294 3.34337   2 
  -1   5  -5 155.510 3.26472   1 
   1  -5   5 154.372 3.28710   1 
   1  -5   5 156.846 3.36424   2 
   1  -5   5 152.446 3.52767   2 
  -2   5  -5 1.34681 0.26299   1 
  -2   5  -5 1.10574 0.33570   2 
   2  -5   5 1.41666 0.28049   1 
   2  -5   5 0.92290 0.33487   2 
   2  -5   5 1.17812 0.42877   2 
  -3   5  -5 3.20813 0.39735   1 
  -3   5  -5 2.94445 0.42712   2 
   3  -5   5 3.48187 0.40173   2 
   3  -5   5 3.20696 0.53398   2 
   3  -5   5 2.89770 0.36133   1 
  -4   5  -5 27.7720 1.05019   2 
  -4   5  -5 27.0360 0.90223   1 
  -4   5  -5 28.2131 1.16183   2 
   4  -5   5 27.3607 0.93873   1 
   4  -5   5 28.2277 1.10758   2 
   4  -5   5 27.9634 1.27445   2 
  -5   5  -5 0.73635 0.40916   2 
  -5   5  -5 -0.1296 0.29499   1 
  -5   5  -5 0.24170 0.52140   2 
   5  -5   5 -0.0661 0.34829   1 
   5  -5   5 0.34325 0.59423   2 
   5  -5   5 -0.0182 0.59234   2 
  -6   5  -5 1.50422 0.69376   2 
  -6   5  -5 1.98063 0.41207   1 
  -6   5  -5 2.54551 0.59010   2 
   6  -5   5 1.05436 0.53201   1 
   6  -5   5 1.64763 0.81358   2 
   6  -5   5 0.96450 0.91445   2 
   6   4  -5 5.31963 0.85858   2 
   6   4  -5 3.26068 1.30494   2 
  -6  -4   5 3.66794 1.16186   2 
  -6  -4   5 3.85404 0.56440   1 
  -6  -4   5 3.12094 1.41877   2 
   5   4  -5 26.4258 1.94583   2 
   5   4  -5 27.8901 1.25466   2 
  -5  -4   5 27.7539 2.00199   2 
  -5  -4   5 24.3546 1.03202   1 
  -5  -4   5 26.3391 1.79346   2 
   4   4  -5 0.34817 0.63966   2 
   4   4  -5 -0.0656 0.34857   2 
  -4  -4   5 0.38855 0.80427   2 
  -4  -4   5 0.26513 0.64330   2 
   3   4  -5 4.71773 0.54893   2 
   3   4  -5 3.89657 0.64049   2 
  -3  -4   5 3.37162 0.65145   2 
  -3  -4   5 3.28945 0.41564   1 
  -3  -4   5 3.94846 0.59321   2 
   2   4  -5 66.5491 1.71362   1 
   2   4  -5 70.6809 1.90893   2 
  -2  -4   5 68.1184 1.98558   2 
  -2  -4   5 66.5274 1.65629   1 
  -2  -4   5 70.0569 1.85925   2 
   1   4  -5 0.45721 0.27981   2 
   1   4  -5 1.15852 0.20111   1 
   1   4  -5 0.13492 0.30826   2 
  -1  -4   5 0.53182 0.18703   1 
  -1  -4   5 0.21798 0.33711   2 
  -1  -4   5 0.82766 0.40215   2 
   0   4  -5 44.7823 1.23727   2 
   0   4  -5 44.9826 1.15612   1 
   0   4  -5 44.8015 1.22701   2 
   0  -4   5 44.2897 1.35831   2 
   0  -4   5 43.5428 1.16078   1 
   0  -4   5 44.4516 1.26544   2 
  -1   4  -5 8.25585 0.43105   1 
  -1   4  -5 8.71820 0.55022   2 
  -1   4  -5 8.23943 0.49104   2 
   1  -4   5 7.97008 0.52746   2 
   1  -4   5 9.29131 0.63773   2 
   1  -4   5 9.08118 0.45631   1 
  -2   4  -5 36.9207 1.12608   2 
  -2   4  -5 35.9536 0.96973   1 
  -2   4  -5 35.8233 1.01367   2 
   2  -4   5 36.3577 1.03013   2 
   2  -4   5 34.5178 1.14510   2 
   2  -4   5 36.2976 0.99645   1 
  -3   4  -5 2.12311 0.30769   2 
  -3   4  -5 2.94344 0.31318   1 
   3  -4   5 2.47379 0.33360   2 
   3  -4   5 2.21859 0.29769   1 
   3  -4   5 2.16179 0.39116   2 
  -4   4  -5 10.7243 0.49932   1 
  -4   4  -5 10.3130 0.64988   2 
   4  -4   5 10.0323 0.77198   2 
   4  -4   5 10.7864 0.79443   2 
   4  -4   5 10.1769 0.52094   1 
  -5   4  -5 18.3894 0.87443   2 
  -5   4  -5 16.6986 0.96232   2 
  -5   4  -5 17.7198 0.67623   1 
   5  -4   5 17.8444 1.18968   2 
   5  -4   5 18.5917 1.09610   2 
   5  -4   5 17.2738 0.74223   1 
  -6   4  -5 5.25386 0.50428   1 
  -6   4  -5 4.29833 0.67254   2 
  -6   4  -5 4.31686 0.62006   2 
   6  -4   5 4.22858 0.55082   1 
   6  -4   5 3.91088 0.91793   2 
   6  -4   5 4.77238 0.81727   2 
   6   3  -5 1.32708 0.62834   2 
   6   3  -5 1.96321 1.08860   2 
  -6  -3   5 0.90485 0.43246   1 
  -6  -3   5 1.09211 0.93553   2 
   5   3  -5 89.8374 2.29064   2 
   5   3  -5 95.2142 2.85845   2 
  -5  -3   5 92.1474 2.60814   2 
  -5  -3   5 88.5771 2.93369   2 
  -5  -3   5 89.9798 2.20425   1 
   4   3  -5 18.6728 1.33932   2 
   4   3  -5 17.2585 0.80596   2 
  -4  -3   5 17.4145 1.11006   2 
  -4  -3   5 15.8598 1.26457   2 
  -4  -3   5 16.4743 0.70838   1 
   3   3  -5 115.140 2.82366   2 
  -3  -3   5 113.473 2.87367   2 
  -3  -3   5 116.862 2.70957   2 
  -3  -3   5 117.151 2.54966   1 
   2   3  -5 -0.0341 0.17001   1 
   2   3  -5 -0.0585 0.29813   2 
   2   3  -5 -0.0319 0.19443   2 
  -2  -3   5 0.89764 0.33284   2 
  -2  -3   5 -0.0040 0.14372   1 
  -2  -3   5 0.18127 0.29095   2 
   1   3  -5 2.60016 0.27264   2 
   1   3  -5 2.86735 0.33356   2 
   1   3  -5 2.73907 0.29673   1 
  -1  -3   5 2.40071 0.33130   2 
  -1  -3   5 2.64903 0.37302   2 
  -1  -3   5 2.50551 0.25381   1 
   0   3  -5 55.9570 1.31856   2 
   0   3  -5 54.4819 1.30305   1 
   0   3  -5 54.8869 1.30706   2 
   0  -3   5 54.4295 1.41551   2 
   0  -3   5 54.2948 1.29892   1 
   0  -3   5 55.1211 1.35203   2 
  -1   3  -5 12.4642 0.52898   2 
  -1   3  -5 12.5329 0.46931   2 
  -1   3  -5 12.2361 0.45489   1 
   1  -3   5 12.0306 0.58099   2 
   1  -3   5 12.2310 0.50985   2 
   1  -3   5 12.6879 0.46680   1 
  -2   3  -5 3.69634 0.40241   2 
  -2   3  -5 3.67025 0.31816   2 
  -2   3  -5 3.77517 0.27368   1 
   2  -3   5 3.48610 0.34142   2 
   2  -3   5 4.00361 0.40929   2 
   2  -3   5 3.48581 0.29982   1 
  -3   3  -5 3.18309 0.26824   1 
  -3   3  -5 2.87565 0.35522   2 
  -3   3  -5 3.80413 0.35082   2 
   3  -3   5 2.56207 0.26496   1 
   3  -3   5 3.69056 0.42255   2 
   3  -3   5 2.54261 0.33643   2 
  -4   3  -5 -0.0173 0.29628   2 
  -4   3  -5 0.45325 0.15188   1 
  -4   3  -5 1.07662 0.25134   2 
   4  -3   5 0.61844 0.31347   2 
   4  -3   5 0.74533 0.37594   2 
   4  -3   5 0.68445 0.19980   1 
  -5   3  -5 10.9409 0.70539   2 
  -5   3  -5 11.9703 0.47048   1 
   5  -3   5 12.1216 0.86602   2 
   5  -3   5 12.3901 1.07028   2 
   5  -3   5 11.3031 0.56085   1 
  -6   3  -5 17.0674 1.04532   2 
  -6   3  -5 16.4695 0.57485   1 
  -6   3  -5 13.8307 1.02044   2 
   6  -3   5 16.1896 1.18831   2 
   6  -3   5 17.1269 0.85722   1 
   6  -3   5 16.3635 1.55794   2 
  -7   3  -5 10.6115 0.97104   2 
  -7   3  -5 13.2241 1.34776   2 
   7  -3   5 15.2140 1.50869   2 
   7  -3   5 12.0960 1.50601   2 
   6   2  -5 0.66839 0.88631   2 
   6   2  -5 0.32483 0.53913   2 
  -6  -2   5 1.56167 1.02420   2 
  -6  -2   5 1.91119 0.73764   2 
  -6  -2   5 0.36129 0.79194   1 
  -6  -2   5 1.21577 0.37375   1 
   5   2  -5 3.15930 0.75895   2 
   5   2  -5 2.00800 0.43844   2 
  -5  -2   5 2.83104 0.59944   2 
  -5  -2   5 2.39300 0.38607   1 
   4   2  -5 7.42548 0.75879   2 
   4   2  -5 8.09359 0.72505   2 
  -4  -2   5 8.43717 0.51628   1 
  -4  -2   5 8.61823 0.75841   2 
  -4  -2   5 8.46440 0.97915   2 
   3   2  -5 0.40280 0.33843   2 
   3   2  -5 0.10158 0.17462   2 
  -3  -2   5 0.11821 0.34327   2 
  -3  -2   5 -0.0780 0.16555   1 
  -3  -2   5 0.04187 0.26886   2 
   2   2  -5 3.40719 0.28479   2 
   2   2  -5 3.00133 0.35991   2 
  -2  -2   5 2.93411 0.32581   2 
  -2  -2   5 2.60912 0.27399   1 
  -2  -2   5 2.73390 0.38273   2 
   1   2  -5 2.31898 0.28408   1 
   1   2  -5 2.31132 0.23159   2 
   1   2  -5 2.53879 0.27774   2 
  -1  -2   5 2.22668 0.23933   1 
  -1  -2   5 2.85891 0.31598   2 
  -1  -2   5 2.28474 0.26241   2 
   0   2  -5 57.7408 1.23564   2 
   0   2  -5 57.2537 1.33744   1 
   0   2  -5 58.1066 1.23310   2 
   0  -2   5 57.9957 1.29894   2 
   0  -2   5 57.0266 1.34096   2 
   0  -2   5 58.5916 1.30999   1 
  -1   2  -5 80.0564 1.68501   2 
  -1   2  -5 80.4404 1.62582   2 
  -1   2  -5 80.7459 1.70607   1 
   1  -2   5 78.3583 1.71955   2 
   1  -2   5 79.6822 1.66742   2 
   1  -2   5 80.4035 1.69210   1 
  -2   2  -5 108.194 2.24205   2 
  -2   2  -5 108.247 2.18234   1 
  -2   2  -5 106.894 2.19253   2 
   2  -2   5 108.164 2.27007   2 
   2  -2   5 107.613 2.19162   1 
   2  -2   5 107.130 2.22191   2 
  -3   2  -5 19.7628 0.52756   1 
  -3   2  -5 18.8822 0.61889   2 
  -3   2  -5 20.6120 0.66914   2 
   3  -2   5 19.3453 0.54689   1 
   3  -2   5 19.0658 0.68799   2 
  -4   2  -5 2.57122 0.33707   2 
  -4   2  -5 2.76515 0.22394   1 
  -4   2  -5 2.94659 0.34288   2 
   4  -2   5 2.58340 0.27028   1 
   4  -2   5 2.85295 0.47444   2 
   4  -2   5 2.82021 0.36549   2 
  -5   2  -5 2.68113 0.41834   2 
   5  -2   5 2.00784 0.59547   2 
   5  -2   5 2.62449 0.48155   2 
  -6   2  -5 1.67215 0.51055   2 
  -6   2  -5 1.35619 0.48494   2 
   6  -2   5 0.77540 0.78230   2 
   6  -2   5 1.99424 0.62550   2 
  -7   2  -5 0.62704 0.72348   2 
  -7   2  -5 -0.6077 0.66179   2 
   7  -2   5 -0.9825 1.20380   2 
   7  -2   5 -0.2086 0.67024   2 
   7   1  -5 0.31175 1.21678   2 
   7   1  -5 0.40591 0.75126   2 
  -7  -1   5 1.19154 1.16732   2 
  -7  -1   5 -0.5610 0.88361   2 
  -7  -1   5 0.65191 0.48466   1 
  -7  -1   5 -0.7527 0.84029   1 
   6   1  -5 1.36434 0.51955   2 
   6   1  -5 -0.6644 0.82273   2 
  -6  -1   5 -0.5849 0.72657   2 
  -6  -1   5 0.06054 0.71024   1 
  -6  -1   5 1.51497 0.40877   1 
  -6  -1   5 0.70787 0.59940   2 
   5   1  -5 8.02542 0.85149   2 
   5   1  -5 7.95990 0.68120   2 
  -5  -1   5 8.45719 0.98799   1 
  -5  -1   5 9.02005 1.06717   2 
  -5  -1   5 9.27417 0.82175   2 
  -5  -1   5 9.22985 0.63105   1 
   4   1  -5 5.63289 0.64971   2 
  -4  -1   5 6.16689 0.56777   2 
  -4  -1   5 4.23500 0.46374   1 
   3   1  -5 108.718 2.29373   2 
   3   1  -5 109.927 2.52121   2 
  -3  -1   5 107.325 2.34979   2 
  -3  -1   5 106.676 2.41553   1 
  -3  -1   5 110.153 2.54479   2 
   2   1  -5 14.2315 0.45437   2 
   2   1  -5 14.3075 0.59889   2 
  -2  -1   5 13.6672 0.50206   2 
  -2  -1   5 14.5844 0.64471   2 
  -2  -1   5 14.2477 0.56365   1 
   1   1  -5 120.650 2.30767   2 
  -1  -1   5 118.476 2.44754   2 
  -1  -1   5 121.485 2.50767   1 
  -1  -1   5 117.888 2.37499   2 
   0  -1   5 0.06695 0.09081   1 
   1  -1   5 105.031 2.06276   2 
   1  -1   5 107.089 2.09050   2 
   1  -1   5 104.643 2.11911   1 
  -2   1  -5 19.7695 0.53032   2 
  -2   1  -5 20.2916 0.55276   2 
  -2   1  -5 19.9613 0.52783   1 
   2  -1   5 18.7670 0.55299   2 
   2  -1   5 19.6150 0.62030   2 
   2  -1   5 19.6942 0.49850   1 
  -3   1  -5 4.75570 0.34968   2 
  -3   1  -5 4.33974 0.33875   2 
   3  -1   5 4.33438 0.34631   2 
   3  -1   5 4.68838 0.52377   2 
  -4   1  -5 -0.3641 0.19292   2 
  -4   1  -5 0.21365 0.24322   2 
   4  -1   5 -0.0630 0.21786   2 
  -5   1  -5 9.95336 0.73682   2 
   5  -1   5 9.75049 0.74742   2 
   5  -1   5 10.4309 1.08451   2 
  -6   1  -5 35.6715 1.42202   2 
  -6   1  -5 35.5791 1.36164   2 
   6  -1   5 37.0314 1.92436   2 
   6  -1   5 35.7741 1.39059   2 
  -7   1  -5 10.1617 1.27951   2 
  -7   1  -5 14.8412 1.48574   2 
   7  -1   5 12.4549 1.33017   2 
   7  -1   5 14.6920 1.62149   2 
   7   0  -5 -0.8351 1.08253   2 
   7   0  -5 1.02507 0.68993   2 
  -7   0   5 0.00824 0.51400   1 
  -7   0   5 1.40375 0.82937   2 
  -7   0   5 -0.9833 0.95178   2 
  -7   0   5 1.61068 0.81077   1 
   6   0  -5 1.67431 0.75906   2 
   6   0  -5 0.26992 0.42824   2 
  -6   0   5 -0.2159 0.39915   1 
  -6   0   5 0.44409 0.46250   2 
  -6   0   5 -0.5426 0.54328   1 
  -6   0   5 0.14613 0.68321   2 
   5   0  -5 38.5484 1.20598   2 
  -5   0   5 36.5482 1.23237   2 
  -5   0   5 37.1609 1.42971   1 
  -5   0   5 41.0526 1.49910   2 
   4   0  -5 43.2920 1.38250   2 
  -4   0   5 43.1285 1.37264   2 
  -4   0   5 40.6900 1.40272   1 
  -4   0   5 43.1552 1.19561   2 
   3   0  -5 3.83019 0.34857   2 
   3   0  -5 3.79867 0.46737   2 
  -3   0   5 3.00381 0.38055   2 
  -3   0   5 3.91877 0.43536   1 
   2   0  -5 5.85367 0.30338   2 
   2   0  -5 5.33939 0.38659   2 
  -2   0   5 6.16951 0.29131   2 
  -1   0   5 12.8914 0.34363   2 
  -1   0   5 13.3724 0.41957   2 
   1   0   5 265.954 5.08350   1 
  -2   0  -5 93.8714 1.92009   2 
  -2   0  -5 92.7856 1.88500   2 
   2   0   5 93.6462 1.92057   2 
   2   0   5 92.9714 1.81440   1 
   2   0   5 94.4502 1.88130   1 
  -3   0  -5 3.07957 0.36497   2 
  -3   0  -5 3.57744 0.36793   2 
   3   0   5 2.81266 0.40620   2 
   3   0   5 3.16337 0.31355   2 
  -4   0  -5 14.5253 0.68863   2 
  -4   0  -5 14.3757 0.68642   2 
   4   0   5 14.8763 0.91945   2 
   4   0   5 14.9968 0.65743   2 
  -5   0  -5 73.2403 1.91132   2 
   5   0   5 71.3344 1.86141   2 
   5   0   5 71.0342 2.20954   2 
  -6   0  -5 26.6344 1.38186   2 
  -6   0  -5 24.3328 1.25635   2 
   6   0   5 24.4391 1.80137   2 
   6   0   5 26.6123 1.23382   2 
  -7   0  -5 6.14936 1.04028   2 
  -7   0  -5 5.80800 0.91090   2 
   7   0   5 8.97914 1.46416   2 
   7   0   5 8.54312 0.92208   2 
   7  -1  -5 7.34269 1.28171   2 
   7  -1  -5 7.40977 0.88747   2 
  -7   1   5 6.89218 0.82286   1 
  -7   1   5 5.82208 0.93370   2 
  -7   1   5 7.24168 0.87352   2 
   6  -1  -5 2.68254 0.53011   2 
   6  -1  -5 2.81271 0.73317   2 
  -6   1   5 1.82173 0.71494   2 
  -6   1   5 2.00739 0.53467   2 
  -6   1   5 3.57334 0.65916   1 
   5  -1  -5 0.36145 0.36306   2 
  -5   1   5 0.38533 0.43620   1 
  -5   1   5 -0.2104 0.42531   2 
  -5   1   5 0.71975 0.35230   2 
   4  -1  -5 49.3283 1.52459   2 
  -4   1   5 50.8687 1.31747   2 
  -4   1   5 52.0812 1.44455   2 
  -4   1   5 51.1825 1.50979   1 
   3  -1  -5 58.4083 1.37255   2 
   3  -1  -5 58.5982 1.49290   2 
  -3   1   5 56.0798 1.36172   2 
  -3   1   5 56.6253 1.56272   1 
  -3   1   5 57.5473 1.42184   2 
   2  -1  -5 38.0013 0.91094   2 
   2  -1  -5 38.6306 0.97509   2 
  -2   1   5 37.5899 0.88771   2 
  -2   1   5 36.6270 1.10320   1 
  -2   1   5 36.6127 0.91696   2 
  -1   1   5 51.8936 1.08615   2 
  -1   1   5 50.4090 1.05865   2 
  -1   1   5 51.9800 1.31260   1 
   0   1   5 954.050 17.9156   1 
   1   1   5 359.974 6.86889   2 
   1   1   5 365.285 6.91470   1 
   1   1   5 365.531 6.93761   2 
  -2  -1  -5 7.74173 0.40606   2 
  -2  -1  -5 6.78603 0.39347   2 
   2   1   5 7.62611 0.34933   2 
   2   1   5 6.64725 0.50762   2 
  -3  -1  -5 19.3505 0.76149   2 
  -3  -1  -5 20.7206 0.75474   2 
   3   1   5 20.4134 0.91793   2 
   3   1   5 20.5081 0.67517   2 
  -4  -1  -5 9.09782 0.75271   2 
  -4  -1  -5 9.59369 0.70841   2 
   4   1   5 11.9392 0.62118   2 
   4   1   5 10.2603 0.93586   2 
  -5  -1  -5 12.7368 0.94231   2 
   5   1   5 11.3987 0.83352   2 
   5   1   5 11.0585 1.21777   2 
  -6  -1  -5 16.6093 1.32667   2 
  -6  -1  -5 18.8495 1.39455   2 
   6   1   5 23.2683 1.79272   2 
   6   1   5 17.3567 1.17466   2 
   7  -2  -5 1.77259 0.73298   2 
   7  -2  -5 2.93328 1.06370   2 
  -7   2   5 0.06198 0.66380   2 
  -7   2   5 1.84484 0.66345   2 
  -7   2   5 1.65573 0.63080   1 
   6  -2  -5 4.93452 0.63861   2 
   6  -2  -5 6.27680 0.87212   2 
  -6   2   5 4.83450 0.61793   1 
  -6   2   5 3.93213 0.63944   2 
  -6   2   5 6.17536 0.67159   2 
   5  -2  -5 30.2166 1.39386   2 
   5  -2  -5 27.5024 1.62883   2 
  -5   2   5 33.4770 1.19568   1 
  -5   2   5 31.2717 1.07447   2 
  -5   2   5 31.3313 1.14421   2 
   4  -2  -5 48.9588 1.49937   2 
  -4   2   5 46.9141 1.41265   1 
  -4   2   5 47.1005 1.29929   2 
  -4   2   5 50.2344 1.30161   2 
   3  -2  -5 13.8298 0.61431   2 
  -3   2   5 13.2928 0.53738   2 
  -3   2   5 13.5044 0.66217   1 
   2  -2  -5 65.9692 1.71542   1 
   2  -2  -5 64.8661 1.48636   2 
   2  -2  -5 64.3757 1.47699   2 
  -2   2   5 64.8506 1.40887   2 
  -2   2   5 64.3758 1.44770   2 
  -2   2   5 65.0909 1.59614   1 
   1  -2  -5 7.96992 0.31394   2 
   1  -2  -5 8.60725 0.49920   1 
   1  -2  -5 8.41042 0.38621   2 
  -1   2   5 8.39855 0.42066   1 
  -1   2   5 7.81539 0.32586   2 
  -1   2   5 8.07637 0.37304   2 
   0  -2  -5 1.25196 0.25419   1 
   0  -2  -5 1.19027 0.15589   2 
   0   2   5 1.98409 0.24137   1 
   0   2   5 1.20169 0.18253   2 
   0   2   5 1.01845 0.20756   2 
  -1  -2  -5 0.27090 0.16397   2 
  -1  -2  -5 0.41978 0.18437   1 
  -1  -2  -5 0.34200 0.18137   2 
   1   2   5 0.19342 0.19394   2 
   1   2   5 0.36273 0.10926   1 
   1   2   5 0.15751 0.17850   2 
  -2  -2  -5 17.2421 0.65978   2 
  -2  -2  -5 17.2529 0.54141   1 
   2   2   5 16.4813 0.60357   2 
   2   2   5 17.0207 0.44480   1 
   2   2   5 17.2978 0.79566   2 
  -3  -2  -5 16.0024 0.81265   2 
  -3  -2  -5 15.9561 0.76631   2 
   3   2   5 15.9427 0.64934   2 
  -4  -2  -5 3.15446 0.52983   2 
  -4  -2  -5 3.91093 0.64215   2 
   4   2   5 2.43318 0.61098   2 
   4   2   5 4.31415 0.44516   2 
  -5  -2  -5 10.7194 1.05251   2 
   5   2   5 8.47443 0.86491   2 
   5   2   5 6.82627 0.89412   2 
  -6  -2  -5 4.62987 0.92496   2 
  -6  -2  -5 6.47624 0.90799   2 
   6   2   5 5.32868 0.73970   2 
   6   2   5 4.86556 1.09971   2 
   7  -3  -5 1.23352 0.74359   2 
   7  -3  -5 1.80687 1.05357   2 
  -7   3   5 0.54428 0.70740   2 
  -7   3   5 2.15057 0.60184   1 
  -7   3   5 0.46532 0.66269   2 
   6  -3  -5 67.6200 2.34154   2 
   6  -3  -5 68.6110 2.06533   2 
  -6   3   5 68.3450 1.94613   1 
  -6   3   5 69.0698 1.94229   2 
  -6   3   5 69.4939 1.93576   2 
   5  -3  -5 -0.5329 0.48383   2 
   5  -3  -5 0.35503 0.49642   2 
  -5   3   5 0.11029 0.29638   2 
  -5   3   5 0.40354 0.42279   1 
  -5   3   5 -0.0885 0.33486   2 
   4  -3  -5 0.97713 0.38616   2 
   4  -3  -5 1.51273 0.47237   1 
  -4   3   5 1.26044 0.32041   1 
  -4   3   5 1.49822 0.30223   2 
  -4   3   5 1.25248 0.30297   2 
   3  -3  -5 3.66650 0.42329   2 
   3  -3  -5 3.71260 0.47971   1 
   3  -3  -5 3.83927 0.46550   2 
  -3   3   5 3.73006 0.38728   2 
  -3   3   5 3.72305 0.42997   1 
  -3   3   5 3.70819 0.40507   2 
   2  -3  -5 1.27811 0.20227   2 
   2  -3  -5 1.11721 0.28956   1 
   2  -3  -5 1.41129 0.28758   2 
  -2   3   5 1.39733 0.21856   2 
  -2   3   5 1.36811 0.24698   1 
  -2   3   5 1.53375 0.25116   2 
   1  -3  -5 0.27356 0.20915   1 
   1  -3  -5 0.30386 0.13461   2 
   1  -3  -5 0.28407 0.21460   2 
  -1   3   5 0.30800 0.18608   2 
  -1   3   5 0.30010 0.14416   1 
  -1   3   5 0.06442 0.19223   2 
   0  -3  -5 0.30704 0.14643   2 
   0  -3  -5 0.05530 0.18307   1 
   0  -3  -5 0.16989 0.21020   2 
   0   3   5 0.21077 0.13819   1 
   0   3   5 0.30454 0.23440   2 
   0   3   5 0.64931 0.19698   2 
  -1  -3  -5 939.964 17.3558   1 
  -1  -3  -5 899.935 17.4094   2 
  -1  -3  -5 942.579 17.3632   2 
   1   3   5 902.859 17.4881   2 
   1   3   5 938.406 17.2747   1 
   1   3   5 909.646 17.4067   2 
  -2  -3  -5 3.48024 0.38690   2 
  -2  -3  -5 3.11362 0.32886   1 
  -2  -3  -5 3.27851 0.41901   2 
   2   3   5 2.79929 0.25418   1 
   2   3   5 3.27340 0.35543   2 
   2   3   5 3.10433 0.49701   2 
  -3  -3  -5 9.51913 0.73002   2 
  -3  -3  -5 10.3685 0.84892   2 
   3   3   5 10.5392 0.94602   2 
   3   3   5 9.97787 0.62247   2 
  -4  -3  -5 35.5120 1.34114   2 
   4   3   5 34.6007 1.60482   2 
   4   3   5 37.5447 1.24645   2 
  -5  -3  -5 -0.5363 0.63836   2 
   5   3   5 -0.0685 0.77644   2 
   5   3   5 -0.0920 0.47703   2 
  -6  -3  -5 3.49519 0.99622   2 
  -6  -3  -5 5.02642 1.06622   2 
   6   3   5 2.71031 1.21533   2 
   6   3   5 4.50874 0.77722   2 
   7  -4  -5 0.52509 0.89892   2 
   7  -4  -5 -1.6980 1.04793   2 
  -7   4   5 -0.1371 0.70802   2 
  -7   4   5 1.20249 0.72619   2 
  -7   4   5 1.07771 0.60023   1 
   6  -4  -5 3.46678 0.93794   2 
   6  -4  -5 4.21705 0.77545   2 
  -6   4   5 4.14370 0.58752   1 
  -6   4   5 4.41539 0.64811   2 
  -6   4   5 5.14406 0.64242   2 
   5  -4  -5 52.2566 1.79362   2 
   5  -4  -5 48.4391 1.84979   1 
   5  -4  -5 51.6158 1.70489   2 
  -5   4   5 51.2843 1.53350   2 
  -5   4   5 52.1090 1.52500   2 
  -5   4   5 50.6254 1.51238   1 
   4  -4  -5 72.1490 2.11923   1 
   4  -4  -5 67.9187 2.09435   2 
  -4   4   5 72.5587 1.83247   1 
  -4   4   5 74.4995 1.82169   2 
  -4   4   5 73.2144 1.83087   2 
   3  -4  -5 16.8142 0.83392   2 
   3  -4  -5 18.2994 0.74234   2 
   3  -4  -5 15.7494 0.89102   1 
  -3   4   5 16.3390 0.70303   2 
  -3   4   5 15.9329 0.70051   1 
  -3   4   5 16.5021 0.72503   2 
   2  -4  -5 17.7779 0.80675   1 
   2  -4  -5 17.3898 0.62107   2 
   2  -4  -5 16.8665 0.79034   2 
  -2   4   5 17.4516 0.70944   2 
  -2   4   5 16.9720 0.66550   1 
   1  -4  -5 11.3892 0.61880   1 
   1  -4  -5 11.3006 0.68724   2 
   1  -4  -5 11.7707 0.48341   2 
  -1   4   5 11.8810 0.66112   2 
  -1   4   5 11.0440 0.60555   2 
  -1   4   5 12.5262 0.53447   1 
   0  -4  -5 5.69658 0.58193   2 
   0  -4  -5 6.37237 0.42281   2 
   0  -4  -5 6.81664 0.46370   1 
   0   4   5 6.41368 0.52381   2 
   0   4   5 6.93012 0.63202   2 
   0   4   5 6.29265 0.38208   1 
  -1  -4  -5 11.4915 0.53573   1 
  -1  -4  -5 11.1561 0.62319   2 
  -1  -4  -5 10.4697 0.69418   2 
   1   4   5 10.1278 0.80853   2 
   1   4   5 10.9870 0.66174   2 
   1   4   5 11.7458 0.48024   1 
  -2  -4  -5 7.46245 0.45150   1 
  -2  -4  -5 8.45797 0.70474   2 
  -2  -4  -5 8.80536 0.78536   2 
   2   4   5 7.93033 0.39777   1 
   2   4   5 7.28852 0.64133   2 
   2   4   5 6.74924 0.80823   2 
  -3  -4  -5 45.3440 1.52714   2 
  -3  -4  -5 46.9971 1.62686   2 
  -3  -4  -5 45.6633 1.13656   1 
   3   4   5 48.7684 1.73793   2 
   3   4   5 46.6754 1.07628   1 
   3   4   5 47.1406 1.42951   2 
  -4  -4  -5 5.54405 0.73590   2 
   4   4   5 6.48997 0.93953   2 
   4   4   5 5.23231 0.56832   2 
  -5  -4  -5 24.9824 1.66092   2 
   5   4   5 25.3992 2.04493   2 
   5   4   5 27.9720 1.39758   2 
   6  -5  -5 3.70088 0.90784   2 
   6  -5  -5 1.90387 0.76890   2 
   6  -5  -5 2.54760 0.92217   1 
  -6   5   5 3.19820 0.59972   2 
  -6   5   5 2.27992 0.51687   1 
  -6   5   5 2.87278 0.57716   2 
   5  -5  -5 58.0052 2.10388   1 
   5  -5  -5 63.4000 2.01728   2 
   5  -5  -5 61.0717 2.00973   2 
  -5   5   5 61.9639 1.76808   1 
  -5   5   5 59.3879 1.76693   2 
  -5   5   5 61.1683 1.80583   2 
   4  -5  -5 37.3653 1.32409   2 
   4  -5  -5 37.1552 1.47566   1 
  -4   5   5 38.3990 1.23977   1 
  -4   5   5 37.8582 1.29892   2 
  -4   5   5 36.6330 1.25800   2 
   3  -5  -5 12.6717 0.72908   2 
   3  -5  -5 13.6179 0.86495   1 
  -3   5   5 14.2903 0.69541   1 
  -3   5   5 14.3827 0.79215   2 
  -3   5   5 13.0617 0.80831   2 
   2  -5  -5 8.73450 0.68522   1 
   2  -5  -5 8.82305 0.54618   2 
   2  -5  -5 10.0203 0.79754   2 
  -2   5   5 9.79888 0.69374   2 
  -2   5   5 10.4102 0.67826   2 
  -2   5   5 8.67169 0.53184   1 
   1  -5  -5 2.49249 0.32983   2 
   1  -5  -5 2.17371 0.34623   1 
   1  -5  -5 2.28416 0.45141   2 
  -1   5   5 2.24551 0.30499   1 
  -1   5   5 1.72670 0.36638   2 
  -1   5   5 1.62209 0.40433   2 
   0  -5  -5 124.281 2.95842   2 
   0  -5  -5 129.711 2.77655   2 
   0  -5  -5 128.033 2.80456   1 
   0   5   5 126.932 2.93112   2 
   0   5   5 126.306 2.74038   1 
   0   5   5 128.258 2.98367   2 
  -1  -5  -5 -0.7116 0.25439   1 
  -1  -5  -5 0.06491 0.32413   2 
  -1  -5  -5 -0.2585 0.39394   2 
   1   5   5 0.32987 0.34972   2 
   1   5   5 0.07342 0.19938   1 
   1   5   5 0.01873 0.42638   2 
  -2  -5  -5 2.43081 0.54151   2 
  -2  -5  -5 2.49246 0.49965   2 
  -2  -5  -5 2.16081 0.34990   1 
   2   5   5 2.65576 0.61240   2 
   2   5   5 1.86922 0.28245   1 
   2   5   5 2.15445 0.46593   2 
  -3  -5  -5 2.28645 0.60687   2 
  -3  -5  -5 1.39850 0.32236   1 
  -3  -5  -5 0.52400 0.61963   2 
   3   5   5 2.37585 0.62887   2 
   3   5   5 1.43747 0.75507   2 
   3   5   5 2.10090 0.26965   1 
  -4  -5  -5 22.1793 0.79567   1 
  -4  -5  -5 23.3588 1.53586   2 
   4   5   5 24.8157 1.33679   2 
   4   5   5 24.5477 0.73085   1 
   4   5   5 20.8312 1.79481   2 
  -5  -5  -5 16.4264 1.85225   2 
   5   5   5 16.5516 1.48230   2 
   5   5   5 14.6468 1.53090   2 
   6  -6  -5 4.59947 1.01901   2 
   6  -6  -5 3.88378 0.98077   1 
   6  -6  -5 2.86578 1.06466   2 
  -6   6   5 3.50588 0.85106   2 
  -6   6   5 3.22541 0.71063   2 
  -6   6   5 3.44026 0.59929   1 
   5  -6  -5 9.98553 1.07260   2 
   5  -6  -5 11.3611 1.15131   1 
   5  -6  -5 9.86463 1.23223   2 
  -5   6   5 10.3580 0.93921   2 
  -5   6   5 9.22477 1.13106   2 
  -5   6   5 9.50609 0.83843   1 
   4  -6  -5 0.82525 0.90202   2 
   4  -6  -5 0.43996 0.47082   2 
   4  -6  -5 -0.0797 0.47147   1 
  -4   6   5 0.53300 0.34399   1 
  -4   6   5 -0.0013 0.42961   2 
  -4   6   5 0.25346 0.48779   2 
   3  -6  -5 13.4978 0.96523   1 
   3  -6  -5 13.8042 0.76826   2 
  -3   6   5 11.2607 0.87352   2 
  -3   6   5 14.0078 0.73896   1 
  -3   6   5 12.0146 0.96232   2 
   2  -6  -5 1.78955 0.48266   1 
   2  -6  -5 1.73796 0.34913   2 
   2  -6  -5 0.70134 0.44635   2 
  -2   6   5 1.24663 0.32703   1 
  -2   6   5 1.26930 0.45472   2 
  -2   6   5 1.56342 0.42701   2 
   1  -6  -5 85.8305 2.25748   2 
   1  -6  -5 85.8686 2.37598   2 
   1  -6  -5 87.8502 2.19846   1 
  -1   6   5 88.7834 2.35347   2 
  -1   6   5 89.2225 2.11437   1 
  -1   6   5 88.1223 2.32416   2 
   0  -6  -5 0.54545 0.34147   1 
   0  -6  -5 1.05979 0.39914   2 
   0  -6  -5 1.38430 0.51547   2 
   0   6   5 1.69655 0.47049   2 
   0   6   5 0.80647 0.25450   1 
   0   6   5 0.97570 0.52191   2 
  -1  -6  -5 18.3537 1.00417   2 
  -1  -6  -5 17.8629 1.16169   2 
  -1  -6  -5 18.7422 0.83746   1 
   1   6   5 19.2796 0.76727   1 
   1   6   5 19.3661 1.24746   2 
   1   6   5 18.1512 1.16706   2 
  -2  -6  -5 1.52909 0.37155   1 
  -2  -6  -5 2.07441 0.61044   2 
  -2  -6  -5 0.10987 0.57138   2 
   2   6   5 2.23738 0.78362   2 
   2   6   5 1.28720 0.33875   1 
   2   6   5 0.85535 0.56640   2 
  -3  -6  -5 1.09166 0.71295   2 
  -3  -6  -5 1.41956 0.39455   1 
   3   6   5 1.70229 0.34632   1 
   3   6   5 0.84691 0.88485   2 
   3   6   5 1.40348 0.62768   2 
  -4  -6  -5 0.13569 0.44868   1 
  -4  -6  -5 -0.9113 0.88593   2 
   4   6   5 1.06313 1.20835   2 
   4   6   5 0.88354 0.72045   2 
   4   6   5 1.03586 0.35440   1 
   5  -7  -5 0.00125 0.78169   2 
   5  -7  -5 2.20726 0.82206   1 
   5  -7  -5 0.88222 0.86287   2 
  -5   7   5 -0.0250 0.46726   1 
  -5   7   5 -0.1467 0.66813   2 
  -5   7   5 0.90163 0.73451   2 
   4  -7  -5 -0.5567 0.54457   2 
   4  -7  -5 0.18845 0.71212   2 
   4  -7  -5 0.82065 0.64205   1 
  -4   7   5 1.14503 0.69248   2 
  -4   7   5 0.62727 0.50308   2 
  -4   7   5 0.66662 0.39665   1 
   3  -7  -5 29.0436 1.20189   2 
   3  -7  -5 27.0783 1.37992   1 
  -3   7   5 28.6513 1.12645   1 
  -3   7   5 28.8956 1.31662   2 
  -3   7   5 28.6379 1.46812   2 
   2  -7  -5 2.27950 0.49669   1 
   2  -7  -5 2.75471 0.47042   2 
  -2   7   5 2.11789 0.59738   2 
  -2   7   5 2.31617 0.64470   2 
  -2   7   5 2.81832 0.44360   1 
   1  -7  -5 104.185 2.54439   1 
   1  -7  -5 98.8822 2.42494   2 
  -1   7   5 99.7162 2.71946   2 
  -1   7   5 100.892 2.44216   1 
  -1   7   5 100.255 2.73834   2 
   0  -7  -5 -0.6478 0.42212   1 
   0  -7  -5 0.22830 0.44538   2 
   0   7   5 0.55848 0.31547   1 
   0   7   5 0.26928 0.64285   2 
   0   7   5 0.47778 0.56505   2 
  -1  -7  -5 1.36307 0.90784   1 
  -1  -7  -5 2.98523 0.66406   2 
   1   7   5 2.10294 0.67744   1 
   1   7   5 2.43387 0.69996   2 
   1   7   5 2.74865 0.79403   2 
  -2  -7  -5 11.4527 1.26566   2 
  -2  -7  -5 9.83976 0.89012   1 
   2   7   5 10.7198 1.17542   2 
   2   7   5 9.77208 0.97877   2 
   2   7   5 8.12208 0.72912   1 
  -3  -7  -5 0.76987 0.52065   1 
  -3  -7  -5 1.15679 0.91357   2 
   3   7   5 1.39374 1.08367   2 
   3   7   5 0.37266 0.84156   2 
   3   7   5 0.37255 0.41090   1 
   4  -8  -5 8.98513 1.02924   1 
   4  -8  -5 7.87800 1.23365   2 
   4  -8  -5 9.75700 1.20784   2 
  -4   8   5 9.02823 1.14518   2 
  -4   8   5 7.98662 0.96009   2 
  -4   8   5 10.3066 0.99580   1 
   3  -8  -5 21.2208 1.21617   2 
   3  -8  -5 20.0525 1.73086   2 
   3  -8  -5 20.1564 1.38953   1 
  -3   8   5 21.6091 1.45771   2 
  -3   8   5 22.7991 1.59049   2 
  -3   8   5 21.0836 1.08171   1 
   2  -8  -5 5.26250 0.66461   2 
   2  -8  -5 4.39255 1.38158   2 
   2  -8  -5 4.61475 0.67723   1 
  -2   8   5 4.76479 0.57445   1 
  -2   8   5 5.71664 0.90782   2 
  -2   8   5 7.07736 0.92990   2 
   1  -8  -5 55.2073 1.75595   2 
   1  -8  -5 55.6827 1.79520   1 
  -1   8   5 51.9546 2.09241   2 
  -1   8   5 56.2071 1.70033   1 
  -1   8   5 54.3100 2.12238   2 
   0  -8  -5 14.2915 1.10804   1 
   0  -8  -5 14.9986 1.25611   2 
   0   8   5 14.8242 0.92204   1 
   0   8   5 15.9372 1.53391   2 
   0   8   5 15.1476 1.51064   2 
  -1  -8  -5 -0.1971 0.58756   1 
  -1  -8  -5 -0.2776 0.68694   2 
   1   8   5 0.21505 0.81535   2 
   1   8   5 -0.3124 0.92431   2 
   1   8   5 -0.6910 0.43936   1 
  -2  -8  -5 -0.4880 1.15782   2 
  -2  -8  -5 0.79789 0.91931   2 
  -2  -8  -5 1.67535 0.63305   1 
   2   8   5 0.48544 0.90973   2 
   2   8   5 -0.1491 1.12262   2 
   2   8   5 1.21750 0.56363   1 
   2  -9  -5 1.96500 0.76897   1 
   2  -9  -5 2.20769 1.21283   2 
   2  -9  -5 2.17772 0.73053   2 
  -2   9   5 1.86059 0.58075   1 
  -2   9   5 4.78659 1.11066   2 
  -2   9   5 1.68433 0.94825   2 
   1  -9  -5 5.26821 1.22359   2 
   1  -9  -5 6.44717 0.95950   2 
   1  -9  -5 8.30880 0.90861   1 
  -1   9   5 9.97254 1.21474   2 
  -1   9   5 10.9174 1.29728   2 
  -1   9   5 9.53569 0.99170   1 
   0   9  -6 4.33558 1.09821   2 
   0   9  -6 4.45850 0.70739   1 
   0   9  -6 2.78579 0.98334   2 
   0  -9   6 1.97463 1.01012   2 
   0  -9   6 3.79543 1.38348   2 
   0  -9   6 4.04451 0.80558   1 
  -1   9  -6 3.55075 1.02180   2 
  -1   9  -6 3.86756 0.99705   2 
  -1   9  -6 2.84035 0.59722   1 
   1  -9   6 4.16700 0.80665   1 
   1  -9   6 4.27193 1.38214   2 
   1  -9   6 1.76633 0.93873   2 
  -2   9  -6 15.3035 1.80618   2 
  -2   9  -6 16.9745 1.18785   1 
  -2   9  -6 17.7566 1.63498   2 
   2  -9   6 16.7496 1.29455   1 
   2  -9   6 17.5474 1.72061   2 
   2  -9   6 18.3838 1.70570   2 
   2   8  -6 1.14617 0.82641   2 
   2   8  -6 0.75866 0.60186   1 
   2   8  -6 -0.2310 1.08141   2 
  -2  -8   6 1.05142 0.65888   1 
  -2  -8   6 0.68244 1.16970   2 
  -2  -8   6 2.10535 1.36423   2 
   1   8  -6 55.8122 2.30750   2 
   1   8  -6 60.2227 1.83262   1 
   1   8  -6 56.9586 2.10341   2 
  -1  -8   6 61.7493 1.94328   1 
  -1  -8   6 60.2197 2.71349   2 
  -1  -8   6 62.1821 2.36387   2 
   0   8  -6 47.2545 1.92403   2 
   0   8  -6 51.3109 2.00840   2 
   0   8  -6 50.5852 1.64290   1 
   0  -8   6 51.7708 2.48068   2 
   0  -8   6 50.6162 2.08539   2 
   0  -8   6 51.0227 1.73265   1 
  -1   8  -6 10.1214 0.86871   1 
  -1   8  -6 13.4122 1.28512   2 
  -1   8  -6 9.33562 0.98812   2 
   1  -8   6 13.0785 1.01091   1 
   1  -8   6 8.72780 1.01252   2 
   1  -8   6 9.96686 1.26072   2 
  -2   8  -6 0.83980 0.74717   2 
  -2   8  -6 -0.4694 0.39330   1 
  -2   8  -6 -0.7298 0.64544   2 
   2  -8   6 -0.4472 0.69462   2 
   2  -8   6 0.14406 0.53864   1 
   2  -8   6 1.53226 0.98848   2 
  -3   8  -6 0.65353 0.71895   2 
  -3   8  -6 0.93973 0.64906   2 
  -3   8  -6 -0.1218 0.46052   1 
   3  -8   6 -0.3028 0.97372   2 
   3  -8   6 1.21391 0.52569   1 
   3  -8   6 1.52073 0.71966   2 
  -4   8  -6 -0.1092 0.46876   1 
  -4   8  -6 -1.4000 0.68297   2 
  -4   8  -6 -0.0603 0.89861   2 
   4  -8   6 0.32107 0.79864   2 
   4  -8   6 0.53009 1.01131   2 
   4  -8   6 0.34387 0.58959   1 
   3   7  -6 4.42359 0.69815   1 
   3   7  -6 2.97397 1.18222   2 
   3   7  -6 5.23536 0.80639   2 
  -3  -7   6 2.98408 1.19661   2 
  -3  -7   6 3.80140 0.64461   1 
  -3  -7   6 5.30355 1.17366   2 
   2   7  -6 13.5831 1.17884   2 
   2   7  -6 13.0898 1.22616   2 
   2   7  -6 11.6942 0.92940   1 
  -2  -7   6 14.2324 1.68207   2 
  -2  -7   6 12.0566 1.35087   2 
  -2  -7   6 13.9473 0.95905   1 
   1   7  -6 0.14561 0.35145   1 
   1   7  -6 1.19886 0.68060   2 
   1   7  -6 0.05586 0.54549   2 
  -1  -7   6 0.59506 0.40875   1 
  -1  -7   6 0.83550 0.72512   2 
  -1  -7   6 0.44114 0.81719   2 
   0   7  -6 23.2758 1.28324   2 
   0   7  -6 22.7837 1.00801   1 
   0  -7   6 25.7436 1.70873   2 
   0  -7   6 22.7751 1.06872   1 
   0  -7   6 22.2936 1.36507   2 
  -1   7  -6 7.57967 0.66962   1 
  -1   7  -6 8.42809 0.92799   2 
   1  -7   6 5.32337 0.89494   2 
   1  -7   6 7.06643 0.76830   1 
   1  -7   6 6.74249 0.78040   2 
  -2   7  -6 1.36197 0.35903   1 
  -2   7  -6 0.35130 0.50438   2 
   2  -7   6 0.56565 0.41855   1 
   2  -7   6 0.11322 0.73759   2 
   2  -7   6 0.63680 0.53665   2 
  -3   7  -6 5.89785 0.65585   1 
  -3   7  -6 6.64239 0.73816   2 
   3  -7   6 6.40662 0.91709   2 
   3  -7   6 6.50217 0.71896   2 
   3  -7   6 6.83048 0.80232   1 
  -4   7  -6 1.51319 0.41689   1 
  -4   7  -6 2.66280 0.60896   2 
  -4   7  -6 1.27982 0.74239   2 
   4  -7   6 1.81543 0.63170   2 
   4  -7   6 1.36864 0.85549   2 
   4  -7   6 0.66447 0.46837   1 
  -5   7  -6 3.75319 0.69922   2 
  -5   7  -6 2.71726 0.88177   2 
  -5   7  -6 4.39259 0.59557   1 
   5  -7   6 5.02974 0.67796   1 
   5  -7   6 3.84667 1.03452   2 
   5  -7   6 5.21779 0.90190   2 
   4   6  -6 -0.2199 1.08250   2 
   4   6  -6 0.45915 0.65796   2 
  -4  -6   6 -1.0520 1.19137   2 
  -4  -6   6 0.90078 0.52484   1 
  -4  -6   6 -0.9911 1.03991   2 
   3   6  -6 36.5976 1.93478   2 
   3   6  -6 33.9770 1.40109   1 
   3   6  -6 32.0158 1.41161   2 
  -3  -6   6 35.5990 1.28566   1 
  -3  -6   6 36.0747 1.87079   2 
  -3  -6   6 35.8360 2.16295   2 
   2   6  -6 8.61283 0.87284   2 
   2   6  -6 8.48978 0.71503   1 
  -2  -6   6 11.1556 0.76431   1 
  -2  -6   6 9.63044 0.97860   2 
  -2  -6   6 6.89693 1.56412   2 
   1   6  -6 -0.1067 0.49697   2 
   1   6  -6 0.84991 0.29017   1 
  -1  -6   6 0.93080 0.34287   1 
  -1  -6   6 0.88911 0.52696   2 
  -1  -6   6 0.27369 0.68449   2 
   0   6  -6 0.65797 0.28262   1 
   0   6  -6 0.20995 0.40433   2 
   0   6  -6 0.60177 0.41798   2 
   0  -6   6 0.58449 0.57371   2 
   0  -6   6 0.77931 0.44532   2 
   0  -6   6 1.00579 0.32621   1 
  -1   6  -6 11.0530 0.77405   2 
  -1   6  -6 9.33251 0.95733   1 
   1  -6   6 10.0499 1.00356   1 
   1  -6   6 11.3186 1.05692   2 
   1  -6   6 9.13765 0.82963   2 
  -2   6  -6 1.35057 0.40395   2 
  -2   6  -6 -0.0063 0.41894   2 
  -2   6  -6 0.99000 0.29218   1 
   2  -6   6 1.19082 0.36624   1 
   2  -6   6 1.05281 0.41693   2 
   2  -6   6 0.38523 0.54033   2 
  -3   6  -6 2.89571 0.38772   1 
  -3   6  -6 2.95173 0.50786   2 
   3  -6   6 3.51221 0.53765   2 
   3  -6   6 2.59869 0.43312   1 
  -4   6  -6 1.54573 0.44855   1 
  -4   6  -6 1.66865 0.47908   2 
   4  -6   6 1.57194 0.51525   2 
   4  -6   6 1.23055 0.66505   2 
   4  -6   6 0.78478 0.44351   1 
  -5   6  -6 18.1632 1.06590   1 
  -5   6  -6 20.1606 1.13522   2 
   5  -6   6 17.2279 1.47802   1 
   5  -6   6 16.4740 1.45790   2 
   5  -6   6 18.6178 1.40810   2 
   5   5  -6 16.7225 1.28142   2 
   5   5  -6 14.6300 1.59597   2 
  -5  -5   6 13.4678 1.59876   2 
  -5  -5   6 12.3827 0.95238   1 
  -5  -5   6 18.9290 2.16995   2 
   4   5  -6 41.1228 2.12622   2 
   4   5  -6 39.0743 1.41854   2 
  -4  -5   6 37.8419 2.20847   2 
  -4  -5   6 38.0612 1.32430   1 
  -4  -5   6 42.7965 2.03833   2 
   3   5  -6 6.70692 0.68603   1 
   3   5  -6 6.18937 0.85054   2 
  -3  -5   6 4.61742 0.77806   2 
  -3  -5   6 4.78897 1.19504   2 
  -3  -5   6 4.79344 0.57402   1 
   2   5  -6 1.41721 0.52129   2 
   2   5  -6 -0.0451 0.29663   1 
   2   5  -6 0.18936 0.35708   2 
  -2  -5   6 -0.2741 0.38564   1 
  -2  -5   6 0.57513 0.49941   2 
  -2  -5   6 0.31421 0.54574   2 
   1   5  -6 13.7988 0.88065   2 
   1   5  -6 14.7642 0.69064   1 
   1   5  -6 14.7580 0.82757   2 
  -1  -5   6 14.1328 0.67245   1 
  -1  -5   6 14.7598 0.97670   2 
  -1  -5   6 12.3155 1.03519   2 
   0   5  -6 2.33544 0.41071   2 
   0   5  -6 2.86154 0.43816   2 
   0   5  -6 2.41639 0.30935   1 
   0  -5   6 2.47971 0.31270   1 
   0  -5   6 2.40799 0.44798   2 
   0  -5   6 2.35980 0.52758   2 
  -1   5  -6 3.61434 0.40473   1 
  -1   5  -6 3.13195 0.39801   2 
  -1   5  -6 2.58242 0.43704   2 
   1  -5   6 3.02282 0.54522   2 
   1  -5   6 3.05149 0.43238   2 
   1  -5   6 3.54646 0.39755   1 
  -2   5  -6 1.56826 0.34452   2 
  -2   5  -6 1.55940 0.28345   1 
  -2   5  -6 0.83473 0.41054   2 
   2  -5   6 1.41085 0.29308   1 
   2  -5   6 1.41590 0.38011   2 
   2  -5   6 0.78126 0.42483   2 
  -3   5  -6 10.5269 0.65804   2 
  -3   5  -6 10.8012 0.85721   2 
  -3   5  -6 9.48774 0.55160   1 
   3  -5   6 10.6573 0.88770   2 
   3  -5   6 9.62645 0.62392   1 
   3  -5   6 10.7754 0.71611   2 
  -4   5  -6 55.8812 1.42825   1 
  -4   5  -6 56.5161 1.55505   2 
   4  -5   6 49.2258 2.43620   2 
   4  -5   6 57.5330 1.65840   2 
   4  -5   6 56.6341 1.47288   1 
  -5   5  -6 28.2203 0.95787   1 
  -5   5  -6 29.7660 1.17717   2 
   5  -5   6 29.9485 1.44512   2 
   5  -5   6 28.6849 1.02695   1 
   5  -5   6 29.0070 1.46852   2 
  -6   5  -6 12.4561 0.72083   1 
  -6   5  -6 10.7655 1.06790   2 
  -6   5  -6 11.3151 1.55506   2 
   6  -5   6 12.8471 0.94863   1 
   6  -5   6 12.7905 1.44136   2 
   6  -5   6 10.5580 1.22974   2 
   5   4  -6 -1.7214 0.92604   2 
   5   4  -6 0.87992 0.55614   2 
  -5  -4   6 0.48982 0.93442   2 
  -5  -4   6 0.31695 0.37577   1 
  -5  -4   6 -0.3693 0.98829   2 
   4   4  -6 0.66930 0.69079   2 
  -4  -4   6 -0.0455 0.85905   2 
  -4  -4   6 0.03463 0.62435   2 
  -4  -4   6 0.36172 0.27923   1 
   3   4  -6 1.66544 0.58636   2 
   3   4  -6 0.38116 0.32163   2 
  -3  -4   6 1.22624 0.50943   2 
  -3  -4   6 1.15765 0.26187   1 
  -3  -4   6 0.47409 0.55784   2 
   2   4  -6 1.01618 0.44733   2 
   2   4  -6 0.76768 0.25966   1 
   2   4  -6 1.15069 0.29946   2 
  -2  -4   6 1.43807 0.43073   2 
  -2  -4   6 0.49391 0.19419   1 
  -2  -4   6 0.20507 0.47251   2 
   1   4  -6 70.3250 1.68600   2 
   1   4  -6 71.2762 1.75137   1 
   1   4  -6 71.8004 1.80499   2 
  -1  -4   6 69.1703 1.69586   1 
  -1  -4   6 69.4551 1.92532   2 
   0   4  -6 97.5399 2.17424   2 
   0   4  -6 94.5798 2.16005   2 
   0   4  -6 95.9901 2.15481   1 
   0  -4   6 95.6156 2.15852   1 
   0  -4   6 94.8202 2.33307   2 
   0  -4   6 95.6723 2.23093   2 
  -1   4  -6 41.6690 1.10978   1 
  -1   4  -6 42.0497 1.12049   2 
  -1   4  -6 42.6324 1.20343   2 
   1  -4   6 42.2718 1.29327   2 
   1  -4   6 42.2174 1.16204   2 
   1  -4   6 41.6426 1.13675   1 
  -2   4  -6 0.14896 0.31452   2 
  -2   4  -6 -0.2082 0.21447   2 
  -2   4  -6 0.30671 0.16944   1 
   2  -4   6 0.25208 0.31252   2 
   2  -4   6 0.53152 0.22680   2 
   2  -4   6 -0.0690 0.19760   1 
  -3   4  -6 9.03147 0.46506   1 
  -3   4  -6 8.49979 0.54176   2 
  -3   4  -6 8.54168 0.68547   2 
   3  -4   6 8.94653 0.53225   1 
   3  -4   6 10.2947 0.75240   2 
   3  -4   6 9.49983 0.59900   2 
  -4   4  -6 2.15256 0.27648   1 
  -4   4  -6 1.80598 0.46135   2 
  -4   4  -6 2.44208 0.34923   2 
   4  -4   6 1.46717 0.45186   2 
   4  -4   6 2.00309 0.46045   2 
   4  -4   6 1.75957 0.30510   1 
  -5   4  -6 1.87102 0.52699   2 
  -5   4  -6 2.46781 0.45831   2 
  -5   4  -6 3.28584 0.34507   1 
   5  -4   6 2.83031 0.38874   1 
   5  -4   6 3.50707 0.71595   2 
   5  -4   6 3.20502 0.61584   2 
  -6   4  -6 1.59909 0.29915   1 
  -6   4  -6 0.90591 0.56650   2 
   6  -4   6 1.08929 0.48020   1 
   6  -4   6 1.05208 0.96117   2 
   6  -4   6 0.86010 0.67009   2 
   6   3  -6 2.09934 0.66702   2 
   6   3  -6 4.50853 1.28377   2 
  -6  -3   6 4.18373 0.58114   1 
  -6  -3   6 6.27165 1.11269   2 
   5   3  -6 9.75242 1.09312   2 
   5   3  -6 8.65845 0.86414   2 
  -5  -3   6 11.7790 1.36575   2 
  -5  -3   6 9.15041 0.69968   1 
  -5  -3   6 7.80229 1.14653   2 
   4   3  -6 51.9306 1.81421   2 
  -4  -3   6 40.1341 1.75421   1 
  -4  -3   6 50.0715 1.90146   2 
  -4  -3   6 52.5456 1.68817   2 
   3   3  -6 4.95991 0.49145   2 
   3   3  -6 4.91589 0.61921   2 
  -3  -3   6 4.30224 0.41531   1 
  -3  -3   6 6.86475 0.79074   2 
  -3  -3   6 4.55085 0.61309   2 
   2   3  -6 110.616 2.35646   2 
   2   3  -6 113.866 2.58494   2 
  -2  -3   6 111.173 2.45531   1 
  -2  -3   6 113.352 2.65264   2 
  -2  -3   6 107.382 2.55948   2 
   1   3  -6 23.5906 0.79823   2 
   1   3  -6 23.3559 0.79723   1 
   1   3  -6 22.0301 0.68870   2 
  -1  -3   6 22.7219 0.83269   2 
  -1  -3   6 22.4777 0.89675   2 
  -1  -3   6 22.9479 0.73087   1 
   0   3  -6 27.2164 0.76670   2 
   0   3  -6 27.5864 0.76731   2 
   0   3  -6 26.3976 0.81297   1 
   0  -3   6 26.5954 0.77961   1 
   0  -3   6 26.7560 0.91454   2 
   0  -3   6 26.3163 0.83904   2 
  -1   3  -6 5.39737 0.33069   1 
  -1   3  -6 5.32928 0.42202   2 
  -1   3  -6 5.96880 0.34090   2 
   1  -3   6 6.07944 0.35438   1 
   1  -3   6 6.48750 0.40037   2 
   1  -3   6 5.29333 0.48681   2 
  -2   3  -6 28.5926 0.78345   2 
  -2   3  -6 27.7279 0.77714   1 
  -2   3  -6 29.4472 0.88953   2 
   2  -3   6 28.4027 0.80180   2 
   2  -3   6 28.7756 0.80953   1 
   2  -3   6 28.0903 0.90144   2 
  -3   3  -6 25.4051 0.77062   2 
  -3   3  -6 25.1954 0.70801   1 
  -3   3  -6 24.7110 0.86424   2 
   3  -3   6 24.7817 0.89974   2 
   3  -3   6 23.8258 0.82819   2 
   3  -3   6 24.8138 0.74645   1 
  -4   3  -6 1.63228 0.38276   2 
  -4   3  -6 1.82225 0.22903   1 
   4  -3   6 1.42951 0.36585   2 
   4  -3   6 1.81119 0.24336   1 
   4  -3   6 1.53761 0.43962   2 
  -5   3  -6 59.7393 1.62099   2 
  -5   3  -6 61.4665 1.70320   2 
  -5   3  -6 60.6934 1.34702   1 
   5  -3   6 58.8302 1.76890   2 
   5  -3   6 59.5607 1.39320   1 
   5  -3   6 60.5635 1.97519   2 
  -6   3  -6 10.1834 0.97320   2 
   6  -3   6 12.6102 1.19174   2 
   6  -3   6 11.1800 1.16470   2 
   6   2  -6 9.93619 1.00234   2 
   6   2  -6 11.5250 1.30540   2 
  -6  -2   6 10.4602 1.14071   1 
  -6  -2   6 11.4174 0.83173   1 
  -6  -2   6 12.1885 1.33563   2 
  -6  -2   6 11.9530 1.48400   2 
   5   2  -6 5.83499 0.88443   2 
  -5  -2   6 6.37963 0.73526   2 
  -5  -2   6 5.45006 0.57603   1 
   4   2  -6 10.0703 1.26936   2 
   4   2  -6 7.76895 0.57941   2 
  -4  -2   6 8.27161 0.55842   1 
  -4  -2   6 9.28298 0.82680   2 
  -4  -2   6 8.12468 0.82803   2 
   3   2  -6 1.81473 0.42387   2 
   3   2  -6 1.81826 0.27849   2 
  -3  -2   6 1.42392 0.43195   2 
  -3  -2   6 1.29390 0.22089   1 
  -3  -2   6 2.25494 0.59392   2 
   2   2  -6 1.22313 0.20191   2 
   2   2  -6 1.38209 0.32369   2 
  -2  -2   6 1.32481 0.27987   2 
  -2  -2   6 1.13090 0.21926   1 
  -2  -2   6 0.74342 0.28718   2 
   1   2  -6 42.8432 1.02572   2 
   1   2  -6 41.7758 0.93114   2 
  -1  -2   6 42.5869 1.08309   1 
  -1  -2   6 41.4837 1.12456   2 
  -1  -2   6 41.6972 1.06797   2 
   0   2  -6 132.476 2.74282   1 
   0  -2   6 128.781 2.66293   2 
   0  -2   6 127.209 2.65422   1 
   0  -2   6 126.345 2.61045   2 
  -1   2  -6 111.365 2.35814   1 
   1  -2   6 112.260 2.26060   2 
   1  -2   6 112.605 2.31337   1 
   1  -2   6 112.191 2.32999   2 
  -2   2  -6 34.5199 0.89108   2 
  -2   2  -6 33.6996 0.85895   1 
  -2   2  -6 32.7178 0.80809   2 
   2  -2   6 34.1293 0.87368   2 
   2  -2   6 34.0091 0.84348   1 
  -3   2  -6 41.6944 1.06218   2 
  -3   2  -6 41.0278 0.95267   1 
  -3   2  -6 39.3003 1.00984   2 
   3  -2   6 40.5152 0.94654   1 
   3  -2   6 40.0524 1.15766   2 
   3  -2   6 40.3504 1.09165   2 
  -4   2  -6 52.3200 1.34421   2 
  -4   2  -6 53.2147 1.15444   1 
  -4   2  -6 52.5701 1.36633   2 
   4  -2   6 52.9102 1.62661   2 
   4  -2   6 53.0302 1.43754   2 
   4  -2   6 53.1891 1.14859   1 
  -5   2  -6 28.6275 1.05280   2 
  -5   2  -6 29.6165 1.05646   2 
   5  -2   6 28.7880 1.21238   2 
  -6   2  -6 20.6192 1.13628   2 
   6  -2   6 20.2082 1.22929   2 
   6  -2   6 23.4680 1.78724   2 
   7  -2   6 -0.3089 0.76138   2 
   7  -2   6 1.37028 1.36351   2 
   6   1  -6 0.28239 0.91709   2 
   6   1  -6 0.18280 0.48657   2 
  -6  -1   6 -0.1823 0.59938   2 
  -6  -1   6 -0.0567 0.76452   2 
  -6  -1   6 0.93137 0.45361   1 
  -6  -1   6 -0.1330 0.78218   1 
   5   1  -6 10.6530 1.14297   2 
  -5  -1   6 10.4207 1.16709   1 
  -5  -1   6 8.26748 0.78429   1 
  -5  -1   6 8.81108 1.01839   2 
  -5  -1   6 10.4745 0.89241   2 
   4   1  -6 29.6557 1.23416   2 
   4   1  -6 30.1615 0.94890   2 
  -4  -1   6 30.8766 1.05075   1 
  -4  -1   6 30.0527 1.05541   2 
   3   1  -6 19.1065 0.62730   2 
   3   1  -6 16.5406 0.80538   2 
  -3  -1   6 18.2345 0.69108   2 
  -3  -1   6 17.6880 0.85378   2 
  -3  -1   6 17.8511 0.71575   1 
   2   1  -6 20.5557 0.55960   2 
   2   1  -6 20.5950 0.70339   2 
  -2  -1   6 19.3012 0.75497   2 
  -2  -1   6 19.0528 0.62536   2 
  -1  -1   6 786.546 14.7495   1 
  -1  -1   6 771.516 14.6326   2 
  -1  -1   6 779.641 14.5714   2 
   0  -1   6 374.825 7.19994   1 
   1  -1   6 34.1447 0.77591   2 
   1  -1   6 33.7103 0.82237   1 
  -2   1  -6 8.37694 0.35216   2 
   2  -1   6 8.21759 0.43908   2 
   2  -1   6 8.11372 0.35697   2 
   2  -1   6 7.56129 0.30067   1 
  -3   1  -6 10.4540 0.47004   2 
  -3   1  -6 9.80744 0.46404   2 
   3  -1   6 10.2546 0.65188   2 
   3  -1   6 9.59789 0.47571   2 
   3  -1   6 10.9065 0.33476   1 
  -4   1  -6 48.1123 1.22611   2 
  -4   1  -6 46.0803 1.25663   2 
   4  -1   6 46.6060 1.28239   2 
  -5   1  -6 0.10549 0.38269   2 
  -5   1  -6 0.07172 0.34940   2 
   5  -1   6 1.32680 0.59312   2 
   5  -1   6 -0.3572 0.39580   2 
  -6   1  -6 61.1941 1.85521   2 
  -6   1  -6 51.2483 1.74480   2 
   6  -1   6 62.6184 1.84581   2 
   6  -1   6 61.6448 2.38164   2 
   7   0  -6 7.10052 0.89319   2 
   7   0  -6 4.85469 1.29398   2 
  -7   0   6 8.98704 1.06631   1 
  -7   0   6 9.65379 1.12735   2 
  -7   0   6 7.91364 0.84421   1 
  -7   0   6 7.23407 1.14162   2 
   6   0  -6 24.8890 1.67106   2 
   6   0  -6 24.0779 1.50284   2 
  -6   0   6 25.0484 1.29817   2 
  -6   0   6 24.3821 1.41889   1 
  -6   0   6 26.3956 1.54127   2 
  -6   0   6 22.9439 1.15593   1 
   5   0  -6 10.0246 1.02427   2 
  -5   0   6 9.68162 0.74370   2 
  -5   0   6 12.0952 1.04190   2 
   4   0  -6 1.94276 0.32780   2 
   4   0  -6 1.84051 0.41176   2 
  -4   0   6 2.31100 0.35117   2 
  -4   0   6 1.67071 0.47922   1 
  -4   0   6 2.24397 0.46374   2 
   3   0  -6 15.9218 0.72316   2 
   3   0  -6 15.9076 0.58450   2 
  -3   0   6 16.0248 0.84761   1 
  -3   0   6 16.4193 0.73603   2 
  -3   0   6 15.8303 0.57814   2 
   2   0  -6 0.62007 0.15448   2 
   2   0  -6 0.34920 0.20334   2 
  -2   0   6 0.68678 0.14963   2 
   1   0   6 4.82103 0.26460   1 
  -2   0  -6 20.6294 0.56868   2 
  -2   0  -6 20.7519 0.52268   2 
   2   0   6 20.0506 0.49956   1 
   2   0   6 19.8295 0.56257   2 
   2   0   6 20.2016 0.59415   1 
   2   0   6 20.3939 0.71087   2 
  -3   0  -6 20.0721 0.63977   2 
  -3   0  -6 20.8819 0.69509   2 
   3   0   6 19.6809 0.66197   2 
   3   0   6 19.3593 0.87297   2 
  -4   0  -6 14.5766 0.64923   2 
  -4   0  -6 14.3336 0.74084   2 
   4   0   6 13.1957 0.66271   2 
   4   0   6 10.5908 1.00823   2 
  -5   0  -6 34.8777 1.16945   2 
  -5   0  -6 33.5587 1.26430   2 
   5   0   6 34.7085 1.60089   2 
   5   0   6 33.0994 1.16715   2 
  -6   0  -6 0.80308 0.61984   2 
  -6   0  -6 1.09573 0.62320   2 
   6   0   6 0.59732 0.54031   2 
   6   0   6 -0.3425 0.85985   2 
   7  -1  -6 17.2352 2.02052   2 
   7  -1  -6 15.5649 1.34283   2 
  -7   1   6 15.3179 1.37948   2 
  -7   1   6 17.3583 1.57832   2 
  -7   1   6 15.1514 1.41886   1 
   6  -1  -6 10.5107 1.13429   2 
  -6   1   6 8.50513 0.88188   2 
  -6   1   6 7.91335 0.75102   2 
  -6   1   6 10.7147 1.15162   1 
   5  -1  -6 9.97267 0.74872   2 
   5  -1  -6 12.8362 1.00031   2 
  -5   1   6 9.86099 0.87199   2 
  -5   1   6 9.52521 1.26619   1 
  -5   1   6 10.5130 0.72598   2 
   4  -1  -6 10.0055 0.74534   2 
   4  -1  -6 9.03590 0.60773   2 
  -4   1   6 8.87515 0.53255   2 
  -4   1   6 7.82026 0.67645   2 
  -4   1   6 7.46560 0.75122   1 
   3  -1  -6 0.74979 0.22422   2 
   3  -1  -6 1.07841 0.28856   2 
  -3   1   6 0.78115 0.33346   1 
  -3   1   6 1.22327 0.25607   2 
  -3   1   6 1.21949 0.21053   2 
   2  -1  -6 0.35182 0.15313   2 
   2  -1  -6 0.26725 0.17287   2 
  -2   1   6 0.37128 0.25108   1 
  -2   1   6 0.38241 0.16344   2 
  -2   1   6 0.05509 0.12475   2 
  -1   1   6 0.30414 0.23023   1 
  -1   1   6 0.25791 0.09636   2 
   0   1   6 852.975 16.1182   1 
   1   1   6 0.07213 0.15109   1 
   1   1   6 0.10520 0.12152   2 
  -2  -1  -6 12.5366 0.44427   2 
  -2  -1  -6 12.3252 0.48183   2 
   2   1   6 12.1890 0.37680   1 
   2   1   6 12.6302 0.37300   1 
   2   1   6 12.3437 0.62969   2 
   2   1   6 12.6343 0.46085   2 
  -3  -1  -6 5.44313 0.50038   2 
  -3  -1  -6 5.85812 0.47669   2 
   3   1   6 6.17443 0.43481   2 
   3   1   6 5.42516 0.54561   2 
  -4  -1  -6 5.74947 0.69939   2 
  -4  -1  -6 6.06548 0.65133   2 
   4   1   6 8.05253 0.60238   2 
  -5  -1  -6 0.79926 0.49356   2 
  -5  -1  -6 0.71131 0.50454   2 
   5   1   6 0.86671 0.65412   2 
   5   1   6 0.60496 0.41434   2 
  -6  -1  -6 10.8314 1.34694   2 
  -6  -1  -6 11.1386 1.22089   2 
   6   1   6 14.6520 1.81962   2 
   6   1   6 9.76339 1.10729   2 
   7  -2  -6 3.33485 0.80237   2 
   7  -2  -6 3.68547 1.11667   2 
  -7   2   6 2.71334 0.75653   2 
  -7   2   6 3.94750 0.75674   2 
  -7   2   6 5.37415 0.81423   1 
   6  -2  -6 24.9727 1.60294   2 
  -6   2   6 26.3775 1.29617   1 
  -6   2   6 23.4398 1.21147   2 
  -6   2   6 26.7672 1.20736   2 
   5  -2  -6 41.3245 1.53584   2 
   5  -2  -6 39.9064 1.34656   2 
  -5   2   6 39.2944 1.40723   1 
  -5   2   6 39.7952 1.38124   2 
  -5   2   6 40.9587 1.26977   2 
   4  -2  -6 0.43449 0.36988   2 
   4  -2  -6 0.33559 0.30820   2 
  -4   2   6 0.21852 0.23613   2 
  -4   2   6 0.14948 0.34089   1 
  -4   2   6 0.08262 0.25485   2 
   3  -2  -6 6.82424 0.48934   2 
   3  -2  -6 7.35675 0.54530   2 
  -3   2   6 7.37869 0.41939   2 
  -3   2   6 6.59585 0.59406   1 
  -3   2   6 6.51738 0.41446   2 
   2  -2  -6 0.28311 0.19602   2 
  -2   2   6 0.47752 0.17425   2 
  -2   2   6 0.27483 0.14726   2 
  -2   2   6 0.45754 0.22784   1 
  -1   2   6 50.2882 1.14119   2 
  -1   2   6 52.8127 1.33331   1 
  -1   2   6 51.4625 1.17318   2 
   0   2   6 19.6551 0.58560   2 
   0   2   6 18.9596 0.62666   2 
   0   2   6 18.7757 0.62994   1 
   1   2   6 19.8544 0.64611   2 
   1   2   6 22.0446 0.74595   2 
   1   2   6 21.8565 0.60748   1 
  -2  -2  -6 44.8464 1.16128   2 
  -2  -2  -6 43.0775 1.13208   2 
   2   2   6 43.9407 1.10305   2 
   2   2   6 43.9876 1.28985   2 
   2   2   6 43.4572 0.96412   1 
  -3  -2  -6 13.2060 0.75199   2 
  -3  -2  -6 12.3009 0.72466   2 
   3   2   6 15.1053 0.92719   2 
   3   2   6 13.1168 0.61853   2 
  -4  -2  -6 43.1209 1.40645   2 
  -4  -2  -6 41.0680 1.40778   2 
   4   2   6 44.5018 1.28436   2 
   4   2   6 41.4744 1.64203   2 
  -5  -2  -6 0.50345 0.50682   2 
  -5  -2  -6 0.68403 0.60830   2 
   5   2   6 1.15095 0.47226   2 
   5   2   6 -0.5362 0.74422   2 
  -6  -2  -6 0.30982 0.78420   2 
  -6  -2  -6 1.72356 0.89547   2 
   6   2   6 -0.5378 0.97391   2 
   6   2   6 -0.3246 0.67145   2 
   7  -3  -6 1.72950 0.85264   2 
   7  -3  -6 5.08987 1.16036   2 
  -7   3   6 4.71664 0.74004   1 
  -7   3   6 3.87381 0.79906   2 
  -7   3   6 4.19636 0.86389   2 
   6  -3  -6 14.1864 1.40895   2 
  -6   3   6 13.2986 1.01558   2 
  -6   3   6 10.6760 1.00731   1 
  -6   3   6 11.1237 0.91813   2 
   5  -3  -6 67.7894 2.09945   2 
   5  -3  -6 70.8908 1.97498   2 
  -5   3   6 72.5039 1.96393   1 
  -5   3   6 69.7159 1.84442   2 
  -5   3   6 67.8793 1.88026   2 
   4  -3  -6 8.58331 0.71233   2 
  -4   3   6 12.2638 0.73054   1 
  -4   3   6 9.68990 0.59370   2 
  -4   3   6 9.53352 0.60136   2 
   3  -3  -6 48.2276 1.56996   1 
   3  -3  -6 47.5614 1.33086   2 
   3  -3  -6 48.2583 1.34573   2 
  -3   3   6 48.2812 1.25442   2 
  -3   3   6 48.1558 1.36632   1 
  -3   3   6 47.2189 1.22267   2 
   2  -3  -6 0.35742 0.30421   1 
   2  -3  -6 0.61224 0.20657   2 
   2  -3  -6 0.18357 0.24464   2 
  -2   3   6 0.53649 0.23501   1 
  -2   3   6 0.21750 0.18020   2 
  -2   3   6 0.16114 0.20513   2 
   1  -3  -6 162.840 3.14558   2 
   1  -3  -6 162.465 3.51876   1 
   1  -3  -6 156.016 3.26138   2 
  -1   3   6 160.407 3.29763   2 
  -1   3   6 156.476 3.26614   2 
  -1   3   6 162.328 3.32932   1 
   0  -3  -6 8.52742 0.54413   1 
   0  -3  -6 7.55562 0.46966   2 
   0  -3  -6 8.68875 0.35656   2 
   0   3   6 9.51231 0.49778   2 
   0   3   6 9.94649 0.57216   2 
   0   3   6 9.01982 0.43574   1 
  -1  -3  -6 39.8959 1.02086   2 
  -1  -3  -6 40.3241 1.10304   2 
  -1  -3  -6 39.4091 1.10957   1 
   1   3   6 38.0570 1.09356   2 
   1   3   6 39.1028 1.20270   2 
   1   3   6 38.7595 0.97510   1 
  -2  -3  -6 0.16449 0.30383   2 
  -2  -3  -6 0.08505 0.27712   2 
  -2  -3  -6 0.43326 0.26206   1 
   2   3   6 0.30113 0.14902   1 
   2   3   6 -0.1492 0.34620   2 
   2   3   6 -0.0254 0.24683   2 
  -3  -3  -6 18.8591 1.16456   2 
   3   3   6 21.1500 1.16898   2 
   3   3   6 19.9065 0.85169   2 
  -4  -3  -6 78.1887 2.20117   2 
  -4  -3  -6 83.6737 2.29026   2 
   4   3   6 80.7799 2.50802   2 
   4   3   6 84.8978 2.07267   2 
  -5  -3  -6 20.3924 1.45224   2 
  -5  -3  -6 16.9103 1.32994   2 
   5   3   6 20.7070 1.17123   2 
   5   3   6 17.5893 1.78913   2 
  -6  -3  -6 2.20553 1.07234   2 
  -6  -3  -6 3.13061 1.01863   2 
   6   3   6 1.06272 1.24167   2 
   6   3   6 5.72807 0.84788   2 
   6  -4  -6 3.35724 0.91797   2 
  -6   4   6 3.76163 0.60665   2 
  -6   4   6 3.42850 0.60986   2 
  -6   4   6 3.81402 0.60436   1 
   5  -4  -6 12.2017 1.01870   2 
  -5   4   6 10.5527 0.81756   1 
  -5   4   6 10.6481 0.76616   2 
  -5   4   6 10.0764 0.79310   2 
   4  -4  -6 6.69842 0.80724   2 
   4  -4  -6 7.65318 0.95387   1 
   4  -4  -6 8.42504 0.81232   2 
  -4   4   6 8.72790 0.65002   2 
  -4   4   6 8.96434 0.64305   2 
  -4   4   6 9.56056 0.66432   1 
   3  -4  -6 0.81561 0.31984   2 
   3  -4  -6 1.52026 0.47582   1 
   3  -4  -6 1.10285 0.38103   2 
  -3   4   6 0.85181 0.29466   2 
  -3   4   6 1.24773 0.29083   1 
  -3   4   6 1.23669 0.39502   2 
   2  -4  -6 42.3162 1.09296   2 
   2  -4  -6 42.7375 1.38439   1 
   2  -4  -6 42.1083 1.25782   2 
  -2   4   6 40.2857 1.18956   2 
  -2   4   6 39.9887 1.17582   2 
  -2   4   6 40.9173 1.17898   1 
   1  -4  -6 2.80618 0.39078   2 
   1  -4  -6 2.66473 0.39883   1 
   1  -4  -6 3.13712 0.33922   2 
  -1   4   6 2.92332 0.38546   2 
  -1   4   6 2.44721 0.37153   2 
  -1   4   6 2.62667 0.30520   1 
   0  -4  -6 21.0928 0.68008   2 
   0  -4  -6 21.1593 0.83647   1 
   0  -4  -6 20.4703 0.82938   2 
   0   4   6 20.5393 0.69731   1 
   0   4   6 19.4403 0.87498   2 
   0   4   6 20.2194 0.83250   2 
  -1  -4  -6 3.03432 0.38563   1 
  -1  -4  -6 2.75480 0.40059   2 
  -1  -4  -6 3.12381 0.38959   2 
   1   4   6 2.67759 0.40621   2 
   1   4   6 2.81554 0.34281   1 
   1   4   6 2.41861 0.48993   2 
  -2  -4  -6 4.41539 0.50082   1 
  -2  -4  -6 4.49130 0.56469   2 
  -2  -4  -6 3.57306 0.59176   2 
   2   4   6 3.97394 0.49105   2 
   2   4   6 4.10951 0.62482   2 
   2   4   6 4.48651 0.36536   1 
  -3  -4  -6 4.32206 0.50591   1 
  -3  -4  -6 3.10516 0.57797   2 
  -3  -4  -6 3.03255 0.55898   2 
   3   4   6 2.69591 0.74904   2 
   3   4   6 3.14840 0.33220   1 
   3   4   6 3.22321 0.68320   2 
  -4  -4  -6 21.7333 1.32030   2 
   4   4   6 24.6084 1.67283   2 
   4   4   6 24.6117 1.13995   2 
  -5  -4  -6 7.96285 1.00574   2 
  -5  -4  -6 8.31858 1.14084   2 
   5   4   6 7.89764 1.34601   2 
   5   4   6 8.57057 0.86334   2 
  -6   5   6 -0.2157 0.49584   1 
  -6   5   6 0.32258 0.54056   2 
  -6   5   6 1.08672 0.58150   2 
   5  -5  -6 15.3170 1.26219   2 
   5  -5  -6 16.1068 1.38294   1 
  -5   5   6 16.0416 0.98305   1 
  -5   5   6 16.5696 1.07016   2 
  -5   5   6 16.6203 0.98784   2 
   4  -5  -6 27.7102 1.19075   2 
   4  -5  -6 27.0478 1.29832   2 
  -4   5   6 27.5005 1.10678   2 
  -4   5   6 28.0671 1.07564   1 
  -4   5   6 28.5805 1.13633   2 
   3  -5  -6 5.29240 0.60056   2 
   3  -5  -6 4.68053 0.60907   2 
   3  -5  -6 4.75115 0.59560   1 
  -3   5   6 4.64645 0.54455   1 
  -3   5   6 5.43645 0.57786   2 
  -3   5   6 4.90158 0.52613   2 
   2  -5  -6 143.601 3.28423   1 
   2  -5  -6 141.308 3.21823   2 
  -2   5   6 125.956 3.33127   2 
  -2   5   6 144.036 3.08057   1 
  -2   5   6 142.714 3.16084   2 
   1  -5  -6 3.83842 0.36489   2 
   1  -5  -6 3.77650 0.50272   2 
   1  -5  -6 4.42442 0.53271   1 
  -1   5   6 4.12327 0.54415   2 
  -1   5   6 3.67179 0.48518   2 
  -1   5   6 3.59266 0.43631   1 
   0  -5  -6 24.2466 0.98727   1 
   0  -5  -6 24.6574 1.06076   2 
   0  -5  -6 25.5779 0.89692   2 
   0   5   6 26.3650 0.86952   1 
   0   5   6 25.5002 1.13774   2 
   0   5   6 26.5027 1.08176   2 
  -1  -5  -6 22.8713 1.08411   2 
  -1  -5  -6 24.0356 0.96698   2 
  -1  -5  -6 23.6024 0.90297   1 
   1   5   6 19.0084 1.18403   2 
   1   5   6 22.6953 0.77978   1 
   1   5   6 22.2185 1.08253   2 
  -2  -5  -6 1.06625 0.35370   1 
  -2  -5  -6 0.39034 0.45855   2 
  -2  -5  -6 1.09977 0.50940   2 
   2   5   6 0.04329 0.57532   2 
   2   5   6 0.60338 0.23886   1 
   2   5   6 0.73423 0.61809   2 
  -3  -5  -6 7.78706 0.68643   1 
  -3  -5  -6 8.97607 0.85087   2 
  -3  -5  -6 7.32572 0.86120   2 
   3   5   6 8.69091 1.03432   2 
   3   5   6 8.38533 0.51218   1 
   3   5   6 10.1209 1.01390   2 
  -4  -5  -6 29.3178 1.59108   2 
  -4  -5  -6 32.5968 1.89181   2 
   4   5   6 29.5652 1.97253   2 
   4   5   6 30.1248 1.42548   2 
   5  -6  -6 14.8942 1.46053   1 
   5  -6  -6 14.7162 1.35345   2 
  -5   6   6 17.1007 1.12138   2 
  -5   6   6 16.8778 1.22659   2 
  -5   6   6 15.2648 1.01823   1 
   4  -6  -6 16.1980 1.27145   1 
   4  -6  -6 18.7235 1.08918   2 
   4  -6  -6 18.3972 1.26802   2 
  -4   6   6 19.4862 1.19667   2 
  -4   6   6 17.7227 0.93622   1 
  -4   6   6 19.0231 1.05989   2 
   3  -6  -6 38.3336 1.26183   2 
   3  -6  -6 39.2540 1.52221   1 
   3  -6  -6 39.7612 1.60523   2 
  -3   6   6 38.1349 1.44575   2 
  -3   6   6 38.8610 1.27347   1 
  -3   6   6 37.5954 1.38452   2 
   2  -6  -6 76.5419 2.12787   1 
   2  -6  -6 72.5913 1.77876   2 
   2  -6  -6 72.7814 2.15588   2 
  -2   6   6 63.5855 2.31262   2 
  -2   6   6 74.7772 2.02194   2 
  -2   6   6 73.9943 1.88779   1 
   1  -6  -6 142.747 3.38292   2 
   1  -6  -6 150.691 3.07235   2 
   1  -6  -6 131.692 3.59075   1 
  -1   6   6 135.841 3.51914   1 
  -1   6   6 145.311 3.35316   2 
   0  -6  -6 0.66589 0.39921   1 
   0  -6  -6 0.02409 0.48619   2 
   0  -6  -6 -0.0308 0.34639   2 
   0   6   6 0.49167 0.62429   2 
   0   6   6 0.06604 0.53981   2 
   0   6   6 0.11754 0.28263   1 
  -1  -6  -6 3.09129 0.47059   1 
  -1  -6  -6 3.52467 0.54039   2 
  -1  -6  -6 2.56109 0.56487   2 
   1   6   6 3.76100 0.66203   2 
   1   6   6 3.59847 0.72668   2 
   1   6   6 2.90458 0.39087   1 
  -2  -6  -6 0.63070 0.62599   2 
  -2  -6  -6 -0.4056 0.37574   1 
  -2  -6  -6 0.61866 0.54471   2 
   2   6   6 -0.7460 0.54594   2 
   2   6   6 -0.1557 0.74647   2 
   2   6   6 0.03464 0.29840   1 
  -3  -6  -6 -0.7204 0.67672   2 
  -3  -6  -6 1.16707 0.79184   2 
  -3  -6  -6 -0.1441 0.43918   1 
   3   6   6 0.73991 0.32146   1 
   3   6   6 0.45356 0.89260   2 
   3   6   6 0.75909 0.64454   2 
  -4  -6  -6 5.12811 0.65029   1 
  -4  -6  -6 8.17778 1.12025   2 
  -4  -6  -6 8.36201 1.26361   2 
   4   6   6 6.62907 1.37328   2 
   4   6   6 6.18540 0.87362   2 
   4   6   6 7.82514 0.61292   1 
   5  -7  -6 0.89156 0.80634   2 
   5  -7  -6 1.79867 1.01607   1 
  -5   7   6 1.51861 0.77066   2 
  -5   7   6 0.47985 0.64427   2 
  -5   7   6 1.29507 0.51015   1 
   4  -7  -6 9.88636 1.12893   2 
   4  -7  -6 12.8717 1.15083   2 
   4  -7  -6 11.8673 1.24822   1 
  -4   7   6 10.5765 0.86803   1 
  -4   7   6 11.6665 1.11663   2 
  -4   7   6 11.9274 1.28452   2 
   3  -7  -6 0.37746 0.67754   2 
   3  -7  -6 -0.0672 0.58498   1 
   3  -7  -6 0.13705 0.43682   2 
  -3   7   6 0.75163 0.57905   2 
  -3   7   6 -0.2852 0.57239   2 
  -3   7   6 -0.3512 0.35881   1 
   2  -7  -6 11.4897 1.06936   1 
   2  -7  -6 11.2569 0.81842   2 
   2  -7  -6 12.6117 1.28890   2 
  -2   7   6 12.9763 1.16183   2 
  -2   7   6 13.4087 0.87383   1 
  -2   7   6 12.6829 1.08757   2 
   1  -7  -6 62.7784 2.08522   2 
   1  -7  -6 65.1141 1.75388   2 
   1  -7  -6 63.3270 1.91763   1 
  -1   7   6 61.6399 2.07330   2 
  -1   7   6 61.1521 1.75387   1 
  -1   7   6 61.1069 2.03700   2 
   0  -7  -6 2.43214 0.70553   2 
   0  -7  -6 3.46859 0.54692   1 
   0  -7  -6 3.81308 0.56709   2 
   0   7   6 3.51802 0.71200   2 
   0   7   6 3.22572 0.75878   2 
   0   7   6 4.13902 0.50493   1 
  -1  -7  -6 16.2591 1.15445   2 
  -1  -7  -6 16.4027 0.99791   1 
  -1  -7  -6 14.5118 1.45234   2 
   1   7   6 16.7073 0.84273   1 
   1   7   6 15.1647 1.51217   2 
   1   7   6 13.7930 1.36360   2 
  -2  -7  -6 2.19439 0.77689   2 
  -2  -7  -6 2.75089 0.60796   1 
  -2  -7  -6 1.72058 0.88085   2 
   2   7   6 2.92712 0.77575   2 
   2   7   6 4.23837 1.01131   2 
   2   7   6 2.47361 0.46031   1 
  -3  -7  -6 9.34869 1.32438   2 
  -3  -7  -6 9.06255 1.11071   2 
  -3  -7  -6 9.19878 1.02987   1 
   3   7   6 10.2269 1.40008   2 
   3   7   6 10.9035 0.82923   1 
   3   7   6 9.41978 1.06723   2 
   4  -8  -6 3.54920 1.02962   1 
   4  -8  -6 0.28647 0.75215   2 
  -4   8   6 3.16622 0.64626   1 
  -4   8   6 1.91282 0.78907   2 
  -4   8   6 2.57386 0.90709   2 
   3  -8  -6 8.42265 1.15093   2 
   3  -8  -6 10.6196 0.90582   2 
   3  -8  -6 11.5305 1.40923   1 
  -3   8   6 10.9708 1.02963   1 
  -3   8   6 9.93632 1.13107   2 
  -3   8   6 11.3339 1.30428   2 
   2  -8  -6 13.7417 1.64577   2 
   2  -8  -6 15.3049 1.08026   2 
   2  -8  -6 13.8786 1.26955   1 
  -2   8   6 13.8883 0.99961   1 
  -2   8   6 15.6690 1.59718   2 
  -2   8   6 15.2713 1.39731   2 
   1  -8  -6 134.899 3.75989   2 
   1  -8  -6 141.826 3.29214   2 
   1  -8  -6 142.293 3.48467   1 
  -1   8   6 137.391 3.64337   2 
  -1   8   6 137.745 3.28209   1 
  -1   8   6 144.882 3.73790   2 
   0  -8  -6 239.985 5.68441   2 
   0  -8  -6 246.168 5.34700   1 
   0  -8  -6 248.367 5.27881   2 
   0   8   6 252.366 5.68160   2 
   0   8   6 240.466 5.66193   2 
   0   8   6 241.811 5.20493   1 
  -1  -8  -6 3.55118 0.83207   2 
  -1  -8  -6 4.02120 0.71240   1 
  -1  -8  -6 1.21016 0.94285   2 
   1   8   6 1.53403 0.51744   1 
   1   8   6 3.14391 0.95619   2 
   1   8   6 1.75372 1.01595   2 
   1   8  -7 1.18025 0.88444   2 
   1   8  -7 2.11763 0.56020   1 
  -1  -8   7 2.20910 0.96906   2 
  -1  -8   7 1.50375 1.23462   2 
  -1  -8   7 2.25391 0.66444   1 
   0   8  -7 0.67328 0.78402   2 
   0   8  -7 0.48525 0.45691   1 
   0  -8   7 0.44742 0.54780   1 
   0  -8   7 1.17831 1.04578   2 
   0  -8   7 1.01629 0.86766   2 
  -1   8  -7 0.26380 0.76355   2 
  -1   8  -7 0.65443 0.68705   2 
  -1   8  -7 0.22429 0.45879   1 
   1  -8   7 0.84203 0.54786   1 
   1  -8   7 0.70430 1.05307   2 
   1  -8   7 0.05417 0.78783   2 
  -2   8  -7 0.19717 0.44724   1 
  -2   8  -7 -0.0079 0.62519   2 
  -2   8  -7 -0.1715 0.78708   2 
   2  -8   7 -0.2411 0.55708   1 
   2  -8   7 0.32531 0.77817   2 
   2  -8   7 -0.1161 0.92236   2 
  -3   8  -7 1.06737 1.04245   2 
  -3   8  -7 0.26472 0.67490   2 
  -3   8  -7 1.28016 0.53314   1 
   3  -8   7 2.28303 0.65413   1 
   3  -8   7 1.72168 1.13231   2 
   3  -8   7 2.22147 0.76883   2 
   3   7  -7 0.70028 1.08893   2 
   3   7  -7 0.10316 0.69339   1 
  -3  -7   7 -1.2005 1.09620   2 
  -3  -7   7 2.33585 0.61501   1 
  -3  -7   7 -1.0641 1.24095   2 
   2   7  -7 1.88743 0.91340   2 
   2   7  -7 2.61803 0.62484   1 
  -2  -7   7 2.78640 0.63356   1 
  -2  -7   7 1.33723 0.96216   2 
  -2  -7   7 3.16577 1.06738   2 
   1   7  -7 1.25716 0.65208   2 
   1   7  -7 0.10675 0.41796   1 
   1   7  -7 0.06497 0.67504   2 
  -1  -7   7 -0.7406 0.85792   2 
  -1  -7   7 -0.0678 0.78162   2 
  -1  -7   7 0.58636 0.45354   1 
   0   7  -7 2.87936 0.61635   2 
   0   7  -7 3.11418 0.47542   1 
   0   7  -7 2.87170 0.64715   2 
   0  -7   7 2.03539 0.46851   1 
   0  -7   7 1.91244 0.82093   2 
   0  -7   7 2.08269 0.71433   2 
  -1   7  -7 3.00034 0.67970   2 
  -1   7  -7 3.54917 0.46154   1 
  -1   7  -7 3.16944 0.57432   2 
   1  -7   7 3.28193 0.51828   1 
   1  -7   7 3.38943 0.71170   2 
   1  -7   7 2.18999 0.81210   2 
  -2   7  -7 8.05408 0.71686   1 
  -2   7  -7 6.41256 0.66734   2 
  -2   7  -7 7.52668 0.84037   2 
   2  -7   7 5.23436 0.95693   2 
   2  -7   7 8.77821 0.84060   1 
   2  -7   7 6.17877 0.75073   2 
  -3   7  -7 84.4957 2.25439   2 
  -3   7  -7 81.7892 2.50061   2 
  -3   7  -7 82.8052 2.13943   1 
   3  -7   7 81.9763 2.26303   2 
   3  -7   7 83.9631 2.20540   1 
   3  -7   7 84.5758 2.70749   2 
  -4   7  -7 22.5528 1.67558   2 
  -4   7  -7 24.0651 1.08562   1 
  -4   7  -7 26.1113 1.27738   2 
   4  -7   7 27.0200 1.44866   2 
   4  -7   7 26.3118 1.85990   2 
   4  -7   7 22.0995 1.16384   1 
   4   6  -7 0.73522 1.17946   2 
  -4  -6   7 -2.4651 1.19682   2 
  -4  -6   7 -1.5370 1.11985   2 
  -4  -6   7 1.08935 0.52510   1 
   3   6  -7 0.26572 0.82099   2 
   3   6  -7 -0.3366 0.52863   1 
   3   6  -7 0.01661 0.56907   2 
  -3  -6   7 -0.1270 0.40389   1 
  -3  -6   7 -0.3355 1.01775   2 
  -3  -6   7 1.28068 0.83570   2 
   2   6  -7 24.3252 1.19081   2 
   2   6  -7 22.3754 1.35872   2 
   2   6  -7 23.9949 1.10783   1 
  -2  -6   7 22.7942 0.99117   1 
  -2  -6   7 22.5759 1.53937   2 
  -2  -6   7 25.4082 1.71444   2 
   1   6  -7 27.6570 1.21923   2 
   1   6  -7 28.1049 1.31783   2 
  -1  -6   7 28.0397 1.59024   2 
  -1  -6   7 30.3087 1.13480   1 
  -1  -6   7 30.5900 1.45110   2 
   0   6  -7 16.0058 0.92294   2 
   0   6  -7 14.4212 0.94871   2 
   0   6  -7 13.8277 0.77402   1 
   0  -6   7 15.0474 1.66801   2 
   0  -6   7 14.5820 0.80921   1 
   0  -6   7 13.4045 1.03560   2 
  -1   6  -7 5.86457 0.55387   1 
  -1   6  -7 5.34432 0.55453   2 
  -1   6  -7 5.15811 0.64002   2 
   1  -6   7 5.37818 0.65686   1 
   1  -6   7 5.48860 0.97761   2 
   1  -6   7 4.94019 0.62309   2 
  -2   6  -7 2.02575 0.55312   2 
  -2   6  -7 2.20599 0.44965   2 
  -2   6  -7 2.23739 0.35873   1 
   2  -6   7 2.21471 0.64134   2 
   2  -6   7 1.88384 0.50216   2 
   2  -6   7 2.45301 0.41424   1 
  -3   6  -7 0.31729 0.42989   2 
  -3   6  -7 1.38980 0.61239   2 
  -3   6  -7 1.07777 0.35715   1 
   3  -6   7 0.78714 0.47315   2 
   3  -6   7 0.42709 0.63415   2 
   3  -6   7 1.20395 0.46615   1 
  -4   6  -7 14.0512 1.30096   2 
  -4   6  -7 13.8105 0.79321   1 
  -4   6  -7 12.9797 0.92586   2 
   4  -6   7 17.5765 1.39038   2 
   4  -6   7 14.3751 1.11242   2 
   4  -6   7 10.6238 0.91122   1 
  -5   6  -7 3.01629 0.59418   2 
  -5   6  -7 2.46515 0.83241   2 
  -5   6  -7 2.97989 0.46578   1 
   5  -6   7 2.32833 0.83945   2 
   5  -6   7 2.33242 0.84759   2 
   5  -6   7 2.71091 0.55443   1 
   5   5  -7 10.5907 1.58188   2 
  -5  -5   7 12.7045 1.67743   2 
  -5  -5   7 9.94014 1.00871   1 
  -5  -5   7 13.4612 1.47181   2 
   4   5  -7 0.35833 0.52541   2 
   4   5  -7 -0.0339 0.86155   2 
  -4  -5   7 -0.4148 0.88520   2 
  -4  -5   7 -1.1902 0.98656   2 
  -4  -5   7 -0.2063 0.36737   1 
   3   5  -7 43.5185 1.38866   2 
   3   5  -7 43.6915 1.81266   2 
  -3  -5   7 43.4243 1.83155   2 
  -3  -5   7 41.3055 1.34517   1 
  -3  -5   7 43.3886 1.99819   2 
   2   5  -7 23.7482 1.00365   2 
   2   5  -7 24.7681 1.22587   2 
   2   5  -7 28.0581 1.10139   1 
  -2  -5   7 27.0140 1.32736   2 
  -2  -5   7 23.4582 0.93104   1 
   1   5  -7 2.38726 0.45699   2 
   1   5  -7 1.48022 0.40524   2 
   1   5  -7 1.43952 0.45611   1 
  -1  -5   7 1.52043 0.55666   2 
  -1  -5   7 1.41907 0.62893   1 
  -1  -5   7 1.09192 0.55835   2 
   0   5  -7 0.25461 0.35225   2 
   0   5  -7 0.01688 0.22603   1 
   0  -5   7 0.02244 0.46887   2 
   0  -5   7 0.29663 0.38307   2 
   0  -5   7 0.44834 0.23424   1 
  -1   5  -7 17.4383 0.91324   2 
  -1   5  -7 18.9852 0.75405   1 
   1  -5   7 18.8763 1.10056   2 
   1  -5   7 19.8681 0.90239   2 
   1  -5   7 19.8994 0.80355   1 
  -2   5  -7 42.3783 1.18126   1 
  -2   5  -7 41.1937 1.19644   2 
  -2   5  -7 39.3823 1.32851   2 
   2  -5   7 39.2646 1.23906   2 
   2  -5   7 40.8109 1.21481   1 
   2  -5   7 40.7964 1.48763   2 
  -3   5  -7 0.33462 0.31975   2 
  -3   5  -7 0.59167 0.44417   2 
  -3   5  -7 1.02538 0.26788   1 
   3  -5   7 0.40882 0.31533   1 
   3  -5   7 0.28226 0.57887   2 
   3  -5   7 0.37706 0.38699   2 
  -4   5  -7 56.1427 1.46507   1 
  -4   5  -7 56.0775 1.55982   2 
  -4   5  -7 54.1466 1.77641   2 
   4  -5   7 58.6431 1.69845   2 
   4  -5   7 55.7696 1.87168   2 
   4  -5   7 55.0331 1.49679   1 
  -5   5  -7 7.41232 0.80150   2 
  -5   5  -7 6.20727 0.79434   2 
  -5   5  -7 6.40168 0.61009   1 
   5  -5   7 7.20971 0.68380   1 
   5  -5   7 6.73259 0.83686   2 
   5  -5   7 6.15437 0.83013   2 
  -6   5  -7 -1.0902 0.85527   2 
  -6   5  -7 0.36759 0.59022   2 
  -6   5  -7 0.87531 0.37012   1 
   6  -5   7 -0.6616 0.53112   1 
   6  -5   7 0.44154 1.07692   2 
   6  -5   7 -1.1313 0.77040   2 
   5   4  -7 0.60906 1.02849   2 
  -5  -4   7 1.78451 1.05603   2 
  -5  -4   7 3.35790 1.04326   2 
  -5  -4   7 2.26921 0.46637   1 
   4   4  -7 4.20644 0.82859   2 
   4   4  -7 3.68538 0.53647   2 
  -4  -4   7 3.24465 0.88233   2 
  -4  -4   7 3.24420 0.41721   1 
  -4  -4   7 3.94681 0.79752   2 
   3   4  -7 3.02446 0.42130   2 
   3   4  -7 4.08121 0.61888   2 
  -3  -4   7 3.95556 0.67017   2 
  -3  -4   7 3.94727 0.48228   1 
   2   4  -7 10.7445 0.61033   2 
  -2  -4   7 11.7149 0.60398   1 
  -2  -4   7 12.1702 1.04011   2 
  -2  -4   7 8.99062 0.92417   2 
   1   4  -7 19.7727 0.74041   2 
   1   4  -7 20.7905 0.85637   2 
   1   4  -7 20.7245 0.84132   1 
  -1  -4   7 19.1466 1.01549   2 
  -1  -4   7 20.1828 0.92100   2 
  -1  -4   7 19.7860 0.75784   1 
   0   4  -7 20.3240 0.74137   2 
   0   4  -7 19.1521 0.75929   1 
   0   4  -7 19.4648 0.74161   2 
   0  -4   7 19.2009 0.96218   2 
   0  -4   7 19.2942 0.71790   1 
   0  -4   7 19.2233 0.82866   2 
  -1   4  -7 23.4460 0.80117   1 
  -1   4  -7 23.0627 0.86249   2 
  -1   4  -7 24.2403 0.76771   2 
   1  -4   7 25.0654 1.00357   2 
   1  -4   7 24.5346 0.81621   1 
   1  -4   7 23.3924 0.84575   2 
  -2   4  -7 21.0423 0.71277   2 
  -2   4  -7 21.2010 0.72575   1 
  -2   4  -7 20.7127 0.86999   2 
   2  -4   7 22.3349 0.95892   2 
   2  -4   7 21.3240 0.78372   2 
   2  -4   7 21.0082 0.76431   1 
  -3   4  -7 3.80306 0.38935   1 
  -3   4  -7 4.22502 0.47340   2 
  -3   4  -7 3.39086 0.46308   2 
   3  -4   7 3.41300 0.49614   2 
   3  -4   7 3.32748 0.35505   1 
   3  -4   7 2.80014 0.38969   2 
  -4   4  -7 8.74161 0.60238   2 
  -4   4  -7 8.50634 0.48350   1 
  -4   4  -7 9.73698 0.85058   2 
   4  -4   7 7.57188 0.55216   1 
   4  -4   7 8.52785 0.82971   2 
   4  -4   7 9.59449 0.84853   2 
  -5   4  -7 24.1318 1.26951   2 
  -5   4  -7 24.5192 0.77984   1 
  -5   4  -7 22.4190 0.99607   2 
   5  -4   7 23.9075 0.85203   1 
   5  -4   7 22.7759 1.27595   2 
   5  -4   7 23.0929 1.44159   2 
  -6   4  -7 -0.6903 0.70709   2 
  -6   4  -7 -0.0959 0.25886   1 
  -6   4  -7 0.36792 0.55814   2 
   6  -4   7 -0.4126 0.45386   1 
   6  -4   7 0.31994 0.69992   2 
   6  -4   7 -1.1587 0.93819   2 
   6   3  -7 2.42658 1.16935   2 
  -6  -3   7 2.81902 1.17060   2 
   5   3  -7 13.0122 0.98495   2 
   5   3  -7 12.1073 1.17305   2 
  -5  -3   7 14.6862 1.52093   2 
  -5  -3   7 11.0830 0.80329   1 
  -5  -3   7 10.7376 1.19234   2 
   4   3  -7 0.49222 0.61783   2 
   4   3  -7 0.03720 0.36164   2 
  -4  -3   7 0.51496 0.61470   2 
  -4  -3   7 0.01591 0.66365   2 
  -4  -3   7 0.83010 0.32485   1 
   3   3  -7 -0.3222 0.46857   2 
   3   3  -7 -0.0937 0.26324   2 
  -3  -3   7 0.29114 0.25063   1 
  -3  -3   7 -0.0773 0.52441   2 
  -3  -3   7 -0.4253 0.52359   2 
   2   3  -7 173.043 3.52476   2 
   2   3  -7 178.668 3.75418   2 
  -2  -3   7 174.531 3.69270   1 
  -2  -3   7 177.371 3.76528   2 
  -2  -3   7 176.538 3.86471   2 
   1   3  -7 133.289 2.70633   2 
   1   3  -7 136.143 2.81514   2 
  -1  -3   7 132.080 2.98347   2 
  -1  -3   7 135.729 2.91405   2 
  -1  -3   7 134.576 2.88320   1 
   0   3  -7 44.0293 1.20993   1 
   0   3  -7 42.4857 1.02127   2 
   0   3  -7 43.5866 1.03486   2 
   0  -3   7 43.9356 1.25070   2 
   0  -3   7 43.3369 1.14194   1 
   0  -3   7 44.1079 1.16309   2 
  -1   3  -7 0.87405 0.21555   1 
  -1   3  -7 0.76804 0.17269   2 
  -1   3  -7 0.93873 0.23408   2 
   1  -3   7 0.49322 0.27920   2 
   1  -3   7 0.85976 0.21349   2 
   1  -3   7 0.65562 0.17028   1 
  -2   3  -7 7.44991 0.53444   2 
  -2   3  -7 7.85215 0.41731   1 
  -2   3  -7 8.04300 0.39083   2 
   2  -3   7 7.66199 0.42192   1 
   2  -3   7 6.71208 0.54515   2 
   2  -3   7 7.43421 0.43615   2 
  -3   3  -7 33.1800 0.89183   1 
  -3   3  -7 32.5113 1.04824   2 
  -3   3  -7 33.3858 0.93121   2 
   3  -3   7 32.5813 1.02436   2 
   3  -3   7 33.1530 1.07406   2 
   3  -3   7 35.1555 0.93783   1 
  -4   3  -7 17.6490 0.74957   2 
  -4   3  -7 17.0851 0.87248   2 
  -4   3  -7 17.4056 0.58729   1 
   4  -3   7 18.2492 1.00859   2 
   4  -3   7 17.0270 0.62355   1 
  -5   3  -7 52.3785 1.59836   2 
  -5   3  -7 52.4842 1.22524   1 
  -5   3  -7 52.9163 1.48522   2 
   5  -3   7 51.7402 1.24481   1 
   5  -3   7 53.4816 1.68944   2 
   5  -3   7 52.5322 1.93643   2 
  -6   3  -7 2.74498 0.57173   2 
  -6   3  -7 2.78416 0.71749   2 
   6  -3   7 2.27869 0.64474   2 
   6   2  -7 -0.3046 0.99838   2 
   6   2  -7 -0.8786 0.60240   2 
  -6  -2   7 -0.0565 0.45591   1 
  -6  -2   7 -0.3832 0.81829   2 
  -6  -2   7 -1.1610 0.94031   2 
  -6  -2   7 1.74611 1.01608   1 
   5   2  -7 0.15442 0.41437   2 
   5   2  -7 1.37914 0.71877   2 
  -5  -2   7 -0.1644 0.30312   1 
  -5  -2   7 0.09024 0.56288   2 
   4   2  -7 0.28436 0.52683   2 
   4   2  -7 0.63309 0.30399   2 
  -4  -2   7 0.26550 0.43416   2 
  -4  -2   7 0.40777 0.26166   1 
  -4  -2   7 -0.2513 0.61084   2 
   3   2  -7 0.00986 0.20468   2 
   3   2  -7 0.16591 0.35505   2 
  -3  -2   7 -0.1126 0.20825   1 
  -3  -2   7 0.06713 0.32879   2 
  -3  -2   7 0.11205 0.41054   2 
   2   2  -7 0.73185 0.26065   2 
   2   2  -7 0.43961 0.17032   2 
  -2  -2   7 0.38519 0.34381   2 
  -2  -2   7 0.37205 0.18644   1 
  -2  -2   7 0.36953 0.27783   2 
  -1  -2   7 55.3258 1.36907   1 
  -1  -2   7 55.5857 1.39030   2 
  -1  -2   7 54.3164 1.32698   2 
   0  -2   7 0.89892 0.21483   2 
   0  -2   7 1.21855 0.24510   2 
   0  -2   7 1.05499 0.18060   1 
  -1   2  -7 0.27882 0.16013   1 
   1  -2   7 0.00181 0.12105   1 
   1  -2   7 0.15219 0.14339   2 
   1  -2   7 0.11282 0.17687   2 
  -2   2  -7 20.2831 0.65125   1 
   2  -2   7 19.2083 0.59795   1 
   2  -2   7 18.8765 0.61368   2 
   2  -2   7 19.3649 0.65392   2 
  -3   2  -7 26.4869 0.83540   2 
  -3   2  -7 26.7010 0.74830   1 
  -3   2  -7 26.2435 0.76517   2 
   3  -2   7 26.2847 0.93828   2 
   3  -2   7 26.7417 0.87858   2 
   3  -2   7 27.1371 0.72964   1 
  -4   2  -7 70.4105 1.70063   2 
  -4   2  -7 69.9938 1.67716   2 
   4  -2   7 69.6859 1.77407   2 
   4  -2   7 71.2019 1.97180   2 
   4  -2   7 70.5926 1.48495   1 
  -5   2  -7 14.3238 0.79688   2 
  -5   2  -7 15.0903 0.89849   2 
   5  -2   7 15.1135 0.94069   2 
  -6   2  -7 0.86659 0.59659   2 
  -6   2  -7 0.80548 0.55486   2 
   6  -2   7 2.17393 0.94489   2 
   6  -2   7 0.87814 0.60758   2 
   6   1  -7 10.8558 0.98747   2 
   6   1  -7 9.23882 1.17980   2 
  -6  -1   7 10.3412 1.14776   1 
  -6  -1   7 13.2336 0.95950   1 
  -6  -1   7 10.8984 1.17671   2 
  -6  -1   7 11.6008 1.34908   2 
   5   1  -7 13.1265 0.83118   2 
   5   1  -7 12.2734 1.24039   2 
  -5  -1   7 16.1118 1.21296   2 
  -5  -1   7 14.0188 1.29233   1 
  -5  -1   7 13.5880 1.02728   2 
  -5  -1   7 12.6609 0.80086   1 
   4   1  -7 -0.2470 0.27454   2 
   4   1  -7 -0.5454 0.42644   2 
  -4  -1   7 -0.3103 0.41333   2 
  -4  -1   7 0.29498 0.27687   1 
   3   1  -7 0.61680 0.34560   2 
   3   1  -7 0.38266 0.20087   2 
  -3  -1   7 0.45557 0.26092   1 
  -3  -1   7 0.40322 0.27353   2 
  -3  -1   7 -0.1889 0.36974   2 
   2   1  -7 2.90384 0.30571   2 
  -2  -1   7 2.58993 0.36113   2 
  -2  -1   7 3.35985 0.37574   1 
  -2  -1   7 3.29535 0.37208   2 
  -1  -1   7 75.5131 1.75070   1 
  -1  -1   7 73.0997 1.62269   2 
   0  -1   7 2.88385 0.28762   1 
   1  -1   7 1.74488 0.19211   1 
   2  -1   7 12.4797 0.46147   2 
   2  -1   7 12.9062 0.42722   1 
   2  -1   7 13.3856 0.56604   2 
  -3   1  -7 38.1393 0.96054   2 
  -3   1  -7 37.3116 0.95732   2 
   3  -1   7 37.1376 0.85008   1 
   3  -1   7 36.2982 1.17639   2 
   3  -1   7 36.2716 0.99656   2 
  -4   1  -7 7.35982 0.57921   2 
  -4   1  -7 8.39071 0.57014   2 
   4  -1   7 6.73750 0.56956   2 
  -5   1  -7 20.3390 0.94875   2 
  -5   1  -7 19.0717 0.91085   2 
   5  -1   7 19.8437 1.39776   2 
   5  -1   7 18.8861 0.95469   2 
  -6   1  -7 16.8943 1.11549   2 
  -6   1  -7 14.2286 1.21257   2 
   6  -1   7 18.8157 1.80451   2 
   6  -1   7 17.8633 1.18614   2 
   6   0  -7 12.2616 1.51038   2 
   6   0  -7 12.5534 1.07621   2 
  -6   0   7 14.3047 1.21657   2 
  -6   0   7 12.7490 1.36118   1 
  -6   0   7 16.3873 1.42344   2 
  -6   0   7 13.3349 1.00476   1 
   5   0  -7 11.2727 0.80611   2 
   5   0  -7 11.6552 1.12321   2 
  -5   0   7 11.8214 1.13050   1 
  -5   0   7 12.8158 0.85655   1 
  -5   0   7 13.0275 1.07218   2 
  -5   0   7 11.4412 0.81930   2 
   4   0  -7 -0.0374 0.43007   2 
   4   0  -7 0.03454 0.28622   2 
  -4   0   7 -0.2137 0.40564   2 
  -4   0   7 -0.2636 0.44240   1 
  -4   0   7 0.55306 0.27123   2 
   3   0  -7 3.88968 0.40303   2 
   3   0  -7 4.20640 0.45091   2 
  -3   0   7 4.04067 0.43848   2 
  -3   0   7 4.54218 0.40244   2 
  -3   0   7 4.58337 0.57883   1 
  -2   0   7 44.4258 1.40815   1 
  -2   0   7 45.2777 1.14527   2 
  -2   0   7 44.4827 1.02783   2 
   0   0   7 1.26564 0.19747   1 
   1   0   7 16.2652 0.52975   1 
   2   0   7 6.50418 0.43502   1 
   2   0   7 6.87992 0.29229   1 
   2   0   7 6.41931 0.33029   2 
   2   0   7 6.85618 0.53076   2 
  -3   0  -7 14.7423 0.61309   2 
  -3   0  -7 14.6051 0.53501   2 
   3   0   7 13.8402 0.57874   2 
   3   0   7 15.6841 0.83879   2 
  -4   0  -7 12.9633 0.74424   2 
  -4   0  -7 12.2105 0.64732   2 
   4   0   7 11.9465 0.65690   2 
   4   0   7 10.4180 0.99388   2 
  -5   0  -7 -0.0573 0.40920   2 
  -5   0  -7 0.50808 0.42977   2 
   5   0   7 0.75192 0.74738   2 
   5   0   7 -0.6944 0.39773   2 
  -6   0  -7 11.6479 1.21011   2 
  -6   0  -7 10.9673 1.12006   2 
   6   0   7 9.71874 1.22079   2 
   6   0   7 10.4849 1.09698   2 
   6  -1  -7 59.3491 1.87130   2 
   6  -1  -7 59.3198 2.20298   2 
  -6   1   7 60.6058 2.05626   1 
  -6   1   7 59.8161 1.97228   2 
  -6   1   7 58.6862 1.82768   2 
   5  -1  -7 5.44771 0.55306   2 
   5  -1  -7 6.36924 0.74749   2 
  -5   1   7 5.73624 0.70777   1 
  -5   1   7 5.18409 0.64143   2 
  -5   1   7 5.38406 0.55065   2 
   4  -1  -7 29.0699 1.20023   2 
   4  -1  -7 30.3291 0.98991   2 
  -4   1   7 30.2445 1.05137   2 
  -4   1   7 31.1275 0.96808   2 
  -4   1   7 29.5255 1.23387   1 
   3  -1  -7 0.96008 0.28672   2 
   3  -1  -7 0.69755 0.24748   2 
  -3   1   7 0.46331 0.38142   1 
  -3   1   7 0.94630 0.21623   2 
  -3   1   7 0.33871 0.26266   2 
  -2   1   7 57.0020 1.29300   2 
  -2   1   7 58.0729 1.27437   2 
  -2   1   7 58.3526 1.62815   1 
  -1   1   7 14.3466 0.70102   1 
   0   1   7 271.903 5.44855   1 
   1   1   7 24.0045 0.75346   1 
   2   1   7 6.43987 0.55872   2 
   2   1   7 5.85262 0.29714   1 
   2   1   7 6.67557 0.32827   1 
   2   1   7 6.17232 0.35576   2 
  -3  -1  -7 212.858 4.21285   2 
  -3  -1  -7 215.540 4.30796   2 
   3   1   7 214.052 4.26387   2 
   3   1   7 212.292 4.52526   2 
  -4  -1  -7 27.6990 1.06499   2 
  -4  -1  -7 27.0450 0.95040   2 
   4   1   7 26.6055 1.35778   2 
   4   1   7 25.7446 1.11351   2 
  -5  -1  -7 0.99554 0.52434   2 
  -5  -1  -7 0.14956 0.50132   2 
   5   1   7 -0.1033 0.45045   2 
   5   1   7 1.24241 0.70240   2 
  -6  -1  -7 3.67123 0.73307   2 
  -6  -1  -7 2.52454 0.75510   2 
   6   1   7 2.10595 0.99849   2 
   6   1   7 1.50868 0.66689   2 
   6  -2  -7 14.8132 1.37351   2 
   6  -2  -7 11.3209 1.09855   2 
  -6   2   7 15.2438 1.19788   1 
  -6   2   7 11.5327 0.99574   2 
  -6   2   7 11.2378 1.01659   2 
   5  -2  -7 3.01481 0.51931   2 
   5  -2  -7 2.57852 0.59893   2 
  -5   2   7 1.80226 0.46034   2 
  -5   2   7 1.83583 0.54839   1 
  -5   2   7 1.75316 0.40901   2 
   4  -2  -7 9.84459 0.67371   2 
   4  -2  -7 9.50331 0.76167   2 
  -4   2   7 7.99519 0.54734   2 
  -4   2   7 7.85102 1.06113   1 
  -4   2   7 8.26220 0.58292   2 
   3  -2  -7 1.46312 0.28619   2 
   3  -2  -7 1.63515 0.31389   2 
  -3   2   7 1.49405 0.26315   2 
  -3   2   7 1.43996 0.24763   2 
  -3   2   7 1.55142 0.37983   1 
  -2   2   7 13.5885 0.69867   1 
  -2   2   7 14.2265 0.51569   2 
  -2   2   7 13.5429 0.48770   2 
  -1   2   7 0.06079 0.15685   2 
  -1   2   7 0.59081 0.23534   1 
  -1   2   7 0.17518 0.14837   2 
   0   2   7 31.2988 0.90879   1 
   0   2   7 31.5566 0.81143   2 
   0   2   7 31.2206 0.85491   2 
   1   2   7 11.5600 0.50320   2 
   1   2   7 12.4206 0.61181   2 
   1   2   7 12.7148 0.50071   1 
  -2  -2  -7 21.9925 0.71568   2 
   2   2   7 23.0004 0.92407   2 
   2   2   7 21.5583 0.58636   1 
   2   2   7 20.5735 0.71631   2 
  -3  -2  -7 38.0152 1.14474   2 
   3   2   7 38.4507 1.41566   2 
   3   2   7 39.0011 1.09586   2 
  -4  -2  -7 87.2830 2.23651   2 
  -4  -2  -7 89.4857 2.20216   2 
   4   2   7 88.3714 2.54108   2 
   4   2   7 89.7675 2.14318   2 
  -5  -2  -7 72.0348 2.09522   2 
  -5  -2  -7 72.9764 2.17001   2 
   5   2   7 77.9651 2.03153   2 
   5   2   7 68.8806 2.51684   2 
  -6  -2  -7 1.24725 0.84296   2 
  -6  -2  -7 2.46337 0.87417   2 
   6   2   7 0.30567 1.15463   2 
   6   2   7 0.36000 0.68960   2 
   6  -3  -7 43.5483 1.91434   2 
   6  -3  -7 44.4452 1.73896   2 
  -6   3   7 44.5274 1.68644   1 
  -6   3   7 43.8853 1.56481   2 
  -6   3   7 47.0031 1.57321   2 
   5  -3  -7 17.0482 1.16914   2 
   5  -3  -7 19.4409 1.10499   2 
  -5   3   7 20.6419 0.94143   2 
  -5   3   7 20.1783 1.07822   1 
  -5   3   7 19.2952 0.90991   2 
   4  -3  -7 5.61084 0.67886   2 
   4  -3  -7 6.70057 0.78180   2 
  -4   3   7 5.95961 0.64920   2 
  -4   3   7 5.36438 0.67049   1 
  -4   3   7 5.08654 0.51992   2 
   3  -3  -7 89.7654 2.13177   2 
  -3   3   7 92.3870 2.23610   1 
  -3   3   7 91.9209 2.04347   2 
  -3   3   7 90.0298 2.04746   2 
   2  -3  -7 2.43090 0.29121   2 
   2  -3  -7 3.24933 0.49584   1 
   2  -3  -7 2.84481 0.34318   2 
  -2   3   7 3.25253 0.39158   1 
  -2   3   7 2.71385 0.30051   2 
  -2   3   7 2.37257 0.30270   2 
   1  -3  -7 83.1305 2.14551   1 
  -1   3   7 82.3611 1.85656   2 
  -1   3   7 81.0376 1.84035   2 
  -1   3   7 82.6104 1.92677   1 
   0  -3  -7 6.37362 0.61873   1 
   0   3   7 7.37239 0.43123   1 
   0   3   7 5.61557 0.47226   2 
   0   3   7 6.55666 0.55442   2 
  -1  -3  -7 1.31497 0.23319   2 
  -1  -3  -7 1.11823 0.35303   1 
   1   3   7 1.96042 0.38926   2 
   1   3   7 1.28276 0.22312   1 
   1   3   7 1.40234 0.32094   2 
  -2  -3  -7 65.3948 1.59764   2 
   2   3   7 63.3013 1.80674   2 
   2   3   7 64.9726 1.60896   2 
   2   3   7 66.1871 1.44153   1 
  -3  -3  -7 24.0684 1.05495   2 
  -3  -3  -7 22.3215 0.97124   2 
   3   3   7 22.5177 1.22643   2 
   3   3   7 20.7983 1.11469   2 
  -4  -3  -7 331.272 6.67560   2 
  -4  -3  -7 326.751 6.65886   2 
   4   3   7 327.505 6.52640   2 
   4   3   7 311.022 7.09149   2 
  -5  -3  -7 15.3838 1.39611   2 
  -5  -3  -7 11.9067 1.30429   2 
   5   3   7 17.3348 1.21804   2 
   5   3   7 13.7926 1.36553   2 
   6  -4  -7 14.5404 1.36203   2 
   6  -4  -7 12.1656 1.21394   2 
  -6   4   7 12.5963 1.10314   2 
  -6   4   7 17.0837 1.14592   1 
  -6   4   7 15.6352 1.06653   2 
   5  -4  -7 2.61975 0.61708   2 
   5  -4  -7 2.19195 0.63851   2 
  -5   4   7 1.47357 0.47794   2 
  -5   4   7 3.52921 0.50331   2 
  -5   4   7 2.71553 0.49934   1 
   4  -4  -7 52.5169 1.63689   2 
   4  -4  -7 50.4938 1.58278   2 
   4  -4  -7 48.0046 1.82187   1 
  -4   4   7 51.7701 1.55032   1 
  -4   4   7 52.7347 1.45901   2 
   3  -4  -7 62.9938 1.63897   2 
   3  -4  -7 60.5480 2.30219   1 
   3  -4  -7 64.8081 1.73073   2 
  -3   4   7 64.9701 1.63655   2 
  -3   4   7 64.7877 1.62143   2 
  -3   4   7 56.7232 1.89487   1 
   2  -4  -7 501.394 9.69679   2 
   2  -4  -7 495.932 9.99203   1 
   2  -4  -7 502.060 9.55102   2 
  -2   4   7 495.911 9.70433   1 
  -2   4   7 499.842 9.67041   2 
  -2   4   7 498.333 9.65888   2 
   1  -4  -7 9.18174 0.44663   2 
   1  -4  -7 10.0070 0.78000   1 
   1  -4  -7 9.09718 0.62942   2 
  -1   4   7 9.07769 0.64116   2 
  -1   4   7 8.10505 0.63895   2 
  -1   4   7 9.25574 0.53872   1 
   0  -4  -7 43.9973 1.06408   2 
   0  -4  -7 43.0801 1.21997   2 
   0  -4  -7 45.0431 1.36866   1 
   0   4   7 41.5616 1.27935   2 
   0   4   7 42.5795 1.32598   2 
   0   4   7 43.9854 1.16702   1 
  -1  -4  -7 2.33831 0.42885   2 
  -1  -4  -7 1.93754 0.42486   1 
  -1  -4  -7 2.39279 0.35493   2 
   1   4   7 2.03402 0.47592   2 
   1   4   7 1.79804 0.40593   2 
   1   4   7 1.85845 0.27941   1 
  -2  -4  -7 5.88872 0.64325   1 
  -2  -4  -7 4.27824 0.52757   2 
  -2  -4  -7 5.59055 0.68180   2 
   2   4   7 5.65958 0.78799   2 
   2   4   7 4.35301 0.65892   2 
   2   4   7 4.96496 0.38680   1 
  -3  -4  -7 25.4874 1.13524   2 
  -3  -4  -7 25.5652 0.94293   1 
   3   4   7 25.6941 1.05762   2 
   3   4   7 24.1794 0.70038   1 
   3   4   7 22.5821 1.40032   2 
  -4  -4  -7 127.548 3.19270   2 
  -4  -4  -7 132.075 3.32039   2 
   4   4   7 129.476 3.57407   2 
   4   4   7 132.836 3.07175   2 
  -5  -4  -7 80.1045 2.61778   2 
  -5  -4  -7 81.6151 2.67484   2 
   5   4   7 82.3788 3.19048   2 
   5   4   7 80.0952 2.37680   2 
   6  -5  -7 0.14161 0.96600   2 
   6  -5  -7 0.71870 0.87780   2 
  -6   5   7 1.93054 0.64165   2 
  -6   5   7 1.09725 0.60807   1 
  -6   5   7 3.24238 0.69398   2 
   5  -5  -7 10.3783 1.26543   2 
   5  -5  -7 11.5367 1.21576   2 
   5  -5  -7 11.5676 1.39970   1 
  -5   5   7 11.0966 1.00735   2 
  -5   5   7 8.54235 0.86050   2 
  -5   5   7 10.2462 0.89913   1 
   4  -5  -7 7.19248 0.78505   2 
   4  -5  -7 8.00098 0.95227   1 
   4  -5  -7 7.19514 0.86703   2 
  -4   5   7 7.33259 0.81704   2 
  -4   5   7 7.52679 0.73033   1 
  -4   5   7 6.62256 0.75339   2 
   3  -5  -7 18.6102 1.05361   2 
   3  -5  -7 18.3251 1.16849   1 
   3  -5  -7 17.8260 0.88270   2 
  -3   5   7 16.8697 0.84462   1 
  -3   5   7 17.4238 0.89849   2 
  -3   5   7 18.7669 0.95240   2 
   2  -5  -7 41.3879 1.13629   2 
   2  -5  -7 40.2915 1.38327   2 
   2  -5  -7 42.6883 1.85405   1 
  -2   5   7 36.1287 1.46834   1 
  -2   5   7 39.7773 1.28325   2 
   1  -5  -7 0.98591 0.42947   2 
   1  -5  -7 1.12836 0.41881   1 
   1  -5  -7 0.72461 0.29222   2 
  -1   5   7 0.85295 0.41126   2 
  -1   5   7 0.63452 0.42605   2 
  -1   5   7 0.34680 0.26221   1 
   0  -5  -7 8.95242 0.59565   2 
   0  -5  -7 10.1305 0.80240   1 
   0  -5  -7 10.5284 0.80811   2 
   0   5   7 10.2260 0.83938   2 
   0   5   7 9.92244 0.58873   1 
   0   5   7 8.09181 0.87010   2 
  -1  -5  -7 20.7501 1.03386   2 
  -1  -5  -7 19.6164 0.88311   2 
  -1  -5  -7 21.7420 0.98822   1 
   1   5   7 20.9911 1.06779   2 
   1   5   7 19.3920 1.20490   2 
   1   5   7 22.2867 0.80213   1 
  -2  -5  -7 10.4100 0.85314   2 
  -2  -5  -7 11.3272 0.83208   1 
  -2  -5  -7 9.68234 1.03370   2 
   2   5   7 8.93789 0.87004   2 
   2   5   7 8.05598 0.89098   2 
   2   5   7 10.0716 0.55450   1 
  -3  -5  -7 2.04849 0.48445   1 
  -3  -5  -7 2.61099 0.61700   2 
  -3  -5  -7 1.18753 0.70759   2 
   3   5   7 1.14749 0.53726   2 
   3   5   7 1.39236 0.31527   1 
   3   5   7 2.51390 0.92641   2 
  -4  -5  -7 17.7750 1.49124   2 
   4   5   7 18.8118 1.92245   2 
   4   5   7 20.5784 1.28549   2 
   5  -6  -7 5.94737 1.01531   1 
   5  -6  -7 7.47175 0.98944   2 
   5  -6  -7 6.11799 0.94878   2 
  -5   6   7 6.81399 0.80613   2 
  -5   6   7 5.57213 0.71248   2 
  -5   6   7 7.46693 0.76854   1 
   4  -6  -7 18.5742 1.16209   2 
   4  -6  -7 17.7093 1.39374   2 
  -4   6   7 19.6892 1.00288   1 
  -4   6   7 20.0699 1.10910   2 
  -4   6   7 20.8384 1.23837   2 
   3  -6  -7 6.26009 0.79315   2 
   3  -6  -7 5.46195 0.77573   1 
   3  -6  -7 6.27787 0.73198   2 
  -3   6   7 6.15357 0.68523   1 
  -3   6   7 6.56959 0.69131   2 
  -3   6   7 6.12715 0.70590   2 
   2  -6  -7 110.189 2.48693   2 
   2  -6  -7 110.077 2.88969   1 
   2  -6  -7 111.335 2.85125   2 
  -2   6   7 113.138 2.64004   1 
  -2   6   7 112.327 2.80596   2 
  -2   6   7 106.700 2.72921   2 
   1  -6  -7 506.954 10.1390   2 
   1  -6  -7 507.260 9.78647   2 
   1  -6  -7 516.870 10.2015   1 
  -1   6   7 510.190 9.97282   1 
  -1   6   7 504.670 10.1460   2 
  -1   6   7 508.602 10.1321   2 
   0  -6  -7 6.98225 0.85106   1 
   0  -6  -7 5.62222 0.72130   2 
   0  -6  -7 6.19223 0.71257   2 
   0   6   7 7.46264 0.74358   2 
   0   6   7 8.27224 0.67397   1 
   0   6   7 6.99763 0.81903   2 
  -1  -6  -7 0.36732 0.47568   1 
  -1  -6  -7 0.11777 0.42802   2 
  -1  -6  -7 0.31794 0.54963   2 
   1   6   7 0.50341 0.31173   1 
   1   6   7 0.20094 0.56907   2 
   1   6   7 0.02922 0.64008   2 
  -2  -6  -7 2.31913 0.74417   2 
  -2  -6  -7 2.42853 0.62224   2 
  -2  -6  -7 2.47616 0.56340   1 
   2   6   7 1.91461 0.77795   2 
   2   6   7 2.46823 0.39626   1 
   2   6   7 2.66923 0.68028   2 
  -3  -6  -7 5.94308 0.96272   2 
  -3  -6  -7 5.41806 0.67961   1 
  -3  -6  -7 6.77221 0.88655   2 
   3   6   7 6.04304 0.64704   1 
   3   6   7 4.75395 1.07919   2 
   3   6   7 6.93257 0.85213   2 
   4  -7  -7 12.8070 1.59487   2 
   4  -7  -7 11.4306 1.22336   2 
   4  -7  -7 10.7448 1.31486   1 
  -4   7   7 12.6688 0.96587   1 
  -4   7   7 10.0397 1.13648   2 
  -4   7   7 13.6818 1.36750   2 
   3  -7  -7 5.99604 0.78234   1 
   3  -7  -7 6.45564 0.96087   2 
   3  -7  -7 6.49911 0.66138   2 
  -3   7   7 6.90156 0.77201   1 
  -3   7   7 5.22892 0.75591   2 
  -3   7   7 6.48593 0.88206   2 
   2  -7  -7 25.6382 1.43453   1 
   2  -7  -7 24.1335 1.53584   2 
   2  -7  -7 23.9313 1.05594   2 
  -2   7   7 24.7875 1.11620   1 
  -2   7   7 27.6566 1.35898   2 
  -2   7   7 25.9379 1.44851   2 
   1  -7  -7 0.07873 0.62971   2 
   1  -7  -7 -0.4549 0.58841   1 
   1  -7  -7 0.87471 0.42789   2 
  -1   7   7 -0.3256 0.60640   2 
  -1   7   7 0.63035 0.66407   2 
  -1   7   7 0.64753 0.42539   1 
   0  -7  -7 75.5751 2.41352   2 
   0  -7  -7 78.5357 2.30133   1 
   0  -7  -7 80.3443 2.07327   2 
   0   7   7 75.5628 2.01963   1 
   0   7   7 78.9361 2.41477   2 
   0   7   7 78.5118 2.44915   2 
  -1  -7  -7 43.7157 1.65431   1 
  -1  -7  -7 39.6124 1.51969   2 
  -1  -7  -7 41.5715 1.86458   2 
   1   7   7 41.6071 1.34933   1 
   1   7   7 42.7168 1.83562   2 
   1   7   7 41.1029 1.95796   2 
  -2  -7  -7 6.47866 0.88689   2 
  -2  -7  -7 5.84552 1.09102   2 
   2   7   7 5.21003 0.86752   2 
   2   7   7 6.04415 1.14235   2 
   2   7   7 2.78677 0.89158   1 
   3  -8  -7 3.80946 0.65588   2 
   3  -8  -7 2.74702 0.96147   1 
   3  -8  -7 1.00091 1.02024   2 
  -3   8   7 1.40398 0.91131   2 
  -3   8   7 1.51251 0.73916   2 
  -3   8   7 2.25999 0.62411   1 
   2  -8  -7 13.0402 1.22923   1 
   2  -8  -7 12.3709 1.08854   2 
   2  -8  -7 12.1676 1.24002   2 
  -2   8   7 13.5735 1.39753   2 
  -2   8   7 15.5815 1.60841   2 
  -2   8   7 10.5856 1.01490   1 
   1  -8  -7 0.31971 0.87636   2 
   1  -8  -7 1.45817 0.57396   2 
   1  -8  -7 0.04102 0.82858   1 
  -1   8   7 0.32224 0.79883   2 
  -1   8   7 -0.9775 0.49121   1 
  -1   8   7 -1.0583 0.78899   2 
   0  -8  -7 32.2872 1.49456   2 
   0  -8  -7 32.8880 1.72415   1 
   0  -8  -7 32.2881 1.97375   2 
   0   8   7 31.8618 2.00016   2 
   0   8   7 32.9019 1.94132   2 
   0   8   7 33.5896 1.35033   1 
   1   8  -8 4.14302 1.07414   2 
   1   8  -8 3.37054 0.67768   1 
   1   8  -8 4.57188 0.94112   2 
  -1  -8   8 8.29992 1.44120   2 
  -1  -8   8 5.42549 0.81414   1 
  -1  -8   8 4.05127 1.07130   2 
   0   8  -8 5.25149 0.71133   1 
   0   8  -8 5.37120 0.97051   2 
   0   8  -8 4.58242 0.95835   2 
   0  -8   8 5.01152 0.75095   1 
   0  -8   8 4.73340 1.00573   2 
   0  -8   8 6.25699 1.27033   2 
  -1   8  -8 0.18766 0.68324   2 
  -1   8  -8 0.86617 0.78194   2 
  -1   8  -8 0.09290 0.50906   1 
   1  -8   8 -0.8151 1.09560   2 
   1  -8   8 0.60341 0.59437   1 
   1  -8   8 -0.6583 0.79516   2 
  -2   8  -8 -0.0919 0.87271   2 
  -2   8  -8 0.78629 0.49005   1 
  -2   8  -8 1.22659 0.69671   2 
   2  -8   8 0.79531 0.68421   1 
   2  -8   8 -1.2059 0.78449   2 
   2  -8   8 1.07276 1.16415   2 
   2   7  -8 1.46301 0.87926   2 
   2   7  -8 0.59651 0.55310   1 
   2   7  -8 0.49747 0.68132   2 
  -2  -7   8 2.52350 0.56384   1 
  -2  -7   8 1.79062 1.07889   2 
  -2  -7   8 0.04436 0.96735   2 
   1   7  -8 0.91626 0.66057   2 
   1   7  -8 -0.5401 0.41680   1 
   1   7  -8 0.71412 0.71016   2 
  -1  -7   8 -0.3187 0.91635   2 
  -1  -7   8 0.56528 0.48719   1 
  -1  -7   8 0.75936 0.81701   2 
   0   7  -8 6.68673 0.81472   2 
   0   7  -8 7.53631 0.79502   2 
   0   7  -8 9.44358 0.84474   1 
   0  -7   8 12.9707 1.56370   2 
   0  -7   8 6.20197 0.87922   2 
   0  -7   8 7.43418 0.89809   1 
  -1   7  -8 14.3260 0.89754   1 
  -1   7  -8 13.9870 1.04384   2 
  -1   7  -8 12.1754 1.20617   2 
   1  -7   8 13.3903 1.22239   2 
   1  -7   8 13.4577 0.99530   1 
   1  -7   8 14.7475 1.59373   2 
  -2   7  -8 -0.0029 0.49938   2 
  -2   7  -8 2.04468 0.71137   2 
  -2   7  -8 0.87378 0.41829   1 
   2  -7   8 1.22105 0.53726   1 
   2  -7   8 1.54416 0.87380   2 
   2  -7   8 1.34839 0.65649   2 
  -3   7  -8 23.2236 1.07078   1 
  -3   7  -8 21.8116 1.51569   2 
  -3   7  -8 20.7665 1.18167   2 
   3  -7   8 23.5141 1.19257   1 
   3  -7   8 24.1811 1.36798   2 
   3  -7   8 24.6824 1.81083   2 
  -4   7  -8 3.65404 0.53475   1 
  -4   7  -8 2.09304 0.92687   2 
  -4   7  -8 2.21499 0.65903   2 
   4  -7   8 3.35613 1.03181   2 
   4  -7   8 4.43416 0.83123   2 
   4  -7   8 2.88998 0.58993   1 
   3   6  -8 6.72322 0.74585   2 
   3   6  -8 4.29861 0.94507   2 
  -3  -6   8 5.71107 0.69563   1 
  -3  -6   8 7.20027 1.08522   2 
  -3  -6   8 5.45464 1.19629   2 
   2   6  -8 1.84111 0.52632   1 
   2   6  -8 0.31526 0.66348   2 
   2   6  -8 0.94023 0.54309   2 
  -2  -6   8 1.45938 0.43566   1 
  -2  -6   8 1.44076 0.90148   2 
  -2  -6   8 1.12159 0.78830   2 
   1   6  -8 -0.5073 0.46900   2 
   1   6  -8 -0.4939 0.50033   2 
   1   6  -8 0.10108 0.36488   1 
  -1  -6   8 0.84696 0.65727   2 
  -1  -6   8 0.12563 0.72966   2 
  -1  -6   8 1.63279 0.42550   1 
   0   6  -8 7.63390 0.86623   2 
   0   6  -8 6.43236 0.63392   2 
   0   6  -8 6.53909 0.68887   1 
   0  -6   8 6.27756 0.83701   2 
   0  -6   8 7.50600 0.72780   1 
   0  -6   8 7.86019 0.90657   2 
  -1   6  -8 1.77058 0.56928   2 
  -1   6  -8 2.57616 0.43128   1 
  -1   6  -8 2.03123 0.45119   2 
   1  -6   8 3.24066 0.51353   1 
   1  -6   8 1.88284 0.55181   2 
   1  -6   8 2.60410 0.74630   2 
  -2   6  -8 2.23267 0.58078   2 
  -2   6  -8 1.97550 0.43151   2 
  -2   6  -8 2.08268 0.36570   1 
   2  -6   8 4.53573 0.79370   2 
   2  -6   8 2.02244 0.48048   1 
   2  -6   8 3.26709 0.62696   2 
  -3   6  -8 -0.0974 0.58345   2 
  -3   6  -8 1.39938 0.34742   1 
  -3   6  -8 0.10618 0.40284   2 
   3  -6   8 0.13902 0.65589   2 
   3  -6   8 0.59140 0.48706   2 
   3  -6   8 0.46329 0.42164   1 
  -4   6  -8 12.1170 0.78271   1 
  -4   6  -8 13.0107 0.91659   2 
  -4   6  -8 11.3649 1.30576   2 
   4  -6   8 13.5200 1.41524   2 
   4  -6   8 11.4607 1.14380   2 
   4  -6   8 12.4504 0.90307   1 
  -5   6  -8 0.71162 0.41918   1 
  -5   6  -8 -1.2728 0.81835   2 
  -5   6  -8 0.68746 0.56334   2 
   5  -6   8 1.74961 0.87946   2 
   5  -6   8 -0.2831 0.51553   1 
   5  -6   8 1.62230 0.89214   2 
   4   5  -8 6.08248 1.05293   2 
   4   5  -8 3.34595 0.62767   2 
  -4  -5   8 4.40324 0.63275   1 
  -4  -5   8 4.73154 1.24815   2 
  -4  -5   8 6.64786 1.21399   2 
   3   5  -8 20.2841 1.42947   2 
   3   5  -8 19.4253 1.00568   2 
  -3  -5   8 20.0288 1.75867   2 
  -3  -5   8 23.8221 1.53932   2 
  -3  -5   8 19.3154 0.95179   1 
   2   5  -8 63.1412 1.63549   2 
   2   5  -8 62.6707 1.86974   1 
   2   5  -8 60.4775 1.84382   2 
  -2  -5   8 60.0632 1.68113   1 
  -2  -5   8 63.7235 2.14830   2 
  -2  -5   8 56.4544 2.33388   2 
   1   5  -8 35.0180 1.24240   2 
   1   5  -8 33.7351 1.10831   2 
   1   5  -8 36.4946 1.25201   1 
  -1  -5   8 34.3825 1.14846   1 
  -1  -5   8 34.1715 1.37297   2 
  -1  -5   8 32.7965 1.51690   2 
   0   5  -8 3.88664 0.46848   2 
   0   5  -8 3.43746 0.43933   1 
   0   5  -8 3.30665 0.42201   2 
   0  -5   8 2.89738 0.41893   1 
   0  -5   8 3.22336 0.52160   2 
  -1   5  -8 1.39555 0.33627   2 
  -1   5  -8 1.88862 0.41754   2 
  -1   5  -8 1.78957 0.29950   1 
   1  -5   8 1.90640 0.37968   1 
   1  -5   8 0.49486 0.83935   2 
   1  -5   8 2.19209 0.42883   2 
  -2   5  -8 0.13061 0.28656   1 
  -2   5  -8 0.37637 0.31926   2 
  -2   5  -8 0.55137 0.45685   2 
   2  -5   8 0.49179 0.50162   2 
   2  -5   8 0.56757 0.35608   2 
   2  -5   8 0.12065 0.33323   1 
  -3   5  -8 19.4122 0.81745   2 
  -3   5  -8 18.6586 0.77892   1 
  -3   5  -8 17.9060 1.07768   2 
   3  -5   8 19.8723 0.92747   2 
   3  -5   8 20.0163 1.15858   2 
   3  -5   8 19.7438 0.86745   1 
  -4   5  -8 17.6931 0.76187   1 
  -4   5  -8 17.9045 1.20915   2 
  -4   5  -8 17.2655 0.87400   2 
   4  -5   8 18.1954 1.24798   2 
   4  -5   8 17.7160 0.86576   1 
  -5   5  -8 -0.7287 0.45040   2 
  -5   5  -8 0.08990 0.31736   1 
  -5   5  -8 -1.2249 0.64675   2 
   5  -5   8 0.84276 0.72203   2 
   5  -5   8 0.02372 0.73357   2 
   5  -5   8 -0.7203 0.42987   1 
   5   4  -8 2.45266 1.15281   2 
   5   4  -8 2.06643 0.63831   2 
  -5  -4   8 1.35707 0.52686   1 
  -5  -4   8 3.31508 1.17238   2 
  -5  -4   8 1.75592 1.11588   2 
   4   4  -8 0.93880 0.76592   2 
   4   4  -8 -0.7624 0.43163   2 
  -4  -4   8 0.31497 0.76767   2 
  -4  -4   8 0.31240 0.89386   2 
  -4  -4   8 0.45315 0.35191   1 
   3   4  -8 -0.2140 0.34007   2 
   3   4  -8 0.37811 0.57238   2 
  -3  -4   8 0.28971 0.62782   2 
  -3  -4   8 0.11722 0.26650   1 
  -3  -4   8 -0.3733 0.66870   2 
   2   4  -8 10.1394 0.61255   2 
   2   4  -8 11.1697 0.83329   2 
  -2  -4   8 13.5825 1.61840   2 
  -2  -4   8 11.4557 0.64673   1 
  -2  -4   8 11.7238 0.95110   2 
   1   4  -8 0.23496 0.25207   2 
   1   4  -8 0.21095 0.38269   2 
   1   4  -8 0.43763 0.28450   1 
  -1  -4   8 0.40888 0.22636   1 
  -1  -4   8 -0.4424 0.42092   2 
  -1  -4   8 0.68905 0.38499   2 
   0   4  -8 10.7011 0.55759   2 
   0   4  -8 10.7854 0.57552   2 
   0   4  -8 10.7831 0.63661   1 
   0  -4   8 9.52490 0.56716   1 
   0  -4   8 10.8136 0.86677   2 
   0  -4   8 11.0559 0.72132   2 
  -1   4  -8 2.99783 0.37607   1 
  -1   4  -8 3.03074 0.31263   2 
  -1   4  -8 3.64046 0.40320   2 
   1  -4   8 3.68769 0.43540   1 
   1  -4   8 3.73440 0.39434   2 
   1  -4   8 3.32088 0.50095   2 
  -2   4  -8 16.4534 0.77792   2 
  -2   4  -8 14.6804 0.60665   2 
  -2   4  -8 15.2194 0.67175   1 
   2  -4   8 15.8556 0.68383   1 
   2  -4   8 15.1615 0.89338   2 
   2  -4   8 15.2536 0.68534   2 
  -3   4  -8 34.5810 1.01511   2 
  -3   4  -8 34.7156 1.03681   1 
  -3   4  -8 37.6103 1.23485   2 
   3  -4   8 35.8469 1.13740   2 
   3  -4   8 36.8345 1.08441   1 
   3  -4   8 34.8509 1.28617   2 
  -4   4  -8 34.7936 1.11331   2 
  -4   4  -8 35.9091 1.34655   2 
  -4   4  -8 36.7268 1.05219   1 
   4  -4   8 38.9984 1.42735   2 
   4  -4   8 38.3433 1.11119   1 
   4  -4   8 36.6568 1.40075   2 
  -5   4  -8 0.75062 0.62252   2 
  -5   4  -8 0.48000 0.40812   2 
  -5   4  -8 0.35607 0.27141   1 
   5  -4   8 -1.1853 0.70602   2 
   5  -4   8 0.73927 0.36722   1 
   5  -4   8 0.00360 0.60704   2 
  -6   4  -8 1.03579 0.61404   2 
  -6   4  -8 2.19713 0.87449   2 
   6  -4   8 2.68514 0.51961   1 
   6  -4   8 2.32644 0.82411   2 
   6  -4   8 2.24113 1.14840   2 
   5   3  -8 2.49741 0.58375   2 
  -5  -3   8 2.22460 0.50167   1 
  -5  -3   8 0.04931 0.97112   2 
  -5  -3   8 2.14265 0.90550   2 
   4   3  -8 1.93249 0.42965   2 
   4   3  -8 0.77634 0.65926   2 
  -4  -3   8 2.16987 0.67635   2 
  -4  -3   8 1.15189 0.35798   1 
  -4  -3   8 1.07541 0.72342   2 
   3   3  -8 1.72668 0.33794   2 
   3   3  -8 2.56290 0.53097   2 
  -3  -3   8 2.18128 0.60517   2 
  -3  -3   8 1.64905 0.53446   2 
  -3  -3   8 2.24257 0.36324   1 
   2   3  -8 7.08545 0.79347   2 
   2   3  -8 7.77558 0.45924   2 
  -2  -3   8 8.17058 0.85650   2 
  -2  -3   8 7.14965 0.51506   1 
  -2  -3   8 7.98028 0.73839   2 
  -1  -3   8 18.9314 0.81016   2 
  -1  -3   8 19.7929 0.89351   2 
  -1  -3   8 18.8577 0.72125   1 
   0   3  -8 0.90431 0.28958   1 
   0  -3   8 1.26691 0.37936   2 
   0  -3   8 1.13300 0.22894   1 
   0  -3   8 1.06516 0.29283   2 
  -1   3  -8 37.6251 1.10259   1 
   1  -3   8 36.6947 1.12622   2 
   1  -3   8 36.6282 1.02604   1 
   1  -3   8 37.1746 0.98536   2 
  -2   3  -8 56.2572 1.35507   2 
  -2   3  -8 55.7435 1.42374   1 
   2  -3   8 56.0124 1.48625   2 
   2  -3   8 56.4583 1.38919   1 
   2  -3   8 57.1216 1.34909   2 
  -3   3  -8 28.9354 0.88563   1 
  -3   3  -8 30.2895 1.01348   2 
  -3   3  -8 27.8092 0.82883   2 
   3  -3   8 28.4881 0.98325   2 
   3  -3   8 29.1802 1.08029   2 
   3  -3   8 29.6459 0.87381   1 
  -4   3  -8 2.70929 0.48612   2 
  -4   3  -8 3.08777 0.34015   1 
  -4   3  -8 2.94585 0.36062   2 
   4  -3   8 3.16190 0.49268   2 
   4  -3   8 2.66667 0.32227   1 
   4  -3   8 2.86106 0.57534   2 
  -5   3  -8 4.97928 0.63859   2 
  -5   3  -8 4.59805 0.53547   2 
   5  -3   8 5.40825 0.68804   2 
   5  -3   8 4.92256 0.89146   2 
  -6   3  -8 4.07556 0.63861   2 
  -6   3  -8 4.88004 0.80040   2 
   6  -3   8 3.80042 0.77930   2 
   6   2  -8 18.3904 2.09781   2 
   6   2  -8 17.9123 1.25916   2 
  -6  -2   8 16.7209 1.11420   1 
  -6  -2   8 19.1192 1.85269   2 
  -6  -2   8 21.4998 1.97786   2 
  -6  -2   8 18.0128 1.89573   1 
   5   2  -8 3.00782 0.81196   2 
   5   2  -8 1.40798 0.48725   2 
  -5  -2   8 1.64402 0.69317   2 
  -5  -2   8 2.31202 0.48166   1 
   4   2  -8 6.60723 0.62004   2 
   4   2  -8 5.94982 0.68972   2 
  -4  -2   8 6.27664 0.66035   2 
  -4  -2   8 6.29709 0.81677   2 
  -4  -2   8 6.81317 0.62164   1 
   3   2  -8 8.33519 0.49954   2 
   3   2  -8 8.08676 0.79844   2 
  -3  -2   8 7.96939 0.74249   2 
  -3  -2   8 8.81225 0.72305   1 
  -3  -2   8 7.46330 0.85453   2 
  -2  -2   8 14.2240 0.71533   2 
  -2  -2   8 12.2769 0.80295   2 
  -1  -2   8 10.0485 0.62464   2 
  -1  -2   8 9.07098 0.49615   1 
  -1  -2   8 8.96402 0.54573   2 
   0  -2   8 10.1099 0.54824   2 
   0  -2   8 9.58882 0.47015   2 
   0  -2   8 8.99296 0.46529   1 
   1  -2   8 0.68149 0.23926   2 
   1  -2   8 0.74087 0.16675   1 
   2  -2   8 16.8066 0.64245   2 
   2  -2   8 16.4003 0.57688   1 
   2  -2   8 16.2124 0.60453   2 
  -3   2  -8 48.7738 1.24894   2 
  -3   2  -8 49.9688 1.25967   2 
   3  -2   8 49.6874 1.31546   2 
   3  -2   8 49.5939 1.39652   2 
   3  -2   8 49.0443 1.17562   1 
  -4   2  -8 4.55111 0.49569   2 
  -4   2  -8 3.90729 0.39619   2 
   4  -2   8 4.54417 0.68007   2 
   4  -2   8 3.92307 0.45388   2 
   4  -2   8 3.77962 0.34723   1 
  -5   2  -8 9.71542 0.81857   2 
  -5   2  -8 9.99483 0.87719   2 
   5  -2   8 10.0361 0.88441   2 
  -6   2  -8 1.51191 0.61943   2 
  -6   2  -8 0.71492 0.64733   2 
   6  -2   8 2.22061 0.66917   2 
   6  -2   8 1.84102 0.98278   2 
   6   1  -8 2.95185 0.99384   2 
   6   1  -8 3.01408 0.65374   2 
  -6  -1   8 4.67153 0.68034   1 
  -6  -1   8 2.94913 0.86489   2 
  -6  -1   8 5.49659 1.07759   2 
  -6  -1   8 2.90860 1.00089   1 
   5   1  -8 7.45408 0.85085   2 
   5   1  -8 7.36940 0.76003   2 
  -5  -1   8 9.16537 0.77621   1 
  -5  -1   8 9.93644 1.04901   1 
  -5  -1   8 8.01561 0.76901   2 
  -5  -1   8 10.5118 1.22407   2 
   4   1  -8 8.10697 0.90896   2 
   4   1  -8 7.97833 0.59037   2 
  -4  -1   8 7.57450 0.64496   1 
  -4  -1   8 8.77737 1.06394   1 
  -4  -1   8 7.67232 0.74584   2 
  -4  -1   8 6.72385 0.73046   2 
   3   1  -8 2.33979 0.40170   2 
   3   1  -8 1.85483 0.28779   2 
  -3  -1   8 2.37362 0.46359   2 
  -3  -1   8 2.12935 0.35774   1 
  -3  -1   8 2.12767 0.35108   2 
  -2  -1   8 5.37037 0.46908   1 
  -2  -1   8 5.33996 0.46364   2 
  -2  -1   8 5.63349 0.55996   2 
  -1  -1   8 213.973 4.39193   1 
   0  -1   8 96.1266 2.12437   1 
   1  -1   8 1.96025 0.22470   1 
   2  -1   8 274.015 5.28363   1 
   2  -1   8 277.341 5.35934   2 
   2  -1   8 268.827 5.27980   2 
   3  -1   8 3.79102 0.46818   2 
   3  -1   8 4.71653 0.29964   1 
  -4   1  -8 2.33330 0.38108   2 
  -4   1  -8 1.78810 0.36478   2 
   4  -1   8 1.76513 0.58904   2 
   4  -1   8 2.08307 0.37249   2 
  -5   1  -8 0.79519 0.44770   2 
  -5   1  -8 0.65797 0.46144   2 
   5  -1   8 0.47477 0.41895   2 
   5  -1   8 0.94272 0.72194   2 
  -6   1  -8 1.60502 0.63180   2 
  -6   1  -8 1.96597 0.63964   2 
   6  -1   8 1.61177 0.66667   2 
   6  -1   8 2.74653 1.00772   2 
   6   0  -8 0.66368 0.81725   2 
   6   0  -8 -0.3311 0.55000   2 
  -6   0   8 -0.3422 0.52045   1 
  -6   0   8 0.39683 0.82029   1 
  -6   0   8 -0.8985 0.77786   2 
  -6   0   8 0.27818 0.66058   2 
   5   0  -8 6.41584 0.75278   2 
   5   0  -8 5.77667 0.73125   2 
  -5   0   8 5.93262 0.84924   1 
  -5   0   8 6.10883 0.73615   2 
  -5   0   8 3.38301 0.92954   2 
  -5   0   8 6.35330 0.80595   1 
   4   0  -8 41.5950 1.44073   2 
   4   0  -8 44.0427 1.22098   2 
  -4   0   8 43.9200 1.45808   2 
  -4   0   8 45.2421 1.69361   1 
  -4   0   8 43.4595 1.24280   2 
   3   0  -8 2.58338 0.30565   2 
  -3   0   8 2.72879 0.31067   2 
  -3   0   8 2.10941 0.39193   2 
  -3   0   8 2.76532 0.52510   1 
  -2   0   8 36.5456 0.99675   2 
  -2   0   8 36.3355 0.88828   2 
  -2   0   8 35.0546 1.31394   1 
   0   0   8 8.40526 0.47349   1 
   1   0   8 21.3579 0.85145   1 
   1   0   8 21.2292 0.66926   1 
   2   0   8 41.8186 1.01384   2 
   2   0   8 45.9450 1.19827   2 
   2   0   8 45.4400 1.18502   1 
   2   0   8 43.2189 1.01133   1 
   3   0   8 327.088 6.51746   2 
   3   0   8 318.336 6.26700   2 
  -4   0  -8 75.4695 1.69822   2 
  -4   0  -8 72.8667 1.82488   2 
   4   0   8 71.9218 2.13182   2 
   4   0   8 72.1659 1.78184   2 
  -5   0  -8 1.97083 0.52156   2 
  -5   0  -8 1.72761 0.46143   2 
   5   0   8 2.58760 0.48986   2 
   5   0   8 2.17973 0.79832   2 
  -6   0  -8 2.61727 0.72125   2 
  -6   0  -8 1.70296 0.67479   2 
   6   0   8 2.42511 1.05330   2 
   6   0   8 2.07650 0.65357   2 
   6  -1  -8 5.26955 0.89481   2 
   6  -1  -8 6.05520 0.74079   2 
  -6   1   8 6.17337 0.81951   2 
  -6   1   8 6.35288 0.98536   1 
  -6   1   8 5.20419 0.73026   2 
   5  -1  -8 5.37788 0.59820   2 
   5  -1  -8 5.50271 0.73836   2 
  -5   1   8 4.69861 0.74458   1 
  -5   1   8 6.28618 0.70558   2 
  -5   1   8 5.19509 0.65058   2 
   4  -1  -8 25.3143 1.09945   2 
   4  -1  -8 26.1381 0.95282   2 
  -4   1   8 27.3067 1.05817   2 
  -4   1   8 29.5497 1.28690   1 
  -4   1   8 27.6236 0.92839   2 
   3  -1  -8 3.67760 0.39290   2 
  -3   1   8 3.49041 0.55260   1 
  -3   1   8 3.27473 0.35428   2 
  -3   1   8 4.43827 0.40872   2 
  -2   1   8 104.682 2.56596   1 
  -2   1   8 102.127 2.12391   2 
  -2   1   8 105.421 2.14566   2 
  -1   1   8 6.64581 0.60965   1 
   0   1   8 6.87213 0.57040   1 
   1   1   8 134.317 2.85223   1 
   2   1   8 23.7768 0.66431   1 
   2   1   8 23.5595 0.67941   2 
   2   1   8 24.1306 0.88942   2 
   2   1   8 24.1879 0.69126   1 
   3   1   8 452.464 8.56368   2 
   3   1   8 438.726 8.79672   2 
  -4  -1  -8 91.1802 2.19395   2 
  -4  -1  -8 92.1366 2.05969   2 
   4   1   8 88.4007 2.50195   2 
   4   1   8 92.7244 2.14766   2 
  -5  -1  -8 0.24007 0.55064   2 
  -5  -1  -8 -0.1704 0.49945   2 
   5   1   8 -0.5117 0.81109   2 
   5   1   8 -0.8488 0.42041   2 
  -6  -1  -8 5.54483 0.84526   2 
  -6  -1  -8 5.02171 0.87118   2 
   6   1   8 6.44671 1.27669   2 
   6   1   8 5.50251 0.77105   2 
   6  -2  -8 1.25605 0.62195   2 
   6  -2  -8 1.07302 0.83663   2 
  -6   2   8 0.94304 0.73380   1 
  -6   2   8 1.40331 0.59790   2 
  -6   2   8 1.76253 0.60117   2 
   5  -2  -8 27.1471 1.18583   2 
   5  -2  -8 27.9242 1.38129   2 
  -5   2   8 25.0735 1.04546   2 
  -5   2   8 26.4569 1.09005   2 
  -5   2   8 25.1498 1.35827   1 
   4  -2  -8 42.8689 1.38003   2 
   4  -2  -8 42.2483 1.30698   2 
  -4   2   8 41.8277 1.22201   2 
  -4   2   8 44.1066 1.54062   1 
  -4   2   8 43.7776 1.23988   2 
   3  -2  -8 668.117 12.9832   2 
   3  -2  -8 679.729 12.9235   2 
  -3   2   8 674.407 13.2827   1 
  -3   2   8 698.387 12.9131   2 
  -3   2   8 686.949 12.9169   2 
  -2   2   8 64.5282 1.76826   1 
  -2   2   8 65.2095 1.44951   2 
  -2   2   8 65.0189 1.43930   2 
  -1   2   8 76.4452 1.91511   1 
   0   2   8 45.2239 1.23510   1 
   1   2   8 20.4324 0.68978   1 
   1   2   8 20.0016 0.77280   2 
   1   2   8 19.2436 0.63667   2 
   2   2   8 30.4641 0.86472   2 
   2   2   8 28.6959 0.77676   1 
   2   2   8 30.8387 1.10646   2 
  -3  -2  -8 133.023 2.83025   2 
  -3  -2  -8 129.108 2.75136   2 
   3   2   8 134.171 2.82236   2 
   3   2   8 131.648 3.13214   2 
  -4  -2  -8 146.250 3.28743   2 
  -4  -2  -8 148.242 3.18725   2 
   4   2   8 147.589 3.20749   2 
   4   2   8 145.117 3.63901   2 
  -5  -2  -8 37.4908 1.47083   2 
  -5  -2  -8 35.1047 1.57394   2 
   5   2   8 39.2914 2.14331   2 
   5   2   8 39.1627 1.43591   2 
   6  -3  -8 0.52642 0.79596   2 
   6  -3  -8 0.28822 0.76683   2 
  -6   3   8 2.32265 0.70389   1 
  -6   3   8 1.33783 0.55763   2 
  -6   3   8 0.38364 0.55698   2 
   5  -3  -8 7.39752 0.75087   2 
   5  -3  -8 6.95175 0.77528   2 
  -5   3   8 7.07673 0.76593   2 
  -5   3   8 6.85481 0.78509   2 
  -5   3   8 9.01629 0.97189   1 
   4  -3  -8 15.4574 0.90383   2 
   4  -3  -8 15.5062 0.91291   2 
  -4   3   8 14.3683 0.74243   2 
  -4   3   8 14.3592 0.94330   1 
  -4   3   8 15.0149 0.76144   2 
   3  -3  -8 12.8207 0.71552   2 
   3  -3  -8 13.0870 0.72452   2 
  -3   3   8 11.4049 0.84674   1 
  -3   3   8 12.7132 0.61061   2 
  -3   3   8 13.2143 0.68534   2 
  -2   3   8 46.4451 1.20390   2 
  -2   3   8 47.1078 1.40234   1 
  -2   3   8 47.4672 1.22408   2 
  -1   3   8 2.37993 0.36944   1 
  -1   3   8 1.97625 0.30604   2 
  -1   3   8 1.69281 0.29414   2 
   0   3   8 43.2112 1.20571   2 
   0   3   8 44.5538 1.19189   1 
   0   3   8 44.3944 1.19209   2 
   1   3   8 3.85935 0.39365   2 
   1   3   8 4.56223 0.49977   2 
   1   3   8 3.29324 0.38582   1 
   2   3   8 3.37008 0.35147   1 
   2   3   8 2.90520 0.52254   2 
   2   3   8 3.07624 0.58309   2 
  -3  -3  -8 28.4654 1.10890   2 
  -3  -3  -8 29.3167 1.10744   2 
   3   3   8 27.8691 1.43600   2 
   3   3   8 30.0668 1.00484   2 
  -4  -3  -8 14.0670 1.11650   2 
  -4  -3  -8 13.9214 1.08495   2 
   4   3   8 16.7273 1.55226   2 
   4   3   8 14.8211 0.95550   2 
  -5  -3  -8 13.7406 1.38422   2 
  -5  -3  -8 11.7162 1.01445   2 
   5   3   8 15.9906 1.22305   2 
   5   3   8 16.7829 2.67999   2 
   6  -4  -8 6.56801 0.93719   2 
   6  -4  -8 5.71523 0.97854   2 
  -6   4   8 6.97895 0.76269   2 
  -6   4   8 5.92528 0.74113   2 
   5  -4  -8 16.7912 1.25068   2 
   5  -4  -8 17.8500 1.27051   2 
  -5   4   8 15.7339 1.17724   2 
  -5   4   8 16.8042 1.09042   1 
  -5   4   8 15.9973 1.04888   2 
   4  -4  -8 0.05783 0.48704   2 
  -4   4   8 0.82078 0.42037   1 
  -4   4   8 0.06118 0.36500   2 
  -4   4   8 0.27219 0.34916   2 
   3  -4  -8 41.9814 1.37011   2 
  -3   4   8 43.5492 1.26839   2 
  -3   4   8 41.9109 1.27931   2 
  -3   4   8 44.0960 1.37961   1 
   2  -4  -8 566.870 11.4399   1 
   2  -4  -8 561.944 10.7676   2 
   2  -4  -8 560.725 10.8584   2 
  -2   4   8 575.003 11.0676   1 
  -2   4   8 575.332 10.8850   2 
  -2   4   8 550.111 11.2756   2 
   1  -4  -8 13.0165 0.95355   1 
  -1   4   8 12.8531 0.66648   1 
  -1   4   8 12.3782 0.74383   2 
  -1   4   8 12.0119 0.73177   2 
   0  -4  -8 3.76263 0.54734   1 
   0   4   8 3.97870 0.51253   2 
   0   4   8 3.14293 0.37888   1 
   0   4   8 3.45531 0.44299   2 
  -1  -4  -8 0.27085 0.43659   1 
  -1  -4  -8 1.24195 0.27697   2 
   1   4   8 1.37547 0.49128   2 
   1   4   8 1.04549 0.48114   2 
   1   4   8 1.19197 0.28238   1 
  -2  -4  -8 1.98583 0.39139   2 
  -2  -4  -8 1.39737 0.46494   1 
   2   4   8 2.05883 0.29100   1 
   2   4   8 1.59859 0.39872   2 
   2   4   8 1.86121 0.65520   2 
  -3  -4  -8 15.5920 1.16383   2 
  -3  -4  -8 17.7477 1.03996   2 
   3   4   8 16.2970 1.38449   2 
   3   4   8 17.2528 0.93881   2 
   3   4   8 16.3083 0.56684   1 
  -4  -4  -8 0.69782 0.68229   2 
  -4  -4  -8 2.29636 0.82850   2 
   4   4   8 0.04389 0.90568   2 
   4   4   8 1.36329 0.55583   2 
   5  -5  -8 16.6710 1.42717   2 
  -5   5   8 16.6320 1.03525   2 
  -5   5   8 16.8521 1.10303   1 
  -5   5   8 16.2645 1.15983   2 
   4  -5  -8 1.12440 0.75347   1 
   4  -5  -8 1.15525 0.56300   2 
   4  -5  -8 0.74083 0.60975   2 
  -4   5   8 0.62719 0.41419   1 
  -4   5   8 0.97603 0.48190   2 
  -4   5   8 0.78765 0.43716   2 
   3  -5  -8 17.4101 1.27166   1 
   3  -5  -8 16.7573 0.91097   2 
   3  -5  -8 17.9602 1.08112   2 
  -3   5   8 17.3997 0.98171   2 
  -3   5   8 18.6823 0.90673   1 
  -3   5   8 17.8030 0.90072   2 
   2  -5  -8 3.32441 0.39024   2 
   2  -5  -8 4.20122 0.58766   2 
   2  -5  -8 3.23130 0.65266   1 
  -2   5   8 4.01493 0.51139   2 
  -2   5   8 4.04182 0.53158   2 
  -2   5   8 3.21387 0.43757   1 
   1  -5  -8 157.498 3.43476   2 
   1  -5  -8 148.143 3.88946   1 
   1  -5  -8 161.024 3.21796   2 
  -1   5   8 160.971 3.54012   2 
  -1   5   8 163.637 3.53503   2 
  -1   5   8 155.443 3.61323   1 
   0  -5  -8 51.7424 1.26959   2 
   0  -5  -8 52.7304 1.71833   1 
   0  -5  -8 50.7985 1.50609   2 
   0   5   8 51.7346 1.68141   2 
   0   5   8 52.4674 1.41990   1 
   0   5   8 50.8008 1.57311   2 
  -1  -5  -8 13.2172 0.73568   2 
  -1  -5  -8 14.0486 0.94845   2 
  -1  -5  -8 13.9943 1.00142   1 
   1   5   8 13.7782 1.13682   2 
   1   5   8 13.9405 0.93417   2 
   1   5   8 14.8167 0.71256   1 
  -2  -5  -8 16.4420 1.11456   1 
  -2  -5  -8 16.6754 0.99009   2 
  -2  -5  -8 14.5352 1.12144   2 
   2   5   8 15.1473 0.69698   1 
   2   5   8 12.4919 1.36266   2 
   2   5   8 16.2833 0.99116   2 
  -3  -5  -8 0.56526 0.62418   2 
  -3  -5  -8 0.24726 0.59049   1 
   3   5   8 -0.3670 0.55071   2 
   3   5   8 1.43606 0.95707   2 
   3   5   8 0.13053 0.29683   1 
  -4  -5  -8 1.21884 1.03585   2 
  -4  -5  -8 -0.1634 0.80548   2 
   4   5   8 0.99881 0.64475   2 
   5  -6  -8 6.49608 1.11493   1 
   5  -6  -8 4.39640 0.87085   2 
   5  -6  -8 3.79325 0.94276   2 
  -5   6   8 4.48246 0.80737   2 
  -5   6   8 4.07463 0.70728   1 
  -5   6   8 3.81418 0.69728   2 
   4  -6  -8 1.85384 0.87326   1 
   4  -6  -8 2.46653 0.64660   2 
   4  -6  -8 3.12932 0.84956   2 
  -4   6   8 2.98491 0.56331   1 
  -4   6   8 2.58628 0.65409   2 
   3  -6  -8 31.0516 1.49519   2 
   3  -6  -8 28.0333 1.18308   2 
   3  -6  -8 27.2443 1.63270   1 
  -3   6   8 29.6680 1.19223   1 
  -3   6   8 29.6517 1.28076   2 
  -3   6   8 30.6811 1.37275   2 
   2  -6  -8 27.0549 0.99855   2 
   2  -6  -8 27.0407 1.45883   1 
   2  -6  -8 27.4507 1.32869   2 
  -2   6   8 27.0494 1.09131   1 
  -2   6   8 28.8988 1.23540   2 
  -2   6   8 27.5472 1.31777   2 
   1  -6  -8 5.67504 0.63376   2 
   1  -6  -8 5.49014 0.65636   2 
   1  -6  -8 6.79025 0.83707   1 
  -1   6   8 6.89972 0.68309   1 
  -1   6   8 5.33585 0.69927   2 
  -1   6   8 5.40760 0.67759   2 
   0  -6  -8 1.09495 0.62264   1 
   0  -6  -8 0.61257 0.55452   2 
   0  -6  -8 1.02323 0.40098   2 
   0   6   8 1.33202 0.42136   1 
   0   6   8 0.93682 0.54460   2 
   0   6   8 0.33325 0.62719   2 
  -1  -6  -8 15.8142 1.18737   1 
  -1  -6  -8 13.0014 0.91160   2 
  -1  -6  -8 15.5854 1.24083   2 
   1   6   8 13.3711 0.76958   1 
   1   6   8 16.1289 1.22719   2 
   1   6   8 15.4508 1.40412   2 
  -2  -6  -8 5.22199 0.83928   2 
  -2  -6  -8 4.15283 0.67749   2 
  -2  -6  -8 4.32722 0.78817   1 
   2   6   8 3.88782 0.97646   2 
   2   6   8 4.15556 0.74860   2 
   2   6   8 5.09302 0.62752   1 
  -3  -6  -8 2.20460 0.78275   1 
  -3  -6  -8 2.49426 0.95043   2 
  -3  -6  -8 2.18255 0.79983   2 
   3   6   8 1.43184 0.42923   1 
   3   6   8 2.28715 0.78122   2 
   3   6   8 -0.3542 1.27633   2 
   4  -7  -8 18.7964 1.77492   2 
   4  -7  -8 19.2471 1.41791   2 
   4  -7  -8 20.2043 1.77916   1 
  -4   7   8 19.8118 1.35099   2 
  -4   7   8 22.3257 1.54290   2 
  -4   7   8 23.2259 1.22824   1 
   3  -7  -8 4.88711 0.99772   2 
   3  -7  -8 5.07484 0.65446   2 
   3  -7  -8 4.79889 0.90132   1 
  -3   7   8 4.23068 0.86841   2 
  -3   7   8 4.64487 0.66437   1 
   2  -7  -8 2.07944 0.76883   2 
   2  -7  -8 1.83493 0.47115   2 
   2  -7  -8 4.06195 0.88091   1 
  -2   7   8 1.13061 0.69366   2 
  -2   7   8 1.63642 0.75680   2 
   1  -7  -8 0.95299 0.76987   1 
   1  -7  -8 1.64629 0.48248   2 
   1  -7  -8 0.87004 0.71834   2 
  -1   7   8 1.46590 0.71386   2 
  -1   7   8 0.23024 0.65565   2 
  -1   7   8 1.90062 0.51788   1 
   0  -7  -8 -0.4380 0.67603   2 
   0  -7  -8 0.92148 0.50993   2 
   0  -7  -8 0.62502 0.71916   1 
   0   7   8 2.38742 0.84026   2 
   0   7   8 1.68148 0.48593   1 
   0   7   8 1.22259 0.73561   2 
  -1  -7  -8 4.67750 0.90392   2 
  -1  -7  -8 5.27905 0.67823   2 
  -1  -7  -8 5.44138 0.87016   1 
   1   7   8 5.68523 1.03783   2 
   1   7   8 5.08434 0.86813   2 
   1   7   8 5.21559 0.58346   1 
  -2  -7  -8 0.20674 0.74332   2 
   2   7   8 -0.3993 0.44771   1 
   2   7   8 0.42697 0.82855   2 
   2   7  -9 22.3087 1.43728   2 
   2   7  -9 24.3442 1.52001   1 
   2   7  -9 18.8347 1.71548   2 
  -2  -7   9 22.0753 2.28967   2 
  -2  -7   9 24.8058 1.37048   1 
  -2  -7   9 26.2032 2.10149   2 
   1   7  -9 1.86754 0.64512   1 
   1   7  -9 1.62694 0.72863   2 
   1   7  -9 1.43128 0.69113   2 
  -1  -7   9 0.49287 0.88472   2 
  -1  -7   9 1.57656 0.60697   1 
  -1  -7   9 2.83657 1.03591   2 
   0   7  -9 0.44641 0.47219   1 
   0   7  -9 1.35324 0.71322   2 
   0   7  -9 1.78044 0.60691   2 
   0  -7   9 1.52912 0.55320   1 
   0  -7   9 0.76800 0.97076   2 
  -1   7  -9 8.38185 0.86089   1 
  -1   7  -9 6.17789 0.79987   2 
  -1   7  -9 7.73619 0.93762   2 
   1  -7   9 5.19654 0.69980   1 
   1  -7   9 5.71524 1.10267   2 
   1  -7   9 6.63407 1.00878   2 
  -2   7  -9 5.83479 0.85568   2 
  -2   7  -9 6.71702 0.68742   2 
  -2   7  -9 7.57153 0.81867   1 
   2  -7   9 9.04823 1.04251   1 
   2  -7   9 7.43645 1.12956   2 
  -3   7  -9 0.63177 0.54818   2 
  -3   7  -9 0.52949 0.82213   2 
  -3   7  -9 1.28899 0.48486   1 
   3  -7   9 1.93135 0.97503   2 
   3  -7   9 0.75503 0.58225   1 
   3  -7   9 0.93075 0.73568   2 
   3   6  -9 -0.1508 0.60378   2 
   3   6  -9 1.39179 0.89734   2 
  -3  -6   9 0.47153 1.01943   2 
  -3  -6   9 -0.3946 1.15982   2 
  -3  -6   9 0.94278 0.52487   1 
   2   6  -9 0.36592 0.68717   2 
   2   6  -9 -0.5130 0.48546   2 
   2   6  -9 -0.1370 0.55993   1 
  -2  -6   9 0.71509 0.99554   2 
  -2  -6   9 0.72352 0.47302   1 
   1   6  -9 12.7618 1.02347   1 
   1   6  -9 11.9589 1.03358   2 
   1   6  -9 11.1569 0.96406   2 
  -1  -6   9 12.3500 0.85164   1 
  -1  -6   9 10.5294 1.00806   2 
  -1  -6   9 12.5657 1.49665   2 
   0   6  -9 0.44941 0.46048   2 
   0   6  -9 0.66490 0.40506   1 
   0   6  -9 0.61437 0.48232   2 
   0  -6   9 1.50793 0.59815   2 
   0  -6   9 0.98051 0.42369   1 
   0  -6   9 1.33370 0.74155   2 
  -1   6  -9 1.69440 0.42803   1 
  -1   6  -9 1.89363 0.55859   2 
  -1   6  -9 1.81512 0.46370   2 
   1  -6   9 2.27253 0.52765   2 
   1  -6   9 0.20914 0.73476   2 
   1  -6   9 1.81844 0.43942   1 
  -2   6  -9 1.23983 0.43177   2 
  -2   6  -9 2.06524 0.45493   1 
  -2   6  -9 1.51111 0.61233   2 
   2  -6   9 2.09594 0.75989   2 
   2  -6   9 2.45515 0.51444   1 
   2  -6   9 2.25543 0.53684   2 
  -3   6  -9 24.8792 1.08485   2 
  -3   6  -9 27.6924 1.06947   1 
  -3   6  -9 27.7705 1.41881   2 
   3  -6   9 28.1749 1.15362   1 
   3  -6   9 28.1440 1.60407   2 
   3  -6   9 27.0418 1.25123   2 
  -4   6  -9 3.29521 0.55358   2 
  -4   6  -9 1.69834 0.85293   2 
  -4   6  -9 2.69043 0.48791   1 
   4  -6   9 2.55813 0.93146   2 
   4  -6   9 0.12513 0.81446   2 
   4  -6   9 2.70937 0.58455   1 
   4   5  -9 0.29143 1.00955   2 
   4   5  -9 -0.7087 0.58301   2 
  -4  -5   9 0.00633 0.45605   1 
  -4  -5   9 -0.6486 1.12765   2 
  -4  -5   9 2.59471 1.13748   2 
   3   5  -9 23.3660 1.04891   2 
   3   5  -9 24.8512 1.48359   2 
  -3  -5   9 21.5803 1.77121   2 
  -3  -5   9 24.3598 1.85341   2 
  -3  -5   9 22.7254 1.08541   1 
   2   5  -9 14.9618 0.84383   2 
   2   5  -9 17.2104 1.11613   2 
  -2  -5   9 18.0102 1.31869   2 
  -2  -5   9 15.1570 0.87448   1 
  -2  -5   9 18.9797 1.48633   2 
   1   5  -9 2.41755 0.41811   2 
   1   5  -9 3.12694 0.49356   2 
   1   5  -9 3.83579 0.59615   1 
  -1  -5   9 1.89745 0.62976   2 
  -1  -5   9 1.86325 0.57920   2 
  -1  -5   9 1.93744 0.38880   1 
   0   5  -9 25.7339 0.97126   2 
   0   5  -9 27.6700 1.11882   1 
   0   5  -9 24.1782 0.93683   2 
   0  -5   9 28.6989 1.21394   2 
   0  -5   9 29.6819 1.37683   2 
   0  -5   9 26.1629 1.01944   1 
  -1   5  -9 10.6489 0.65637   2 
  -1   5  -9 11.9831 0.78190   2 
  -1   5  -9 10.3634 0.73162   1 
   1  -5   9 10.7878 1.00423   2 
   1  -5   9 10.5279 0.82257   2 
   1  -5   9 11.7341 0.73335   1 
  -2   5  -9 22.9715 1.05453   2 
  -2   5  -9 22.5608 0.82106   2 
   2  -5   9 22.0515 0.97796   2 
   2  -5   9 22.6336 1.39569   1 
   2  -5   9 23.2313 1.21682   2 
  -3   5  -9 1.45273 0.38953   1 
  -3   5  -9 2.29093 0.38511   2 
  -3   5  -9 1.29161 0.55276   2 
   3  -5   9 1.64715 0.47567   2 
   3  -5   9 2.87991 0.45036   1 
   3  -5   9 1.19742 0.58874   2 
  -4   5  -9 0.51319 0.33719   1 
  -4   5  -9 -0.4447 0.38888   2 
  -4   5  -9 0.49815 0.66067   2 
   4  -5   9 0.58410 0.67240   2 
   4  -5   9 -0.0764 0.57996   2 
   4  -5   9 -0.9642 0.39689   1 
  -5   5  -9 25.0088 1.02152   1 
  -5   5  -9 22.2670 1.17368   2 
  -5   5  -9 22.6696 1.61268   2 
   5  -5   9 23.2684 1.05157   1 
   5  -5   9 28.2840 2.84012   2 
   5  -5   9 21.8926 1.66638   2 
   4   4  -9 -0.1443 0.47249   2 
   4   4  -9 0.22318 0.76430   2 
  -4  -4   9 -1.6100 0.87682   2 
  -4  -4   9 0.00275 0.36769   1 
   3   4  -9 2.38644 0.44467   2 
   3   4  -9 2.48717 0.64722   2 
  -3  -4   9 2.21927 0.39711   1 
  -3  -4   9 2.24967 0.82966   2 
  -3  -4   9 3.10290 0.74282   2 
   2   4  -9 12.8168 0.62788   2 
   2   4  -9 13.0900 0.88106   2 
  -2  -4   9 12.6585 1.07005   2 
  -2  -4   9 12.4641 0.71126   1 
  -2  -4   9 15.0895 1.16451   2 
   1   4  -9 2.44313 0.32145   2 
   1   4  -9 2.57944 0.37280   2 
  -1  -4   9 2.54813 0.50800   2 
  -1  -4   9 1.45314 0.29969   1 
  -1  -4   9 2.30652 0.51775   2 
   0   4  -9 0.78389 0.32498   1 
   0  -4   9 0.85991 0.37444   2 
   0  -4   9 0.81960 0.28634   1 
   0  -4   9 1.00215 0.77058   2 
  -1   4  -9 110.342 2.53424   1 
   1  -4   9 108.240 2.37135   2 
   1  -4   9 99.9705 2.78768   2 
   1  -4   9 107.451 2.44459   1 
  -2   4  -9 67.7481 1.74518   1 
  -2   4  -9 68.8209 1.51781   2 
   2  -4   9 65.7703 1.86609   2 
   2  -4   9 67.8115 1.63756   2 
   2  -4   9 68.5029 1.71544   1 
  -3   4  -9 10.7239 0.85250   2 
  -3   4  -9 10.1947 0.57168   2 
  -3   4  -9 11.5045 0.65274   1 
   3  -4   9 10.8868 0.76879   2 
   3  -4   9 12.1006 0.67260   1 
   3  -4   9 13.0216 0.91516   2 
  -4   4  -9 0.43129 0.34628   2 
  -4   4  -9 1.12565 0.34995   1 
  -4   4  -9 1.27604 0.57514   2 
   4  -4   9 0.56464 0.53673   2 
   4  -4   9 0.30081 0.56157   2 
   4  -4   9 0.63922 0.37952   1 
  -5   4  -9 -0.0283 0.69488   2 
  -5   4  -9 1.23483 0.47162   2 
  -5   4  -9 1.41163 0.39130   1 
   5  -4   9 1.23648 0.40728   1 
   5  -4   9 0.88298 0.66543   2 
   5  -4   9 2.84304 0.85539   2 
   5   3  -9 15.2755 1.80225   2 
   5   3  -9 14.6244 1.05945   2 
  -5  -3   9 18.1587 1.76160   2 
  -5  -3   9 16.0484 1.88559   2 
  -5  -3   9 12.7675 0.99533   1 
   4   3  -9 2.07098 0.45351   2 
   4   3  -9 2.00418 0.69814   2 
  -4  -3   9 1.81225 0.72582   2 
  -4  -3   9 2.32795 0.79194   2 
  -4  -3   9 1.27307 0.41329   1 
   3   3  -9 3.06167 0.37728   2 
   3   3  -9 2.33829 0.51752   2 
  -3  -3   9 2.06237 0.60570   2 
  -3  -3   9 1.36406 0.35305   1 
  -3  -3   9 1.70687 0.58102   2 
  -2  -3   9 58.6526 1.58928   1 
  -2  -3   9 58.9681 1.68431   2 
  -2  -3   9 57.1435 1.78257   2 
  -1  -3   9 55.6577 1.49100   1 
  -1  -3   9 55.3937 1.49494   2 
  -1  -3   9 57.0082 1.60199   2 
   0  -3   9 1.98780 0.28414   1 
   0  -3   9 1.65854 0.41782   2 
   0  -3   9 2.14962 0.34595   2 
   1  -3   9 189.115 3.95529   2 
   1  -3   9 188.106 3.91974   1 
   1  -3   9 193.643 3.80031   2 
   2  -3   9 38.4322 1.07924   1 
   2  -3   9 37.0105 1.33758   2 
   2  -3   9 38.3218 1.03764   2 
   3  -3   9 9.55653 0.56870   1 
   3  -3   9 8.72939 0.73775   2 
   3  -3   9 10.4664 0.75022   2 
  -4   3  -9 4.57405 0.57400   2 
  -4   3  -9 3.60965 0.39510   2 
   4  -3   9 3.76246 0.38342   1 
   4  -3   9 3.98468 0.67981   2 
   4  -3   9 3.77529 0.54931   2 
  -5   3  -9 8.12342 0.83465   2 
  -5   3  -9 8.10259 0.78442   2 
   5  -3   9 8.50651 1.06241   2 
   5  -3   9 6.89550 0.97906   2 
   5   2  -9 53.2951 2.09199   2 
   5   2  -9 50.6180 1.56070   2 
  -5  -2   9 54.0095 1.69336   1 
  -5  -2   9 56.0243 2.29813   1 
  -5  -2   9 48.2342 2.20451   2 
   4   2  -9 11.0514 0.73503   2 
   4   2  -9 11.0469 1.16362   2 
  -4  -2   9 12.8351 1.19986   2 
  -4  -2   9 11.0560 1.06638   2 
  -4  -2   9 11.9061 0.77397   1 
   3   2  -9 52.4208 1.27972   2 
   3   2  -9 52.1048 1.48987   2 
  -3  -2   9 51.8778 1.55993   2 
  -3  -2   9 53.2612 1.69577   2 
  -3  -2   9 53.8654 1.53468   1 
  -2  -2   9 0.52124 0.23232   1 
  -2  -2   9 0.18606 0.36074   2 
  -2  -2   9 0.00059 0.41187   2 
  -1  -2   9 3.13944 0.36631   2 
  -1  -2   9 3.23380 0.44446   2 
  -1  -2   9 2.86682 0.34078   1 
   0  -2   9 10.1156 0.53202   1 
   1  -2   9 37.4211 1.02308   1 
   2  -2   9 432.477 8.29975   1 
   2  -2   9 431.564 8.31206   2 
   2  -2   9 432.139 8.27012   2 
   3  -2   9 33.3621 1.16220   2 
   3  -2   9 32.8724 0.90324   1 
   3  -2   9 31.3970 1.04549   2 
  -4   2  -9 4.38304 0.51907   2 
  -4   2  -9 4.02701 0.41777   2 
   4  -2   9 3.45192 0.68326   2 
   4  -2   9 3.81194 0.51037   2 
  -5   2  -9 6.81938 0.63100   2 
  -5   2  -9 7.50415 0.71701   2 
   5  -2   9 7.06912 0.98916   2 
   5  -2   9 9.66844 0.94226   2 
   6   1  -9 5.23667 1.14043   2 
   6   1  -9 4.07759 0.77054   2 
  -6  -1   9 5.01022 0.75776   1 
  -6  -1   9 2.66413 1.08055   1 
  -6  -1   9 3.78318 0.97089   2 
  -6  -1   9 4.79954 1.06803   2 
   5   1  -9 5.34257 0.83195   2 
   5   1  -9 3.41847 0.56032   2 
  -5  -1   9 4.03567 0.68379   2 
  -5  -1   9 4.40798 0.56311   1 
  -5  -1   9 3.27555 0.85258   1 
  -5  -1   9 3.63209 0.80935   2 
   4   1  -9 19.0624 0.81566   2 
   4   1  -9 18.6895 1.09065   2 
  -4  -1   9 18.8349 1.00540   2 
  -4  -1   9 17.2730 0.92173   1 
  -4  -1   9 18.1883 1.33811   1 
  -4  -1   9 16.3102 1.11023   2 
  -3  -1   9 36.9690 1.23621   1 
  -3  -1   9 36.4593 1.14257   2 
  -2  -1   9 17.2276 0.76397   1 
  -2  -1   9 17.0111 0.70208   2 
  -2  -1   9 19.1347 0.80921   2 
  -1  -1   9 9.40022 0.54454   1 
   0  -1   9 62.6790 1.54201   1 
   1  -1   9 18.0604 0.63149   1 
   2  -1   9 352.045 6.76274   2 
   2  -1   9 350.419 6.84394   2 
   2  -1   9 356.108 6.79541   1 
   3  -1   9 246.983 4.73144   1 
   3  -1   9 240.712 4.87210   2 
  -4   1  -9 1.08572 0.36131   2 
   4  -1   9 1.34063 0.37618   2 
   4  -1   9 0.15967 0.65513   2 
  -5   1  -9 7.11482 0.66498   2 
  -5   1  -9 9.39794 0.92919   2 
   5  -1   9 8.85820 0.90177   2 
   5  -1   9 7.33625 0.99505   2 
   6   0  -9 2.14602 0.97392   2 
   6   0  -9 3.99192 0.70957   2 
  -6   0   9 5.41130 0.88412   2 
  -6   0   9 4.64902 0.93238   2 
  -6   0   9 3.41744 0.68170   1 
  -6   0   9 4.53966 1.04774   1 
   5   0  -9 20.1540 1.36788   2 
   5   0  -9 23.1720 1.07214   2 
  -5   0   9 25.1150 1.57409   1 
  -5   0   9 20.9177 1.15690   1 
  -5   0   9 23.0123 1.30545   2 
  -5   0   9 22.7771 1.18182   2 
   4   0  -9 425.569 8.54631   2 
   4   0  -9 441.696 8.38859   2 
  -4   0   9 433.833 9.01171   1 
  -4   0   9 424.135 8.45476   2 
  -4   0   9 431.513 8.77569   1 
  -4   0   9 441.754 8.59491   2 
  -3   0   9 137.066 3.65189   2 
  -3   0   9 163.703 3.19246   2 
  -3   0   9 160.188 3.75760   1 
  -2   0   9 36.3603 1.39981   1 
  -2   0   9 33.7366 0.89027   2 
  -2   0   9 36.0495 0.98805   2 
  -1   0   9 95.6253 2.28964   1 
  -1   0   9 96.9102 2.48681   1 
   0   0   9 9.89924 0.75623   1 
   0   0   9 8.73249 0.52199   1 
   1   0   9 12.0289 0.53072   1 
   1   0   9 11.1539 0.73426   1 
   2   0   9 58.7596 1.47565   1 
   2   0   9 56.3829 1.29680   1 
   2   0   9 55.9153 1.44716   2 
   3   0   9 129.823 2.74942   2 
   3   0   9 134.223 3.02391   2 
  -4   0  -9 60.1039 1.56666   2 
  -4   0  -9 60.9581 1.45323   2 
   4   0   9 59.8638 1.56785   2 
   4   0   9 60.4727 2.00880   2 
  -5   0  -9 2.82654 0.51325   2 
  -5   0  -9 1.74432 0.55423   2 
   5   0   9 1.40817 0.51945   2 
   5   0   9 1.63457 0.86729   2 
   6  -1  -9 0.97336 0.66501   2 
   6  -1  -9 -0.1478 0.88361   2 
  -6   1   9 0.06753 0.68174   2 
  -6   1   9 0.69472 0.83209   1 
  -6   1   9 0.81960 0.67994   2 
   5  -1  -9 7.29326 0.86666   2 
   5  -1  -9 6.46855 0.79503   2 
  -5   1   9 7.39998 0.73429   2 
  -5   1   9 7.27206 0.90226   1 
  -5   1   9 6.85005 0.82117   2 
   4  -1  -9 0.74138 0.37628   2 
   4  -1  -9 1.18328 0.47577   2 
  -4   1   9 2.28476 0.39490   2 
  -4   1   9 0.79011 0.56054   1 
  -4   1   9 0.91183 0.45919   2 
  -3   1   9 103.274 2.24540   2 
  -3   1   9 106.034 2.76032   1 
  -2   1   9 2.33663 0.51365   1 
  -2   1   9 2.10105 0.24406   2 
  -1   1   9 17.8105 0.91141   1 
   0   1   9 0.46395 0.31724   1 
   1   1   9 16.8385 0.75951   1 
   2   1   9 27.1221 0.75279   2 
   2   1   9 27.9207 0.99512   2 
   2   1   9 26.7316 0.76403   1 
   2   1   9 27.2465 0.81440   1 
   3   1   9 6.70585 0.66438   2 
   3   1   9 7.20009 0.53403   2 
  -4  -1  -9 20.7213 0.94148   2 
   4   1   9 18.4363 0.88508   2 
   4   1   9 18.4323 1.43053   2 
  -5  -1  -9 -0.3252 0.52979   2 
  -5  -1  -9 -0.1683 0.59990   2 
   5   1   9 -1.2489 0.88472   2 
   5   1   9 -0.7093 0.48863   2 
   6  -2  -9 5.44357 0.94312   2 
   6  -2  -9 5.09197 0.78952   2 
  -6   2   9 3.24250 1.14553   2 
  -6   2   9 4.59418 0.71897   2 
  -6   2   9 4.02945 0.86611   1 
   5  -2  -9 4.71211 0.72487   2 
   5  -2  -9 4.69623 0.64274   2 
  -5   2   9 5.34395 0.81327   1 
  -5   2   9 4.25026 0.57259   2 
  -5   2   9 5.37876 0.59035   2 
   4  -2  -9 4.69766 0.54182   2 
   4  -2  -9 3.39041 0.50581   2 
  -4   2   9 4.89605 0.57084   2 
  -4   2   9 3.62997 0.63720   1 
  -4   2   9 3.59688 0.44414   2 
  -3   2   9 284.276 6.10881   1 
  -3   2   9 292.617 5.69595   2 
  -3   2   9 293.478 5.68590   2 
  -2   2   9 33.8345 0.87927   2 
  -2   2   9 33.6059 0.88406   2 
  -2   2   9 32.6991 1.23805   1 
  -1   2   9 28.7541 1.07423   1 
   0   2   9 2.58376 0.39313   1 
   1   2   9 3.89146 0.45366   1 
   2   2   9 57.1155 1.33057   1 
   2   2   9 58.3939 1.62638   2 
   3   2   9 11.0229 1.09050   2 
   3   2   9 9.34002 0.64931   2 
  -4  -2  -9 11.4796 0.92550   2 
  -4  -2  -9 11.3292 0.75718   2 
   4   2   9 11.4758 1.12957   2 
   4   2   9 11.0331 0.83541   2 
  -5  -2  -9 2.41318 0.63632   2 
  -5  -2  -9 2.29345 0.69738   2 
   5   2   9 4.73843 1.13271   2 
   5   2   9 0.62890 0.59824   2 
   6  -3  -9 10.6170 1.17119   2 
  -6   3   9 9.04267 1.12429   2 
   5  -3  -9 3.30494 0.66554   2 
   5  -3  -9 2.78505 0.64249   2 
  -5   3   9 3.15371 0.64811   1 
  -5   3   9 3.09135 0.53040   2 
  -5   3   9 3.49184 0.54284   2 
   4  -3  -9 2.51059 0.53128   2 
   4  -3  -9 1.79848 0.46953   2 
  -4   3   9 2.44176 0.41140   2 
  -4   3   9 2.26607 0.55162   1 
  -4   3   9 2.17144 0.41585   2 
  -3   3   9 8.18206 0.56676   2 
  -3   3   9 7.42307 0.55537   2 
  -3   3   9 7.05981 0.79885   1 
  -2   3   9 141.565 3.54571   1 
  -2   3   9 147.968 3.01733   2 
  -1   3   9 32.7543 1.09697   1 
  -1   3   9 30.5142 0.96663   2 
  -1   3   9 30.1198 0.92050   2 
   0   3   9 17.9515 0.78084   1 
   0   3   9 18.2188 0.79585   2 
   0   3   9 19.6582 0.75128   2 
   1   3   9 25.3952 1.05639   2 
   1   3   9 25.9498 0.83267   1 
   2   3   9 0.57882 0.22176   1 
   2   3   9 0.20330 0.30714   2 
   2   3   9 0.43866 0.49997   2 
  -3  -3  -9 2.12395 0.41650   2 
   3   3   9 1.71157 0.70965   2 
   3   3   9 2.14323 0.45717   2 
  -4  -3  -9 22.9985 1.13513   2 
  -4  -3  -9 23.0858 1.23495   2 
   4   3   9 25.1016 1.15256   2 
   4   3   9 24.3700 1.80368   2 
   5  -4  -9 3.08230 0.69924   2 
   5  -4  -9 3.80684 0.73285   2 
  -5   4   9 2.92507 0.54874   2 
  -5   4   9 2.88923 0.57931   2 
  -5   4   9 2.46109 0.64009   1 
   4  -4  -9 27.5475 1.23984   2 
   4  -4  -9 26.4856 1.22672   2 
  -4   4   9 29.8588 1.30319   1 
  -4   4   9 28.0448 1.11282   2 
  -4   4   9 29.8885 1.07579   2 
   3  -4  -9 74.8640 1.90214   2 
   3  -4  -9 74.3675 1.87051   2 
  -3   4   9 74.7695 2.04084   1 
  -3   4   9 74.9319 1.85188   2 
  -3   4   9 73.6183 1.88338   2 
  -2   4   9 14.2181 0.79933   1 
  -2   4   9 14.4938 0.79965   2 
  -2   4   9 13.4027 0.75429   2 
  -1   4   9 21.4534 0.90695   2 
  -1   4   9 22.0047 0.93034   2 
  -1   4   9 21.3250 0.88924   1 
   0   4   9 15.4429 0.83421   2 
   0   4   9 16.4941 0.76438   1 
   0   4   9 15.9735 0.91558   2 
   1   4   9 12.0396 1.01611   2 
   1   4   9 12.7350 0.84126   2 
   1   4   9 14.0475 0.66055   1 
   2   4   9 7.69688 0.54005   1 
   2   4   9 7.37791 0.81669   2 
   2   4   9 5.45999 0.77737   2 
  -3  -4  -9 1.77897 0.52262   2 
  -3  -4  -9 1.22216 0.58736   2 
   3   4   9 2.34060 0.80521   2 
   3   4   9 1.24802 0.50166   2 
  -4  -4  -9 16.7354 1.29732   2 
  -4  -4  -9 16.4689 1.38813   2 
   4   4   9 17.5800 1.23242   2 
   4   4   9 13.4382 1.35419   2 
   5  -5  -9 28.5038 1.58589   2 
   5  -5  -9 28.2102 1.65302   2 
  -5   5   9 25.6287 1.34606   1 
  -5   5   9 24.6130 1.24076   2 
  -5   5   9 28.4974 1.44580   2 
   4  -5  -9 2.47106 0.68338   2 
  -4   5   9 0.80222 0.43249   2 
  -4   5   9 1.98302 0.60180   2 
  -4   5   9 1.25914 0.49497   1 
   3  -5  -9 21.8991 1.48131   1 
   3  -5  -9 22.2949 1.20654   2 
   3  -5  -9 20.9577 1.02404   2 
  -3   5   9 22.3343 1.05230   1 
  -3   5   9 23.9255 1.05337   2 
  -3   5   9 21.9541 1.10826   2 
   2  -5  -9 3.94450 0.76973   1 
   2  -5  -9 3.23654 0.52229   2 
  -2   5   9 3.14015 0.49557   2 
  -2   5   9 3.50233 0.50774   1 
  -2   5   9 3.14556 0.53595   2 
   1  -5  -9 1.68308 0.67414   1 
  -1   5   9 1.97914 0.50777   2 
  -1   5   9 2.68027 0.49586   2 
  -1   5   9 2.23828 0.40911   1 
   0  -5  -9 21.7666 1.32031   1 
   0   5   9 21.2696 1.16475   2 
   0   5   9 20.4080 1.09913   2 
   0   5   9 22.0772 0.89940   1 
  -1  -5  -9 5.50471 0.57502   2 
  -1  -5  -9 6.11647 0.78298   1 
   1   5   9 5.19392 0.61434   1 
   1   5   9 5.11005 0.76218   2 
   1   5   9 5.64582 0.64787   2 
  -2  -5  -9 0.63771 0.48557   2 
   2   5   9 0.89726 0.34045   1 
   2   5   9 0.31398 0.53487   2 
   2   5   9 0.50087 0.74502   2 
  -3  -5  -9 11.1546 1.14260   2 
  -3  -5  -9 13.9114 1.41464   2 
   3   5   9 12.3457 1.14601   2 
   3   5   9 11.0169 0.66304   1 
   3   5   9 11.1254 1.29824   2 
   4  -6  -9 0.59716 0.68136   2 
   4  -6  -9 0.73468 0.96340   1 
   4  -6  -9 1.13012 0.84010   2 
  -4   6   9 0.96615 0.56172   2 
  -4   6   9 0.34278 0.57018   1 
  -4   6   9 0.31823 0.64462   2 
   3  -6  -9 1.44199 0.68965   2 
   3  -6  -9 -0.0141 0.84240   1 
   3  -6  -9 -0.4244 0.51801   2 
  -3   6   9 0.39621 0.54380   2 
  -3   6   9 0.22813 0.58581   2 
  -3   6   9 1.37834 0.48886   1 
   2  -6  -9 24.7870 0.99430   2 
   2  -6  -9 24.5824 1.30823   2 
   2  -6  -9 28.0652 1.62502   1 
  -2   6   9 24.7664 1.24289   2 
  -2   6   9 23.7108 1.29014   2 
  -2   6   9 24.6341 1.10070   1 
   1  -6  -9 1.05921 0.81043   1 
   1  -6  -9 0.66333 0.54589   2 
   1  -6  -9 -0.2238 0.35263   2 
  -1   6   9 0.19874 0.57656   2 
  -1   6   9 -0.0104 0.41941   1 
  -1   6   9 0.85157 0.56378   2 
   0  -6  -9 17.7448 1.11854   2 
   0  -6  -9 17.0326 0.80140   2 
   0  -6  -9 19.5774 1.42509   1 
   0   6   9 16.3451 1.25500   2 
   0   6   9 18.0877 0.95398   1 
   0   6   9 15.8486 1.29833   2 
  -1  -6  -9 45.5546 2.85121   1 
  -1  -6  -9 48.2670 1.39863   2 
  -1  -6  -9 49.7518 1.73933   2 
   1   6   9 51.9274 2.00446   2 
   1   6   9 45.4437 1.76568   2 
   1   6   9 47.3034 1.92835   1 
  -2  -6  -9 66.7838 2.22325   2 
  -2  -6  -9 71.2682 2.24672   1 
  -2  -6  -9 65.7615 1.90338   2 
   2   6   9 68.6749 2.14460   2 
   2   6   9 68.3020 1.77354   1 
   2   6   9 63.6138 2.57807   2 
   3  -7  -9 0.63582 0.87743   2 
   3  -7  -9 3.58866 0.98897   1 
   3  -7  -9 -0.7787 0.58829   2 
  -3   7   9 0.84002 0.67482   2 
  -3   7   9 1.50832 0.54619   1 
  -3   7   9 0.13964 0.81645   2 
   2  -7  -9 2.45227 0.55509   2 
   2  -7  -9 5.27464 1.14518   1 
   2  -7  -9 4.20168 0.83578   2 
  -2   7   9 2.81989 0.82193   2 
  -2   7   9 3.56534 0.78028   2 
  -2   7   9 2.13807 0.52313   1 
   1  -7  -9 6.10943 0.88851   2 
   1  -7  -9 5.62161 0.59568   2 
   1  -7  -9 5.89058 0.99218   1 
  -1   7   9 4.47364 0.84891   2 
  -1   7   9 5.84198 0.92264   2 
  -1   7   9 5.91152 0.74015   1 
   0  -7  -9 6.16370 0.85784   2 
   0  -7  -9 5.53494 0.60897   2 
   0  -7  -9 6.96651 1.08602   1 
   0   7   9 4.33793 0.67368   1 
   0   7   9 4.88379 0.90454   2 
   0   7   9 5.58646 1.00727   2 
   1   7   9 12.1032 1.02820   1 
   1   7 -10 14.6876 1.35918   1 
   1   7 -10 10.4183 1.23451   2 
   1   7 -10 10.7570 1.02048   2 
  -1  -7  10 12.4801 1.36402   2 
  -1  -7  10 10.5832 1.18247   2 
  -1  -7  10 16.3650 1.25319   1 
   0   7 -10 0.93021 0.55982   1 
   0   7 -10 1.34003 0.70102   2 
   0   7 -10 1.28540 0.65920   2 
   0  -7  10 1.72985 0.64466   1 
   0  -7  10 1.06299 0.84234   2 
   0  -7  10 1.46370 1.06627   2 
  -1   7 -10 5.68174 0.68638   2 
  -1   7 -10 5.33688 0.84663   2 
  -1   7 -10 5.26957 0.68894   1 
   1  -7  10 4.99424 0.85450   2 
   1  -7  10 5.33710 1.12902   2 
   1  -7  10 5.11379 0.73491   1 
  -2   7 -10 4.09515 0.63152   1 
  -2   7 -10 3.24030 0.63926   2 
  -2   7 -10 4.85372 0.82539   2 
   2  -7  10 3.51047 0.80821   2 
   2  -7  10 3.66044 1.11234   2 
   2  -7  10 3.67072 0.74577   1 
   2   6 -10 -0.0232 0.71081   2 
   2   6 -10 -0.2929 0.56733   2 
  -2  -6  10 0.62239 1.03353   2 
  -2  -6  10 0.09924 0.50765   1 
  -2  -6  10 -0.5887 0.93254   2 
   1   6 -10 1.94055 0.60896   2 
   1   6 -10 2.83393 0.61829   1 
   1   6 -10 2.02462 0.52203   2 
  -1  -6  10 2.63888 0.93894   2 
  -1  -6  10 2.78154 0.83616   2 
  -1  -6  10 2.86057 0.53460   1 
   0   6 -10 115.574 2.66095   2 
   0   6 -10 118.203 2.97312   1 
   0   6 -10 110.017 2.64601   2 
   0  -6  10 120.339 3.25212   2 
   0  -6  10 113.251 2.86656   1 
   0  -6  10 115.937 2.95321   2 
  -1   6 -10 58.2444 1.58065   2 
  -1   6 -10 56.8083 1.70475   2 
  -1   6 -10 58.0351 1.80883   1 
   1  -6  10 60.4667 1.81804   2 
   1  -6  10 57.8780 1.77413   1 
   1  -6  10 59.1378 2.19712   2 
  -2   6 -10 13.5487 0.82554   2 
  -2   6 -10 11.6255 0.90287   1 
  -2   6 -10 13.0635 1.08899   2 
   2  -6  10 11.2636 1.08600   2 
   2  -6  10 12.0408 1.01177   1 
   2  -6  10 11.9799 1.14888   2 
  -3   6 -10 2.38721 0.58213   1 
  -3   6 -10 3.00987 0.49875   2 
  -3   6 -10 2.53580 0.72383   2 
   3  -6  10 3.21881 0.55657   1 
   3  -6  10 2.99808 0.89988   2 
   3  -6  10 2.20986 0.67768   2 
   3   5 -10 4.24747 0.60896   2 
   3   5 -10 5.67962 0.84160   2 
  -3  -5  10 6.80076 1.16539   2 
  -3  -5  10 4.28207 0.58870   1 
  -3  -5  10 5.22777 1.05421   2 
   2   5 -10 12.5039 0.78997   2 
   2   5 -10 12.9627 1.06804   2 
  -2  -5  10 16.8159 1.55791   2 
  -2  -5  10 12.7030 0.90215   1 
  -2  -5  10 15.5993 1.46402   2 
   1   5 -10 0.55996 0.42613   2 
   1   5 -10 0.54814 0.35054   2 
  -1  -5  10 0.17194 0.37880   1 
  -1  -5  10 1.39981 0.70776   2 
  -1  -5  10 0.06251 0.63277   2 
   0   5 -10 92.3931 2.44442   1 
   0  -5  10 89.1478 2.29670   1 
   0  -5  10 92.2579 2.55755   2 
   0  -5  10 91.4769 2.36509   2 
  -1   5 -10 134.224 3.18166   1 
   1  -5  10 134.976 3.01756   2 
   1  -5  10 133.147 3.31733   2 
   1  -5  10 137.865 3.11595   1 
  -2   5 -10 7.99636 0.82865   2 
  -2   5 -10 8.33161 0.76808   1 
  -2   5 -10 8.52777 0.59875   2 
   2  -5  10 9.19702 0.77278   1 
   2  -5  10 6.38709 0.63157   2 
   2  -5  10 9.45808 1.11160   2 
  -3   5 -10 2.40967 0.49991   1 
  -3   5 -10 2.80612 0.39567   2 
  -3   5 -10 2.41123 0.62501   2 
   3  -5  10 3.19236 0.47986   1 
   3  -5  10 2.30438 0.55581   2 
   3  -5  10 2.83339 0.71435   2 
  -4   5 -10 10.0871 0.99621   1 
  -4   5 -10 8.69163 0.80212   2 
  -4   5 -10 9.67886 0.94743   2 
   4  -5  10 10.8291 1.32787   2 
   4  -5  10 7.23175 0.88220   2 
   4  -5  10 9.28360 0.89812   1 
   4   4 -10 35.1826 1.29024   2 
   4   4 -10 34.1549 1.86815   2 
  -4  -4  10 33.0786 1.35032   1 
  -4  -4  10 33.2460 2.05323   2 
  -4  -4  10 33.0739 2.03144   2 
   3   4 -10 1.30887 0.41060   2 
   3   4 -10 1.25698 0.60863   2 
  -3  -4  10 1.17451 0.82147   2 
  -3  -4  10 1.14240 0.44001   1 
  -3  -4  10 1.41037 0.78178   2 
   2   4 -10 0.45772 0.43213   2 
  -2  -4  10 0.83440 0.65738   2 
  -2  -4  10 1.43260 0.70060   2 
  -2  -4  10 0.99349 0.35480   1 
  -1  -4  10 3.07876 0.59740   2 
  -1  -4  10 2.62085 0.38056   1 
  -1  -4  10 4.49660 0.67850   2 
   0  -4  10 23.9129 1.18072   2 
   0  -4  10 25.6557 1.04412   2 
   0  -4  10 24.8380 0.95406   1 
   1  -4  10 190.921 4.99588   1 
   1  -4  10 233.135 4.42869   2 
   1  -4  10 227.044 4.65564   2 
  -2   4 -10 12.4391 0.78725   1 
   2  -4  10 11.9484 0.74141   2 
   2  -4  10 13.6792 0.75458   1 
   2  -4  10 13.4021 0.96503   2 
  -3   4 -10 6.95396 0.70830   1 
   3  -4  10 10.1394 0.96714   2 
   3  -4  10 7.81599 0.65977   1 
  -4   4 -10 13.4861 0.79000   2 
  -4   4 -10 14.2833 1.12260   2 
   4  -4  10 15.4065 1.31467   2 
   4  -4  10 14.9773 0.84183   1 
   4  -4  10 15.7596 1.18338   2 
  -5   4 -10 1.57103 0.81332   2 
   5  -4  10 0.65554 0.75741   2 
   5  -4  10 0.50992 0.41571   1 
   5  -4  10 0.36093 0.93636   2 
   4   3 -10 1.36510 0.45628   2 
   4   3 -10 1.81059 0.73370   2 
  -4  -3  10 1.36646 0.83187   2 
  -4  -3  10 1.68580 0.83331   2 
  -4  -3  10 1.21637 0.48603   1 
  -3  -3  10 7.32933 0.82073   2 
  -3  -3  10 5.74063 0.57359   1 
  -3  -3  10 7.17758 0.84273   2 
  -2  -3  10 10.1292 1.01149   2 
  -2  -3  10 9.40016 0.95346   2 
  -2  -3  10 8.89682 0.67204   1 
  -1  -3  10 7.83114 0.74934   2 
  -1  -3  10 7.19800 0.84434   2 
  -1  -3  10 6.09406 0.54514   1 
   0  -3  10 6.19026 0.61239   2 
   0  -3  10 6.52905 0.50634   1 
   0  -3  10 5.74522 0.61638   2 
   1  -3  10 119.957 2.74644   2 
   1  -3  10 125.200 2.55405   2 
   1  -3  10 123.475 2.71742   1 
   2  -3  10 247.980 4.94351   2 
   2  -3  10 249.716 5.11125   2 
   2  -3  10 253.021 5.05521   1 
   3  -3  10 4.83645 0.59619   2 
   3  -3  10 5.43092 0.56485   1 
   3  -3  10 6.36630 0.76928   2 
   4  -3  10 3.90106 0.42970   1 
   4  -3  10 4.65115 0.77838   2 
   4  -3  10 4.29497 0.58312   2 
  -5   3 -10 0.50757 0.50802   2 
  -5   3 -10 -1.3529 0.64723   2 
   5  -3  10 -0.2817 0.89229   2 
   5  -3  10 -0.4192 0.64470   2 
   5   2 -10 164.373 3.68854   2 
   5   2 -10 170.885 4.17048   2 
  -5  -2  10 169.079 4.21984   2 
  -5  -2  10 174.558 3.97766   1 
  -5  -2  10 173.696 4.57425   1 
  -5  -2  10 169.606 4.13006   2 
   4   2 -10 167.964 3.48856   2 
   4   2 -10 169.704 3.78125   2 
  -4  -2  10 164.125 3.78701   1 
  -4  -2  10 168.814 3.85258   2 
  -3  -2  10 4.31129 0.66270   2 
  -3  -2  10 4.51654 0.65219   2 
  -3  -2  10 4.62092 0.58075   1 
  -2  -2  10 48.5234 1.49374   2 
  -2  -2  10 48.6370 1.44027   1 
  -2  -2  10 48.4700 1.40268   2 
  -1  -2  10 0.09747 0.24689   1 
   0  -2  10 -0.0152 0.22198   1 
   1  -2  10 5.48972 0.44474   1 
   2  -2  10 51.6900 1.32298   2 
   2  -2  10 50.4434 1.31812   1 
   2  -2  10 54.3303 1.36379   2 
   3  -2  10 21.9219 0.75256   1 
   3  -2  10 22.0687 0.89190   2 
   3  -2  10 21.6615 1.08934   2 
   4  -2  10 2.96841 0.49292   2 
   4  -2  10 3.13454 0.33314   1 
  -5   2 -10 -0.3823 0.60345   2 
  -5   2 -10 0.21965 0.51827   2 
   5  -2  10 -1.1169 0.92154   2 
   5  -2  10 1.23484 0.59371   2 
   5   1 -10 0.31876 0.79067   2 
   5   1 -10 0.29632 0.52341   2 
  -5  -1  10 0.58592 0.69403   2 
  -5  -1  10 1.00022 0.80235   2 
  -5  -1  10 -0.8675 0.92455   1 
  -5  -1  10 0.94027 0.51316   1 
  -4  -1  10 73.0617 2.09897   2 
  -4  -1  10 73.2892 2.06916   1 
  -4  -1  10 72.8380 2.02780   2 
  -4  -1  10 72.4626 2.46713   1 
  -3  -1  10 8.20746 0.74809   2 
  -3  -1  10 9.30288 0.73070   1 
  -2  -1  10 0.17737 0.31510   2 
  -2  -1  10 -0.3826 0.26877   1 
  -1  -1  10 1.54107 0.29840   1 
   0  -1  10 34.1511 1.03935   1 
   1  -1  10 5.90118 0.46238   1 
   2  -1  10 85.0231 1.87879   1 
   3  -1  10 10.6392 0.78780   1 
   3  -1  10 12.5114 0.51691   1 
   3  -1  10 11.9188 0.95461   2 
   3  -1  10 11.1510 0.63599   2 
   4  -1  10 0.54945 0.71157   2 
   4  -1  10 -0.0175 0.38835   2 
  -5   1 -10 1.04200 0.56122   2 
   5  -1  10 1.60924 0.60229   2 
   5  -1  10 -0.4586 0.91358   2 
   5   0 -10 -0.4908 0.68436   2 
   5   0 -10 -0.0219 0.51440   2 
  -5   0  10 0.27073 0.54119   1 
  -5   0  10 1.17102 0.82761   1 
  -5   0  10 0.74749 0.60461   2 
  -5   0  10 -1.2195 0.64163   2 
  -4   0  10 49.2436 1.57261   2 
  -4   0  10 49.4603 1.47160   2 
  -4   0  10 50.4217 1.68400   1 
  -4   0  10 46.9291 1.96689   1 
  -3   0  10 47.1967 1.34467   2 
  -3   0  10 45.3813 1.79668   1 
  -3   0  10 46.3843 1.26415   2 
  -3   0  10 47.7124 1.55216   1 
  -2   0  10 31.3784 1.79935   1 
  -2   0  10 26.7277 1.51987   1 
  -1   0  10 7.88114 0.61812   1 
  -1   0  10 7.49096 0.86935   1 
   0   0  10 11.7208 0.88942   1 
   0   0  10 9.97763 0.59437   1 
   1   0  10 83.6183 2.14714   1 
   1   0  10 84.1876 1.92801   1 
   2   0  10 33.8342 0.92777   1 
   2   0  10 36.3951 1.14488   1 
   3   0  10 7.28795 0.69274   2 
   3   0  10 7.81640 0.54366   2 
   4   0  10 5.39680 0.66398   2 
   4   0  10 4.33058 0.80640   2 
  -5   0 -10 28.2386 1.27796   2 
   5   0  10 26.4475 1.23961   2 
   5   0  10 24.7035 1.96299   2 
   5  -1 -10 1.00636 0.67803   2 
   5  -1 -10 0.95148 0.54142   2 
  -5   1  10 1.04185 0.76513   1 
  -5   1  10 0.74349 0.55918   2 
  -5   1  10 1.37092 0.52109   2 
  -4   1  10 4.35973 0.76722   1 
  -4   1  10 3.50418 0.50903   2 
  -4   1  10 4.51686 0.47455   2 
  -3   1  10 41.2229 1.10183   2 
  -3   1  10 40.6028 1.11146   2 
  -3   1  10 40.4969 1.59342   1 
  -2   1  10 8.74816 1.04273   1 
  -1   1  10 13.2605 0.92515   1 
   0   1  10 15.1084 0.89152   1 
   1   1  10 -0.4744 0.23869   1 
   1   1  10 -0.1235 0.37083   1 
   2   1  10 25.4789 0.84964   1 
   2   1  10 24.9352 0.77116   1 
   3   1  10 33.8469 1.02782   2 
   3   1  10 37.1902 1.44870   2 
   4   1  10 8.18552 0.75101   2 
   4   1  10 12.0533 1.43801   2 
  -5  -1 -10 17.3150 1.24111   2 
  -5  -1 -10 18.3915 1.02648   2 
   5   1  10 18.2504 2.02104   2 
   5   1  10 15.4970 1.08745   2 
   5  -2 -10 8.04726 0.84538   2 
   5  -2 -10 8.83623 0.78091   2 
  -5   2  10 10.6070 0.92678   2 
  -5   2  10 9.29435 1.00224   1 
  -5   2  10 7.34701 0.89672   2 
  -4   2  10 66.1193 2.15407   1 
  -4   2  10 68.7772 1.72501   2 
  -4   2  10 68.4863 1.73239   2 
  -3   2  10 77.3090 1.77464   2 
  -3   2  10 77.1180 1.78155   2 
  -3   2  10 78.7030 2.24602   1 
  -2   2  10 71.3274 2.02372   1 
  -2   2  10 69.3297 1.54447   2 
  -1   2  10 11.9627 0.85440   1 
   0   2  10 30.8906 1.09392   1 
   1   2  10 5.20623 0.56396   1 
   2   2  10 1.43690 0.49068   2 
   2   2  10 3.15384 0.34450   2 
   2   2  10 2.86984 0.31537   1 
   2   2  10 2.45143 0.34834   1 
   3   2  10 25.5858 0.95589   2 
   3   2  10 26.3076 1.38468   2 
   4   2  10 6.07370 0.98765   2 
   4   2  10 8.45882 0.84129   2 
   5  -3 -10 2.01820 0.64506   2 
   5  -3 -10 1.67690 0.67053   2 
  -5   3  10 1.21081 0.68146   1 
  -5   3  10 2.80570 0.53804   2 
  -5   3  10 1.62155 0.52100   2 
  -4   3  10 45.4152 1.37654   2 
  -4   3  10 46.6488 1.39211   2 
  -4   3  10 45.5762 1.68848   1 
  -3   3  10 4.74603 0.65209   1 
  -3   3  10 4.49306 0.45601   2 
  -3   3  10 4.38631 0.43390   2 
  -2   3  10 19.9478 0.81144   2 
  -2   3  10 18.0620 0.99915   1 
  -2   3  10 20.5356 0.73177   2 
  -1   3  10 21.1646 0.82994   2 
  -1   3  10 21.7933 0.98063   1 
   0   3  10 14.0563 0.77199   1 
   1   3  10 0.01931 0.31266   2 
   1   3  10 0.12939 0.43254   2 
   1   3  10 0.13670 0.30234   1 
   2   3  10 12.6340 0.75808   2 
   2   3  10 13.9648 0.62312   1 
   2   3  10 13.7575 1.16377   2 
   3   3  10 4.46666 0.52481   2 
   3   3  10 3.09569 0.79582   2 
   4   3  10 22.3013 1.90264   2 
   4   3  10 22.9137 1.23159   2 
   5  -4 -10 3.73127 0.78196   2 
   5  -4 -10 3.57660 0.78076   2 
  -5   4  10 3.52911 0.73906   1 
  -5   4  10 3.84043 0.64327   2 
  -5   4  10 3.44781 0.63920   2 
  -4   4  10 3.03119 0.61727   1 
  -4   4  10 2.32361 0.52525   2 
  -4   4  10 2.05622 0.47709   2 
  -3   4  10 7.93584 0.68913   2 
  -3   4  10 7.38555 0.89691   1 
  -3   4  10 9.85112 0.84671   2 
  -2   4  10 0.49634 0.43261   1 
  -2   4  10 -0.0798 0.33578   2 
  -2   4  10 0.76437 0.41720   2 
  -1   4  10 43.3746 1.33852   2 
  -1   4  10 42.2976 1.28032   2 
  -1   4  10 43.6311 1.36359   1 
   0   4  10 64.7089 1.73730   2 
   0   4  10 64.9689 1.71225   1 
   0   4  10 68.1081 1.79982   2 
   1   4  10 94.1909 2.28910   2 
   1   4  10 96.6367 2.23265   1 
   1   4  10 99.3631 2.48135   2 
   2   4  10 0.68364 0.74820   2 
   2   4  10 1.25157 0.35685   1 
   2   4  10 1.01746 0.47216   2 
   3   4  10 0.34896 0.47968   2 
   3   4  10 0.66721 0.90952   2 
   4  -5 -10 1.09115 0.65702   2 
  -4   5  10 3.76512 0.69261   2 
  -4   5  10 1.88771 0.51105   2 
  -4   5  10 2.18528 0.62735   1 
  -3   5  10 5.12281 0.63086   1 
  -3   5  10 4.58471 0.55197   2 
  -3   5  10 5.32038 0.64735   2 
  -2   5  10 15.8462 0.93239   1 
  -2   5  10 13.8755 1.03385   2 
  -2   5  10 16.0610 0.94812   2 
  -1   5  10 3.31500 0.51891   1 
  -1   5  10 3.91975 0.59934   2 
  -1   5  10 4.56010 0.61270   2 
   0   5  10 13.6782 1.04846   2 
   0   5  10 13.5182 0.82306   1 
   0   5  10 15.4037 1.15110   2 
   1   5  10 9.14865 0.91389   2 
   1   5  10 9.59693 1.00086   2 
   1   5  10 9.06293 0.75647   1 
   2   5  10 0.53796 0.57601   2 
   2   5  10 0.37266 0.86161   2 
   2   5  10 0.91326 0.40485   1 
   3  -6 -10 8.18484 1.16245   1 
   3  -6 -10 8.72494 0.87587   2 
   3  -6 -10 10.4205 1.09014   2 
  -3   6  10 10.0581 1.04839   2 
  -3   6  10 11.3257 1.07794   1 
  -3   6  10 9.09930 0.93393   2 
   2  -6 -10 7.45802 1.13228   1 
  -2   6  10 8.76944 0.89193   1 
  -2   6  10 6.37781 0.81399   2 
  -2   6  10 9.24217 1.06974   2 
   1  -6 -10 11.1905 1.22414   1 
  -1   6  10 9.82491 1.18843   2 
  -1   6  10 10.1185 1.17335   2 
  -1   6  10 9.08895 0.88601   1 
   0  -6 -10 0.86687 0.89657   1 
   0   6  10 -0.2678 0.49010   1 
   0   6  10 0.50118 0.77280   2 
   0   6  10 -0.1097 0.64170   2 
  -1  -6 -10 1.25873 0.97696   1 
   1   6  10 3.19409 0.94636   2 
   1   6  10 2.60456 0.55854   1 
   1   6  10 3.56282 0.74417   2 
   1   6 -11 9.54896 0.87734   2 
   1   6 -11 10.5953 1.00679   2 
  -1  -6  11 9.70709 1.03110   2 
  -1  -6  11 11.6818 1.23670   2 
  -1  -6  11 11.2369 1.06726   1 
   0   6 -11 68.0123 2.19159   1 
   0  -6  11 69.6822 2.12072   1 
   0  -6  11 66.2447 2.47467   2 
   0  -6  11 70.2099 2.16974   2 
  -1   6 -11 12.5386 1.12310   1 
   1  -6  11 11.5150 1.20864   2 
   1  -6  11 11.5800 1.09349   1 
   1  -6  11 14.6306 1.64310   2 
  -2   6 -11 6.27909 0.77102   1 
   2  -6  11 4.18725 1.01504   2 
   2  -6  11 3.93453 0.71533   2 
   2  -6  11 4.63074 0.69806   1 
   2   5 -11 0.91072 0.55140   2 
  -2  -5  11 0.88308 0.88820   2 
  -2  -5  11 0.47790 0.49684   1 
  -2  -5  11 1.46713 0.87396   2 
  -1  -5  11 -0.5888 0.42253   1 
  -1  -5  11 2.03480 0.77368   2 
  -1  -5  11 -0.4286 0.69641   2 
   0  -5  11 18.4712 1.01904   1 
   0  -5  11 15.5318 1.38113   2 
   0  -5  11 17.1656 1.17246   2 
   1  -5  11 115.858 2.69853   2 
   1  -5  11 118.975 2.82138   1 
   1  -5  11 113.541 3.01671   2 
  -2   5 -11 1.28536 0.51672   1 
   2  -5  11 1.67269 0.54832   2 
   2  -5  11 2.46305 0.49304   1 
   2  -5  11 0.45128 0.75709   2 
  -3   5 -11 0.16256 0.49998   1 
   3  -5  11 0.19084 0.50623   1 
   3  -5  11 0.19627 0.59803   2 
   3  -5  11 -0.3130 0.70932   2 
  -3  -4  11 10.9061 0.90738   1 
  -3  -4  11 9.95693 1.08770   2 
  -3  -4  11 9.09693 1.11123   2 
  -2  -4  11 0.09504 0.38757   1 
  -2  -4  11 -0.6371 0.72781   2 
  -2  -4  11 1.16000 0.68685   2 
  -1  -4  11 -0.6779 0.59077   2 
  -1  -4  11 1.40439 0.62357   2 
  -1  -4  11 0.65259 0.35032   1 
   0  -4  11 1.26194 0.57116   2 
   0  -4  11 0.30124 0.45113   2 
   0  -4  11 0.60954 0.34198   1 
   1  -4  11 10.1568 0.74909   1 
   1  -4  11 10.6541 0.74015   2 
   1  -4  11 8.33819 1.01070   2 
   2  -4  11 0.63797 0.42904   2 
   2  -4  11 1.28774 0.43565   1 
   2  -4  11 1.06027 0.58484   2 
   3  -4  11 7.40225 0.76540   1 
   3  -4  11 7.18331 0.70283   2 
   3  -4  11 6.66681 0.73939   2 
   4  -4  11 1.85066 0.83340   2 
   4  -4  11 2.82594 0.52841   1 
   4  -4  11 2.01745 0.76362   2 
  -4  -3  11 8.65719 0.96681   1 
  -4  -3  11 8.76005 1.10485   2 
  -4  -3  11 5.21292 1.05031   2 
  -3  -3  11 4.90246 0.84171   2 
  -3  -3  11 5.52540 0.61570   1 
  -3  -3  11 4.03004 0.75640   2 
  -2  -3  11 1.18414 0.61685   2 
  -2  -3  11 0.10850 0.58650   2 
  -2  -3  11 0.45286 0.38473   1 
  -1  -3  11 27.1578 1.20976   2 
  -1  -3  11 25.9963 1.08757   2 
  -1  -3  11 25.3380 1.01743   1 
   0  -3  11 1.33523 0.32932   1 
   0  -3  11 1.99489 0.39612   2 
   1  -3  11 127.857 2.87008   2 
   1  -3  11 128.421 2.87188   1 
   2  -3  11 1.81027 0.38694   2 
   2  -3  11 2.87800 0.40209   1 
   2  -3  11 2.65735 0.49907   2 
   3  -3  11 1.20395 0.35744   1 
   3  -3  11 -0.0661 0.46261   2 
   3  -3  11 1.25796 0.56801   2 
   4  -3  11 4.75502 0.91642   2 
   4  -3  11 4.34820 0.47570   1 
   4  -3  11 4.38893 0.67056   2 
  -4  -2  11 41.1669 1.49983   1 
  -4  -2  11 39.3584 1.84051   2 
  -3  -2  11 6.40475 0.81344   2 
  -3  -2  11 7.58494 0.81198   2 
  -3  -2  11 8.25210 0.77527   1 
  -2  -2  11 5.13713 0.61624   2 
  -2  -2  11 5.10567 0.61735   2 
  -2  -2  11 5.81025 0.66690   1 
  -1  -2  11 1.81636 0.36099   1 
   0  -2  11 36.1576 1.16463   1 
   1  -2  11 22.1251 0.81733   1 
   2  -2  11 2.12021 0.35310   1 
   3  -2  11 34.5048 1.03343   1 
   3  -2  11 34.6630 1.38026   2 
   3  -2  11 35.1250 1.19251   2 
   4  -2  11 40.2211 1.41263   2 
   4  -2  11 38.5363 1.06061   1 
   5   1 -11 2.72051 0.62659   2 
  -5  -1  11 3.17950 0.65828   1 
  -5  -1  11 4.13473 0.88026   2 
  -5  -1  11 3.31543 0.82992   2 
  -5  -1  11 1.92793 1.07200   1 
  -4  -1  11 -0.0065 0.62739   2 
  -4  -1  11 0.90550 0.83712   1 
  -4  -1  11 0.64469 0.50991   1 
  -4  -1  11 -1.1185 0.62751   2 
  -3  -1  11 7.67889 0.65478   2 
  -3  -1  11 7.47890 0.85130   2 
  -3  -1  11 7.32995 0.91204   1 
  -3  -1  11 7.93430 0.74034   1 
  -2  -1  11 5.11043 0.58675   1 
  -1  -1  11 4.60371 0.56761   1 
   0  -1  11 0.00087 0.25743   1 
   1  -1  11 54.1984 1.40811   1 
   2  -1  11 8.75995 0.51592   1 
   2  -1  11 8.75965 0.91832   1 
   3  -1  11 12.8462 0.58831   1 
   3  -1  11 9.52040 0.68011   2 
   3  -1  11 10.6694 1.08716   2 
   3  -1  11 10.7821 0.91261   1 
   4  -1  11 16.0723 1.50087   2 
   4  -1  11 17.7391 0.95859   2 
  -5   0  11 24.7018 1.40091   1 
  -5   0  11 25.1136 1.88020   1 
  -5   0  11 27.0309 1.47420   2 
  -5   0  11 27.7661 1.40020   2 
  -4   0  11 78.7931 2.29902   1 
  -4   0  11 77.7521 2.63901   1 
  -4   0  11 81.3362 2.06640   2 
  -4   0  11 79.9214 2.09099   2 
  -3   0  11 80.3440 2.25673   1 
  -3   0  11 79.7638 1.93875   2 
  -3   0  11 84.3019 1.96563   2 
  -3   0  11 83.2885 2.60603   1 
  -2   0  11 2.61174 0.68061   1 
  -2   0  11 1.51358 0.39266   1 
   0   0  11 0.20072 0.28758   1 
   0   0  11 -0.6707 0.50558   1 
   1   0  11 0.31374 0.24933   1 
   1   0  11 0.23139 0.53887   1 
   2   0  11 11.3162 0.53862   1 
   2   0  11 11.6011 0.85034   1 
   3   0  11 0.09245 0.21926   1 
   3   0  11 0.26944 0.34840   1 
   3   0  11 -0.0911 0.28566   2 
   3   0  11 -0.0313 0.59953   2 
   4   0  11 37.1854 1.21708   2 
   4   0  11 34.5340 1.81062   2 
  -5   1  11 32.4825 1.35913   2 
  -5   1  11 36.8949 1.40400   2 
  -5   1  11 36.1351 1.89946   1 
  -4   1  11 1.20953 0.44923   2 
  -4   1  11 2.46174 0.49612   2 
  -4   1  11 1.68044 0.77380   1 
  -3   1  11 28.5769 0.93480   2 
  -3   1  11 28.0599 0.91991   2 
  -3   1  11 28.7261 1.45792   1 
  -2   1  11 2.90671 0.69074   1 
  -1   1  11 5.24193 1.15823   1 
   0   1  11 2.81660 0.56530   1 
   0   1  11 2.89255 0.45267   1 
   1   1  11 12.2737 0.67164   1 
   1   1  11 12.4329 0.86910   1 
   2   1  11 3.67740 0.43527   1 
   2   1  11 2.65767 0.32564   1 
   3   1  11 59.3573 1.89181   2 
   3   1  11 60.0985 1.49260   2 
   4   1  11 -0.5050 0.46239   2 
   4   1  11 0.75432 0.90039   2 
  -5   2  11 4.65284 0.64257   2 
  -5   2  11 4.86635 0.92817   1 
  -5   2  11 4.66837 0.60356   2 
  -4   2  11 -0.2917 0.38420   2 
  -4   2  11 1.18940 0.43831   2 
  -4   2  11 1.29554 0.68261   1 
  -3   2  11 -0.1890 0.32544   2 
  -3   2  11 0.97937 0.32409   2 
  -3   2  11 0.52303 0.59080   1 
  -2   2  11 33.1448 1.42182   1 
  -1   2  11 46.1596 1.60599   1 
   0   2  11 95.8231 2.36962   1 
   1   2  11 3.79348 0.46879   1 
   2   2  11 4.34818 0.53154   1 
   2   2  11 5.19116 0.60694   2 
   2   2  11 3.96034 0.42308   1 
   3   2  11 -0.0493 0.70053   2 
   3   2  11 0.45304 0.38641   2 
   4   2  11 2.27993 1.00493   2 
   4   2  11 0.46854 0.52268   2 
  -4   3  11 1.31611 0.44218   2 
  -4   3  11 1.15444 0.43565   2 
  -4   3  11 0.84195 0.62343   1 
  -3   3  11 22.1251 0.92304   2 
  -3   3  11 22.1042 1.28094   1 
  -3   3  11 20.6062 0.86509   2 
  -2   3  11 -0.2153 0.49917   1 
  -2   3  11 0.50682 0.37986   2 
  -1   3  11 7.98482 0.82159   1 
   0   3  11 3.10493 0.50959   1 
   1   3  11 14.8924 0.78444   1 
   2   3  11 10.1030 0.64181   1 
   2   3  11 11.5650 1.21906   2 
   2   3  11 11.5635 0.73381   2 
   3   3  11 1.71860 0.82435   2 
   3   3  11 0.41993 0.48879   2 
  -4   4  11 9.03751 0.88857   2 
  -4   4  11 9.70668 1.22179   1 
  -3   4  11 28.3832 1.07338   2 
  -3   4  11 29.7960 1.22879   2 
  -3   4  11 29.3566 1.37210   1 
  -2   4  11 2.46996 0.53581   2 
  -2   4  11 3.55709 0.45587   2 
  -2   4  11 2.72388 0.54515   1 
  -1   4  11 1.84939 0.47355   2 
  -1   4  11 1.89351 0.43985   2 
  -1   4  11 2.11806 0.46744   1 
   0   4  11 1.52848 0.48178   2 
   0   4  11 0.76807 0.49980   2 
   0   4  11 0.41375 0.39494   1 
   1   4  11 0.21609 0.37139   1 
   1   4  11 -0.6265 0.43482   2 
   1   4  11 0.28479 0.60380   2 
   2   4  11 28.2676 1.00308   1 
   2   4  11 28.8016 1.59646   2 
   2   4  11 26.7600 1.13739   2 
  -3   5  11 1.24819 0.62815   1 
  -3   5  11 1.80984 0.54493   2 
  -3   5  11 2.01927 0.67615   2 
  -2   5  11 2.17675 0.55096   1 
  -2   5  11 1.63393 0.53562   2 
  -2   5  11 2.01694 0.62175   2 
  -1   5  11 11.3875 1.02062   2 
  -1   5  11 9.94085 0.93145   1 
  -1   5  11 11.1973 1.06316   2 
   0   5  11 14.4588 1.13407   2 
   0   5  11 14.9287 1.22442   2 
   0   5  11 12.8359 0.89951   1 
   1   5  11 -0.0721 0.51031   1 
   1   5  11 -0.5628 0.73087   2 
   1   5  11 -0.4792 0.59210   2 
  -1   6  11 7.53342 0.89439   2 
  -1   6  11 7.41083 0.85520   2 
  -1   6  11 7.20167 0.79475   1 
  -1  -5  12 13.0096 1.42376   2 
  -1  -5  12 9.64123 1.03089   1 
  -1  -5  12 14.7714 1.64866   2 
   0  -5  12 79.5785 2.24597   1 
   0  -5  12 85.7050 2.24745   2 
   0  -5  12 77.3661 2.52058   2 
   1  -5  12 1.83115 0.53265   1 
   1  -5  12 1.00750 0.85851   2 
   1  -5  12 0.41027 0.52959   2 
   2  -5  12 3.00876 0.61412   2 
   2  -5  12 3.61930 0.57440   1 
   2  -5  12 0.36860 0.85399   2 
  -2  -4  12 1.50486 0.43578   1 
  -2  -4  12 2.88755 0.85310   2 
  -2  -4  12 1.60432 0.88907   2 
  -1  -4  12 11.9611 1.30307   2 
  -1  -4  12 10.8735 0.87397   1 
  -1  -4  12 10.4267 1.17411   2 
   0  -4  12 3.22623 0.58650   2 
   0  -4  12 1.47733 0.66277   2 
   0  -4  12 2.15748 0.47449   1 
   1  -4  12 0.54920 0.39678   1 
   1  -4  12 -1.2434 0.44905   2 
   1  -4  12 0.07344 0.67499   2 
   2  -4  12 41.6794 1.31315   2 
   2  -4  12 38.9021 1.62366   2 
   2  -4  12 42.1755 1.38964   1 
   3  -4  12 26.1269 1.18787   1 
   3  -4  12 26.7647 1.39373   2 
   3  -4  12 30.0186 1.53080   2 
  -3  -3  12 0.76451 0.86288   2 
  -3  -3  12 0.04303 0.47127   1 
  -3  -3  12 1.27805 0.82439   2 
  -2  -3  12 1.46334 0.65456   2 
  -2  -3  12 0.82536 0.66207   2 
  -2  -3  12 0.19379 0.40464   1 
  -1  -3  12 2.43756 0.50935   1 
   0  -3  12 39.1376 1.27625   1 
   1  -3  12 0.50675 0.34421   1 
   2  -3  12 0.42505 0.43247   1 
   3  -3  12 6.23970 0.71647   2 
   3  -3  12 7.18792 0.74388   1 
   3  -3  12 5.14387 0.74881   2 
  -4  -2  12 38.8823 2.29292   1 
  -4  -2  12 36.7173 1.79483   2 
  -4  -2  12 36.1978 1.57524   1 
  -4  -2  12 38.9752 1.94578   2 
  -3  -2  12 -0.1799 0.46104   1 
  -3  -2  12 -0.1020 0.72848   2 
  -2  -2  12 53.4195 1.62101   2 
  -2  -2  12 55.4039 1.67777   1 
  -1  -2  12 14.7380 0.87234   1 
   0  -2  12 -0.0520 0.28513   1 
   1  -2  12 1.22135 0.38277   1 
   2  -2  12 6.95251 0.62455   1 
   3  -2  12 45.1642 1.41822   2 
   3  -2  12 44.8065 1.27907   1 
   4  -2  12 15.5271 1.13402   2 
   4  -2  12 14.3563 0.71915   1 
   4  -2  12 12.0980 1.11162   1 
   4  -2  12 11.1037 1.18467   2 
  -4  -1  12 9.72357 0.92555   2 
  -4  -1  12 10.6197 1.05237   1 
  -4  -1  12 8.56448 1.26350   1 
  -4  -1  12 10.9739 0.96845   2 
  -3  -1  12 0.60774 0.53540   2 
  -3  -1  12 0.65951 0.45646   1 
  -3  -1  12 -1.1167 0.87659   1 
  -3  -1  12 -0.6530 0.60628   2 
  -2  -1  12 0.73313 0.76215   1 
  -2  -1  12 0.82325 0.42999   1 
  -1  -1  12 12.3602 1.29813   1 
  -1  -1  12 9.62716 0.76115   1 
   0  -1  12 8.74861 0.67951   1 
   1  -1  12 -0.6253 0.24409   1 
   1  -1  12 -0.3306 0.64535   1 
   2  -1  12 69.9857 1.70864   1 
   2  -1  12 71.3224 2.09772   1 
   3  -1  12 6.32115 0.56756   1 
   3  -1  12 3.84190 0.73488   2 
   3  -1  12 4.56420 0.64441   1 
   4  -1  12 -0.3815 0.52184   2 
   4  -1  12 -0.5328 0.93262   2 
  -4   0  12 2.53775 0.96498   1 
  -4   0  12 3.47073 0.67926   2 
  -3   0  12 4.31285 0.63763   1 
  -3   0  12 4.99992 0.56514   2 
  -3   0  12 3.31062 0.46806   2 
  -3   0  12 4.86366 0.93049   1 
  -2   0  12 11.6950 1.36567   1 
  -2   0  12 10.3770 0.88218   1 
  -1   0  12 71.2053 2.31677   1 
  -1   0  12 71.8068 1.97329   1 
   0   0  12 23.7670 1.54001   1 
   0   0  12 22.5861 2.16668   1 
   1   0  12 18.4969 0.81672   1 
   1   0  12 20.5513 1.20461   1 
   2   0  12 3.75849 0.38832   1 
   2   0  12 4.43302 0.63933   1 
   3   0  12 0.25513 0.69504   2 
   3   0  12 1.04116 0.29832   1 
   3   0  12 1.25454 0.43708   1 
   4   0  12 4.73861 0.59058   2 
   4   0  12 1.71132 0.98777   2 
  -4   1  12 15.0740 1.26038   1 
  -4   1  12 16.5658 1.01944   2 
  -4   1  12 16.3530 1.58549   1 
  -4   1  12 15.4240 0.91166   2 
  -3   1  12 0.33350 0.72843   1 
  -3   1  12 0.81967 0.35584   2 
  -2   1  12 1.18377 0.74206   1 
  -1   1  12 -0.0866 0.59100   1 
  -1   1  12 0.07836 0.38836   1 
   0   1  12 30.9904 1.62961   1 
   0   1  12 30.4919 1.34605   1 
   1   1  12 21.0107 0.89618   1 
   1   1  12 22.6470 1.12024   1 
   2   1  12 -0.2926 0.42133   1 
   2   1  12 -0.0832 0.28349   1 
   3   1  12 5.07709 0.77239   2 
  -4   2  12 23.5239 1.04851   2 
  -4   2  12 24.5840 1.06151   2 
  -4   2  12 25.8271 1.68776   1 
  -3   2  12 0.44210 0.37092   2 
  -3   2  12 -0.4860 0.70662   1 
  -2   2  12 9.16885 1.13658   1 
  -1   2  12 12.1911 1.08866   1 
   0   2  12 0.15771 0.70204   1 
   1   2  12 40.8995 1.34234   1 
   1   2  12 42.0337 1.36998   1 
   2   2  12 0.18552 0.38103   1 
   2   2  12 0.11833 0.34306   1 
   3   2  12 19.6961 0.93781   2 
   3   2  12 19.0068 1.51789   2 
  -4   3  12 8.63610 0.95672   2 
  -4   3  12 6.68717 0.94277   1 
  -3   3  12 1.57194 0.69242   1 
  -3   3  12 2.77252 0.52726   2 
  -3   3  12 1.86791 0.44645   2 
  -2   3  12 9.27342 1.05145   1 
  -1   3  12 39.7862 1.48025   1 
   0   3  12 6.17653 0.64946   1 
   1   3  12 2.20404 0.49470   1 
   2   3  12 0.82618 0.45427   1 
   2   3  12 1.62469 0.43400   1 
   2   3  12 1.34641 0.71842   2 
   2   3  12 1.65691 0.43990   2 
  -3   4  12 0.58161 0.60084   2 
  -3   4  12 -0.1623 0.67621   1 
  -3   4  12 0.96255 0.44658   2 
  -2   4  12 10.1448 1.06824   1 
  -2   4  12 12.2027 0.79598   2 
  -2   4  12 9.19629 0.98104   2 
  -1   4  12 2.46092 0.46353   2 
  -1   4  12 3.90846 0.60917   1 
   0   4  12 0.26919 0.52229   2 
   0   4  12 0.45959 0.46931   1 
   1   4  12 0.56243 0.66495   2 
  -1   5  12 1.81053 0.62361   1 
  -1   5  12 2.73744 0.70761   2 
  -1   5  12 2.02302 0.60986   2 
   0   5  12 3.75933 0.73641   2 
   0   5  12 2.21169 0.71646   2 
   0   5  12 2.51060 0.58508   1 
  -1  -4  13 0.42496 0.49561   1 
  -1  -4  13 2.99214 0.72697   2 
   0  -4  13 -0.7880 0.41987   1 
   0  -4  13 0.41640 0.54121   2 
   1  -4  13 9.88501 0.92330   1 
   2  -4  13 21.4606 1.15359   1 
   2  -4  13 17.6942 1.11985   2 
  -2  -3  13 5.83777 0.70502   1 
  -2  -3  13 10.9709 1.34999   2 
  -2  -3  13 8.24640 0.91202   2 
  -1  -3  13 3.84043 0.56275   1 
   0  -3  13 2.89502 0.47959   1 
   1  -3  13 35.3098 1.25636   1 
   2  -3  13 4.53875 0.54083   1 
  -3  -2  13 -0.1165 0.49951   1 
  -3  -2  13 -0.8882 0.83403   2 
  -2  -2  13 38.5965 1.45345   1 
  -1  -2  13 38.0541 1.37208   1 
   0  -2  13 23.5395 1.02844   1 
   1  -2  13 10.8585 0.73561   1 
   2  -2  13 -0.2297 0.46557   1 
   3  -2  13 19.2206 0.94553   1 
   3  -2  13 16.9661 1.55572   1 
  -3  -1  13 0.21773 0.52076   1 
  -3  -1  13 0.77955 1.04079   1 
  -2  -1  13 -0.7593 0.42387   1 
  -2  -1  13 0.00089 0.92726   1 
  -1  -1  13 19.9317 1.66693   1 
  -1  -1  13 19.8176 0.99913   1 
   0  -1  13 15.4935 0.85821   1 
   0  -1  13 16.0985 1.54687   1 
   1  -1  13 0.42340 0.76876   1 
   1  -1  13 -0.1213 0.32725   1 
   2  -1  13 13.1487 1.37764   1 
   2  -1  13 12.2545 0.74972   1 
   3  -1  13 1.03934 0.40487   1 
   3  -1  13 -0.2267 0.66147   1 
  -3   0  13 7.73917 0.85353   1 
  -3   0  13 7.49444 1.14753   1 
  -2   0  13 17.4002 1.09174   1 
  -2   0  13 19.4633 1.67097   1 
  -1   0  13 1.07483 0.77982   1 
  -1   0  13 1.30072 0.45882   1 
   0   0  13 20.9455 0.99052   1 
   0   0  13 22.8313 1.49152   1 
   1   0  13 0.27659 0.86140   1 
   1   0  13 0.12182 0.39442   1 
   2   0  13 33.1302 1.07584   1 
   2   0  13 33.9068 1.42077   1 
   3   0  13 9.61106 0.86628   1 
   3   0  13 6.89887 0.65500   1 
  -3   1  13 2.78402 0.89723   1 
  -3   1  13 2.94704 0.73804   1 
  -2   1  13 36.1721 1.52927   1 
  -2   1  13 33.3087 1.78420   1 
  -1   1  13 10.3723 0.95847   1 
  -1   1  13 11.6203 1.31959   1 
   0   1  13 -0.4546 0.66367   1 
   0   1  13 -0.0181 0.42638   1 
   1   1  13 0.51278 0.38956   1 
   1   1  13 0.97744 0.64591   1 
   2   1  13 0.94329 0.53281   1 
   2   1  13 0.47271 0.34553   1 
  -3   2  13 3.15774 0.93315   1 
  -2   2  13 0.81044 0.76284   1 
  -1   2  13 -1.2955 0.60460   1 
   0   2  13 0.49591 0.60918   1 
   0   2  13 -0.4671 0.46351   1 
   1   2  13 3.53766 0.67409   1 
   1   2  13 4.80192 0.85189   1 
   2   2  13 1.27682 0.48917   1 
   2   2  13 1.21917 0.40613   1 
  -2   3  13 5.88176 0.81623   1 
  -1   3  13 2.83243 0.64636   1 
   0   3  13 20.7541 1.22124   1 
   1   3  13 1.49854 0.57968   1 
  -1  -2  14 2.53004 0.55387   1 
   0  -2  14 2.90906 0.53257   1 
   1  -2  14 17.1543 0.98541   1 
  -2  -1  14 5.40538 0.71098   1 
  -2  -1  14 4.41367 1.23179   1 
  -1  -1  14 1.14710 0.51050   1 
  -1  -1  14 1.66184 1.09278   1 
   0  -1  14 2.48343 0.51595   1 
   0  -1  14 1.48226 0.97998   1 
   1  -1  14 -0.8268 0.98652   1 
   1  -1  14 -0.4185 0.40967   1 
  -2   0  14 0.60998 0.56980   1 
  -2   0  14 -0.2453 0.97443   1 
  -1   0  14 0.17216 0.52347   1 
  -1   0  14 -0.0797 0.93625   1 
   0   0  14 6.25894 0.66048   1 
   0   0  14 5.78639 1.02939   1 
   1   0  14 0.17806 0.43104   1 
   1   0  14 -0.2571 0.80270   1 
  -2   1  14 15.7003 1.24930   1 
  -2   1  14 16.1817 1.70575   1 
  -1   1  14 6.86114 1.00070   1 
  -1   1  14 7.68904 0.80680   1 
   0   1  14 0.94688 0.81820   1 
   0   1  14 1.02242 0.49348   1 
   1   1  14 5.42184 0.84684   1 
   1   1  14 6.87360 0.64752   1 
  -1   2  14 -0.6675 0.75084   1 
  -1   2  14 1.46156 0.66505   1 
   0   2  14 -0.4448 0.69816   1 
   0   2  14 0.45102 0.58651   1 
   0   0   0    0.00    0.00   0 
  
 _exptl_absorpt_process_details 'SADABS 2014/5' 
 _exptl_absorpt_correction_type   numerical 
 _exptl_absorpt_correction_T_max  0.9952 
 _exptl_absorpt_correction_T_min  0.9250 
 _exptl_special_details 
) 
 The following wavelength and cell were deduced by SADABS from the 
 direction cosines etc. They are given here for emergency use only: 
 CELL 0.71102    6.489    8.222   12.059   92.461   91.482   99.282 
) 
  
;
_shelx_hkl_checksum              92234
loop_
_space_group_symop_operation_xyz
'x, y, z'
'-x, -y, -z'
loop_
_atom_site_label
_atom_site_type_symbol
_atom_site_fract_x
_atom_site_fract_y
_atom_site_fract_z
_atom_site_U_iso_or_equiv
_atom_site_adp_type
_atom_site_occupancy
_atom_site_site_symmetry_order
_atom_site_calc_flag
_atom_site_refinement_flags_posn
_atom_site_refinement_flags_adp
O1 O 0.38060(15) 0.19461(12) 0.17540(8) 0.0215(2) Uani 1 1 d . .
O2 O 0.63932(15) 0.04249(12) 0.17935(8) 0.0230(2) Uani 1 1 d . .
O3 O 0.86324(15) 0.05350(12) 0.36576(9) 0.0214(2) Uani 1 1 d . .
O4 O 0.74852(17) 0.31390(14) 0.87053(9) 0.0303(3) Uani 1 1 d . .
O5 O 0.85312(16) 0.14980(13) 0.74808(9) 0.0293(3) Uani 1 1 d . .
O6 O 0.16207(16) 0.56091(13) 0.81982(9) 0.0281(3) Uani 1 1 d . .
O7 O -0.02143(15) 0.53126(12) 0.66519(8) 0.0227(2) Uani 1 1 d . .
N1 N 0.73948(17) 0.24823(14) 0.77715(10) 0.0193(3) Uani 1 1 d . .
N2 N 0.12918(17) 0.50785(13) 0.72365(10) 0.0186(3) Uani 1 1 d . .
C1 C 0.5286(2) 0.12984(16) 0.22623(12) 0.0181(3) Uani 1 1 d . .
C2 C 0.5460(2) 0.17162(15) 0.34711(11) 0.0166(3) Uani 1 1 d . .
C3 C 0.7150(2) 0.12928(15) 0.41241(11) 0.0163(3) Uani 1 1 d . .
C4 C 0.7319(2) 0.16429(15) 0.52525(11) 0.0162(3) Uani 1 1 d . .
H4 H 0.8458 0.1351 0.5667 0.019 Uiso 1 1 calc R U
C5 C 0.5826(2) 0.24282(15) 0.58034(11) 0.0154(3) Uani 1 1 d . .
C6 C 0.5824(2) 0.28863(16) 0.69649(11) 0.0168(3) Uani 1 1 d . .
C7 C 0.4379(2) 0.37284(16) 0.74228(12) 0.0176(3) Uani 1 1 d . .
H7 H 0.4460 0.4041 0.8192 0.021 Uiso 1 1 calc R U
C8 C 0.2778(2) 0.41219(15) 0.67373(11) 0.0166(3) Uani 1 1 d . .
C9 C 0.2608(2) 0.36878(15) 0.56319(11) 0.0162(3) Uani 1 1 d . .
H9 H 0.1479 0.3944 0.5191 0.019 Uiso 1 1 calc R U
C10 C 0.4123(2) 0.28554(15) 0.51470(11) 0.0154(3) Uani 1 1 d . .
C11 C 0.3984(2) 0.24719(15) 0.39946(11) 0.0163(3) Uani 1 1 d . .
H11 H 0.2844 0.2742 0.3569 0.020 Uiso 1 1 calc R U
C12 C 0.3448(2) 0.15205(19) 0.05637(11) 0.0248(3) Uani 1 1 d . .
H12A H 0.3123 0.0308 0.0432 0.030 Uiso 1 1 calc R U
H12B H 0.4710 0.1940 0.0151 0.030 Uiso 1 1 calc R U
C13 C 0.1640(3) 0.2309(2) 0.01874(13) 0.0332(4) Uani 1 1 d . .
H13A H 0.1313 0.2013 -0.0601 0.050 Uiso 1 1 calc R U
H13B H 0.2005 0.3511 0.0293 0.050 Uiso 1 1 calc R U
H13C H 0.0419 0.1919 0.0624 0.050 Uiso 1 1 calc R U
H3 H 0.821(3) 0.036(2) 0.2930(19) 0.050(6) Uiso 1 1 d . .
loop_
_atom_site_aniso_label
_atom_site_aniso_U_11
_atom_site_aniso_U_22
_atom_site_aniso_U_33
_atom_site_aniso_U_23
_atom_site_aniso_U_13
_atom_site_aniso_U_12
O1 0.0249(5) 0.0269(5) 0.0149(5) -0.0012(4) -0.0012(4) 0.0120(4)
O2 0.0267(5) 0.0252(5) 0.0193(6) -0.0028(4) 0.0012(4) 0.0115(4)
O3 0.0197(5) 0.0270(5) 0.0197(6) -0.0009(4) 0.0017(4) 0.0114(4)
O4 0.0319(6) 0.0429(6) 0.0181(6) -0.0063(5) -0.0060(4) 0.0151(5)
O5 0.0317(6) 0.0382(6) 0.0232(6) -0.0008(4) -0.0030(4) 0.0223(5)
O6 0.0280(6) 0.0371(6) 0.0204(6) -0.0076(4) 0.0019(4) 0.0110(5)
O7 0.0189(5) 0.0261(5) 0.0252(6) 0.0030(4) 0.0005(4) 0.0098(4)
N1 0.0180(6) 0.0233(6) 0.0164(6) 0.0024(5) -0.0001(5) 0.0029(5)
N2 0.0179(6) 0.0189(6) 0.0194(7) 0.0013(5) 0.0032(5) 0.0036(5)
C1 0.0183(7) 0.0165(7) 0.0197(8) 0.0015(5) 0.0004(5) 0.0033(5)
C2 0.0176(7) 0.0138(6) 0.0182(7) 0.0013(5) 0.0009(5) 0.0020(5)
C3 0.0147(7) 0.0130(6) 0.0216(8) 0.0012(5) 0.0026(5) 0.0026(5)
C4 0.0138(6) 0.0165(6) 0.0186(7) 0.0028(5) -0.0008(5) 0.0028(5)
C5 0.0148(6) 0.0125(6) 0.0183(7) 0.0022(5) 0.0004(5) 0.0000(5)
C6 0.0147(7) 0.0173(6) 0.0180(7) 0.0031(5) -0.0012(5) 0.0013(5)
C7 0.0189(7) 0.0175(7) 0.0159(7) 0.0007(5) 0.0012(5) 0.0008(5)
C8 0.0151(7) 0.0145(6) 0.0205(7) 0.0008(5) 0.0040(5) 0.0025(5)
C9 0.0146(6) 0.0144(6) 0.0195(7) 0.0029(5) -0.0001(5) 0.0020(5)
C10 0.0147(6) 0.0130(6) 0.0183(7) 0.0019(5) 0.0008(5) 0.0010(5)
C11 0.0162(7) 0.0143(6) 0.0187(7) 0.0024(5) -0.0010(5) 0.0028(5)
C12 0.0310(8) 0.0337(8) 0.0123(7) -0.0024(6) -0.0010(6) 0.0141(6)
C13 0.0374(9) 0.0469(10) 0.0198(8) -0.0026(7) -0.0043(7) 0.0224(8)
loop_
_atom_type_symbol
_atom_type_description
_atom_type_scat_dispersion_real
_atom_type_scat_dispersion_imag
_atom_type_scat_source
C C 0.0033 0.0016 'International Tables Vol C Tables 4.2.6.8 and 6.1.1.4'
H H 0.0000 0.0000 'International Tables Vol C Tables 4.2.6.8 and 6.1.1.4'
N N 0.0061 0.0033 'International Tables Vol C Tables 4.2.6.8 and 6.1.1.4'
O O 0.0106 0.0060 'International Tables Vol C Tables 4.2.6.8 and 6.1.1.4'
loop_
_geom_angle_atom_site_label_1
_geom_angle_atom_site_label_2
_geom_angle_atom_site_label_3
_geom_angle
C1 O1 C12 116.59(10)
C3 O3 H3 104.4(13)
O4 N1 O5 123.07(11)
O4 N1 C6 118.17(11)
O5 N1 C6 118.76(11)
O6 N2 O7 123.96(11)
O6 N2 C8 118.40(11)
O7 N2 C8 117.64(11)
O2 C1 O1 124.06(13)
O2 C1 C2 122.98(12)
O1 C1 C2 112.96(11)
C11 C2 C3 118.62(13)
C11 C2 C1 121.15(12)
C3 C2 C1 120.21(12)
O3 C3 C4 117.65(12)
O3 C3 C2 121.25(12)
C4 C3 C2 121.10(12)
C3 C4 C5 121.09(12)
C3 C4 H4 119.5
C5 C4 H4 119.5
C4 C5 C6 127.00(12)
C4 C5 C10 117.90(12)
C6 C5 C10 115.09(11)
C7 C6 C5 123.27(12)
C7 C6 N1 114.12(12)
C5 C6 N1 122.62(11)
C6 C7 C8 118.73(13)
C6 C7 H7 120.6
C8 C7 H7 120.6
C9 C8 C7 122.21(12)
C9 C8 N2 119.95(12)
C7 C8 N2 117.81(12)
C8 C9 C10 119.43(12)
C8 C9 H9 120.3
C10 C9 H9 120.3
C11 C10 C9 119.07(12)
C11 C10 C5 119.71(12)
C9 C10 C5 121.20(12)
C2 C11 C10 121.56(12)
C2 C11 H11 119.2
C10 C11 H11 119.2
O1 C12 C13 106.99(11)
O1 C12 H12A 110.3
C13 C12 H12A 110.3
O1 C12 H12B 110.3
C13 C12 H12B 110.3
H12A C12 H12B 108.6
C12 C13 H13A 109.5
C12 C13 H13B 109.5
H13A C13 H13B 109.5
C12 C13 H13C 109.5
H13A C13 H13C 109.5
H13B C13 H13C 109.5
loop_
_geom_bond_atom_site_label_1
_geom_bond_atom_site_label_2
_geom_bond_distance
O1 C1 1.3205(16)
O1 C12 1.4663(17)
O2 C1 1.2260(16)
O3 C3 1.3490(15)
O3 H3 0.91(2)
O4 N1 1.2235(15)
O5 N1 1.2257(15)
O6 N2 1.2225(15)
O7 N2 1.2351(15)
N1 C6 1.4765(17)
N2 C8 1.4639(16)
C1 C2 1.480(2)
C2 C11 1.3748(18)
C2 C3 1.4300(18)
C3 C4 1.377(2)
C4 C5 1.4114(18)
C4 H4 0.9500
C5 C6 1.4348(19)
C5 C10 1.4407(18)
C6 C7 1.3662(19)
C7 C8 1.3979(19)
C7 H7 0.9500
C8 C9 1.3620(19)
C9 C10 1.4096(18)
C9 H9 0.9500
C10 C11 1.4090(19)
C11 H11 0.9500
C12 C13 1.498(2)
C12 H12A 0.9900
C12 H12B 0.9900
C13 H13A 0.9800
C13 H13B 0.9800
C13 H13C 0.9800
loop_
_geom_hbond_atom_site_label_D
_geom_hbond_atom_site_label_H
_geom_hbond_atom_site_label_A
_geom_hbond_distance_DH
_geom_hbond_distance_HA
_geom_hbond_distance_DA
_geom_hbond_angle_DHA
O3 H3 O2 0.91(2) 1.79(2) 2.6351(14) 152.6(19)
loop_
_geom_torsion_atom_site_label_1
_geom_torsion_atom_site_label_2
_geom_torsion_atom_site_label_3
_geom_torsion_atom_site_label_4
_geom_torsion
C12 O1 C1 O2 2.41(19)
C12 O1 C1 C2 -176.78(11)
O2 C1 C2 C11 -169.44(12)
O1 C1 C2 C11 9.76(18)
O2 C1 C2 C3 8.7(2)
O1 C1 C2 C3 -172.07(11)
C11 C2 C3 O3 179.34(11)
C1 C2 C3 O3 1.12(19)
C11 C2 C3 C4 -0.57(19)
C1 C2 C3 C4 -178.78(12)
O3 C3 C4 C5 -179.76(11)
C2 C3 C4 C5 0.15(19)
C3 C4 C5 C6 -179.01(12)
C3 C4 C5 C10 -0.12(18)
C4 C5 C6 C7 176.22(12)
C10 C5 C6 C7 -2.70(19)
C4 C5 C6 N1 -3.9(2)
C10 C5 C6 N1 177.23(11)
O4 N1 C6 C7 -11.53(17)
O5 N1 C6 C7 167.82(12)
O4 N1 C6 C5 168.54(12)
O5 N1 C6 C5 -12.11(18)
C5 C6 C7 C8 2.1(2)
N1 C6 C7 C8 -177.82(11)
C6 C7 C8 C9 0.3(2)
C6 C7 C8 N2 -177.74(11)
O6 N2 C8 C9 -171.83(12)
O7 N2 C8 C9 7.51(18)
O6 N2 C8 C7 6.24(18)
O7 N2 C8 C7 -174.42(11)
C7 C8 C9 C10 -1.9(2)
N2 C8 C9 C10 176.11(11)
C8 C9 C10 C11 -177.38(12)
C8 C9 C10 C5 1.15(19)
C4 C5 C10 C11 0.52(18)
C6 C5 C10 C11 179.54(11)
C4 C5 C10 C9 -178.00(12)
C6 C5 C10 C9 1.02(17)
C3 C2 C11 C10 0.98(19)
C1 C2 C11 C10 179.18(11)
C9 C10 C11 C2 177.57(12)
C5 C10 C11 C2 -0.98(19)
C1 O1 C12 C13 176.85(12)
