#------------------------------------------------------------------------------
#$Date: 2016-03-04 10:38:35 +0200 (Fri, 04 Mar 2016) $
#$Revision: 177352 $
#$URL: svn://www.crystallography.net/cod/cif/1/54/27/1542702.cif $
#------------------------------------------------------------------------------
#
# This file is available in the Crystallography Open Database (COD),
# http://www.crystallography.net/
#
# All data on this site have been placed in the public domain by the
# contributors.
#
data_1542702
loop_
_publ_author_name
'Pieber, Bartholom\"aus'
'Kappe, C. Oliver'
_publ_section_title
;
 Generation and Synthetic Application of Trifluoromethyl Diazomethane
 Utilizing Continuous Flow Technologies.
;
_journal_issue                   5
_journal_name_full               'Organic letters'
_journal_page_first              1076
_journal_paper_doi               10.1021/acs.orglett.6b00194
_journal_volume                  18
_journal_year                    2016
_chemical_formula_moiety         'C10 H6 F3 N3 O'
_chemical_formula_sum            'C10 H6 F3 N3 O'
_chemical_formula_weight         241.18
_space_group_crystal_system      triclinic
_space_group_IT_number           2
_space_group_name_Hall           '-P 1'
_space_group_name_H-M_alt        'P -1'
_symmetry_space_group_name_Hall  '-P 1'
_symmetry_space_group_name_H-M   'P -1'
_atom_sites_solution_hydrogens   mixed
_audit_creation_method           SHELXL-2014/7
_audit_update_record
;
2015-12-19 # Formatted by publCIF

;
_cell_angle_alpha                99.340(2)
_cell_angle_beta                 92.3230(10)
_cell_angle_gamma                91.732(2)
_cell_formula_units_Z            2
_cell_length_a                   7.0244(3)
_cell_length_b                   7.2782(3)
_cell_length_c                   10.3940(4)
_cell_measurement_reflns_used    9985
_cell_measurement_temperature    100(2)
_cell_measurement_theta_max      33.24
_cell_measurement_theta_min      2.84
_cell_volume                     523.55(4)
_computing_cell_refinement       'SAINT V8.34A (Bruker AXS Inc., 2013)'
_computing_data_collection       'Bruker APEX2'
_computing_data_reduction        'SAINT V8.34A (Bruker AXS Inc., 2013)'
_computing_molecular_graphics    'Bruker SHELXTL'
_computing_publication_material  'Bruker SHELXTL'
_computing_structure_refinement  'SHELXL-2014/6 (Sheldrick 2014)'
_computing_structure_solution    'SHELXS-97 (Sheldrick 2008)'
_diffrn_ambient_temperature      100(2)
_diffrn_measured_fraction_theta_full 0.998
_diffrn_measured_fraction_theta_max 0.991
_diffrn_measurement_device_type  'Bruker APEX-II CCD'
_diffrn_measurement_method       '\f and \w scans'
_diffrn_radiation_monochromator  'multilayer monochromator'
_diffrn_radiation_source         'Incoatec microfocus sealed tube'
_diffrn_radiation_type           MoK\a
_diffrn_radiation_wavelength     0.71073
_diffrn_reflns_av_R_equivalents  0.0403
_diffrn_reflns_av_unetI/netI     0.0240
_diffrn_reflns_laue_measured_fraction_full 0.998
_diffrn_reflns_laue_measured_fraction_max 0.991
_diffrn_reflns_limit_h_max       10
_diffrn_reflns_limit_h_min       -10
_diffrn_reflns_limit_k_max       11
_diffrn_reflns_limit_k_min       -11
_diffrn_reflns_limit_l_max       16
_diffrn_reflns_limit_l_min       -15
_diffrn_reflns_number            24321
_diffrn_reflns_point_group_measured_fraction_full 0.998
_diffrn_reflns_point_group_measured_fraction_max 0.991
_diffrn_reflns_theta_full        25.242
_diffrn_reflns_theta_max         33.243
_diffrn_reflns_theta_min         2.838
_exptl_absorpt_coefficient_mu    0.139
_exptl_absorpt_correction_T_max  0.741
_exptl_absorpt_correction_T_min  0.652
_exptl_absorpt_correction_type   multi-scan
_exptl_absorpt_process_details   SADABS
_exptl_crystal_colour            yellow
_exptl_crystal_density_diffrn    1.530
_exptl_crystal_description       block
_exptl_crystal_F_000             244
_exptl_crystal_size_max          0.080
_exptl_crystal_size_mid          0.080
_exptl_crystal_size_min          0.070
_refine_diff_density_max         0.574
_refine_diff_density_min         -0.292
_refine_diff_density_rms         0.059
_refine_ls_extinction_method     none
_refine_ls_goodness_of_fit_ref   1.032
_refine_ls_hydrogen_treatment    mixed
_refine_ls_matrix_type           full
_refine_ls_number_parameters     158
_refine_ls_number_reflns         3979
_refine_ls_number_restraints     0
_refine_ls_restrained_S_all      1.032
_refine_ls_R_factor_all          0.0521
_refine_ls_R_factor_gt           0.0409
_refine_ls_shift/su_max          0.000
_refine_ls_shift/su_mean         0.000
_refine_ls_structure_factor_coef Fsqd
_refine_ls_weighting_details
'w=1/[\s^2^(Fo^2^)+(0.0606P)^2^+0.1515P] where P=(Fo^2^+2Fc^2^)/3'
_refine_ls_weighting_scheme      calc
_refine_ls_wR_factor_gt          0.1092
_refine_ls_wR_factor_ref         0.1170
_reflns_Friedel_coverage         0.000
_reflns_number_gt                3260
_reflns_number_total             3979
_reflns_threshold_expression     'I > 2\s(I)'
_cod_data_source_file            ol6b00194_si_002.cif
_cod_data_source_block           AT515_a
_cod_database_code               1542702
_shelx_shelxl_version_number     2014/7
_shelx_space_group_comment
;
The symmetry employed for this shelxl refinement is uniquely defined
by the following loop, which should always be used as a source of
symmetry information in preference to the above space-group names.
They are only intended as comments.
;
_shelx_estimated_absorpt_t_min   0.989
_shelx_estimated_absorpt_t_max   0.990
_shelx_res_file
;

    AT515_a.res created by SHELXL-2014/7


TITL AT515_a.res in P-1
REM Old TITL AT515 in P-1
REM SHELXT solution in P-1
REM R1 0.111, Rweak 0.004, Alpha 0.025, Orientation as input
REM Formula found by SHELXT: C11 N2 O F3
CELL 0.71073 7.0244 7.2782 10.394 99.34 92.323 91.732
ZERR 2 0.0003 0.0003 0.0004 0.002 0.001 0.002
LATT 1
SFAC C H N O F
UNIT 20 12 6 2 6
EQIV $1 1+X,-1+Y,+Z

L.S. 40
PLAN  20
SIZE 0.07 0.08 0.08
TEMP -173.17
HTAB O1 N3_$1
BOND $H
HTAB
CONF
fmap 2
acta
MORE -1
OMIT 0 0 1
OMIT -10 -2 5
OMIT 0 0 10
OMIT 9 -3 8
OMIT 6 3 11
OMIT 7 1 11
OMIT 5 -8 9
OMIT -2 -2 6

WGHT    0.060600    0.151500
FVAR       1.22166
C1    1    1.064570    0.224418    0.413300    11.00000    0.02013    0.01910 =
         0.01910    0.00341   -0.00659    0.00065
C2    1    0.866759    0.208659    0.358342    11.00000    0.01568    0.02031 =
         0.01428    0.00404   -0.00248    0.00275
C3    1    0.815996    0.186053    0.213710    11.00000    0.01327    0.01515 =
         0.01363    0.00116   -0.00147    0.00286
AFIX  13
H3    2    0.929718    0.227085    0.169353    11.00000   -1.20000
AFIX   0
C4    1    0.652461    0.308294    0.187490    11.00000    0.01242    0.01388 =
         0.01069    0.00132   -0.00062    0.00221
C5    1    0.676971    0.500997    0.224478    11.00000    0.01522    0.01443 =
         0.01760    0.00096   -0.00404    0.00016
AFIX  43
H5    2    0.795028    0.552253    0.264443    11.00000   -1.20000
AFIX   0
C6    1    0.531296    0.618371    0.203629    11.00000    0.01895    0.01329 =
         0.01802    0.00161   -0.00155    0.00238
AFIX  43
H6    2    0.548361    0.749368    0.229301    11.00000   -1.20000
AFIX   0
C7    1    0.358469    0.540693    0.144080    11.00000    0.01434    0.01774 =
         0.01295    0.00262    0.00141    0.00609
C8    1    0.333190    0.348772    0.105111    11.00000    0.01148    0.01834 =
         0.01602    0.00008   -0.00065    0.00236
AFIX  43
H8    2    0.216103    0.297574    0.063527    11.00000   -1.20000
AFIX   0
C9    1    0.480420    0.232586    0.127462    11.00000    0.01255    0.01483 =
         0.01469   -0.00041   -0.00097    0.00174
AFIX  43
H9    2    0.463612    0.101570    0.101773    11.00000   -1.20000
AFIX   0
C10   1    0.205507    0.661356    0.123730    11.00000    0.01917    0.02117 =
         0.01868    0.00120    0.00122    0.00616
F1    5    1.174330    0.095233    0.349134    11.00000    0.02005    0.03177 =
         0.03484    0.00020   -0.00704    0.00972
F2    5    1.073732    0.205834    0.539756    11.00000    0.03378    0.03525 =
         0.01886    0.00794   -0.01280   -0.00430
F3    5    1.152851    0.389617    0.405879    11.00000    0.02907    0.02539 =
         0.03477    0.00648   -0.00535   -0.00924
N1    3    0.730211    0.209633    0.439843    11.00000    0.02353    0.02663 =
         0.01581    0.00517   -0.00117    0.00146
N2    3    0.605464    0.210875    0.505113    11.00000    0.03177    0.05809 =
         0.02328    0.00869    0.00684    0.00071
N3    3    0.082788    0.758124    0.109279    11.00000    0.02301    0.02822 =
         0.03147    0.00044   -0.00137    0.01168
O1    4    0.766317   -0.000477    0.157360    11.00000    0.01884    0.01491 =
         0.02735   -0.00404   -0.00489    0.00651
H1    2    0.860991   -0.062483    0.150034    11.00000    0.04837
HKLF 4

REM  AT515_a.res in P-1
REM R1 =  0.0409 for    3260 Fo > 4sig(Fo)  and  0.0521 for all    3979 data
REM    158 parameters refined using      0 restraints

END

WGHT      0.0606      0.1515

REM Instructions for potential hydrogen bonds
HTAB O1 N3_$1

REM Highest difference peak  0.574,  deepest hole -0.292,  1-sigma level  0.059
Q1    1   0.4432  0.5771  0.1745  11.00000  0.05    0.57
Q2    1   0.9622  0.2189  0.3847  11.00000  0.05    0.57
Q3    1   0.5667  0.2736  0.1607  11.00000  0.05    0.55
Q4    1   0.4136  0.2958  0.1208  11.00000  0.05    0.54
Q5    1   0.6086  0.5564  0.2089  11.00000  0.05    0.53
Q6    1   0.7277  0.2394  0.1987  11.00000  0.05    0.50
Q7    1   0.3459  0.4492  0.1296  11.00000  0.05    0.46
Q8    1   0.6565  0.4054  0.2058  11.00000  0.05    0.45
Q9    1   0.3007  0.6029  0.1332  11.00000  0.05    0.39
Q10   1   0.8338  0.1947  0.2895  11.00000  0.05    0.37
Q11   1   0.1644  0.7237  0.0993  11.00000  0.05    0.29
Q12   1   0.1830  0.7643  0.1189  11.00000  0.05    0.29
Q13   1   0.1412  0.7272  0.1542  11.00000  0.05    0.28
Q14   1   0.6444  0.1600  0.4499  11.00000  0.05    0.28
Q15   1   0.6785 -0.0252  0.1330  11.00000  0.05    0.25
Q16   1   0.8091  0.0879  0.1933  11.00000  0.05    0.25
Q17   1   0.6832  0.2156  0.5156  11.00000  0.05    0.24
Q18   1   0.6672  0.2629  0.4508  11.00000  0.05    0.22
Q19   1   1.0665  0.3416  0.3979  11.00000  0.05    0.21
Q20   1   1.1035  0.4203  0.3820  11.00000  0.05    0.21
;
_shelx_res_checksum              69261
_shelx_hkl_file
;
  -1   0   0  292.57   11.50
  -1   0   0  287.47   11.50
  -1   0   0  297.97   11.70
  -1   0   0  304.47   11.70
  -1   0   0  290.37   11.60
   1   0   0  299.67   11.70
   1   0   0  320.17   11.80
   1   0   0  283.57   11.50
   1   0   0  318.07   11.60
  -2   0   0  942.81   37.90
  -2   0   0 1008.00   37.10
  -2   0   0  978.10   37.40
  -2   0   0  969.50   38.90
  -2   0   0  928.71   38.30
  -2   0   0  987.00   37.50
  -2   0   0  933.01   37.60
  -2   0   0  982.20   37.40
  -2   0   0  946.91   38.20
   2   0   0  940.71   37.60
   2   0   0 1039.80   38.00
   2   0   0  966.10   37.10
   2   0   0 1056.29   38.10
   2   0   0  901.21   37.40
   2   0   0  962.70   38.60
   2   0   0 1034.50   38.60
   2   0   0  959.70   37.10
  -3   0   0  690.03   27.10
  -3   0   0  705.93   26.40
  -3   0   0  688.93   26.60
  -3   0   0  708.23   27.20
  -3   0   0  689.33   26.70
  -3   0   0  698.43   27.60
  -3   0   0  650.13   26.80
  -3   0   0  650.63   28.80
   3   0   0  727.83   27.20
   3   0   0  710.63   26.70
   3   0   0  724.43   26.70
   3   0   0  709.23   26.60
   3   0   0  641.44   27.00
  -4   0   0  355.66   13.60
  -4   0   0  352.26   15.20
  -4   0   0  325.37   14.10
  -4   0   0  346.27   14.40
  -4   0   0  346.97   14.60
  -4   0   0  346.17   13.80
  -4   0   0  351.56   14.00
   4   0   0  345.07   13.80
   4   0   0  371.56   14.50
   4   0   0  333.47   14.40
   4   0   0  348.87   13.90
   4   0   0  371.16   13.80
  -5   0   0   17.10    2.80
  -5   0   0   14.90    1.50
  -5   0   0   16.60    1.10
  -5   0   0   14.80    2.10
  -5   0   0   15.40    2.00
  -5   0   0   16.00    1.60
   5   0   0   12.70    2.00
   5   0   0   17.30    2.00
   5   0   0   18.00    1.90
   5   0   0   17.30    2.00
  -6   0   0  117.39    4.90
  -6   0   0  117.39    6.60
  -6   0   0  109.19    7.20
  -6   0   0  117.09    5.70
   6   0   0  121.59    5.70
   6   0   0  116.59    6.30
   6   0   0  110.59    5.60
  -7   0   0  245.38   12.90
  -7   0   0  250.77   11.90
  -7   0   0  233.78    9.40
  -7   0   0  237.98   10.60
   7   0   0  239.08   10.30
   7   0   0  231.98   11.10
   7   0   0  197.88   12.30
   7   0   0  236.68   10.30
  -8   0   0   35.70    3.90
  -8   0   0   31.30    4.80
  -8   0   0   33.90    3.20
   8   0   0   32.30    3.40
   8   0   0   33.70    3.20
   8   0   0   30.80    3.90
   8   0   0   25.20    4.90
  -9   0   0    2.80    1.50
  -9   0   0    4.20    3.50
   9   0   0    3.70    2.20
   9   0   0   -0.70    3.40
   9   0   0    1.80    2.30
   9   0   0    4.80    2.60
 -10   0   0   29.00    3.50
 -10   0   0   39.20    7.80
  10   0   0   23.40    4.00
  10   0   0   15.60    4.90
  10   0   0   27.20    3.80
  10  -1   0    3.60    2.80
  10  -1   0   -0.60    2.20
 -10   1   0   -0.50    3.10
 -10   1   0    1.40    1.40
 -10   1   0    1.70    1.30
   9  -1   0    9.90    3.80
   9  -1   0   22.50    3.30
   9  -1   0   12.50    3.00
   9  -1   0   18.50    2.90
  -9   1   0   16.10    4.90
  -9   1   0   18.10    2.80
   8  -1   0    4.70    2.20
   8  -1   0    7.20    2.50
   8  -1   0    3.00    2.80
   8  -1   0    7.60    2.50
  -8   1   0    7.40    3.30
  -8   1   0    7.50    2.40
  -8   1   0    4.60    1.50
   7  -1   0  225.68    9.70
   7  -1   0  211.08   10.20
   7  -1   0  219.08    9.70
   7  -1   0  187.38   11.20
  -7   1   0  216.78   11.10
  -7   1   0  212.38    8.60
  -7   1   0  214.98    9.80
  -7   1   0  212.38   12.20
   6  -1   0  379.96   15.60
   6  -1   0  385.46   15.60
   6  -1   0  390.86   16.30
  -6   1   0  365.46   17.70
  -6   1   0  380.16   15.80
  -6   1   0  384.56   17.00
  -6   1   0  372.36   14.80
   5  -1   0  266.07   11.20
   5  -1   0  248.38   10.50
   5  -1   0  258.17   10.50
   5  -1   0  237.58   11.00
  -5   1   0  250.37    9.90
  -5   1   0  252.27   10.40
  -5   1   0  250.17   12.30
  -5   1   0  250.97   10.60
  -5   1   0  251.87   10.10
  -5   1   0  252.67   11.60
   4  -1   0  268.47   10.80
   4  -1   0  256.07   10.20
   4  -1   0  238.58   10.50
   4  -1   0  244.18   10.10
  -4   1   0  246.68    9.80
  -4   1   0  238.18   12.00
  -4   1   0  248.38    9.70
  -4   1   0  250.07   10.10
  -4   1   0  256.47   11.10
  -4   1   0  250.77   10.30
  -4   1   0  234.88   11.50
   3  -1   0   62.19    3.30
   3  -1   0   57.69    2.90
   3  -1   0   57.89    2.90
   3  -1   0   61.39    3.20
   3  -1   0   61.49    2.50
  -3   1   0   60.59    2.90
  -3   1   0   58.49    3.80
  -3   1   0   57.19    2.50
  -3   1   0   63.19    2.90
  -3   1   0   58.49    3.40
  -3   1   0   58.99    2.60
   2  -1   0  131.89    6.10
   2  -1   0  138.49    5.70
   2  -1   0  144.09    6.40
   2  -1   0  147.29    5.80
   2  -1   0  138.69    5.50
   2  -1   0  138.79    5.90
   2  -1   0  142.79    5.80
  -2   1   0  145.19    5.70
  -2   1   0  139.19    5.50
  -2   1   0  124.89    6.10
  -2   1   0  147.99    6.00
  -2   1   0  137.79    6.50
  -2   1   0  139.19    5.70
  -2   1   0  146.99    5.70
   1  -1   0  100.89    4.10
   1  -1   0   92.09    4.40
   1  -1   0  100.19    4.10
   1  -1   0  104.39    4.10
   1  -1   0   99.39    4.00
   1  -1   0  100.39    4.00
   1  -1   0  111.69    4.10
   1  -1   0   97.79    4.60
   1  -1   0   98.59    4.10
  -1   1   0   97.49    4.00
  -1   1   0   98.49    4.10
  -1   1   0   90.59    4.50
  -1   1   0   97.49    4.00
  -1   1   0  100.49    4.00
  -1   1   0  101.39    4.00
  -1   1   0  101.09    4.10
   0  -1   0   57.19    3.00
   0  -1   0   64.19    2.90
   0  -1   0   68.29    2.70
   0  -1   0   70.29    2.90
   0  -1   0   68.49    2.70
   0  -1   0   60.09    3.60
   0   1   0   57.59    2.80
   0   1   0   68.89    3.10
  -1  -1   0 3327.87  123.29
  -1  -1   0 3115.29  122.99
  -1  -1   0 3082.59  122.69
  -1  -1   0 2796.52  125.89
  -1  -1   0 3306.77  123.19
  -1  -1   0 3253.17  122.99
  -1  -1   0 2998.00  123.09
  -1  -1   0 3249.87  124.39
   1   1   0 3262.37  122.79
   1   1   0 3263.67  122.99
   1   1   0 3253.07  124.09
   1   1   0 3122.39  122.29
   1   1   0 3400.86  123.29
   1   1   0 3031.90  123.39
  -2  -1   0  589.84   23.60
  -2  -1   0  590.64   23.70
  -2  -1   0  610.44   23.80
  -2  -1   0  615.64   24.00
  -2  -1   0  559.74   25.60
  -2  -1   0  606.94   23.20
  -2  -1   0  582.64   23.70
  -2  -1   0  639.34   23.20
  -2  -1   0  587.44   23.70
   2   1   0  574.14   23.70
   2   1   0  568.64   23.70
   2   1   0  615.64   23.20
   2   1   0  658.93   24.10
   2   1   0  629.94   23.20
   2   1   0  600.94   23.70
   2   1   0  637.54   23.70
   2   1   0  605.24   23.20
   2   1   0  661.33   23.70
  -3  -1   0 1363.66   53.89
  -3  -1   0 1396.36   54.39
  -3  -1   0 1387.96   53.59
  -3  -1   0 1359.76   53.99
  -3  -1   0 1284.57   53.69
  -3  -1   0 1385.66   53.89
  -3  -1   0 1486.55   53.29
   3   1   0 1370.26   53.79
   3   1   0 1441.16   53.29
   3   1   0 1442.86   54.99
   3   1   0 1439.46   53.39
   3   1   0 1403.46   53.99
   3   1   0 1432.46   53.69
  -4  -1   0  180.58    7.70
  -4  -1   0  195.38    9.20
  -4  -1   0  190.68    8.20
  -4  -1   0  185.38    8.50
  -4  -1   0  187.08    8.50
  -4  -1   0  193.38    9.10
   4   1   0  193.08    8.20
   4   1   0  194.58    7.80
   4   1   0  199.68    7.60
   4   1   0  194.38    8.60
   4   1   0  186.78    8.50
   4   1   0  193.88    7.80
  -5  -1   0    2.00    1.10
  -5  -1   0    1.50    1.40
  -5  -1   0    2.40    0.90
  -5  -1   0    2.80    1.30
  -5  -1   0    3.20    0.60
  -5  -1   0    1.70    0.80
   5   1   0    2.30    1.30
   5   1   0    2.80    0.70
   5   1   0    1.20    1.20
   5   1   0    3.10    1.30
   5   1   0    2.50    1.50
   5   1   0    3.80    1.20
  -6  -1   0   62.39    4.20
  -6  -1   0   57.69    4.80
  -6  -1   0   58.09    3.30
  -6  -1   0   64.99    4.50
  -6  -1   0   63.29    3.00
  -6  -1   0   63.49    3.90
   6   1   0   66.39    3.80
   6   1   0   60.09    4.40
   6   1   0   68.09    3.60
   6   1   0   69.69    3.80
  -7  -1   0  115.99    4.80
  -7  -1   0  117.59    7.90
  -7  -1   0  118.19    6.90
  -7  -1   0  111.89    5.90
  -7  -1   0  112.89    6.50
   7   1   0  110.69    6.60
   7   1   0   89.09    8.00
   7   1   0  110.09    5.70
   7   1   0  100.39    5.50
  -8  -1   0   21.90    4.70
  -8  -1   0   14.00    2.20
   8   1   0   12.10    2.30
   8   1   0   13.90    2.20
   8   1   0   11.80    2.80
   8   1   0   10.40    3.90
  -9  -1   0   59.19    7.00
  -9  -1   0   48.30    4.40
   9   1   0   46.50    7.30
   9   1   0   59.09    4.50
   9   1   0   52.59    4.50
   9   1   0   52.59    5.40
 -10  -1   0   41.10    7.70
 -10  -1   0   37.00    4.10
  10   1   0   31.00    4.70
  10   1   0   19.00    5.90
  10   1   0   34.00    3.70
  10  -2   0   16.40    3.50
  10  -2   0   11.20    3.30
 -10   2   0   27.10    3.20
 -10   2   0   16.90    2.60
 -10   2   0   23.00    6.30
   9  -2   0   10.00    3.20
   9  -2   0    8.50    2.60
  -9   2   0   15.80    5.30
  -9   2   0   12.10    2.50
  -9   2   0    6.70    1.70
   8  -2   0    2.70    2.00
   8  -2   0    2.00    1.80
   8  -2   0   -0.20    2.20
   8  -2   0    1.10    2.20
  -8   2   0   -0.40    1.10
  -8   2   0    0.80    2.40
  -8   2   0   -0.10    1.00
  -8   2   0    2.00    1.90
   7  -2   0   31.80    3.30
   7  -2   0   29.80    3.20
   7  -2   0   30.80    3.10
   7  -2   0   27.50    3.90
  -7   2   0   31.60    1.80
  -7   2   0   31.50    4.70
  -7   2   0   29.40    2.50
  -7   2   0   34.90    2.90
  -7   2   0   31.40    3.60
   6  -2   0  475.05   18.90
   6  -2   0  447.66   19.30
   6  -2   0  494.45   19.00
   6  -2   0  396.56   19.70
  -6   2   0  454.45   21.40
  -6   2   0  480.25   18.10
  -6   2   0  486.75   19.10
  -6   2   0  490.25   18.90
  -6   2   0  462.95   20.50
   5  -2   0  236.18   10.10
   5  -2   0  250.57   10.50
   5  -2   0  249.18   10.10
   5  -2   0  250.07   10.80
  -5   2   0  237.68   10.10
  -5   2   0  244.78    9.40
  -5   2   0  236.48   11.30
  -5   2   0  240.48    9.90
  -5   2   0  225.78    9.30
  -5   2   0  209.48   11.30
  -5   2   0  225.68   11.90
   4  -2   0  127.19    5.90
   4  -2   0  115.59    5.50
   4  -2   0  133.69    6.20
   4  -2   0  122.09    5.50
  -4   2   0  125.09    5.50
  -4   2   0  115.99    6.90
  -4   2   0  113.79    6.30
  -4   2   0  122.49    5.40
  -4   2   0  110.99    6.30
  -4   2   0  123.99    5.00
  -4   2   0  124.09    5.40
   3  -2   0    5.10    1.00
   3  -2   0    1.80    1.00
   3  -2   0    3.10    1.00
   3  -2   0    3.30    1.10
  -3   2   0    2.90    0.70
  -3   2   0    2.90    0.70
  -3   2   0    4.60    0.60
  -3   2   0    2.20    0.60
  -3   2   0    2.40    1.10
  -3   2   0    4.60    0.90
  -3   2   0    2.60    1.30
   2  -2   0  832.92   33.60
   2  -2   0  877.41   32.70
   2  -2   0  869.91   32.80
   2  -2   0  863.51   32.80
   2  -2   0  835.32   33.00
   2  -2   0  881.81   32.90
  -2   2   0  875.61   33.80
  -2   2   0  835.72   32.80
  -2   2   0  840.52   32.80
  -2   2   0  848.22   33.00
  -2   2   0  846.92   32.70
   1  -2   0  846.12   34.90
   1  -2   0 1003.50   36.50
   1  -2   0  897.61   34.20
   1  -2   0  924.01   34.70
   1  -2   0  928.61   34.10
   1  -2   0  864.41   34.10
   1  -2   0  861.41   34.10
  -1   2   0  952.00   34.60
  -1   2   0  891.81   34.10
  -1   2   0  896.31   34.30
  -1   2   0  910.11   34.10
  -1   2   0  896.11   34.80
  -1   2   0  765.52   34.90
  -1   2   0  868.21   34.20
   0  -2   0 3923.51  138.49
   0  -2   0 3785.22  139.29
   0  -2   0 3187.48  143.09
   0  -2   0 3449.46  138.59
   0  -2   0 3590.94  136.49
   0  -2   0 3731.93  138.39
   0  -2   0 3542.75  136.39
   0   2   0 3686.73  139.79
   0   2   0 3819.12  136.49
   0   2   0 3294.27  138.29
   0   2   0 3751.92  138.09
   0   2   0 3649.73  138.39
   0   2   0 3107.19  144.59
  -1  -2   0  174.88    7.50
  -1  -2   0  187.28    7.70
  -1  -2   0  179.08    7.40
  -1  -2   0  185.98    7.50
  -1  -2   0  159.48    9.50
   1   2   0  184.98    7.70
   1   2   0  161.38    9.70
   1   2   0  194.98    7.50
   1   2   0  189.28    7.50
   1   2   0  187.18    7.40
   1   2   0  177.38    7.90
   1   2   0  171.08    7.00
  -2  -2   0 1380.06   51.39
  -2  -2   0 1456.85   51.89
  -2  -2   0 1271.87   52.69
  -2  -2   0 1385.96   51.39
  -2  -2   0 1293.17   51.89
  -2  -2   0 1284.87   52.19
  -2  -2   0 1310.27   51.69
  -2  -2   0 1394.36   51.99
   2   2   0 1323.27   51.39
   2   2   0 1355.96   51.29
   2   2   0 1350.56   51.79
   2   2   0 1340.27   52.09
  -3  -2   0    7.20    1.10
  -3  -2   0    6.00    1.50
  -3  -2   0    6.50    0.70
  -3  -2   0   10.00    1.60
  -3  -2   0    6.20    1.30
  -3  -2   0    7.70    0.70
   3   2   0    7.10    1.70
   3   2   0    9.60    1.60
   3   2   0    7.80    1.50
   3   2   0    8.00    0.80
   3   2   0    8.60    0.80
  -4  -2   0    0.10    0.70
  -4  -2   0    0.20    0.90
  -4  -2   0    0.00    0.90
  -4  -2   0    1.10    1.30
  -4  -2   0    0.30    0.60
   4   2   0    1.30    1.20
   4   2   0    1.60    0.80
   4   2   0    1.20    1.30
   4   2   0    1.90    0.90
   4   2   0   -0.40    1.40
  -5  -2   0   54.09    3.70
  -5  -2   0   53.99    4.20
  -5  -2   0   49.99    3.20
  -5  -2   0   49.40    3.60
  -5  -2   0   51.79    2.70
   5   2   0   55.49    3.90
   5   2   0   54.79    3.70
   5   2   0   52.69    3.00
   5   2   0   53.39    2.90
   5   2   0   55.19    4.00
  -6  -2   0   11.90    2.70
  -6  -2   0   10.60    1.70
  -6  -2   0   10.50    1.20
  -6  -2   0   12.70    2.30
  -6  -2   0    9.50    1.30
  -6  -2   0   11.60    2.20
   6   2   0   10.70    2.40
   6   2   0   10.60    1.60
   6   2   0    9.60    1.70
   6   2   0   11.50    2.00
  -7  -2   0   29.70    4.10
  -7  -2   0   27.30    3.20
  -7  -2   0   36.60    3.60
  -7  -2   0   28.80    2.80
  -7  -2   0   29.40    1.90
   7   2   0   18.50    4.50
   7   2   0   34.30    2.80
   7   2   0   32.10    2.90
   7   2   0   32.60    2.80
   7   2   0   27.00    3.70
  -8  -2   0   54.89    5.70
  -8  -2   0   48.90    4.00
  -8  -2   0   46.60    4.30
   8   2   0   43.60    5.00
   8   2   0   47.90    3.60
   8   2   0   32.70    6.00
   8   2   0   54.39    3.70
  -9  -2   0  106.89    9.10
  -9  -2   0   91.09    6.10
   9   2   0  102.59    6.10
   9   2   0  101.59    7.40
   9   2   0   82.59    9.50
 -10  -2   0    7.60    2.70
 -10  -2   0    1.30    1.70
  10   2   0    2.50    2.80
  10   2   0   -1.10    4.20
  10  -3   0   10.90    2.90
  10  -3   0   15.30    3.50
 -10   3   0   12.70    2.40
   9  -3   0   73.89    6.00
   9  -3   0   76.29    5.80
  -9   3   0   83.19    5.50
  -9   3   0   71.49    8.00
  -9   3   0   72.49    4.90
   8  -3   0   72.49    5.50
   8  -3   0   77.69    5.50
   8  -3   0   80.69    5.60
  -8   3   0   67.89    7.60
  -8   3   0   74.29    4.90
  -8   3   0   69.39    4.50
   7  -3   0    4.50    1.90
   7  -3   0    0.30    2.20
   7  -3   0    4.20    1.70
   7  -3   0    3.60    2.10
  -7   3   0    3.50    1.90
  -7   3   0    3.90    1.20
  -7   3   0    4.00    1.40
  -7   3   0    5.20    2.90
   6  -3   0   14.80    2.30
   6  -3   0   13.60    2.30
   6  -3   0   15.60    2.50
   6  -3   0   16.10    2.40
  -6   3   0   14.80    1.90
  -6   3   0   15.60    1.80
  -6   3   0   15.70    1.30
  -6   3   0   20.50    4.10
   5  -3   0   45.20    3.40
   5  -3   0   51.29    3.40
   5  -3   0   49.90    3.50
   5  -3   0   52.89    3.50
  -5   3   0   55.09    2.60
  -5   3   0   57.49    3.30
  -5   3   0   52.19    3.00
  -5   3   0   49.99    4.70
   4  -3   0   29.20    2.50
   4  -3   0   29.50    2.60
   4  -3   0   26.10    2.10
   4  -3   0   29.80    2.30
   4  -3   0   28.10    2.50
  -4   3   0   29.60    2.00
  -4   3   0   29.60    2.40
  -4   3   0   29.60    2.10
   3  -3   0   57.19    2.60
   3  -3   0   62.29    3.20
   3  -3   0   60.19    3.90
   3  -3   0   64.69    3.30
   3  -3   0   59.99    3.20
  -3   3   0   55.79    3.00
  -3   3   0   59.39    3.00
  -3   3   0   61.79    3.10
  -3   3   0   65.29    3.10
   2  -3   0    9.10    1.20
   2  -3   0    8.50    1.10
   2  -3   0   11.00    1.00
   2  -3   0    9.20    1.60
   2  -3   0   10.60    1.20
   2  -3   0    9.70    1.20
  -2   3   0   11.90    2.10
  -2   3   0    8.70    0.90
  -2   3   0    7.10    1.50
  -2   3   0   11.20    1.20
  -2   3   0   10.20    1.10
   1  -3   0  904.11   32.50
   1  -3   0  844.82   32.20
   1  -3   0  814.92   32.40
   1  -3   0  936.91   33.90
   1  -3   0  853.21   32.20
  -1   3   0  736.43   33.80
  -1   3   0  850.31   32.20
  -1   3   0  876.51   32.20
  -1   3   0  818.82   32.40
  -1   3   0  793.42   33.10
  -1   3   0  808.22   32.40
  -1   3   0  826.82   32.30
   0  -3   0  187.38    6.90
   0  -3   0  171.98    7.30
   0  -3   0  180.48    6.90
   0  -3   0  179.18    6.90
   0  -3   0  178.98    7.30
   0  -3   0  164.58    9.30
   0  -3   0  181.68    7.50
   0   3   0  177.08    7.90
   0   3   0  184.18    6.90
   0   3   0  192.28    6.90
   0   3   0  178.48    7.40
   0   3   0  165.38    9.60
   0   3   0  174.78    7.20
   0   3   0  174.18    8.10
   0   3   0  149.39    7.50
  -1  -3   0 2442.66   99.79
  -1  -3   0 2656.13   97.99
  -1  -3   0 2578.44  101.99
   1   3   0 2589.74   97.29
   1   3   0 2610.74   97.79
   1   3   0 2551.24   98.29
   1   3   0 2589.54   98.69
   1   3   0 2495.25   98.49
  -2  -3   0 1091.59   38.10
  -2  -3   0  958.70   38.20
  -2  -3   0  958.80   37.90
  -2  -3   0  890.71   37.70
  -2  -3   0  989.40   38.50
   2   3   0  993.90   38.50
   2   3   0  911.91   37.30
   2   3   0  993.60   38.20
  -3  -3   0   33.30    2.40
  -3  -3   0   30.10    2.90
  -3  -3   0   28.50    2.40
  -3  -3   0   30.30    2.70
   3   3   0   29.40    2.70
   3   3   0   30.60    1.40
   3   3   0   33.60    3.30
   3   3   0   30.80    1.40
  -4  -3   0  640.04   27.50
  -4  -3   0  664.63   27.00
  -4  -3   0  674.53   26.70
  -4  -3   0  636.74   26.90
  -4  -3   0  650.43   25.60
   4   3   0  662.53   27.10
   4   3   0  686.83   25.60
   4   3   0  707.13   27.00
   4   3   0  688.83   25.60
  -5  -3   0  435.56   17.50
  -5  -3   0  454.55   19.20
  -5  -3   0  446.86   19.80
  -5  -3   0  449.16   18.70
  -5  -3   0  433.46   19.10
   5   3   0  474.25   19.20
   5   3   0  452.65   19.10
   5   3   0  472.15   17.70
   5   3   0  455.25   17.60
  -6  -3   0   89.59    5.70
  -6  -3   0   86.19    4.20
  -6  -3   0   98.69    6.50
  -6  -3   0  102.59    5.80
  -6  -3   0   87.59    5.20
   6   3   0  100.99    6.10
   6   3   0   97.19    4.40
   6   3   0   94.59    5.60
   6   3   0   99.69    4.50
   6   3   0   78.59    7.70
  -7  -3   0   16.00    2.40
  -7  -3   0   20.00    2.90
  -7  -3   0   23.00    3.70
  -7  -3   0   18.30    1.80
  -7  -3   0   27.00    3.10
   7   3   0   20.00    2.00
   7   3   0   14.00    4.30
   7   3   0   17.00    1.80
   7   3   0   21.00    2.90
   7   3   0   18.40    3.20
  -8  -3   0   10.60    2.20
  -8  -3   0   22.40    4.90
  -8  -3   0   13.70    3.00
   8   3   0   14.70    3.40
   8   3   0    9.90    4.40
  -9  -3   0   59.49    6.60
  -9  -3   0   55.69    5.10
  -9  -3   0   49.20    4.40
   9   3   0   31.50    7.10
   9   3   0   49.60    5.40
 -10  -3   0    9.60    2.40
  10   3   0    6.90    3.50
  10   3   0    3.60    4.60
  10  -4   0    5.60    2.40
  10  -4   0    8.00    3.50
 -10   4   0    2.50    1.60
   9  -4   0   -0.20    2.00
   9  -4   0    2.30    3.10
  -9   4   0    4.00    1.60
  -9   4   0    2.70    1.50
   8  -4   0  139.49    7.90
   8  -4   0  135.39    7.80
  -8   4   0  130.19    7.00
  -8   4   0  144.39    7.70
   7  -4   0   85.49    5.50
   7  -4   0   93.59    5.70
   7  -4   0   83.69    5.40
  -7   4   0   89.49    5.00
  -7   4   0   95.39    5.50
   6  -4   0  302.67   13.90
   6  -4   0  326.47   13.80
   6  -4   0  336.67   13.90
  -6   4   0  327.07   13.60
  -6   4   0  324.17   14.00
   5  -4   0  444.56   18.10
   5  -4   0  452.85   18.10
   5  -4   0  446.96   17.20
   5  -4   0  436.66   18.30
  -5   4   0  426.16   18.00
  -5   4   0  456.35   18.40
  -5   4   0  445.56   18.00
   4  -4   0   14.70    1.90
   4  -4   0   15.30    2.10
   4  -4   0   14.80    2.00
  -4   4   0   17.40    1.70
  -4   4   0    9.00    2.20
  -4   4   0   16.50    1.80
   3  -4   0  132.39    7.30
   3  -4   0  135.89    6.20
   3  -4   0  134.99    6.20
   3  -4   0  140.59    6.20
  -3   4   0  136.59    7.50
  -3   4   0  148.09    6.20
  -3   4   0  140.59    6.40
  -3   4   0  137.39    6.10
   2  -4   0    0.10    0.90
   2  -4   0    0.40    0.60
   2  -4   0    0.40    0.80
   2  -4   0   -0.30    0.90
  -2   4   0    1.50    1.40
  -2   4   0   -0.40    1.20
  -2   4   0    0.60    0.60
  -2   4   0    0.90    0.80
  -2   4   0    0.90    1.70
  -2   4   0   -0.10    0.50
   1  -4   0  327.77   12.20
   1  -4   0  293.67   11.80
   1  -4   0  294.37   12.30
   1  -4   0  293.97   12.10
   1  -4   0  286.87   11.80
  -1   4   0  269.67   14.40
  -1   4   0  298.27   12.00
  -1   4   0  312.47   12.20
  -1   4   0  282.27   13.00
  -1   4   0  290.77   11.90
  -1   4   0  314.37   11.80
  -1   4   0  308.77   13.20
   0  -4   0  440.36   17.70
   0  -4   0  433.36   17.00
   0  -4   0  475.25   16.90
   0  -4   0  463.05   17.70
   0  -4   0  440.66   17.00
   0  -4   0  438.66   17.80
   0   4   0  454.85   17.00
   0   4   0  443.06   17.70
   0   4   0  419.06   18.50
   0   4   0  375.36   17.90
   0   4   0  471.65   17.00
   0   4   0  440.16   18.40
  -1  -4   0  156.88    6.70
  -1  -4   0  148.89    6.80
  -1  -4   0  151.58    6.90
   1   4   0  139.79    7.70
   1   4   0  150.88    5.80
   1   4   0  145.19    7.40
   1   4   0  150.88    6.80
  -2  -4   0  124.69    6.00
  -2  -4   0  118.99    6.50
  -2  -4   0  119.49    6.00
   2   4   0  125.69    6.50
   2   4   0  127.09    6.10
   2   4   0  115.09    6.80
   2   4   0  127.49    5.10
  -3  -4   0  712.53   26.00
  -3  -4   0  641.04   27.30
  -3  -4   0  677.23   28.00
  -3  -4   0  708.73   27.70
  -3  -4   0  673.43   27.10
   3   4   0  638.64   26.40
   3   4   0  697.93   27.40
   3   4   0  689.53   28.00
  -4  -4   0  190.58    9.00
  -4  -4   0  193.58    9.80
  -4  -4   0  192.78    9.30
  -4  -4   0  203.58    9.50
   4   4   0  186.68    9.80
   4   4   0  200.68    9.40
  -5  -4   0   -0.60    1.40
  -5  -4   0    1.20    1.40
  -5  -4   0   -0.80    1.30
  -5  -4   0    0.50    1.00
   5   4   0   -0.10    0.50
   5   4   0   -0.10    2.40
   5   4   0   -0.10    1.90
   5   4   0   -0.10    1.80
  -6  -4   0  133.59    8.30
  -6  -4   0  137.79    7.50
  -6  -4   0  134.79    7.50
  -6  -4   0  132.09    6.90
   6   4   0  111.69    9.30
   6   4   0  137.99    7.70
   6   4   0  129.89    7.50
  -7  -4   0   38.70    3.50
  -7  -4   0   53.19    4.20
  -7  -4   0   35.90    3.80
  -7  -4   0   44.10    4.90
   7   4   0   44.10    4.20
   7   4   0   31.10    6.00
   7   4   0   43.10    4.50
  -8  -4   0   13.80    3.10
  -8  -4   0   13.80    2.70
  -8  -4   0   18.30    4.50
   8   4   0    7.40    2.90
   8   4   0    5.30    4.30
  -9  -4   0    3.00    2.60
  -9  -4   0   -0.60    1.40
  -9  -4   0    2.30    2.00
   9   4   0   -3.50    4.10
   9   4   0   -0.20    2.60
   9  -5   0   62.89    5.40
   9  -5   0   50.39    5.20
  -9   5   0   72.29    6.70
  -9   5   0   48.60    4.30
   8  -5   0   48.40    4.40
   8  -5   0   48.00    4.70
  -8   5   0   58.39    5.90
  -8   5   0   48.50    3.90
  -8   5   0   55.29    4.40
   7  -5   0   18.60    2.70
   7  -5   0   19.00    2.90
   7  -5   0   14.70    3.00
  -7   5   0   17.70    3.50
  -7   5   0   21.90    2.60
  -7   5   0   18.70    2.40
   6  -5   0   84.49    5.20
   6  -5   0   91.69    5.30
   6  -5   0   82.99    5.10
  -6   5   0   84.19    5.00
  -6   5   0   84.09    4.80
  -6   5   0   83.89    6.80
   5  -5   0    1.70    1.80
   5  -5   0   -0.20    1.10
   5  -5   0    0.70    1.50
  -5   5   0   -0.70    1.50
  -5   5   0    0.10    0.90
  -5   5   0    0.60    0.90
  -5   5   0   -0.90    1.70
   4  -5   0    4.30    1.40
   4  -5   0    5.60    1.70
   4  -5   0    5.80    1.90
  -4   5   0    3.20    1.10
  -4   5   0   -0.30    1.70
  -4   5   0    3.10    2.00
  -4   5   0    4.00    1.20
   3  -5   0  406.56   16.30
   3  -5   0  462.45   16.80
   3  -5   0  400.76   16.30
   3  -5   0  398.26   16.50
  -3   5   0  394.66   16.30
  -3   5   0  382.06   17.30
  -3   5   0  399.56   18.10
  -3   5   0  386.86   16.60
   2  -5   0  193.28    8.50
   2  -5   0  192.88    8.20
   2  -5   0  193.98    8.20
  -2   5   0  200.88    8.10
  -2   5   0  184.88    9.50
  -2   5   0  189.98    8.20
  -2   5   0  190.58    8.50
  -2   5   0  191.38    9.70
   1  -5   0   61.49    3.80
   1  -5   0   61.79    3.60
   1  -5   0   61.99    3.20
   1  -5   0   63.29    3.30
   1  -5   0   68.59    3.00
  -1   5   0   64.39    3.50
  -1   5   0   68.59    4.80
  -1   5   0   61.69    4.80
  -1   5   0   63.39    3.60
  -1   5   0   63.99    3.40
  -1   5   0   66.99    3.10
   0  -5   0  940.41   36.90
   0  -5   0  991.50   37.80
   0  -5   0  928.81   36.90
   0  -5   0 1008.50   36.70
   0  -5   0  936.21   37.90
   0   5   0  985.60   36.90
   0   5   0 1031.50   36.90
   0   5   0  954.60   37.70
   0   5   0  908.01   38.70
   0   5   0  954.40   38.70
  -1  -5   0  299.87   12.90
  -1  -5   0  307.77   12.80
   1   5   0  308.87   14.10
   1   5   0  317.87   11.60
   1   5   0  304.17   13.60
   1   5   0  254.97   13.40
   1   5   0  324.97   13.00
  -2  -5   0    1.20    1.40
  -2  -5   0    2.60    1.80
  -2  -5   0    2.80    1.40
   2   5   0    2.80    2.00
   2   5   0    3.70    1.70
   2   5   0    2.10    1.60
   2   5   0    1.70    2.50
  -3  -5   0   94.79    5.50
  -3  -5   0   95.79    5.30
  -3  -5   0   97.59    6.20
  -3  -5   0   96.99    5.90
  -3  -5   0   99.99    4.30
   3   5   0  102.89    5.80
   3   5   0  103.29    4.30
   3   5   0  100.99    6.90
   3   5   0  105.69    6.40
   3   5   0   78.29    6.50
  -4  -5   0  106.59    5.80
  -4  -5   0  106.19    6.70
  -4  -5   0  105.69    6.30
  -4  -5   0  101.29    5.90
   4   5   0  100.69    5.00
   4   5   0   90.99    7.50
   4   5   0  113.89    7.00
   4   5   0  116.19    6.40
  -5  -5   0  108.59    7.00
  -5  -5   0  114.29    6.60
  -5  -5   0  100.89    6.20
  -5  -5   0  103.39    5.90
   5   5   0   89.19    8.00
   5   5   0   99.39    5.30
   5   5   0  116.59    7.30
   5   5   0  107.39    6.40
  -6  -5   0  167.28    8.50
  -6  -5   0  170.48    9.00
  -6  -5   0  157.18    8.80
  -6  -5   0  177.68   10.00
   6   5   0  173.08    9.10
   6   5   0  173.78    9.50
   6   5   0  150.78    7.90
   6   5   0  144.09   11.30
  -7  -5   0    4.30    2.60
  -7  -5   0    1.60    1.80
  -7  -5   0    0.20    1.40
   7   5   0   -0.90    1.70
   7   5   0    0.80    3.70
   7   5   0    1.30    2.40
   7   5   0   -2.00    2.30
  -8  -5   0   14.20    3.10
  -8  -5   0    9.60    2.40
  -8  -5   0   14.90    4.10
   8   5   0    5.50    4.50
   8   5   0   11.40    3.00
   8   5   0   10.00    3.40
  -9  -5   0   10.00    2.70
  -9  -5   0   15.70    3.30
   9   5   0    4.50    5.20
   9  -6   0  248.38   12.50
   9  -6   0  250.97   12.30
  -9   6   0  242.18   14.50
  -9   6   0  237.28   11.70
   8  -6   0  114.49    7.60
   8  -6   0  121.99    7.30
  -8   6   0  123.19    6.70
  -8   6   0  103.29    9.10
   7  -6   0    3.40    2.90
   7  -6   0    5.60    1.90
  -7   6   0    4.50    1.60
  -7   6   0    1.50    2.90
   6  -6   0   20.40    3.00
   6  -6   0   16.60    2.40
   6  -6   0   20.80    2.90
  -6   6   0   25.20    2.60
  -6   6   0   15.10    3.60
  -6   6   0   17.50    2.20
   5  -6   0   34.30    3.10
   5  -6   0   37.10    3.60
   5  -6   0   33.60    3.30
  -5   6   0   37.50    3.70
  -5   6   0   32.30    4.50
  -5   6   0   40.90    3.10
  -5   6   0   34.40    2.90
   4  -6   0  142.09    6.80
   4  -6   0  136.89    6.90
   4  -6   0  135.99    6.80
  -4   6   0  137.09    6.60
  -4   6   0  146.89    8.90
  -4   6   0  140.19    7.00
  -4   6   0  137.29    7.70
   3  -6   0  534.15   21.70
   3  -6   0  533.65   21.30
   3  -6   0  532.85   21.30
  -3   6   0  511.95   22.60
  -3   6   0  547.15   21.80
  -3   6   0  530.85   21.40
  -3   6   0  545.55   23.50
   2  -6   0  509.15   21.20
   2  -6   0  501.45   20.90
   2  -6   0  525.25   20.40
   2  -6   0  514.25   20.30
  -2   6   0  501.15   22.10
  -2   6   0  536.85   20.30
  -2   6   0  538.55   21.00
  -2   6   0  505.95   22.40
  -2   6   0  495.25   20.60
   1  -6   0   24.80    2.10
   1  -6   0   26.10    2.60
   1  -6   0   28.40    1.70
   1  -6   0   25.40    2.50
   1  -6   0   24.00    2.10
  -1   6   0   26.20    2.20
  -1   6   0   27.30    2.50
  -1   6   0   29.40    2.00
  -1   6   0   29.30    2.40
  -1   6   0   27.40    4.00
  -1   6   0   30.80    3.90
   0  -6   0    5.60    0.90
   0  -6   0    3.90    0.80
   0  -6   0   10.70    2.00
   0  -6   0    5.70    1.60
   0   6   0    3.60    2.00
   0   6   0    3.90    2.80
   0   6   0    3.70    1.60
   0   6   0    4.90    1.40
  -1  -6   0   42.00    3.40
  -1  -6   0   42.80    3.40
   1   6   0   44.90    3.60
   1   6   0   41.40    4.00
   1   6   0   46.90    4.90
   1   6   0   47.30    4.70
  -2  -6   0  161.98    8.90
  -2  -6   0  171.98    8.10
  -2  -6   0  165.38    8.10
   2   6   0  175.48    9.70
   2   6   0  172.78    8.30
   2   6   0  162.68    8.90
   2   6   0  138.09    8.90
  -3  -6   0    1.10    1.60
  -3  -6   0    0.50    1.40
  -3  -6   0    1.50    2.00
  -3  -6   0    1.80    2.00
   3   6   0    0.90    2.30
   3   6   0    0.80    2.90
   3   6   0    1.40    2.00
   3   6   0    1.10    1.80
  -4  -6   0   28.80    3.90
  -4  -6   0   24.50    3.00
  -4  -6   0   27.60    3.70
  -4  -6   0   26.30    3.10
   4   6   0   28.40    4.40
   4   6   0   24.60    3.20
   4   6   0   16.80    4.10
  -5  -6   0   18.90    3.30
  -5  -6   0   13.90    2.40
  -5  -6   0   19.00    3.20
  -5  -6   0   18.30    3.60
   5   6   0   20.30    4.00
   5   6   0   11.50    4.10
   5   6   0   13.70    2.90
  -6  -6   0    5.20    1.80
  -6  -6   0    4.70    2.60
  -6  -6   0    4.10    2.30
  -6  -6   0    1.70    1.60
   6   6   0    0.50    2.30
   6   6   0    5.00    3.20
   6   6   0   -0.90    3.50
  -7  -6   0  103.99    6.70
  -7  -6   0  118.99    8.50
  -7  -6   0  106.69    7.40
  -7  -6   0  124.79    7.00
   7   6   0  103.19    7.80
   7   6   0   88.69    9.70
  -8  -6   0   32.20    4.00
  -8  -6   0   31.20    3.80
   8   6   0   39.70    5.00
   8   6   0   22.80    6.50
   8  -7   0   67.69    5.50
   8  -7   0   59.89    5.60
  -8   7   0   59.19    4.70
  -8   7   0   62.49    7.80
   7  -7   0   81.49    6.20
   7  -7   0   80.69    5.60
  -7   7   0   74.19    7.80
  -7   7   0   79.99    5.20
   6  -7   0   55.19    4.50
   6  -7   0   60.69    4.50
   6  -7   0   59.19    4.70
  -6   7   0   52.59    6.50
  -6   7   0   56.59    4.00
   5  -7   0  247.98   10.90
   5  -7   0  245.88   10.80
   5  -7   0  239.88   11.10
  -5   7   0  229.38   10.60
  -5   7   0  235.48   13.30
  -5   7   0  221.78   11.40
   4  -7   0  270.97   11.70
   4  -7   0  271.07   12.10
   4  -7   0  271.87   11.70
  -4   7   0  274.97   14.20
  -4   7   0  246.88   12.80
  -4   7   0  275.87   12.10
  -4   7   0  265.37   11.70
   3  -7   0   10.50    2.20
   3  -7   0    7.30    1.80
   3  -7   0    7.80    1.70
   3  -7   0    5.20    1.50
  -3   7   0    6.00    1.50
  -3   7   0    5.10    2.60
  -3   7   0    5.00    1.30
  -3   7   0    6.70    2.90
   2  -7   0   19.20    2.40
   2  -7   0   24.10    2.30
   2  -7   0   20.80    2.60
   2  -7   0   19.90    2.00
  -2   7   0   24.70    4.20
  -2   7   0   22.30    2.40
  -2   7   0   22.70    2.40
  -2   7   0   22.90    3.70
   1  -7   0  332.47   13.70
   1  -7   0  348.07   13.80
   1  -7   0  359.16   14.90
   1  -7   0  336.77   15.00
  -1   7   0  334.37   16.30
  -1   7   0  347.67   14.80
  -1   7   0  346.17   13.70
  -1   7   0  348.87   14.30
  -1   7   0  341.87   16.40
   0  -7   0  495.65   20.70
   0  -7   0  492.95   19.00
   0  -7   0  472.75   20.30
   0   7   0  483.45   21.90
   0   7   0  487.85   21.80
   0   7   0  500.25   19.40
   0   7   0  466.35   20.60
   0   7   0  524.65   20.50
  -1  -7   0   97.99    5.80
  -1  -7   0   99.19    5.60
   1   7   0   97.69    7.00
   1   7   0  100.59    5.90
   1   7   0  100.49    7.50
   1   7   0   91.49    6.30
  -2  -7   0    1.50    2.40
  -2  -7   0   -0.20    1.50
  -2  -7   0   -0.40    1.70
   2   7   0    2.40    3.20
   2   7   0   -1.40    2.00
   2   7   0    4.80    2.50
   2   7   0   -2.30    1.80
  -3  -7   0    5.70    2.40
  -3  -7   0    6.50    2.20
  -3  -7   0    6.20    1.90
  -3  -7   0   10.30    3.20
   3   7   0    7.90    2.70
   3   7   0    5.50    2.80
   3   7   0   10.70    3.70
   3   7   0    7.50    2.40
  -4  -7   0   50.09    4.30
  -4  -7   0   57.59    4.60
  -4  -7   0   57.99    5.30
  -4  -7   0   53.79    5.10
   4   7   0   56.39    6.70
   4   7   0   52.79    5.90
   4   7   0   42.50    5.70
  -5  -7   0    4.60    2.10
  -5  -7   0    3.10    2.10
  -5  -7   0    1.40    2.20
  -5  -7   0   -0.10    1.60
   5   7   0   -0.10    3.00
   5   7   0    5.10    3.40
  -6  -7   0   14.80    3.00
  -6  -7   0    7.50    2.60
  -6  -7   0    4.50    2.00
  -6  -7   0   10.80    3.40
   6   7   0   12.00    4.10
   6   7   0    3.10    3.70
  -7  -7   0   74.19    6.70
  -7  -7   0   58.99    5.30
  -7  -7   0   60.29    5.60
   7   7   0   70.69    6.90
   7   7   0   53.69    8.50
  -8  -7   0   16.70    3.30
  -8  -7   0    9.60    2.80
   8   7   0    6.40    4.90
   8   7   0   14.50    3.70
   7  -8   0   70.49    5.50
   7  -8   0   67.99    5.40
  -7   8   0   62.19    4.70
  -7   8   0   60.99    8.10
   6  -8   0   13.50    2.60
   6  -8   0    9.00    2.90
  -6   8   0    7.10    4.00
  -6   8   0    7.60    1.90
   5  -8   0   60.59    4.70
   5  -8   0   60.59    4.60
   5  -8   0   57.19    4.60
   5  -8   0   59.29    4.80
  -5   8   0   63.09    7.50
  -5   8   0   49.60    4.10
   4  -8   0   16.70    2.40
   4  -8   0   14.70    2.50
   4  -8   0   14.60    2.70
   4  -8   0   16.70    3.10
  -4   8   0   13.90    2.10
  -4   8   0    7.30    3.60
  -4   8   0   10.00    3.20
   3  -8   0   32.80    3.50
   3  -8   0   37.40    3.60
   3  -8   0   39.10    3.20
   3  -8   0   37.40    3.10
  -3   8   0   41.70    3.30
  -3   8   0   28.20    4.60
  -3   8   0   38.20    4.80
   2  -8   0   11.20    2.20
   2  -8   0   11.20    2.50
   2  -8   0    9.90    1.80
   2  -8   0    9.90    1.60
  -2   8   0    8.90    3.50
  -2   8   0    9.00    1.80
  -2   8   0    6.90    3.00
   1  -8   0   -0.30    1.70
   1  -8   0   -0.40    1.50
  -1   8   0    1.10    2.60
  -1   8   0    3.70    2.90
   0  -8   0   27.60    3.40
   0  -8   0   26.80    3.10
   0   8   0   29.30    4.80
   0   8   0   22.60    3.90
   0   8   0   27.00    3.00
  -1  -8   0   28.50    3.50
  -1  -8   0   31.80    3.50
   1   8   0   26.40    4.20
   1   8   0   31.20    3.90
   1   8   0   30.60    5.10
  -2  -8   0    4.90    2.20
  -2  -8   0    5.20    3.00
  -2  -8   0    3.20    1.90
   2   8   0    4.20    2.70
   2   8   0    4.30    2.40
   2   8   0    5.00    3.50
  -3  -8   0    0.60    1.70
  -3  -8   0    0.40    2.10
  -3  -8   0   -1.60    2.30
  -3  -8   0   -0.90    2.40
   3   8   0    1.90    2.70
   3   8   0    0.40    2.40
   3   8   0    0.10    3.20
  -4  -8   0  107.49    8.10
  -4  -8   0  108.79    7.60
  -4  -8   0  106.89    6.80
  -4  -8   0  106.49    7.00
   4   8   0  122.69    9.20
   4   8   0  101.79    8.80
  -5  -8   0    5.70    2.60
  -5  -8   0    1.30    1.90
  -5  -8   0    5.70    2.90
   5   8   0    6.30    3.80
   5   8   0    1.80    3.40
  -6  -8   0   14.10    3.70
  -6  -8   0    3.20    2.10
  -6  -8   0    8.90    2.90
   6   8   0   -1.80    3.50
   6   8   0    3.70    3.80
  -7  -8   0   37.20    4.50
  -7  -8   0   25.50    3.80
   7   8   0   20.50    6.00
   7   8   0   37.10    5.90
   6  -9   0   60.39    5.10
   6  -9   0   56.59    4.90
   6  -9   0   62.79    5.10
  -6   9   0   33.80    6.30
  -6   9   0   51.79    4.40
   5  -9   0    0.00    2.00
   5  -9   0    1.20    2.30
   5  -9   0    1.60    1.90
  -5   9   0   -1.90    3.40
  -5   9   0   -0.90    1.40
   4  -9   0    0.60    1.80
   4  -9   0   -0.10    2.00
   4  -9   0    0.20    1.80
  -4   9   0   -0.80    1.20
  -4   9   0    1.50    2.60
  -4   9   0   -0.30    3.40
   3  -9   0    5.80    2.40
   3  -9   0    3.50    2.00
  -3   9   0    3.00    3.00
  -3   9   0    0.80    1.60
  -3   9   0   -2.10    2.90
   2  -9   0   55.79    4.70
   2  -9   0   59.29    5.00
  -2   9   0   57.49    6.00
  -2   9   0   61.99    7.30
   1  -9   0   37.50    4.10
   1  -9   0   45.80    4.50
  -1   9   0   45.90    6.30
  -1   9   0   43.50    5.90
   0  -9   0  102.19    6.70
   0  -9   0  100.89    6.50
   0   9   0   98.49    8.60
   0   9   0  106.99    8.60
  -1  -9   0    1.10    2.30
  -1  -9   0   -1.90    1.80
   1   9   0    3.10    3.60
   1   9   0   -0.40    2.60
  -2  -9   0    6.50    3.80
  -2  -9   0   12.30    3.30
  -2  -9   0    6.30    2.30
   2   9   0   13.20    4.60
   2   9   0    8.10    2.90
   2   9   0    3.60    3.30
  -3  -9   0   18.10    3.70
  -3  -9   0    8.00    2.40
  -3  -9   0   15.50    4.20
   3   9   0    8.80    3.30
   3   9   0   11.70    4.80
   3   9   0    8.80    3.70
  -4  -9   0    5.70    2.50
  -4  -9   0   10.90    3.70
  -4  -9   0   10.20    3.00
   4   9   0   13.80    4.90
   4   9   0    7.30    3.70
  -5  -9   0    9.30    3.00
  -5  -9   0    6.30    3.10
  -5  -9   0    1.10    2.10
   5   9   0    7.90    4.40
   5   9   0    1.10    3.20
   5 -10   0    2.30    2.20
  -5  10   0    0.80    1.70
   4 -10   0    1.90    2.10
   4 -10   0    6.80    2.80
  -4  10   0    0.10    3.50
   3 -10   0    7.00    2.50
   3 -10   0    4.60    2.80
  -3  10   0    4.40    4.10
  -3  10   0   12.20    3.80
   2 -10   0   33.20    4.80
   2 -10   0   26.90    3.80
  -2  10   0   22.50    5.20
  -2  10   0   34.90    5.50
   1 -10   0   -2.90    1.90
   1 -10   0   -1.40    2.20
  -1  10   0    3.30    3.30
  -1  10   0    0.30    3.60
   0 -10   0   76.39    6.00
   0 -10   0   68.59    5.80
   0  10   0   76.99    7.80
   0  10   0   76.49    7.90
  -1 -10   0   24.30    4.10
  -1 -10   0   18.70    3.40
   1  10   0   16.30    4.30
   1  10   0   32.00    6.10
  -2 -10   0   26.70    5.90
  -2 -10   0   22.50    3.70
  -2 -10   0   25.30    4.40
   2  10   0   30.70    6.40
   2  10   0   22.40    4.90
  -3 -10   0   14.70    4.60
  -3 -10   0   15.80    3.80
  -3 -10   0    8.50    2.80
   3  10   0   21.60    5.40
   3  10   0    5.90    3.80
  -4 -10   0    2.60    2.30
  -4 -10   0    9.10    3.60
  -4 -10   0   10.70    3.30
   4  10   0   10.70    4.60
   4  10   0    6.10    3.60
   1 -11   0    0.70    2.40
   1 -11   0   -5.10    2.00
  -1  11   0    3.40    3.30
  -1  11   0   -4.60    3.60
   0 -11   0    0.80    2.60
   0  11   0    4.00    3.80
   0  11   0   -5.50    3.20
   1  11  -1   68.19    8.10
   1  11  -1   41.60    6.40
  -1 -11   1   40.50    5.30
  -1 -11   1   45.50    5.20
  -1 -11   1   48.60    7.80
   0  11  -1   22.50    5.40
   0  11  -1    9.30    4.40
   0 -11   1   14.10    3.60
   0 -11   1   11.20    3.40
  -1  11  -1   23.10    5.30
  -1  11  -1   12.30    4.50
   1 -11   1   11.10    3.30
   1 -11   1   21.90    4.20
  -2  11  -1    5.30    3.30
  -2  11  -1   -1.70    3.70
   2 -11   1   -1.30    2.30
   2 -11   1    0.50    2.60
   4  10  -1   11.30    3.70
   4  10  -1   15.90    5.00
  -4 -10   1   16.90    4.40
  -4 -10   1    7.70    3.00
  -4 -10   1   14.60    3.70
   3  10  -1   12.40    4.10
   3  10  -1   24.80    5.80
  -3 -10   1   17.00    3.50
  -3 -10   1   18.60    4.90
  -3 -10   1   21.40    4.20
   2  10  -1  101.99    9.40
   2  10  -1   79.09    8.10
  -2 -10   1   82.79    8.10
  -2 -10   1   83.69    6.60
  -2 -10   1   72.69    6.20
   1  10  -1  286.07   15.50
   1  10  -1  282.47   16.10
  -1 -10   1  275.17   13.80
  -1 -10   1  283.17   14.10
   0  10  -1   16.90    4.40
   0  10  -1   19.30    5.40
   0 -10   1   25.10    4.10
   0 -10   1   24.40    3.80
  -1  10  -1   15.90    4.70
  -1  10  -1    9.90    3.90
   1 -10   1   11.30    3.00
   1 -10   1   13.20    3.30
  -2  10  -1   -2.90    2.80
  -2  10  -1    2.10    3.00
   2 -10   1   -0.50    2.30
   2 -10   1   -1.80    2.00
  -3  10  -1    1.40    3.40
  -3  10  -1    4.70    3.30
   3 -10   1   -0.70    2.00
   3 -10   1   -1.10    2.20
  -4  10  -1   24.60    4.90
  -4  10  -1   18.30    5.20
   4 -10   1   30.30    4.10
   4 -10   1   27.50    4.20
  -5  10  -1   30.00    6.00
   5 -10   1   33.90    4.60
   5 -10   1   40.00    4.50
   6   9  -1    4.70    3.80
  -6  -9   1    6.30    2.70
   5   9  -1   -0.50    3.20
   5   9  -1    3.60    4.00
  -5  -9   1   -4.00    1.80
  -5  -9   1    1.90    2.40
  -5  -9   1    1.30    2.40
   4   9  -1   23.60    5.50
   4   9  -1   12.30    4.30
  -4  -9   1   10.80    2.90
  -4  -9   1   16.30    3.80
  -4  -9   1   18.90    4.50
   3   9  -1    2.90    3.90
   3   9  -1    0.20    2.70
   3   9  -1   -0.70    2.40
  -3  -9   1   -0.90    2.00
  -3  -9   1   -1.30    2.60
  -3  -9   1   -0.10    2.20
   2   9  -1    6.50    3.20
   2   9  -1   11.70    4.50
   2   9  -1    9.30    3.10
  -2  -9   1    9.90    4.00
  -2  -9   1   10.80    3.10
  -2  -9   1    8.60    2.70
   1   9  -1    4.50    4.00
   1   9  -1    0.50    2.50
  -1  -9   1    1.60    2.30
  -1  -9   1   -0.60    2.00
   0   9  -1   50.49    6.80
   0   9  -1   50.29    6.00
   0  -9   1   51.29    4.70
   0  -9   1   50.09    4.50
  -1   9  -1   38.30    5.30
  -1   9  -1   39.60    6.00
   1  -9   1   42.50    4.30
   1  -9   1   39.90    4.30
  -2   9  -1   14.80    4.10
  -2   9  -1   17.70    4.50
   2  -9   1   17.50    3.40
   2  -9   1   17.50    3.00
  -3   9  -1    2.40    3.20
  -3   9  -1    8.90    3.50
   3  -9   1   13.00    2.90
   3  -9   1   11.20    2.20
   3  -9   1    9.90    2.50
  -4   9  -1   10.30    2.00
  -4   9  -1   12.30    3.60
  -4   9  -1   11.10    4.10
   4  -9   1   13.40    2.80
   4  -9   1   16.80    3.20
   4  -9   1   15.70    2.60
  -5   9  -1   -1.70    1.30
  -5   9  -1   -1.60    3.10
   5  -9   1    0.30    1.90
   5  -9   1    1.10    2.10
   5  -9   1    3.00    2.50
  -6   9  -1   -0.40    1.50
  -6   9  -1    0.50    3.30
   6  -9   1    2.30    2.10
   6  -9   1    3.20    2.60
   6  -9   1    3.10    2.20
   7   8  -1    5.70    3.50
   7   8  -1   -3.10    4.00
  -7  -8   1    7.20    2.60
   6   8  -1   49.99    8.30
   6   8  -1   81.19    8.00
  -6  -8   1   87.59    7.00
  -6  -8   1   66.49    5.50
  -6  -8   1   70.39    6.10
   5   8  -1   76.39    7.70
   5   8  -1   52.39    7.70
  -5  -8   1   73.29    6.00
  -5  -8   1   79.69    7.50
  -5  -8   1   65.29    5.30
  -5  -8   1   71.49    6.20
   4   8  -1   -2.10    2.90
   4   8  -1    3.10    3.90
  -4  -8   1    0.20    2.30
  -4  -8   1    1.80    2.10
  -4  -8   1    1.80    2.10
  -4  -8   1    3.20    2.70
   3   8  -1    6.40    3.20
   3   8  -1   20.90    5.00
   3   8  -1    9.90    3.00
  -3  -8   1   11.70    3.30
  -3  -8   1   11.50    3.40
  -3  -8   1   10.00    2.40
  -3  -8   1   13.80    3.00
   2   8  -1    3.20    2.40
   2   8  -1   -0.30    2.30
   2   8  -1    6.80    3.60
  -2  -8   1    2.30    2.80
  -2  -8   1    3.50    2.00
  -2  -8   1    2.90    2.00
   1   8  -1    4.40    2.50
   1   8  -1    6.90    2.30
   1   8  -1    5.00    3.40
   1   8  -1    3.90    2.10
  -1  -8   1    7.20    2.40
  -1  -8   1    4.90    2.10
   0   8  -1    4.00    3.30
   0   8  -1    3.10    1.70
   0   8  -1    3.10    1.60
   0   8  -1   -1.90    2.00
   0  -8   1    1.00    1.70
   0  -8   1    1.70    1.80
  -1   8  -1    4.80    2.80
  -1   8  -1    5.60    1.70
  -1   8  -1    4.60    3.20
   1  -8   1    2.00    1.80
   1  -8   1    2.40    1.80
   1  -8   1    3.20    1.10
  -2   8  -1    0.50    3.00
  -2   8  -1    4.40    1.50
  -2   8  -1    0.60    2.60
   2  -8   1    0.90    1.60
   2  -8   1    0.40    1.30
   2  -8   1    1.40    1.20
   2  -8   1   -0.10    1.50
  -3   8  -1    1.10    2.90
  -3   8  -1    3.70    1.40
  -3   8  -1   -0.80    2.40
   3  -8   1    1.50    1.50
   3  -8   1    2.00    1.70
   3  -8   1    3.00    1.80
   3  -8   1    2.90    1.80
  -4   8  -1    3.30    3.00
  -4   8  -1    4.30    3.10
  -4   8  -1    4.90    1.50
   4  -8   1    5.70    2.30
   4  -8   1    3.70    1.70
   4  -8   1    3.20    1.70
   4  -8   1    8.00    2.20
  -5   8  -1   47.90    6.40
  -5   8  -1   43.90    3.60
  -5   8  -1   46.80    5.90
   5  -8   1   49.30    4.00
   5  -8   1   53.19    4.50
   5  -8   1   51.89    4.20
   5  -8   1   48.90    4.20
  -6   8  -1   -0.10    3.20
  -6   8  -1    0.00    1.30
   6  -8   1    3.30    1.90
   6  -8   1    0.20    2.40
  -7   8  -1   16.30    4.70
  -7   8  -1   22.00    2.90
   7  -8   1   17.60    3.60
   7  -8   1   23.00    3.50
   8   7  -1   -1.50    4.50
   8   7  -1   10.50    4.30
  -8  -7   1    4.50    2.20
  -8  -7   1    7.80    2.50
   7   7  -1    4.40    3.40
   7   7  -1   -3.30    3.60
  -7  -7   1    3.40    2.20
  -7  -7   1   -0.40    1.70
  -7  -7   1   11.60    2.90
   6   7  -1   67.29    8.80
   6   7  -1   87.99    7.80
  -6  -7   1   81.69    6.00
  -6  -7   1   88.09    6.50
  -6  -7   1   89.19    7.10
  -6  -7   1   99.59    6.30
   5   7  -1   -0.10    2.40
   5   7  -1    4.40    3.50
   5   7  -1    1.80    3.20
  -5  -7   1    1.50    2.00
  -5  -7   1    1.70    2.10
  -5  -7   1    5.10    2.10
  -5  -7   1   -1.20    1.40
   4   7  -1   -1.60    2.70
   4   7  -1    1.70    3.40
   4   7  -1   -1.20    2.10
  -4  -7   1    0.10    1.90
  -4  -7   1   -0.20    1.80
  -4  -7   1    0.40    2.10
  -4  -7   1    0.40    1.70
   3   7  -1   22.70    4.40
   3   7  -1   13.00    3.60
   3   7  -1   18.70    3.20
  -3  -7   1   22.00    3.80
  -3  -7   1   22.80    3.00
  -3  -7   1   21.20    3.60
  -3  -7   1   20.50    2.90
   2   7  -1   45.90    5.10
   2   7  -1   60.49    5.30
   2   7  -1   63.49    6.10
   2   7  -1   60.59    4.90
  -2  -7   1   64.19    4.40
  -2  -7   1   62.29    4.50
  -2  -7   1   60.99    5.40
   1   7  -1   -2.80    2.60
   1   7  -1    2.10    2.20
   1   7  -1    0.70    1.60
   1   7  -1    2.30    1.80
  -1  -7   1    2.20    1.60
  -1  -7   1    2.30    1.70
   0   7  -1   90.29    5.20
   0   7  -1   83.89    6.70
   0   7  -1   84.49    3.80
   0   7  -1   74.79    5.10
   0   7  -1   83.69    6.30
   0  -7   1   86.89    5.10
   0  -7   1   87.49    5.30
  -1   7  -1  108.99    7.70
  -1   7  -1  118.09    5.20
  -1   7  -1  116.09    5.60
  -1   7  -1  119.79    7.60
  -1   7  -1  118.89    6.30
   1  -7   1  118.09    6.30
   1  -7   1  114.99    6.30
   1  -7   1  114.99    5.20
  -2   7  -1   92.49    4.80
  -2   7  -1   90.69    5.20
  -2   7  -1   78.49    6.60
  -2   7  -1   85.49    6.80
   2  -7   1   86.39    5.30
   2  -7   1   89.29    4.50
   2  -7   1   86.39    5.10
   2  -7   1   97.99    4.60
  -3   7  -1    1.70    2.20
  -3   7  -1    0.30    2.70
  -3   7  -1    3.10    1.10
  -3   7  -1    3.40    1.30
   3  -7   1    2.90    1.50
   3  -7   1    5.30    1.80
   3  -7   1    2.00    1.50
   3  -7   1    1.30    1.40
  -4   7  -1    2.70    2.70
  -4   7  -1    2.50    1.10
  -4   7  -1    1.50    2.60
  -4   7  -1    6.70    1.60
   4  -7   1    4.30    1.70
   4  -7   1    8.80    2.20
   4  -7   1    4.80    1.80
  -5   7  -1   -1.50    2.30
  -5   7  -1    0.00    1.00
  -5   7  -1    2.50    2.70
  -5   7  -1    2.70    1.30
   5  -7   1   -1.20    1.70
   5  -7   1    0.60    1.50
   5  -7   1    2.70    2.20
  -6   7  -1    9.20    1.80
  -6   7  -1    6.00    3.10
  -6   7  -1   14.40    3.70
   6  -7   1    8.00    3.00
   6  -7   1    8.90    2.30
   6  -7   1   15.00    2.80
  -7   7  -1    1.00    1.30
  -7   7  -1    0.00    2.70
   7  -7   1   -0.90    2.80
   7  -7   1    1.20    1.70
  -8   7  -1   -1.30    1.30
  -8   7  -1    3.60    3.10
   8  -7   1    3.50    3.10
   8  -7   1    1.70    1.90
   8   6  -1    1.50    4.40
   8   6  -1    8.80    4.20
  -8  -6   1    4.60    2.20
  -8  -6   1    1.30    1.90
   7   6  -1   -1.00    3.70
   7   6  -1    0.30    2.70
   7   6  -1    3.60    2.90
  -7  -6   1    3.60    2.20
  -7  -6   1   -0.10    1.70
  -7  -6   1    6.00    2.60
   6   6  -1   41.20    7.10
   6   6  -1   47.80    5.30
   6   6  -1   58.49    6.00
  -6  -6   1   60.79    4.60
  -6  -6   1   50.59    4.30
  -6  -6   1   53.79    4.80
  -6  -6   1   60.39    5.50
   5   6  -1   78.79    7.90
   5   6  -1   97.39    6.60
   5   6  -1   95.69    7.40
  -5  -6   1   95.69    6.20
  -5  -6   1   99.59    6.00
  -5  -6   1  100.39    6.20
  -5  -6   1   96.29    6.60
   4   6  -1    3.00    2.90
   4   6  -1    9.80    3.30
   4   6  -1    6.10    2.20
  -4  -6   1    8.30    2.60
  -4  -6   1    5.90    1.80
  -4  -6   1    9.30    2.50
  -4  -6   1    8.30    2.50
   3   6  -1    5.60    2.10
   3   6  -1    4.00    2.70
   3   6  -1    6.10    3.00
  -3  -6   1    5.30    1.90
  -3  -6   1    6.40    2.40
  -3  -6   1    4.70    1.60
  -3  -6   1    5.90    2.50
   2   6  -1   33.30    4.60
   2   6  -1   33.80    3.90
   2   6  -1   31.90    3.30
   2   6  -1   23.80    3.80
  -2  -6   1   30.50    2.90
  -2  -6   1   33.80    3.30
  -2  -6   1   28.70    3.70
   1   6  -1   90.29    5.30
   1   6  -1   70.59    5.60
   1   6  -1   92.49    3.70
   1   6  -1   93.49    6.00
   1   6  -1   90.79    6.70
   1   6  -1   98.99    3.70
  -1  -6   1   86.19    5.10
  -1  -6   1   88.39    5.10
   0   6  -1  295.97   14.30
   0   6  -1  314.07   14.00
   0   6  -1  322.87   13.10
   0   6  -1  283.07   17.60
   0   6  -1  324.97   11.90
   0   6  -1  264.27   13.10
   0  -6   1  308.57   11.80
   0  -6   1  295.57   13.00
   0  -6   1  292.97   13.00
  -1   6  -1  687.43   27.30
  -1   6  -1  628.24   28.40
  -1   6  -1  638.04   26.80
  -1   6  -1  599.14   30.90
  -1   6  -1  706.43   26.90
  -1   6  -1  692.83   28.50
  -1   6  -1  707.53   26.40
   1  -6   1  689.03   27.30
   1  -6   1  749.42   26.10
   1  -6   1  688.43   27.40
   1  -6   1  692.63   26.40
   1  -6   1  669.63   26.40
  -2   6  -1  693.23   27.40
  -2   6  -1  624.24   30.70
  -2   6  -1  709.03   29.30
  -2   6  -1  727.53   27.20
  -2   6  -1  714.13   28.00
  -2   6  -1  660.03   29.00
   2  -6   1  717.23   27.30
   2  -6   1  720.33   27.30
   2  -6   1  706.93   28.00
   2  -6   1  689.63   27.90
  -3   6  -1   60.49    3.40
  -3   6  -1   43.20    4.80
  -3   6  -1   56.59    5.10
  -3   6  -1   61.29    3.90
   3  -6   1   61.89    3.80
   3  -6   1   64.29    4.00
   3  -6   1   63.09    3.80
  -4   6  -1   67.09    5.50
  -4   6  -1   73.79    6.00
  -4   6  -1   80.69    4.70
  -4   6  -1   79.09    4.10
   4  -6   1   74.19    4.50
   4  -6   1   75.19    4.40
   4  -6   1   77.89    4.50
  -5   6  -1   -0.10    0.90
  -5   6  -1    0.70    1.10
  -5   6  -1    0.30    2.20
  -5   6  -1   -3.20    2.00
   5  -6   1   -0.50    2.00
   5  -6   1   -0.40    1.30
   5  -6   1    2.50    1.90
  -6   6  -1   29.90    3.00
  -6   6  -1   22.60    2.50
  -6   6  -1   24.40    4.10
   6  -6   1   23.30    3.30
   6  -6   1   26.70    3.20
   6  -6   1   22.50    3.00
  -7   6  -1   11.10    3.30
  -7   6  -1   12.10    2.00
  -7   6  -1   12.00    2.20
   7  -6   1   13.10    2.60
   7  -6   1   13.90    3.40
  -8   6  -1    5.70    1.80
  -8   6  -1    9.70    3.10
   8  -6   1    5.20    3.30
   8  -6   1    7.00    2.20
  -9   6  -1   53.99    6.40
  -9   6  -1   25.60    3.20
   9  -6   1   35.90    4.50
   9  -6   1   35.30    4.80
   8   5  -1   10.70    5.60
   8   5  -1    8.40    3.20
  -8  -5   1   10.80    2.50
  -8  -5   1   12.30    3.00
  -8  -5   1   20.50    4.70
   7   5  -1    8.80    2.90
   7   5  -1   -0.30    2.60
   7   5  -1    0.70    3.60
  -7  -5   1    8.40    2.90
  -7  -5   1    4.40    2.20
  -7  -5   1    3.80    1.70
   6   5  -1    5.00    2.80
   6   5  -1    1.30    2.30
   6   5  -1    0.70    3.20
  -6  -5   1    3.10    2.00
  -6  -5   1    4.10    2.10
  -6  -5   1    2.20    1.40
  -6  -5   1    5.50    1.70
   5   5  -1    9.30    2.70
   5   5  -1    8.20    2.90
  -5  -5   1    9.10    2.40
  -5  -5   1    8.90    2.50
  -5  -5   1    8.60    2.00
  -5  -5   1    8.70    2.20
   4   5  -1 1740.13   67.59
   4   5  -1 1826.02   67.09
   4   5  -1 1551.64   65.49
  -4  -5   1 1792.52   67.19
  -4  -5   1 1682.13   66.99
  -4  -5   1 1665.73   66.59
  -4  -5   1 1723.43   67.59
   3   5  -1    0.40    1.50
   3   5  -1    0.50    0.60
   3   5  -1   -0.80    2.50
  -3  -5   1    0.10    1.40
  -3  -5   1    1.20    1.30
  -3  -5   1    0.80    1.70
  -3  -5   1    1.00    1.70
   2   5  -1   95.59    5.70
   2   5  -1   91.19    6.70
   2   5  -1   89.39    5.30
  -2  -5   1   94.19    5.70
  -2  -5   1   96.19    5.20
  -2  -5   1   93.99    5.20
   1   5  -1  376.66   21.70
   1   5  -1  438.66   16.10
   1   5  -1  463.65   16.20
   1   5  -1  412.56   17.80
   1   5  -1  412.46   17.40
   1   5  -1  399.26   18.40
  -1  -5   1  413.36   17.40
  -1  -5   1  434.76   17.40
   0   5  -1  584.54   22.90
   0   5  -1  493.05   26.30
   0   5  -1  592.74   21.90
   0   5  -1  579.34   23.60
   0   5  -1  642.24   22.10
   0   5  -1  544.15   23.90
   0  -5   1  559.04   22.80
   0  -5   1  565.94   21.90
   0  -5   1  550.74   22.80
  -1   5  -1    0.60    0.80
  -1   5  -1    1.80    0.70
  -1   5  -1    2.90    2.40
  -1   5  -1    2.00    0.90
  -1   5  -1    1.20    0.90
  -1   5  -1    1.20    1.60
   1  -5   1    3.60    1.10
   1  -5   1    1.40    1.20
   1  -5   1    2.20    1.20
   1  -5   1    4.30    1.10
  -2   5  -1  296.07   11.80
  -2   5  -1  305.77   11.70
  -2   5  -1  284.37   13.30
  -2   5  -1  251.47   14.30
  -2   5  -1  292.77   12.30
   2  -5   1  287.67   12.20
   2  -5   1  282.57   12.20
   2  -5   1  301.07   11.80
   2  -5   1  302.47   11.80
  -3   5  -1 1021.10   41.50
  -3   5  -1 1074.69   42.90
  -3   5  -1  897.71   42.60
  -3   5  -1 1043.20   41.00
   3  -5   1 1080.29   41.00
   3  -5   1 1101.09   41.10
   3  -5   1 1025.10   41.40
   3  -5   1 1226.78   42.20
  -4   5  -1   50.19    4.30
  -4   5  -1   65.69    3.90
  -4   5  -1   55.09    4.90
  -4   5  -1   62.29    3.40
   4  -5   1   59.29    3.80
   4  -5   1   67.89    4.00
   4  -5   1   60.39    4.00
  -5   5  -1   91.39    5.10
  -5   5  -1   82.09    6.20
  -5   5  -1   90.39    4.60
   5  -5   1   85.69    5.00
   5  -5   1   85.69    5.00
   5  -5   1   91.29    5.10
  -6   5  -1    4.20    1.20
  -6   5  -1    5.70    1.50
   6  -5   1    2.80    1.90
   6  -5   1    6.70    1.80
   6  -5   1    5.60    2.30
  -7   5  -1   -0.40    1.00
  -7   5  -1   -0.40    1.10
   7  -5   1   -1.20    2.40
   7  -5   1    1.90    2.20
   7  -5   1   -0.20    1.40
  -8   5  -1   26.50    2.90
  -8   5  -1   34.90    3.90
   8  -5   1   26.30    3.50
   8  -5   1   31.90    4.20
   9  -5   1    6.50    3.20
   9   4  -1   39.20    5.10
   9   4  -1   27.40    7.20
  -9  -4   1   38.40    4.10
  -9  -4   1   43.10    4.80
  -9  -4   1   50.09    6.00
   8   4  -1    6.20    3.10
   8   4  -1    2.00    4.20
  -8  -4   1   11.60    2.90
  -8  -4   1    6.40    1.40
  -8  -4   1   14.20    4.00
  -8  -4   1    7.50    2.30
   7   4  -1   28.50    5.90
   7   4  -1   45.20    4.30
   7   4  -1   40.50    4.60
  -7  -4   1   41.70    3.70
  -7  -4   1   52.29    4.10
  -7  -4   1   47.50    4.90
  -7  -4   1   40.90    4.10
   6   4  -1   11.90    1.30
   6   4  -1   12.80    2.70
   6   4  -1   11.40    2.90
   6   4  -1   11.10    1.30
  -6  -4   1   11.90    2.20
  -6  -4   1   16.60    3.30
  -6  -4   1   13.80    2.80
  -6  -4   1    9.40    2.00
   5   4  -1   82.39    3.60
   5   4  -1   86.09    5.80
   5   4  -1   89.69    5.70
   5   4  -1   82.89    3.60
  -5  -4   1   85.59    5.20
  -5  -4   1   80.79    5.20
  -5  -4   1   78.39    4.80
  -5  -4   1   76.69    5.60
   4   4  -1  238.88    9.00
   4   4  -1  242.98   11.00
   4   4  -1  237.08    9.00
   4   4  -1  227.98   11.30
  -4  -4   1  224.18   10.60
  -4  -4   1  230.08   11.10
  -4  -4   1  226.68   10.70
  -4  -4   1  226.58   10.40
   3   4  -1    3.70    2.70
   3   4  -1    4.10    1.80
  -3  -4   1    5.50    1.80
  -3  -4   1    5.10    1.60
  -3  -4   1    6.20    1.50
  -3  -4   1    4.20    1.10
  -3  -4   1    5.80    1.70
   2   4  -1  379.96   17.10
   2   4  -1  429.06   16.60
   2   4  -1  405.16   16.60
   2   4  -1  396.16   15.30
   2   4  -1  370.66   20.70
  -2  -4   1  406.76   16.90
  -2  -4   1  405.86   16.40
  -2  -4   1  384.96   16.40
   1   4  -1  809.92   32.30
   1   4  -1  718.03   35.40
   1   4  -1  895.61   31.00
   1   4  -1  838.02   32.00
   1   4  -1  759.82   32.70
   1   4  -1  867.01   31.00
  -1  -4   1  807.72   31.90
  -1  -4   1  802.52   32.00
   0   4  -1   70.59    2.90
   0   4  -1   72.49    2.90
   0   4  -1   61.49    3.50
   0   4  -1   58.99    6.30
   0   4  -1   67.39    4.10
   0  -4   1   65.39    3.50
   0  -4   1   68.99    3.70
   0  -4   1   65.29    2.90
  -1   4  -1  261.97   11.60
  -1   4  -1  267.57   10.90
  -1   4  -1  233.28   13.00
  -1   4  -1  270.17   10.60
  -1   4  -1  276.67   10.40
   1  -4   1  262.87   10.40
   1  -4   1  260.67   10.50
   1  -4   1  258.87   10.90
   1  -4   1  262.77   10.90
  -2   4  -1  156.68    6.90
  -2   4  -1  158.28    6.60
  -2   4  -1  131.59    8.30
  -2   4  -1  152.78    7.80
  -2   4  -1  160.28    6.60
   2  -4   1  149.39    7.80
   2  -4   1  152.98    6.60
   2  -4   1  176.68    7.90
   2  -4   1  158.38    6.60
   2  -4   1  146.99    6.80
  -3   4  -1   25.40    2.00
  -3   4  -1   26.40    1.80
  -3   4  -1   22.40    3.00
  -3   4  -1   26.10    2.10
   3  -4   1   28.40    2.20
   3  -4   1   25.20    2.70
   3  -4   1   29.00    2.60
   3  -4   1   29.80    2.60
  -4   4  -1   -0.30    0.90
  -4   4  -1    0.30    0.60
  -4   4  -1    0.50    0.80
   4  -4   1    0.70    1.70
   4  -4   1    1.10    1.50
   4  -4   1    0.70    1.10
  -5   4  -1   31.00    2.40
  -5   4  -1   32.30    2.30
  -5   4  -1   34.30    2.70
   5  -4   1   36.00    1.70
   5  -4   1   40.10    3.40
   5  -4   1   37.80    3.20
   5  -4   1   34.70    2.80
  -6   4  -1  157.48    7.30
  -6   4  -1  158.88    7.80
   6  -4   1  156.78    7.80
   6  -4   1  156.78    7.70
   6  -4   1  165.58    7.80
  -7   4  -1    6.10    1.40
  -7   4  -1   10.20    2.00
   7  -4   1    8.10    2.50
   7  -4   1    7.20    2.00
   7  -4   1    5.40    2.30
  -8   4  -1    8.50    1.70
  -8   4  -1    8.10    2.00
   8  -4   1    4.70    2.00
   8  -4   1   10.30    3.00
  -9   4  -1    8.40    2.40
  -9   4  -1    4.50    1.60
   9  -4   1    5.60    3.30
   9  -4   1    5.90    2.50
 -10   4  -1    4.70    1.70
  10  -4   1   11.80    3.70
  10  -4   1    7.80    2.50
  10   3  -1    3.40    3.30
  10   3  -1    2.30    4.70
 -10  -3   1   10.10    2.20
   9   3  -1   -5.30    3.60
   9   3  -1   -2.60    2.30
  -9  -3   1   -0.10    1.60
  -9  -3   1    3.30    2.20
  -9  -3   1    3.40    2.90
   8   3  -1   35.00    4.60
   8   3  -1   24.50    6.10
  -8  -3   1   39.40    3.70
  -8  -3   1   35.60    2.50
  -8  -3   1   39.10    4.20
  -8  -3   1   42.40    5.10
   7   3  -1   18.10    2.00
   7   3  -1   20.00    2.10
   7   3  -1   22.50    2.90
   7   3  -1   16.20    3.10
  -7  -3   1   19.70    2.80
  -7  -3   1   26.00    2.90
  -7  -3   1   17.90    1.80
  -7  -3   1   18.80    2.50
  -7  -3   1   26.90    4.50
   6   3  -1  227.88    9.20
   6   3  -1  228.88   10.40
   6   3  -1  213.08   10.80
   6   3  -1  233.78    9.30
  -6  -3   1  222.18    9.00
  -6  -3   1  213.68   10.70
  -6  -3   1  211.88   10.20
  -6  -3   1  226.28   10.60
  -6  -3   1  226.08   11.50
   5   3  -1  280.27   11.00
   5   3  -1  279.37   12.40
   5   3  -1  289.17   11.00
   5   3  -1  291.27   12.60
  -5  -3   1  270.97   10.90
  -5  -3   1  279.47   12.30
  -5  -3   1  262.77   12.40
  -5  -3   1  268.27   12.90
  -5  -3   1  261.97   12.00
   4   3  -1  622.24   23.30
   4   3  -1  620.84   23.30
   4   3  -1  607.84   24.70
   4   3  -1  600.04   24.70
  -4  -3   1  601.14   24.50
  -4  -3   1  580.84   24.60
  -4  -3   1  602.54   25.00
  -4  -3   1  600.84   24.30
   3   3  -1  190.88    9.30
   3   3  -1  206.68    7.70
   3   3  -1  203.28    7.70
   3   3  -1  197.08    9.00
  -3  -3   1  195.98    9.20
  -3  -3   1  188.98    8.80
  -3  -3   1  199.98    7.80
  -3  -3   1  191.08    8.70
  -3  -3   1  189.38    8.80
   2   3  -1   74.59    7.40
   2   3  -1   81.69    3.10
   2   3  -1   81.49    3.10
   2   3  -1   80.19    4.30
   2   3  -1   77.29    4.70
   2   3  -1   76.19    4.20
  -2  -3   1   81.69    4.10
  -2  -3   1   79.29    4.40
  -2  -3   1   78.79    4.10
   1   3  -1 3090.59  118.39
   1   3  -1 3093.19  118.49
   1   3  -1 3028.30  121.29
   1   3  -1 3172.58  121.99
  -1  -3   1 3295.37  122.39
  -1  -3   1 3012.80  121.19
  -1  -3   1 3310.97  120.99
  -1  -3   1 2870.01  120.59
   0   3  -1 1175.18   42.40
   0   3  -1 1088.19   42.90
   0   3  -1 1140.59   42.60
   0   3  -1 1079.69   43.20
   0  -3   1 1105.99   43.70
   0  -3   1 1172.78   42.90
   0  -3   1 1213.18   46.00
   0  -3   1 1038.30   42.30
   0  -3   1 1048.60   42.60
   0  -3   1 1108.39   42.90
   0  -3   1 1057.49   42.60
  -1   3  -1    1.30    0.60
  -1   3  -1    0.60    0.60
  -1   3  -1    0.30    1.00
  -1   3  -1   -0.60    0.80
  -1   3  -1    0.40    0.60
  -1   3  -1    0.70    0.40
   1  -3   1    1.40    0.70
   1  -3   1    0.20    0.70
   1  -3   1    1.40    0.70
   1  -3   1    0.60    0.40
   1  -3   1    0.20    0.40
   1  -3   1    0.60    0.60
  -2   3  -1  641.44   25.10
  -2   3  -1  626.34   24.70
  -2   3  -1  643.34   26.00
  -2   3  -1  634.44   24.80
   2  -3   1  622.84   24.80
   2  -3   1  718.43   25.70
   2  -3   1  614.54   25.00
   2  -3   1  640.94   24.80
   2  -3   1  618.14   25.90
  -3   3  -1  205.88    8.40
  -3   3  -1  217.38    9.20
  -3   3  -1  194.58    8.30
  -3   3  -1  187.38    8.50
   3  -3   1  216.68    7.80
   3  -3   1  197.28    8.50
   3  -3   1  202.38    9.40
   3  -3   1  199.88    8.50
   3  -3   1  190.68    8.50
  -4   3  -1  266.67   13.40
  -4   3  -1  248.88   12.70
  -4   3  -1  300.07   12.10
  -4   3  -1  284.37   11.50
  -4   3  -1  284.67   11.80
  -4   3  -1  286.97   11.50
   4  -3   1  283.97   11.90
   4  -3   1  286.47   12.60
   4  -3   1  274.57   11.70
   4  -3   1  279.67   11.40
   4  -3   1  291.87   11.70
  -5   3  -1  679.93   27.30
  -5   3  -1  711.53   26.90
  -5   3  -1  651.83   28.60
  -5   3  -1  766.02   27.60
  -5   3  -1  652.53   29.40
   5  -3   1  675.53   27.30
   5  -3   1  643.84   27.10
   5  -3   1  690.93   27.10
   5  -3   1  674.03   27.00
  -6   3  -1    0.40    1.80
  -6   3  -1   -0.20    0.50
  -6   3  -1   -0.90    0.60
  -6   3  -1    1.00    1.40
  -6   3  -1    0.40    0.90
   6  -3   1    0.50    1.30
   6  -3   1    0.20    1.90
   6  -3   1    0.00    2.00
   6  -3   1    0.70    1.30
  -7   3  -1   56.19    3.90
  -7   3  -1   52.39    3.50
  -7   3  -1   54.09    5.90
  -7   3  -1   47.30    4.90
   7  -3   1   54.89    4.50
   7  -3   1   58.39    4.40
   7  -3   1   56.69    4.40
   7  -3   1   50.19    4.10
  -8   3  -1  336.97   14.40
  -8   3  -1  344.77   15.00
  -8   3  -1  322.97   18.40
  -8   3  -1  311.07   16.70
   8  -3   1  339.87   15.20
   8  -3   1  341.97   14.70
   8  -3   1  332.97   14.60
  -9   3  -1    5.50    1.60
  -9   3  -1    5.30    1.90
  -9   3  -1    5.60    4.20
   9  -3   1    6.70    3.10
   9  -3   1    4.50    2.40
 -10   3  -1    1.10    1.40
 -10   3  -1    6.60    3.80
  10  -3   1    2.80    2.90
  10  -3   1    3.20    2.20
  10   2  -1    5.00    3.00
  10   2  -1    0.80    4.50
 -10  -2   1    9.70    2.30
 -10  -2   1   17.40    4.70
   9   2  -1   40.00    3.70
   9   2  -1   41.10    5.10
   9   2  -1   31.60    6.60
  -9  -2   1   44.00    4.30
  -9  -2   1   61.19    6.80
   8   2  -1    2.70    1.80
   8   2  -1    5.00    2.60
   8   2  -1    0.50    3.50
   8   2  -1    3.20    1.90
  -8  -2   1    3.90    1.00
  -8  -2   1    4.00    1.60
  -8  -2   1    5.30    2.30
  -8  -2   1    4.80    2.90
   7   2  -1   10.40    1.90
   7   2  -1   11.10    1.80
   7   2  -1   13.20    2.00
   7   2  -1    7.10    2.40
  -7  -2   1   14.20    2.50
  -7  -2   1   12.80    1.40
  -7  -2   1   14.30    3.50
  -7  -2   1   12.80    2.60
  -7  -2   1   12.30    2.00
   6   2  -1   55.79    4.40
   6   2  -1   52.79    3.20
   6   2  -1   55.29    3.20
   6   2  -1   48.00    3.50
  -6  -2   1   54.89    3.90
  -6  -2   1   48.60    2.80
  -6  -2   1   53.79    3.50
  -6  -2   1   49.80    3.80
  -6  -2   1   47.20    2.70
  -6  -2   1   51.69    4.50
   5   2  -1    3.70    1.20
   5   2  -1    5.90    1.00
   5   2  -1    5.50    1.90
   5   2  -1    4.20    1.60
   5   2  -1    3.90    1.70
   5   2  -1    4.10    1.10
  -5  -2   1    3.80    1.30
  -5  -2   1    3.30    1.10
  -5  -2   1    3.40    0.90
  -5  -2   1    3.90    1.60
  -5  -2   1    4.80    1.80
   4   2  -1  149.79    6.10
   4   2  -1  144.29    7.00
   4   2  -1  152.88    7.00
   4   2  -1  154.58    6.10
   4   2  -1  156.78    7.30
  -4  -2   1  137.59    7.30
  -4  -2   1  149.59    6.80
  -4  -2   1  149.39    6.00
  -4  -2   1  141.09    6.80
  -4  -2   1  140.89    7.00
   3   2  -1   16.60    1.10
   3   2  -1   15.40    1.20
   3   2  -1   15.70    2.10
   3   2  -1   14.70    2.10
  -3  -2   1   16.70    1.60
  -3  -2   1   15.40    1.80
  -3  -2   1   15.00    1.60
  -3  -2   1   14.60    1.80
  -3  -2   1   13.90    1.60
  -3  -2   1   18.30    1.00
  -3  -2   1   15.80    1.10
   2   2  -1    1.60    1.50
   2   2  -1    0.90    0.40
   2   2  -1    1.40    0.40
   2   2  -1    1.40    0.90
   2   2  -1    1.50    1.90
   2   2  -1    1.30    1.00
  -2  -2   1    0.70    0.80
  -2  -2   1    0.70    0.60
  -2  -2   1    1.10    0.80
  -2  -2   1   -0.20    0.80
  -2  -2   1    1.00    0.70
  -2  -2   1    0.30    0.80
  -2  -2   1    3.90    0.90
   1   2  -1   52.89    2.80
   1   2  -1   50.19    2.80
   1   2  -1   48.30    5.00
   1   2  -1   50.59    2.80
   1   2  -1   47.60    2.80
  -1  -2   1   53.89    2.80
  -1  -2   1   47.10    2.70
  -1  -2   1   50.89    2.80
  -1  -2   1   52.89    4.70
  -1  -2   1   51.69    2.80
   0   2  -1 3233.48  140.79
   0   2  -1 3378.36  132.09
   0   2  -1 3613.14  134.19
   0   2  -1 3449.25  135.19
   0   2  -1 3297.57  132.19
   0   2  -1 3433.36  134.09
   0   2  -1 3541.15  134.19
   0  -2   1 3488.75  134.19
   0  -2   1 3439.06  134.29
   0  -2   1 3233.58  132.09
   0  -2   1 3803.92  138.89
   0  -2   1 3626.94  134.29
   0  -2   1 3393.46  131.89
   0  -2   1 3536.95  132.39
  -1   2  -1  311.37   11.60
  -1   2  -1  311.77   11.90
  -1   2  -1  323.77   12.90
  -1   2  -1  298.17   12.00
  -1   2  -1  288.37   11.80
  -1   2  -1  306.27   11.80
  -1   2  -1  285.07   11.70
   1  -2   1  306.17   12.00
   1  -2   1  274.67   12.40
   1  -2   1  291.17   11.80
   1  -2   1  291.37   11.80
   1  -2   1  291.27   12.60
   1  -2   1  307.57   11.70
   1  -2   1  286.27   11.90
   1  -2   1  335.87   12.70
  -2   2  -1  169.68    8.10
  -2   2  -1  174.68    7.10
  -2   2  -1  164.68    7.00
  -2   2  -1  171.38    7.30
  -2   2  -1  190.28    7.80
  -2   2  -1  163.68    7.90
   2  -2   1  177.18    7.20
   2  -2   1  177.68    7.20
   2  -2   1  189.38    7.30
   2  -2   1  174.78    6.90
   2  -2   1  165.98    7.20
   2  -2   1  175.08    7.80
   2  -2   1  178.98    6.90
  -3   2  -1  469.95   18.50
  -3   2  -1  438.86   19.60
  -3   2  -1  522.25   19.00
  -3   2  -1  473.05   18.30
  -3   2  -1  445.86   19.30
  -3   2  -1  477.55   18.20
   3  -2   1  487.65   19.10
   3  -2   1  476.75   18.30
   3  -2   1  468.75   17.90
   3  -2   1  464.05   18.30
   3  -2   1  463.85   18.50
   3  -2   1  408.96   18.40
  -4   2  -1   18.00    1.70
  -4   2  -1   14.90    2.30
  -4   2  -1   17.50    1.00
  -4   2  -1   14.90    1.40
  -4   2  -1   17.30    1.40
  -4   2  -1   16.50    2.20
   4  -2   1   17.50    2.00
   4  -2   1   17.40    1.90
   4  -2   1   12.70    1.70
   4  -2   1   16.50    2.00
   4  -2   1   15.50    1.90
   4  -2   1   17.70    1.00
  -5   2  -1  324.57   14.70
  -5   2  -1  324.37   13.40
  -5   2  -1  314.57   15.30
  -5   2  -1  322.37   12.90
  -5   2  -1  338.47   12.60
   5  -2   1  315.87   13.30
   5  -2   1  288.87   13.90
   5  -2   1  340.07   13.40
   5  -2   1  336.17   13.70
  -6   2  -1  136.39    6.40
  -6   2  -1  127.49    7.60
  -6   2  -1  125.39    8.30
  -6   2  -1  130.89    5.30
   6  -2   1  111.39    7.00
   6  -2   1  137.39    6.50
   6  -2   1  134.99    6.50
   6  -2   1  134.39    6.80
  -7   2  -1   39.80    2.00
  -7   2  -1   38.40    3.00
  -7   2  -1   39.60    4.30
  -7   2  -1   36.80    4.70
  -7   2  -1   37.80    2.70
   7  -2   1   37.90    3.50
   7  -2   1   39.20    3.70
   7  -2   1   35.10    4.10
   7  -2   1   40.60    3.80
  -8   2  -1   11.40    2.10
  -8   2  -1   13.20    4.20
  -8   2  -1   11.50    1.80
  -8   2  -1   16.00    3.40
   8  -2   1   10.40    2.90
   8  -2   1   13.80    2.80
   8  -2   1   11.80    2.50
   8  -2   1   11.70    2.70
  -9   2  -1   31.10    3.50
  -9   2  -1   38.80    7.50
  -9   2  -1   28.80    3.10
   9  -2   1   23.90    3.70
   9  -2   1   29.10    4.10
 -10   2  -1   11.10    5.20
 -10   2  -1    9.20    2.00
 -10   2  -1   13.20    2.60
  10  -2   1    4.00    3.30
  10  -2   1    8.40    3.00
  10   1  -1   56.09    5.00
  10   1  -1   57.89    6.00
 -10  -1   1   70.49    7.40
 -10  -1   1   49.00    4.50
   9   1  -1  152.08    7.50
   9   1  -1  145.79    8.80
   9   1  -1  144.59    7.40
   9   1  -1  108.49   10.50
  -9  -1   1  155.48   10.80
  -9  -1   1  137.29    7.70
   8   1  -1   -0.50    1.90
   8   1  -1   -0.40    2.10
   8   1  -1    0.60    1.70
  -8  -1   1   -0.10    2.00
  -8  -1   1    4.70    1.70
  -8  -1   1    0.80    1.20
  -8  -1   1   -0.10    0.60
   7   1  -1  360.96   14.80
   7   1  -1  354.46   16.00
   7   1  -1  357.36   14.70
  -7  -1   1  360.36   17.40
  -7  -1   1  379.76   16.30
  -7  -1   1  350.36   14.20
  -7  -1   1  339.47   15.30
   6   1  -1  216.98    9.00
   6   1  -1  221.58    9.00
   6   1  -1  202.28   10.00
   6   1  -1  218.68    8.80
   6   1  -1  202.78   10.30
  -6  -1   1  216.28   10.00
  -6  -1   1  217.08    8.50
  -6  -1   1  198.48    9.30
  -6  -1   1  203.18    9.90
  -6  -1   1  200.28   10.70
  -6  -1   1  196.68    8.90
   5   1  -1    1.50    1.20
   5   1  -1    3.00    1.60
   5   1  -1    0.50    1.00
   5   1  -1    1.80    1.30
   5   1  -1    2.40    0.90
   5   1  -1    1.10    1.10
  -5  -1   1    1.00    0.90
  -5  -1   1    0.80    0.90
  -5  -1   1    1.90    0.60
  -5  -1   1    0.10    1.10
  -5  -1   1    1.40    0.80
  -5  -1   1    0.30    1.20
   4   1  -1   96.89    5.10
   4   1  -1   97.29    4.30
   4   1  -1   97.09    4.60
   4   1  -1   99.39    4.80
   4   1  -1   95.59    4.30
   4   1  -1  103.39    4.30
  -4  -1   1   97.29    4.10
  -4  -1   1   93.19    5.30
  -4  -1   1   92.09    4.90
  -4  -1   1   94.19    4.60
  -4  -1   1   95.89    4.80
  -4  -1   1   97.29    4.20
   3   1  -1   18.00    1.70
   3   1  -1   17.60    1.30
   3   1  -1   19.30    1.60
   3   1  -1   20.50    2.00
   3   1  -1   17.20    1.30
   3   1  -1   19.20    1.40
  -3  -1   1   20.20    1.30
  -3  -1   1   17.70    1.40
  -3  -1   1   19.70    1.20
  -3  -1   1   18.70    1.60
  -3  -1   1   18.30    1.80
  -3  -1   1   19.20    1.50
   2   1  -1  626.44   23.20
   2   1  -1  638.14   23.30
   2   1  -1  580.54   23.20
   2   1  -1  655.43   23.50
   2   1  -1  586.04   23.10
   2   1  -1  521.65   25.00
   2   1  -1  601.34   23.40
   2   1  -1  595.84   22.80
   2   1  -1  586.54   22.80
   2   1  -1  626.04   22.90
  -2  -1   1  571.04   23.10
  -2  -1   1  603.04   23.10
  -2  -1   1  603.64   23.40
  -2  -1   1  583.44   23.30
  -2  -1   1  560.24   25.00
  -2  -1   1  615.84   23.40
  -2  -1   1  597.84   23.20
  -2  -1   1  561.14   22.80
   1   1  -1   39.50    2.20
   1   1  -1   41.60    2.10
   1   1  -1   43.70    2.10
   1   1  -1   45.70    2.20
   1   1  -1   36.70    3.20
   1   1  -1   39.50    1.80
   1   1  -1   42.30    1.90
  -1  -1   1   41.70    2.10
  -1  -1   1   41.00    3.20
  -1  -1   1   41.50    2.10
  -1  -1   1   42.40    1.90
  -1  -1   1   41.50    2.10
  -1  -1   1   41.00    2.00
  -1  -1   1   39.70    2.00
  -1  -1   1   42.60    2.10
   0   1  -1  371.86   15.30
   0   1  -1  418.86   16.10
   0   1  -1  364.76   15.10
   0   1  -1  366.76   15.10
   0   1  -1  412.86   15.70
   0   1  -1  407.86   15.30
   0  -1   1  419.86   15.30
   0  -1   1  368.66   15.20
   0  -1   1  396.16   15.30
   0  -1   1  402.06   15.10
  -1   1  -1  405.66   15.10
  -1   1  -1  389.86   15.10
  -1   1  -1  380.46   15.00
  -1   1  -1  361.26   15.00
  -1   1  -1  340.67   15.00
  -1   1  -1  358.16   15.40
  -1   1  -1  414.76   15.50
  -1   1  -1  385.06   14.90
  -1   1  -1  364.46   15.40
   1  -1   1  399.46   15.10
   1  -1   1  401.26   15.50
   1  -1   1  385.46   15.00
   1  -1   1  391.76   15.00
   1  -1   1  384.56   15.00
   1  -1   1  393.46   15.10
   1  -1   1  397.26   15.40
  -2   1  -1 4688.33  169.88
  -2   1  -1 4368.16  170.08
  -2   1  -1 4354.76  173.48
  -2   1  -1 4614.04  171.68
  -2   1  -1 4506.55  174.78
  -2   1  -1 4309.57  170.48
   2  -1   1 4410.06  169.38
   2  -1   1 4298.97  169.68
   2  -1   1 4551.14  172.88
   2  -1   1 4498.35  168.68
   2  -1   1 3758.82  171.58
   2  -1   1 4852.81  171.18
   2  -1   1 4470.55  172.18
   2  -1   1 4426.96  171.48
  -3   1  -1 2522.95   97.89
  -3   1  -1 2540.85   97.89
  -3   1  -1 2593.54   96.99
  -3   1  -1 2430.36   99.59
  -3   1  -1 2453.05   97.49
  -3   1  -1 2541.05   98.79
   3  -1   1 2569.74   97.29
   3  -1   1 2678.73  100.79
   3  -1   1 2641.14   98.89
   3  -1   1 2625.64   99.19
   3  -1   1 2176.58   99.89
   3  -1   1 2657.03   96.99
   3  -1   1 2592.44   97.79
  -4   1  -1  193.38    8.00
  -4   1  -1  193.58    9.00
  -4   1  -1  202.38    8.10
  -4   1  -1  194.18    9.50
  -4   1  -1  190.58    8.20
  -4   1  -1  201.58    7.60
   4  -1   1  194.88    8.10
   4  -1   1  167.88    8.90
   4  -1   1  192.28    8.20
   4  -1   1  206.78    8.80
   4  -1   1  192.48    8.50
  -5   1  -1    4.00    1.50
  -5   1  -1    5.80    0.60
  -5   1  -1    4.20    1.80
  -5   1  -1    3.80    1.20
  -5   1  -1    5.40    1.10
  -5   1  -1    4.10    1.00
   5  -1   1    6.90    1.50
   5  -1   1    3.50    1.60
   5  -1   1    2.90    1.90
   5  -1   1    6.00    1.50
   5  -1   1    5.50    1.70
  -6   1  -1   40.00    4.10
  -6   1  -1   33.10    3.40
  -6   1  -1   35.40    2.60
  -6   1  -1   38.40    1.80
  -6   1  -1   39.90    3.70
   6  -1   1   37.30    3.10
   6  -1   1   36.90    3.30
   6  -1   1   27.10    4.10
   6  -1   1   37.60    3.20
  -7   1  -1   30.70    1.60
  -7   1  -1   28.10    2.70
  -7   1  -1   26.70    4.10
  -7   1  -1   26.60    3.40
   7  -1   1   26.20    3.00
   7  -1   1   29.60    3.50
   7  -1   1   26.30    4.20
   7  -1   1   34.60    3.20
  -8   1  -1   36.40    3.40
  -8   1  -1   34.40    4.00
  -8   1  -1   40.60    5.60
   8  -1   1   38.10    4.20
   8  -1   1   28.00    4.60
   8  -1   1   32.40    3.30
   8  -1   1   32.60    3.50
  -9   1  -1   50.49    6.70
  -9   1  -1   50.39    4.20
   9  -1   1   46.70    6.10
   9  -1   1   57.79    4.60
   9  -1   1   50.89    4.90
   9  -1   1   55.09    4.70
 -10   1  -1    6.70    3.90
 -10   1  -1    9.30    2.10
  10  -1   1    7.80    3.00
  10  -1   1    3.80    3.00
  10   0  -1   10.90    3.40
  10   0  -1   13.50    3.20
  10   0  -1    6.10    4.30
 -10   0   1   12.90    2.50
 -10   0   1   18.80    5.00
   9   0  -1   75.49    5.20
   9   0  -1   73.39    5.20
   9   0  -1   72.29    6.10
   9   0  -1   59.29    7.80
  -9   0   1   73.09    7.90
  -9   0   1   84.09    5.40
   8   0  -1    7.60    2.20
   8   0  -1    8.50    2.40
   8   0  -1    5.00    2.50
  -8   0   1   12.70    3.70
  -8   0   1   11.10    2.40
  -8   0   1    8.10    1.00
  -8   0   1    5.80    1.60
   7   0  -1  117.99    6.90
   7   0  -1  124.89    6.00
   7   0  -1  118.39    6.00
  -7   0   1  122.79    5.20
  -7   0   1  119.59    8.10
  -7   0   1  118.79    6.20
  -7   0   1  123.19    7.20
   6   0  -1  156.38    6.90
   6   0  -1  152.08    7.80
   6   0  -1  155.58    6.90
   6   0  -1  145.49    7.60
  -6   0   1  144.89    8.60
  -6   0   1  148.59    6.20
  -6   0   1  143.19    7.00
  -6   0   1  154.08    7.80
   5   0  -1   85.49    4.50
   5   0  -1   83.69    4.20
   5   0  -1   82.89    4.80
   5   0  -1   82.19    4.20
  -5   0   1   83.19    3.60
  -5   0   1   80.99    4.70
  -5   0   1   81.89    4.00
  -5   0   1   81.29    4.20
  -5   0   1   75.29    5.20
   4   0  -1  133.29    5.30
   4   0  -1  132.59    5.60
   4   0  -1  133.29    6.00
   4   0  -1  128.19    5.60
   4   0  -1  121.99    6.10
  -4   0   1  128.99    6.70
  -4   0   1  128.79    6.20
  -4   0   1  135.49    5.60
  -4   0   1  131.49    5.30
  -4   0   1  126.79    5.80
   3   0  -1  612.04   23.80
   3   0  -1  582.94   23.40
   3   0  -1  614.14   23.20
   3   0  -1  646.84   23.60
   3   0  -1  598.44   23.90
   3   0  -1  597.84   23.40
  -3   0   1  587.64   23.90
  -3   0   1  606.14   24.40
  -3   0   1  612.54   23.60
  -3   0   1  608.04   23.90
  -3   0   1  613.54   23.30
  -3   0   1  585.34   25.30
  -3   0   1  618.14   23.40
   2   0  -1  189.08    7.50
   2   0  -1  196.18    7.90
   2   0  -1  196.38    7.50
   2   0  -1  185.48    7.40
   2   0  -1  195.38    7.70
   2   0  -1  178.58    7.40
   2   0  -1  186.68    7.30
   2   0  -1  167.18    8.70
   2   0  -1  182.18    7.70
   2   0  -1  192.48    7.50
  -2   0   1  181.78    7.70
  -2   0   1  183.78    7.50
  -2   0   1  184.18    7.30
  -2   0   1  189.08    8.00
  -2   0   1  177.78    8.60
  -2   0   1  190.28    7.70
  -2   0   1  185.28    7.60
  -2   0   1  179.48    7.40
  -2   0   1  182.28    7.30
   1   0  -1 3521.35  135.69
   1   0  -1 3616.84  135.29
   1   0  -1 3562.84  134.39
   1   0  -1 3252.97  134.39
   1   0  -1 3447.86  135.69
   1   0  -1 3532.35  138.89
   1   0  -1 3636.74  136.29
   1   0  -1 3301.77  134.29
  -1   0   1 3541.95  135.49
  -1   0   1 3440.56  135.59
  -1   0   1 3943.21  138.99
  -1   0   1 3514.35  134.59
  -1   0   1 3509.35  135.49
   0   0  -1    0.10    0.10
   0   0  -1    0.10    0.10
   0   0  -1    0.00    0.10
   0   0  -1    0.10    0.10
   0   0  -1   -0.10    0.10
   0   0  -1    0.00    0.10
   0   0   1    0.00    0.10
   0   0   1    0.10    0.10
   0   0   1    0.00    0.10
   0   0   1   -0.10    0.10
   0   0   1    0.00    0.10
   0   0   1    0.00    0.10
   0   0   1    0.00    0.10
  -1   0  -1 1117.19   42.70
  -1   0  -1 1084.09   42.30
  -1   0  -1  915.61   42.80
  -1   0  -1 1159.58   42.80
  -1   0  -1 1148.99   42.80
  -1   0  -1 1101.99   43.70
  -1   0  -1 1040.50   42.10
  -1   0  -1 1129.99   44.10
  -1   0  -1 1046.60   42.00
   1   0   1 1039.40   42.00
   1   0   1  949.90   43.40
   1   0   1 1070.59   42.00
   1   0   1 1141.59   42.50
   1   0   1 1176.58   43.90
   1   0   1 1066.79   42.00
   1   0   1 1123.99   42.50
   1   0   1 1214.98   43.80
   1   0   1 1122.59   42.40
  -2   0  -1  531.15   20.40
  -2   0  -1  515.05   20.60
  -2   0  -1  530.55   20.60
  -2   0  -1  518.85   20.90
  -2   0  -1  515.95   20.40
  -2   0  -1  517.35   21.10
  -2   0  -1  534.95   20.40
  -2   0  -1  535.75   20.60
  -2   0  -1  555.14   20.80
   2   0   1  535.65   20.50
   2   0   1  535.15   20.60
   2   0   1  581.64   21.10
   2   0   1  558.74   20.60
   2   0   1  547.75   20.60
   2   0   1  446.06   21.10
   2   0   1  525.65   20.80
   2   0   1  535.35   20.50
   2   0   1  523.75   20.70
  -3   0  -1   10.70    0.60
  -3   0  -1   13.00    1.20
  -3   0  -1    9.40    0.90
  -3   0  -1   10.80    1.50
  -3   0  -1    9.60    1.10
  -3   0  -1   11.60    1.40
  -3   0  -1   11.70    1.30
   3   0   1   11.30    1.20
   3   0   1   13.70    1.40
   3   0   1   11.90    1.40
   3   0   1   10.50    1.10
   3   0   1   12.10    2.00
  -4   0  -1  486.45   18.20
  -4   0  -1  465.45   20.00
  -4   0  -1  479.65   19.10
  -4   0  -1  483.25   18.60
  -4   0  -1  466.65   19.50
  -4   0  -1  452.55   18.80
  -4   0  -1  455.45   18.90
   4   0   1  486.45   18.70
   4   0   1  469.25   19.20
   4   0   1  489.65   18.70
   4   0   1  497.05   19.40
  -5   0  -1   61.39    4.00
  -5   0  -1   60.99    3.20
  -5   0  -1   59.09    4.40
  -5   0  -1   57.39    3.30
  -5   0  -1   62.29    3.60
  -5   0  -1   61.89    2.60
   5   0   1   62.69    3.50
   5   0   1   63.49    3.90
   5   0   1   55.29    5.00
   5   0   1   58.39    3.50
   5   0   1   66.99    4.00
  -6   0  -1    6.30    2.20
  -6   0  -1    8.40    0.80
  -6   0  -1    8.30    2.00
  -6   0  -1    6.00    1.30
   6   0   1    8.30    2.00
   6   0   1    6.40    1.70
   6   0   1    7.10    2.70
   6   0   1    6.00    1.70
  -7   0  -1  230.28    9.10
  -7   0  -1  235.48   10.50
  -7   0  -1  227.58   12.70
  -7   0  -1  230.58   11.70
   7   0   1  252.27   10.30
   7   0   1  229.78   11.00
   7   0   1  234.08   10.20
   7   0   1  203.58   12.30
  -8   0  -1    1.50    1.30
  -8   0  -1    5.50    2.00
  -8   0  -1    2.00    2.40
   8   0   1    4.00    2.20
   8   0   1    2.70    2.00
   8   0   1    1.70    3.00
   8   0   1    2.70    2.10
  -9   0  -1  197.18   13.20
  -9   0  -1  209.18   10.10
   9   0   1  203.38    9.60
   9   0   1  195.28   10.50
   9   0   1  173.08   12.20
   9   0   1  195.38    9.50
 -10   0  -1   39.80    4.30
 -10   0  -1   40.20    6.40
  10   0   1   31.80    6.10
  10   0   1   42.40    4.20
  10   0   1   31.20    4.40
  10  -1  -1   19.60    3.70
  10  -1  -1   22.40    3.90
 -10   1   1   26.40    6.40
 -10   1   1   28.30    3.30
 -10   1   1   18.30    2.70
   9  -1  -1   40.50    4.20
   9  -1  -1   57.29    5.50
   9  -1  -1   50.69    4.40
   9  -1  -1   40.00    6.40
  -9   1   1   47.20    4.00
  -9   1   1   52.39    6.80
  -9   1   1   47.00    3.80
   8  -1  -1   50.99    4.20
   8  -1  -1   46.60    4.00
   8  -1  -1   36.00    5.60
   8  -1  -1   52.99    4.80
  -8   1   1   57.49    4.00
  -8   1   1   51.29    4.80
  -8   1   1   56.39    6.30
  -8   1   1   50.69    2.70
   7  -1  -1   33.90    3.20
   7  -1  -1   44.10    3.60
   7  -1  -1   37.00    3.70
  -7   1   1   38.80    2.10
  -7   1   1   36.60    4.80
  -7   1   1   36.50    2.90
  -7   1   1   38.90    3.90
   6  -1  -1 1242.18   45.50
   6  -1  -1 1130.49   46.20
   6  -1  -1 1221.48   45.50
  -6   1   1 1168.08   45.80
  -6   1   1 1154.98   48.00
  -6   1   1 1120.69   46.80
  -6   1   1 1172.58   44.90
   5  -1  -1   10.60    1.70
   5  -1  -1    9.70    1.70
   5  -1  -1   13.10    2.00
   5  -1  -1   12.10    1.60
  -5   1   1   13.70    1.70
  -5   1   1   11.30    1.40
  -5   1   1   13.40    2.20
  -5   1   1   14.10    1.00
  -5   1   1   11.50    2.50
  -5   1   1   10.20    2.30
   4  -1  -1   64.49    3.30
   4  -1  -1   65.79    3.60
   4  -1  -1   64.99    3.50
   4  -1  -1   60.79    3.20
  -4   1   1   60.99    3.10
  -4   1   1   60.49    4.20
  -4   1   1   62.89    2.80
  -4   1   1   60.29    3.70
  -4   1   1   60.99    4.50
  -4   1   1   65.19    3.20
   3  -1  -1  230.78    9.40
   3  -1  -1  236.48    9.40
   3  -1  -1  231.78    9.70
   3  -1  -1  241.98    9.90
   3  -1  -1  232.88    9.80
  -3   1   1  239.68   10.10
  -3   1   1  229.08    9.20
  -3   1   1  215.78   10.50
  -3   1   1  245.68   10.20
  -3   1   1  240.28    9.50
  -3   1   1  233.98    9.40
   2  -1  -1 2063.29   81.19
   2  -1  -1 2034.80   80.19
   2  -1  -1 2192.98   81.49
   2  -1  -1 2108.29   80.39
   2  -1  -1 2016.80   79.89
   2  -1  -1 2141.59   82.29
   2  -1  -1 2079.89   83.09
  -2   1   1 1960.70   79.89
  -2   1   1 2194.18   81.59
  -2   1   1 2248.18   80.29
  -2   1   1 1911.61   81.49
  -2   1   1 2111.09   80.39
  -2   1   1 2006.40   80.29
  -2   1   1 2337.77   81.79
  -2   1   1 2073.29   80.59
  -2   1   1 2133.39   81.39
  -2   1   1 1990.70   82.79
   1  -1  -1  336.47   13.00
   1  -1  -1  342.07   13.00
   1  -1  -1  345.27   13.00
   1  -1  -1  332.07   13.10
   1  -1  -1  342.17   13.20
   1  -1  -1  330.27   13.00
   1  -1  -1  345.47   13.10
  -1   1   1  324.27   13.00
  -1   1   1  329.57   13.10
  -1   1   1  354.56   13.10
  -1   1   1  318.17   13.10
  -1   1   1  335.07   13.40
  -1   1   1  333.17   13.00
  -1   1   1  340.07   13.00
  -1   1   1  342.07   13.00
   0  -1  -1 4399.56  165.58
   0  -1  -1 4376.26  163.38
   0  -1  -1 4171.68  165.28
   0  -1  -1 4215.78  164.48
   0   1   1 4507.45  163.68
   0   1   1 4367.56  165.88
   0   1   1 4205.38  164.58
   0   1   1 3949.70  164.68
  -1  -1  -1  931.01   37.30
  -1  -1  -1  917.11   36.10
  -1  -1  -1  937.51   36.40
  -1  -1  -1  927.71   36.70
  -1  -1  -1  967.40   37.10
  -1  -1  -1  925.81   37.30
  -1  -1  -1  986.80   36.50
  -1  -1  -1  979.70   36.60
   1   1   1  797.62   36.50
   1   1   1  966.10   36.40
   1   1   1  943.31   36.50
   1   1   1  899.21   36.30
   1   1   1  999.30   36.80
   1   1   1  933.91   36.60
   1   1   1 1016.90   36.60
   1   1   1  976.50   37.00
  -2  -1  -1 6702.43  261.77
  -2  -1  -1 6404.56  257.87
  -2  -1  -1 6667.43  257.87
  -2  -1  -1 6640.94  260.17
  -2  -1  -1 6714.33  257.57
  -2  -1  -1 6378.66  255.27
  -2  -1  -1 6391.26  255.27
   2   1   1 7012.70  263.37
   2   1   1 6684.53  255.57
   2   1   1 6829.22  258.37
   2   1   1 6873.21  257.37
   2   1   1 6704.03  259.57
   2   1   1 7412.16  258.37
   2   1   1 6535.05  258.07
  -3  -1  -1   24.70    1.80
  -3  -1  -1   25.60    2.10
  -3  -1  -1   27.90    1.70
  -3  -1  -1   26.00    2.30
  -3  -1  -1   27.90    1.50
  -3  -1  -1   28.30    1.50
   3   1   1   29.90    2.20
   3   1   1   27.70    2.10
   3   1   1   30.30    1.70
   3   1   1   31.20    2.10
   3   1   1   29.10    1.60
   3   1   1   23.60    2.90
  -4  -1  -1  507.25   20.30
  -4  -1  -1  513.35   20.00
  -4  -1  -1  499.85   20.80
  -4  -1  -1  499.95   19.70
  -4  -1  -1  462.05   19.20
   4   1   1  500.45   19.30
   4   1   1  427.06   21.00
   4   1   1  519.55   19.40
   4   1   1  508.85   19.80
   4   1   1  474.25   20.00
   4   1   1  531.45   20.30
  -5  -1  -1    2.40    1.50
  -5  -1  -1    3.30    0.60
  -5  -1  -1    3.00    1.20
  -5  -1  -1    4.30    1.00
  -5  -1  -1    2.10    1.20
  -5  -1  -1    3.50    0.90
   5   1   1    4.30    0.70
   5   1   1    3.00    1.30
   5   1   1    3.80    1.40
   5   1   1    3.50    1.60
   5   1   1    4.80    2.40
   5   1   1    2.80    1.40
   5   1   1    3.60    1.40
  -6  -1  -1   -1.00    0.70
  -6  -1  -1    0.30    0.90
  -6  -1  -1   -0.90    1.40
  -6  -1  -1    0.10    1.20
  -6  -1  -1   -2.00    0.90
  -6  -1  -1    0.70    0.50
   6   1   1    0.90    1.20
   6   1   1   -0.20    1.40
   6   1   1    0.40    2.30
   6   1   1    0.20    1.40
   6   1   1    2.90    1.50
  -7  -1  -1    4.30    1.30
  -7  -1  -1    6.20    2.00
  -7  -1  -1    5.80    1.80
  -7  -1  -1    3.20    2.20
   7   1   1    1.50    2.90
   7   1   1    4.60    1.80
   7   1   1    1.70    1.60
   7   1   1    3.50    1.90
  -8  -1  -1    3.30    1.60
  -8  -1  -1    5.00    2.80
  -8  -1  -1    0.20    1.10
   8   1   1   -0.80    1.80
   8   1   1    0.10    1.70
   8   1   1   -1.20    3.00
   8   1   1    0.30    1.80
  -9  -1  -1    9.20    2.20
  -9  -1  -1   17.20    4.50
   9   1   1    5.50    2.30
   9   1   1    3.40    2.50
   9   1   1    6.90    2.10
   9   1   1    6.90    4.00
 -10  -1  -1    5.60    3.90
 -10  -1  -1    2.50    1.70
  10   1   1    1.20    3.80
  10   1   1    3.40    2.80
  10   1   1    9.50    3.90
  10  -2  -1   55.89    5.40
  10  -2  -1   57.39    5.20
 -10   2   1   44.70    4.10
 -10   2   1   67.29    7.50
   9  -2  -1   71.99    6.00
   9  -2  -1   70.49    5.50
  -9   2   1   69.89    7.70
  -9   2   1   72.99    4.80
  -9   2   1   79.79    5.40
   8  -2  -1  222.38   11.10
   8  -2  -1  238.28   10.50
   8  -2  -1  231.78   10.50
   8  -2  -1  193.98   11.90
  -8   2   1  242.58   10.80
  -8   2   1  229.18    9.40
  -8   2   1  230.78   13.90
  -8   2   1  226.28   12.20
  -8   2   1  228.48   10.40
   7  -2  -1    8.90    2.10
   7  -2  -1   10.70    2.10
   7  -2  -1   10.20    2.20
  -7   2   1    7.30    1.50
  -7   2   1   12.60    2.80
  -7   2   1   11.20    3.50
  -7   2   1    9.20    1.10
  -7   2   1    8.50    1.60
   6  -2  -1  258.47   11.40
   6  -2  -1  256.77   10.80
   6  -2  -1  266.37   10.80
  -6   2   1  246.08   10.90
  -6   2   1  253.37   10.80
  -6   2   1  255.47   10.10
  -6   2   1  236.08   13.00
  -6   2   1  238.08   12.10
   5  -2  -1  726.13   29.20
   5  -2  -1  726.13   28.70
   5  -2  -1  749.42   28.80
   5  -2  -1  756.62   29.60
  -5   2   1  745.73   28.80
  -5   2   1  683.73   29.90
  -5   2   1  794.22   29.10
  -5   2   1  726.63   28.30
  -5   2   1  727.83   28.90
  -5   2   1  686.33   30.90
   4  -2  -1  632.64   24.20
   4  -2  -1  609.54   24.20
   4  -2  -1  610.14   24.50
   4  -2  -1  644.64   25.00
  -4   2   1  619.14   24.30
  -4   2   1  601.54   26.00
  -4   2   1  574.04   25.20
  -4   2   1  640.14   24.20
  -4   2   1  611.84   24.20
  -4   2   1  638.44   23.90
   3  -2  -1 2003.00   76.79
   3  -2  -1 1869.51   76.99
   3  -2  -1 2057.99   76.79
   3  -2  -1 1988.30   77.59
   3  -2  -1 2192.58   77.99
  -3   2   1 1944.51   76.89
  -3   2   1 2029.70   77.59
  -3   2   1 1937.51   76.89
  -3   2   1 2041.40   78.09
  -3   2   1 2073.99   76.79
   2  -2  -1   25.80    1.40
   2  -2  -1   22.60    1.90
   2  -2  -1   24.10    1.60
   2  -2  -1   24.40    1.60
   2  -2  -1   25.30    1.60
  -2   2   1   25.00    1.40
  -2   2   1   23.30    1.30
  -2   2   1   22.60    2.10
  -2   2   1   25.70    1.60
  -2   2   1   22.80    1.70
  -2   2   1   23.30    1.50
   1  -2  -1  309.77   11.80
   1  -2  -1  310.97   11.80
   1  -2  -1  270.77   12.60
   1  -2  -1  292.97   11.80
   1  -2  -1  297.07   11.90
   1  -2  -1  300.67   11.80
   1  -2  -1  296.57   11.90
   1  -2  -1  317.67   12.50
   1  -2  -1  301.27   11.80
  -1   2   1  300.37   11.80
  -1   2   1  311.77   11.90
  -1   2   1  306.47   11.90
  -1   2   1  294.37   12.30
  -1   2   1  311.47   11.80
  -1   2   1  306.67   12.50
  -1   2   1  306.87   11.80
  -1   2   1  294.47   11.90
  -1   2   1  322.67   11.80
   0  -2  -1   14.90    1.00
   0  -2  -1   13.80    1.60
   0  -2  -1   15.50    1.90
   0  -2  -1   13.70    0.90
   0  -2  -1   13.70    1.10
   0  -2  -1   14.40    0.90
   0  -2  -1   15.50    1.00
   0  -2  -1   12.90    0.90
   0  -2  -1   12.60    1.40
   0   2   1   13.00    1.80
   0   2   1   13.80    0.90
   0   2   1   14.60    0.90
   0   2   1   14.00    1.80
   0   2   1   16.70    1.00
   0   2   1   14.30    1.10
   0   2   1   12.00    1.30
  -1  -2  -1    4.80    0.70
  -1  -2  -1    4.40    1.20
  -1  -2  -1    5.00    0.40
  -1  -2  -1    5.00    0.90
  -1  -2  -1    5.80    0.90
  -1  -2  -1    4.30    0.80
  -1  -2  -1    5.60    1.70
   1   2   1    6.30    1.00
   1   2   1    5.00    0.90
   1   2   1    5.40    1.40
   1   2   1    4.40    0.80
   1   2   1    4.70    0.70
   1   2   1    4.50    1.20
   1   2   1    4.70    1.50
  -2  -2  -1    4.60    0.80
  -2  -2  -1    4.60    0.40
  -2  -2  -1    4.30    0.40
  -2  -2  -1    3.80    1.20
  -2  -2  -1    4.30    1.20
  -2  -2  -1    4.00    0.50
  -2  -2  -1    3.40    0.90
  -2  -2  -1    4.80    1.00
   2   2   1    3.50    0.90
   2   2   1    6.20    1.10
   2   2   1    4.10    1.60
   2   2   1    4.60    1.50
  -3  -2  -1 1238.58   47.60
  -3  -2  -1 1204.08   47.10
  -3  -2  -1 1226.38   46.00
  -3  -2  -1 1240.08   46.50
  -3  -2  -1 1163.58   46.60
  -3  -2  -1 1183.18   46.90
   3   2   1 1255.37   46.90
   3   2   1 1257.07   47.30
   3   2   1 1208.98   47.00
   3   2   1 1249.77   46.00
   3   2   1 1035.90   47.80
   3   2   1 1240.28   46.10
  -4  -2  -1   18.90    1.70
  -4  -2  -1   20.30    1.40
  -4  -2  -1   18.80    1.90
  -4  -2  -1   19.40    2.40
  -4  -2  -1   18.80    2.20
   4   2   1   21.20    2.60
   4   2   1   19.60    1.60
   4   2   1   21.50    2.30
   4   2   1   18.50    3.30
   4   2   1   19.90    1.60
   4   2   1   19.40    2.50
  -5  -2  -1  130.29    6.70
  -5  -2  -1  127.99    7.40
  -5  -2  -1  132.19    5.60
  -5  -2  -1  135.49    6.40
  -5  -2  -1  129.89    6.90
   5   2   1  131.19    5.80
   5   2   1  140.89    5.80
   5   2   1  132.99    6.60
   5   2   1  141.69    6.90
   5   2   1  119.39    8.40
  -6  -2  -1  135.09    6.60
  -6  -2  -1  142.39    7.40
  -6  -2  -1  134.69    8.10
  -6  -2  -1  124.89    6.90
  -6  -2  -1  131.69    5.80
   6   2   1  137.99    6.70
   6   2   1  136.39    6.10
   6   2   1  116.09    8.80
   6   2   1  132.59    6.00
   6   2   1  138.49    7.20
  -7  -2  -1   29.90    4.10
  -7  -2  -1   28.80    1.80
  -7  -2  -1   27.40    3.10
  -7  -2  -1   27.40    2.80
  -7  -2  -1   31.30    3.60
   7   2   1   32.20    2.70
   7   2   1   21.10    4.60
   7   2   1   27.40    3.50
   7   2   1   30.10    2.70
   7   2   1   29.00    2.90
  -8  -2  -1   28.20    4.40
  -8  -2  -1   28.20    3.40
  -8  -2  -1   20.20    2.70
   8   2   1   23.60    2.50
   8   2   1   18.10    3.20
   8   2   1   22.40    2.50
   8   2   1   22.70    5.40
  -9  -2  -1   35.30    5.60
  -9  -2  -1   29.80    3.50
   9   2   1   29.00    4.10
   9   2   1   29.00    6.30
 -10  -2  -1   10.00    2.40
  10   2   1    9.90    3.10
  10   2   1    8.90    4.90
  10  -3  -1   -0.70    3.00
  10  -3  -1    0.30    2.00
 -10   3   1   -0.20    1.20
   9  -3  -1   97.49    6.70
   9  -3  -1   93.19    6.80
  -9   3   1   91.99    5.90
  -9   3   1  110.79    6.50
   8  -3  -1    6.70    2.20
   8  -3  -1    5.70    2.20
   8  -3  -1    2.30    2.40
  -8   3   1    7.60    1.10
  -8   3   1    3.70    1.40
  -8   3   1    6.40    1.60
   7  -3  -1    9.50    2.40
   7  -3  -1    8.70    2.20
   7  -3  -1    6.10    2.30
   7  -3  -1    7.80    2.00
  -7   3   1    7.70    1.10
  -7   3   1    9.90    3.30
  -7   3   1    7.20    1.50
  -7   3   1   10.50    1.80
   6  -3  -1   22.70    2.60
   6  -3  -1   21.40    2.50
   6  -3  -1   26.90    2.90
  -6   3   1   24.10    2.20
  -6   3   1   23.20    2.30
  -6   3   1   23.20    1.70
   5  -3  -1    0.90    1.10
   5  -3  -1    3.60    1.70
   5  -3  -1    1.40    1.50
  -5   3   1    0.30    0.60
  -5   3   1    1.20    0.40
  -5   3   1    1.00    0.80
  -5   3   1   -0.80    0.70
   4  -3  -1 1093.19   41.30
   4  -3  -1 1075.99   41.30
   4  -3  -1 1020.20   41.50
   4  -3  -1 1063.99   42.50
  -4   3   1 1069.89   41.10
  -4   3   1 1084.79   41.50
  -4   3   1 1083.19   41.30
  -4   3   1 1068.19   41.00
  -4   3   1 1055.89   41.40
   3  -3  -1  464.95   18.60
   3  -3  -1  518.45   18.40
   3  -3  -1  448.56   18.70
   3  -3  -1  483.35   18.60
   3  -3  -1  460.95   19.70
  -3   3   1  482.75   18.60
  -3   3   1  467.65   19.80
  -3   3   1  464.65   18.40
  -3   3   1  482.55   18.80
  -3   3   1  458.15   18.80
  -3   3   1  463.95   18.70
   2  -3  -1  275.97   10.40
   2  -3  -1  252.27   10.30
   2  -3  -1  279.87   10.80
   2  -3  -1  254.47   10.20
   2  -3  -1  254.37   10.40
   2  -3  -1  251.27   10.30
  -2   3   1  259.87   10.50
  -2   3   1  249.48   10.40
  -2   3   1  259.77   10.30
  -2   3   1  256.27   11.40
  -2   3   1  246.58   10.90
   1  -3  -1  510.25   23.60
   1  -3  -1  587.94   23.40
   1  -3  -1  541.45   24.90
   1  -3  -1  587.74   23.30
   1  -3  -1  664.13   23.60
   1  -3  -1  609.34   23.30
  -1   3   1  633.54   23.50
  -1   3   1  613.64   23.60
  -1   3   1  620.24   23.30
  -1   3   1  632.64   23.50
  -1   3   1  607.84   24.20
  -1   3   1  613.74   24.40
  -1   3   1  643.84   23.30
   0  -3  -1 1976.40   75.19
   0  -3  -1 2155.68   76.69
   0  -3  -1 1992.80   75.29
   0  -3  -1 2071.59   75.89
   0  -3  -1 1896.71   76.09
   0  -3  -1 1940.51   77.99
   0  -3  -1 1770.22   77.19
   0   3   1 1962.20   75.69
   0   3   1 2061.99   75.39
   0   3   1 1975.90   75.69
   0   3   1 1731.63   75.89
   0   3   1 1965.50   75.69
   0   3   1 2031.40   76.69
  -1  -3  -1   33.70    1.40
  -1  -3  -1   36.80    2.10
  -1  -3  -1   37.00    2.20
  -1  -3  -1   31.20    2.10
  -1  -3  -1   33.40    1.40
   1   3   1   32.60    2.90
   1   3   1   34.70    1.70
   1   3   1   35.30    2.20
   1   3   1   35.30    3.00
   1   3   1   27.10    2.60
  -2  -3  -1  293.27   12.60
  -2  -3  -1  286.37   12.10
  -2  -3  -1  315.37   11.50
  -2  -3  -1  284.77   11.90
  -2  -3  -1  290.77   12.80
  -2  -3  -1  324.27   12.20
   2   3   1  249.28   13.00
   2   3   1  292.67   11.70
   2   3   1  285.67   12.60
   2   3   1  286.37   12.60
   2   3   1  299.17   12.10
  -3  -3  -1    3.60    1.00
  -3  -3  -1    3.60    1.20
  -3  -3  -1    2.40    1.40
  -3  -3  -1    2.20    1.50
  -3  -3  -1    3.20    0.40
  -3  -3  -1    3.60    0.40
   3   3   1    2.80    1.80
   3   3   1    4.40    2.20
   3   3   1    4.90    1.30
   3   3   1    5.20    1.20
  -4  -3  -1  113.89    4.60
  -4  -3  -1  115.69    4.60
  -4  -3  -1  110.79    6.50
  -4  -3  -1  116.79    6.30
  -4  -3  -1  116.49    5.60
  -4  -3  -1  109.09    5.80
   4   3   1  117.49    6.00
   4   3   1  107.69    6.30
   4   3   1  108.99    4.60
  -5  -3  -1   69.59    4.40
  -5  -3  -1   69.49    5.10
  -5  -3  -1   76.79    4.90
  -5  -3  -1   73.79    3.30
  -5  -3  -1   70.99    4.10
   5   3   1   78.59    5.00
   5   3   1   73.49    3.40
   5   3   1   74.69    4.70
   5   3   1   61.99    6.20
  -6  -3  -1   73.79    5.00
  -6  -3  -1   69.79    5.60
  -6  -3  -1   69.49    4.30
  -6  -3  -1   66.19    4.60
   6   3   1   72.99    3.50
   6   3   1   62.59    6.90
   6   3   1   74.09    5.00
   6   3   1   76.99    3.60
   6   3   1   73.99    4.90
  -7  -3  -1  176.68    9.20
  -7  -3  -1  165.18   10.00
  -7  -3  -1  154.08    8.60
  -7  -3  -1  161.88    8.20
   7   3   1  164.28    7.10
   7   3   1  163.98    7.10
   7   3   1  167.88    8.80
   7   3   1  136.09   10.90
   7   3   1  177.58    8.50
  -8  -3  -1   18.80    2.90
  -8  -3  -1   24.10    3.30
  -8  -3  -1   25.60    5.00
   8   3   1   21.20    3.60
   8   3   1   14.90    5.00
   8   3   1   24.80    5.00
  -9  -3  -1  245.08   14.40
  -9  -3  -1  221.58   11.20
  -9  -3  -1  220.18   11.80
   9   3   1  187.58   14.30
   9   3   1  236.48   12.20
 -10  -3  -1   39.00    3.70
  10   3   1   24.70    6.40
  10  -4  -1   13.60    3.60
  10  -4  -1   14.80    3.30
 -10   4   1    9.20    2.20
   9  -4  -1   14.10    3.60
   9  -4  -1   10.80    2.60
  -9   4   1   10.90    2.30
  -9   4   1   19.60    3.50
   8  -4  -1   32.50    4.00
   8  -4  -1   24.60    3.40
  -8   4   1   39.10    4.80
  -8   4   1   32.90    3.20
  -8   4   1   26.50    3.00
   7  -4  -1   20.20    2.70
   7  -4  -1   17.50    2.70
   7  -4  -1   24.60    3.10
  -7   4   1   23.90    2.60
  -7   4   1   16.80    2.20
  -7   4   1   18.80    3.20
   6  -4  -1   -0.80    1.60
   6  -4  -1    1.20    1.80
   6  -4  -1    0.70    1.20
  -6   4   1    0.70    1.00
  -6   4   1    1.10    1.00
  -6   4   1    1.00    1.60
   5  -4  -1  163.78    7.20
   5  -4  -1  152.88    7.20
   5  -4  -1  154.98    7.20
   5  -4  -1  133.49    6.50
  -5   4   1  152.08    6.60
  -5   4   1  153.18    7.00
  -5   4   1  157.48    7.20
  -5   4   1  149.49    8.60
   4  -4  -1  479.85   18.90
   4  -4  -1  476.85   18.90
   4  -4  -1  455.65   19.00
   4  -4  -1  488.75   18.20
  -4   4   1  473.65   19.10
  -4   4   1  468.55   18.90
  -4   4   1  459.55   19.00
  -4   4   1  468.15   20.40
   3  -4  -1    0.10    0.80
   3  -4  -1    1.80    1.30
   3  -4  -1    1.20    1.30
   3  -4  -1    1.90    1.20
  -3   4   1    2.40    1.10
  -3   4   1    1.30    1.60
  -3   4   1    0.20    1.50
  -3   4   1    0.70    0.70
  -3   4   1    0.20    0.70
   2  -4  -1   54.49    2.70
   2  -4  -1   46.40    2.70
   2  -4  -1   47.20    2.70
   2  -4  -1   46.60    2.70
   2  -4  -1   53.79    3.60
  -2   4   1   46.10    3.80
  -2   4   1   50.29    2.70
  -2   4   1   49.50    2.60
  -2   4   1   45.10    2.70
  -2   4   1   49.50    3.70
   1  -4  -1  269.77   10.70
   1  -4  -1  276.77   11.00
   1  -4  -1  293.27   10.80
   1  -4  -1  260.87   10.70
   1  -4  -1  251.27   10.90
  -1   4   1  267.07   10.70
  -1   4   1  264.37   12.00
  -1   4   1  279.17   11.00
  -1   4   1  258.07   12.00
  -1   4   1  280.47   11.00
  -1   4   1  260.77   11.00
   0  -4  -1   18.70    1.20
   0  -4  -1   15.80    1.70
   0  -4  -1   18.00    1.20
   0  -4  -1   18.90    1.40
   0  -4  -1   17.90    1.20
   0  -4  -1   16.80    1.70
   0   4   1   16.60    1.50
   0   4   1   14.80    1.90
   0   4   1   18.80    1.60
   0   4   1   15.80    2.30
   0   4   1   18.40    1.10
   0   4   1   19.90    2.80
  -1  -4  -1 1958.40   69.09
  -1  -4  -1 1757.52   68.39
  -1  -4  -1 1715.03   70.49
  -1  -4  -1 1844.72   69.99
  -1  -4  -1 1742.53   68.29
   1   4   1 1872.71   68.59
   1   4   1 1896.21   69.09
   1   4   1 1584.34   69.79
   1   4   1 1812.32   69.89
   1   4   1 1781.72   69.89
  -2  -4  -1   71.79    4.10
  -2  -4  -1   73.79    3.90
  -2  -4  -1   73.09    3.30
  -2  -4  -1   73.89    4.60
  -2  -4  -1   65.09    4.60
  -2  -4  -1   78.09    4.00
   2   4   1   69.39    4.70
   2   4   1   70.69    3.30
   2   4   1   56.79    4.90
   2   4   1   64.99    4.90
   2   4   1   71.09    4.10
  -3  -4  -1 2583.64   98.39
  -3  -4  -1 2518.65   97.59
  -3  -4  -1 2468.65   97.89
  -3  -4  -1 2423.66   98.69
  -3  -4  -1 2663.33   96.99
   3   4   1 2535.25   98.49
   3   4   1 2668.93   97.79
   3   4   1 2489.05   97.09
  -4  -4  -1   89.69    5.20
  -4  -4  -1   91.29    5.90
  -4  -4  -1   92.49    5.70
  -4  -4  -1   90.29    4.90
   4   4   1   95.09    5.90
   4   4   1   85.89    4.70
   4   4   1   80.29    6.70
   4   4   1   96.39    5.40
  -5  -4  -1   59.79    3.80
  -5  -4  -1   64.99    5.10
  -5  -4  -1   62.29    4.60
  -5  -4  -1   58.59    4.30
   5   4   1   61.79    4.50
   5   4   1   51.19    3.90
   5   4   1   66.69    4.90
   5   4   1   50.79    5.90
  -6  -4  -1    3.50    2.10
  -6  -4  -1    4.10    1.40
  -6  -4  -1    7.80    2.10
  -6  -4  -1    8.20    2.30
   6   4   1    3.00    1.70
   6   4   1    3.30    3.40
   6   4   1    4.30    2.20
   6   4   1    2.50    2.00
  -7  -4  -1   26.20    4.70
  -7  -4  -1   17.90    2.60
  -7  -4  -1   22.90    3.10
   7   4   1   14.80    2.80
   7   4   1   18.50    3.20
   7   4   1   24.90    3.60
   7   4   1   15.40    4.80
  -8  -4  -1   64.89    6.30
  -8  -4  -1   58.99    4.70
  -8  -4  -1   60.49    5.10
   8   4   1   68.69    5.20
   8   4   1   49.70    8.20
   8   4   1   57.99    5.40
   8   4   1   50.09    5.30
  -9  -4  -1    9.50    2.40
  -9  -4  -1   19.80    5.10
  -9  -4  -1   14.00    3.20
   9   4   1    7.00    3.20
   9   4   1    8.50    5.00
   9  -5  -1   12.10    3.50
   9  -5  -1   11.90    2.70
  -9   5   1   19.20    4.10
  -9   5   1   12.80    2.50
   8  -5  -1    0.10    2.80
   8  -5  -1    1.20    1.90
  -8   5   1    2.30    2.30
  -8   5   1   -1.20    1.20
   7  -5  -1    9.50    2.90
   7  -5  -1   13.40    2.60
   7  -5  -1   11.10    2.30
  -7   5   1    9.30    2.90
  -7   5   1    9.80    1.90
  -7   5   1    7.20    1.70
   6  -5  -1    0.50    1.20
   6  -5  -1    2.90    1.80
   6  -5  -1   -1.60    1.90
  -6   5   1   -0.90    0.80
  -6   5   1   -0.10    2.00
  -6   5   1    1.20    1.00
   5  -5  -1   -0.50    1.50
   5  -5  -1    0.40    1.70
   5  -5  -1   -0.90    1.00
  -5   5   1    0.50    1.20
  -5   5   1   -2.10    1.60
  -5   5   1   -0.10    1.00
  -5   5   1    1.00    0.90
   4  -5  -1   10.30    1.90
   4  -5  -1   11.40    1.70
   4  -5  -1   13.00    1.80
  -4   5   1   11.10    2.20
  -4   5   1    9.60    2.50
  -4   5   1   10.00    1.50
  -4   5   1   10.30    1.60
   3  -5  -1    1.50    1.10
   3  -5  -1    0.70    0.50
   3  -5  -1    1.50    1.30
   3  -5  -1    1.20    1.40
  -3   5   1    0.60    0.80
  -3   5   1    1.40    0.80
  -3   5   1    2.20    2.00
  -3   5   1    1.90    1.90
   2  -5  -1  347.07   14.10
   2  -5  -1  349.87   14.40
   2  -5  -1  354.06   14.10
  -2   5   1  370.56   14.10
  -2   5   1  346.47   14.40
  -2   5   1  346.87   15.90
  -2   5   1  351.36   15.50
  -2   5   1  358.96   14.50
   1  -5  -1  316.47   12.60
   1  -5  -1  308.87   13.00
   1  -5  -1  319.17   12.60
   1  -5  -1  300.67   13.30
   1  -5  -1  331.17   13.00
  -1   5   1  319.97   13.00
  -1   5   1  305.67   14.30
  -1   5   1  330.07   12.50
  -1   5   1  307.67   14.10
  -1   5   1  328.07   13.10
  -1   5   1  306.47   13.00
   0  -5  -1  236.68    9.70
   0  -5  -1  262.17   10.40
   0  -5  -1  233.28   10.40
   0  -5  -1  259.47    9.70
   0  -5  -1  238.68    9.70
   0  -5  -1  240.38   10.70
   0   5   1  248.88    9.60
   0   5   1  254.27   10.40
   0   5   1  243.28   11.70
   0   5   1  242.58   11.60
   0   5   1  225.48   10.80
  -1  -5  -1   22.60    2.10
  -1  -5  -1   18.70    2.30
  -1  -5  -1   21.40    2.30
  -1  -5  -1   18.90    1.00
   1   5   1   17.00    2.90
   1   5   1   21.60    2.50
   1   5   1   17.50    2.70
   1   5   1   20.20    3.40
  -2  -5  -1   17.80    2.30
  -2  -5  -1   19.80    3.00
  -2  -5  -1   16.40    2.20
   2   5   1   13.80    2.60
   2   5   1   20.00    2.50
   2   5   1   16.40    1.30
   2   5   1   15.80    2.90
   2   5   1   15.30    3.30
  -3  -5  -1   11.30    2.30
  -3  -5  -1    9.20    2.60
  -3  -5  -1   10.30    1.90
  -3  -5  -1    9.80    2.50
   3   5   1    9.30    1.20
   3   5   1    9.00    2.90
   3   5   1   10.90    2.10
   3   5   1    8.80    3.00
   3   5   1    9.30    2.40
  -4  -5  -1    1.00    1.80
  -4  -5  -1    0.70    1.70
  -4  -5  -1    1.60    1.30
  -4  -5  -1    1.80    1.70
   4   5   1   -0.30    2.40
   4   5   1   -1.40    2.40
   4   5   1    1.70    1.00
   4   5   1    0.70    1.70
  -5  -5  -1  114.79    6.60
  -5  -5  -1  114.99    6.30
  -5  -5  -1  113.69    7.50
  -5  -5  -1  119.39    7.00
   5   5   1  113.49    5.80
   5   5   1  120.89    6.80
   5   5   1  116.29    7.30
   5   5   1  100.99    8.50
  -6  -5  -1   76.99    5.40
  -6  -5  -1   66.59    5.20
  -6  -5  -1   75.79    4.90
  -6  -5  -1   77.59    6.10
   6   5   1   79.59    5.60
   6   5   1   62.39    4.50
   6   5   1   63.59    7.20
   6   5   1   75.69    6.10
  -7  -5  -1   14.20    3.70
  -7  -5  -1   11.80    2.40
  -7  -5  -1   13.80    2.90
   7   5   1    9.10    4.30
   7   5   1    9.20    2.90
   7   5   1    7.30    2.20
   7   5   1   14.30    3.50
  -8  -5  -1    4.70    2.10
  -8  -5  -1   10.90    3.70
  -8  -5  -1    6.50    2.40
   8   5   1    3.10    4.10
   8   5   1    7.50    2.80
  -9  -5  -1   24.70    3.30
   9  -6  -1  103.69    7.50
   9  -6  -1  112.29    7.10
  -9   6   1  100.69    6.50
  -9   6   1  104.39    9.30
   8  -6  -1   12.30    3.40
   8  -6  -1   12.80    2.60
  -8   6   1   13.10    3.90
  -8   6   1   13.60    2.30
   7  -6  -1   40.40    4.40
   7  -6  -1   42.90    3.80
  -7   6   1   39.30    3.60
  -7   6   1   40.50    5.60
   6  -6  -1    1.80    2.40
   6  -6  -1    1.40    1.50
   6  -6  -1    2.10    2.00
  -6   6   1    0.80    2.50
  -6   6   1    1.00    1.10
   5  -6  -1   11.80    1.90
   5  -6  -1   11.90    2.20
   5  -6  -1    8.40    2.30
  -5   6   1   13.60    2.30
  -5   6   1   13.40    2.00
  -5   6   1   13.30    1.90
  -5   6   1   12.40    3.10
   4  -6  -1    0.70    1.10
   4  -6  -1   -2.30    1.40
   4  -6  -1    0.90    1.80
  -4   6   1    0.90    1.00
  -4   6   1    1.10    2.00
  -4   6   1    0.50    0.90
  -4   6   1    2.50    1.90
   3  -6  -1   21.00    2.30
   3  -6  -1   18.20    2.10
   3  -6  -1   21.40    2.40
  -3   6   1   22.50    2.10
  -3   6   1   22.40    2.20
  -3   6   1   21.80    3.30
  -3   6   1   15.90    3.10
   2  -6  -1  805.32   31.80
   2  -6  -1  778.32   30.80
   2  -6  -1  795.92   30.80
   2  -6  -1  764.92   31.20
  -2   6   1  812.52   31.30
  -2   6   1  803.82   30.80
  -2   6   1  779.02   31.20
  -2   6   1  797.22   33.10
  -2   6   1  780.22   32.50
   1  -6  -1  117.69    5.20
   1  -6  -1  114.49    5.20
   1  -6  -1  113.79    6.00
   1  -6  -1  114.09    5.80
  -1   6   1  117.19    5.80
  -1   6   1  115.49    5.70
  -1   6   1  113.29    5.10
  -1   6   1  113.19    7.20
  -1   6   1  109.29    7.20
  -1   6   1  120.69    5.60
   0  -6  -1   32.20    1.90
   0  -6  -1   27.70    2.70
   0  -6  -1   27.90    2.70
   0  -6  -1   29.60    1.90
   0   6   1   30.60    4.10
   0   6   1   34.90    4.20
   0   6   1   29.10    2.90
   0   6   1   35.10    2.70
   0   6   1   30.00    1.70
  -1  -6  -1   86.99    4.80
  -1  -6  -1   81.69    4.90
   1   6   1   81.99    6.40
   1   6   1   75.79    5.50
   1   6   1   79.39    4.80
   1   6   1   75.69    5.80
  -2  -6  -1  153.28    8.80
  -2  -6  -1  154.38    7.90
  -2  -6  -1  162.28    7.70
   2   6   1  159.18    9.30
   2   6   1  162.18    9.00
   2   6   1  156.68    7.70
   2   6   1  147.09    8.90
  -3  -6  -1   27.10    3.80
  -3  -6  -1   27.60    3.10
  -3  -6  -1   29.20    3.00
  -3  -6  -1   31.40    3.90
   3   6   1   28.70    3.40
   3   6   1   26.50    4.40
   3   6   1   35.70    4.30
   3   6   1   30.70    1.90
   3   6   1   28.90    4.30
  -4  -6  -1   10.90    2.00
  -4  -6  -1   10.20    2.90
  -4  -6  -1   11.20    2.70
  -4  -6  -1   10.60    2.50
   4   6   1   13.00    3.60
   4   6   1    9.20    2.40
   4   6   1    8.20    3.20
  -5  -6  -1   30.00    3.60
  -5  -6  -1   31.00    3.10
  -5  -6  -1   37.80    4.00
  -5  -6  -1   36.80    4.30
   5   6   1   31.30    3.90
   5   6   1   26.30    5.20
   5   6   1   28.80    4.60
  -6  -6  -1   23.20    4.40
  -6  -6  -1   22.00    3.20
  -6  -6  -1   14.70    2.50
  -6  -6  -1   23.50    3.10
   6   6   1   16.40    5.00
   6   6   1   16.80    3.90
  -7  -6  -1    0.90    1.80
  -7  -6  -1    2.20    1.90
  -7  -6  -1    8.50    3.00
   7   6   1    4.80    4.30
   7   6   1    4.70    3.10
  -8  -6  -1   17.20    3.50
   8   6   1   10.40    5.30
   8   6   1   16.70    3.80
   8  -7  -1  156.98    8.70
   8  -7  -1  162.38    8.90
  -8   7   1  147.59   11.40
  -8   7   1  135.39    8.00
   7  -7  -1    2.50    1.70
   7  -7  -1    6.10    2.90
  -7   7   1   -1.30    3.00
  -7   7   1   -0.40    1.40
   6  -7  -1  186.78    9.30
   6  -7  -1  181.08    9.10
   6  -7  -1  184.08    9.90
  -6   7   1  186.58   11.70
  -6   7   1  178.68    8.90
   5  -7  -1    1.90    2.10
   5  -7  -1    1.20    1.30
   5  -7  -1   -1.30    1.60
  -5   7   1   -1.40    2.40
  -5   7   1   -0.70    1.00
   4  -7  -1    5.40    1.90
   4  -7  -1    3.30    1.40
   4  -7  -1    8.70    2.20
  -4   7   1    4.50    1.40
  -4   7   1    5.40    2.40
  -4   7   1    3.30    2.70
   3  -7  -1    6.60    1.60
   3  -7  -1    7.00    1.70
   3  -7  -1    6.90    1.80
   3  -7  -1    6.60    2.00
  -3   7   1    8.10    2.70
  -3   7   1    5.20    2.70
  -3   7   1    7.00    1.60
   2  -7  -1    2.70    1.50
   2  -7  -1    2.70    1.30
   2  -7  -1    4.40    1.80
   2  -7  -1    4.10    1.50
  -2   7   1    6.10    2.90
  -2   7   1    3.60    1.30
  -2   7   1    4.50    2.40
   1  -7  -1   71.79    4.50
   1  -7  -1   69.09    3.70
   1  -7  -1   70.19    3.70
   1  -7  -1   69.69    4.70
  -1   7   1   82.39    4.60
  -1   7   1   72.79    6.10
  -1   7   1   71.99    5.90
  -1   7   1   71.89    3.60
  -1   7   1   70.79    4.10
   0  -7  -1  109.29    4.80
   0  -7  -1  112.39    6.10
   0  -7  -1  112.69    4.80
   0  -7  -1  109.59    6.30
   0   7   1  118.99    6.10
   0   7   1  114.29    7.90
   0   7   1  111.49    6.30
   0   7   1  113.49    7.60
  -1  -7  -1   70.39    4.80
  -1  -7  -1   72.99    4.70
   1   7   1   72.99    6.20
   1   7   1   68.59    5.30
   1   7   1   76.39    6.10
   1   7   1   72.99    5.20
  -2  -7  -1   85.99    6.60
  -2  -7  -1   87.19    5.40
  -2  -7  -1   92.29    5.60
   2   7   1   93.49    7.10
   2   7   1   82.09    6.50
   2   7   1   88.39    6.90
  -3  -7  -1   20.60    4.20
  -3  -7  -1   16.80    2.60
  -3  -7  -1   16.90    3.50
  -3  -7  -1   17.60    3.00
   3   7   1   16.60    3.70
   3   7   1   15.90    3.50
   3   7   1   21.60    4.30
  -4  -7  -1   20.80    3.90
  -4  -7  -1   19.00    3.70
  -4  -7  -1   14.40    2.40
  -4  -7  -1   16.20    3.20
   4   7   1   16.00    4.10
   4   7   1   21.80    4.40
  -5  -7  -1   40.30    5.10
  -5  -7  -1   40.50    4.30
  -5  -7  -1   41.80    3.90
  -5  -7  -1   39.80    4.50
   5   7   1   31.40    5.70
   5   7   1   41.00    5.80
  -6  -7  -1    0.30    1.60
  -6  -7  -1    1.80    2.40
  -6  -7  -1    1.90    2.10
   6   7   1    2.00    3.20
   6   7   1    2.50    3.70
  -7  -7  -1    0.40    1.70
  -7  -7  -1    7.00    2.60
  -7  -7  -1    4.20    2.30
   7   7   1    3.20    4.10
   7   7   1    2.80    2.80
   7  -8  -1   16.70    3.50
   7  -8  -1   14.50    2.70
  -7   8   1   11.60    2.40
  -7   8   1    7.40    4.00
   6  -8  -1   33.00    3.70
   6  -8  -1   31.10    3.80
  -6   8   1   27.20    5.20
  -6   8   1   30.40    3.30
   5  -8  -1  112.79    6.40
   5  -8  -1  108.49    6.20
   5  -8  -1  109.79    6.40
  -5   8   1   95.89    5.90
  -5   8   1  110.29    9.00
   4  -8  -1   40.00    3.70
   4  -8  -1   42.60    3.60
   4  -8  -1   45.10    3.80
   4  -8  -1   41.40    3.90
  -4   8   1   33.90    5.30
  -4   8   1   37.20    3.40
  -4   8   1   41.10    4.70
   3  -8  -1    7.40    1.90
   3  -8  -1    3.50    1.70
   3  -8  -1    4.80    1.60
   3  -8  -1    4.60    2.00
  -3   8   1    3.20    1.40
  -3   8   1    4.00    2.60
  -3   8   1    1.70    2.80
   2  -8  -1  213.58   10.10
   2  -8  -1  210.68    9.20
   2  -8  -1  215.38    9.30
   2  -8  -1  215.68   10.60
  -2   8   1  204.18   12.20
  -2   8   1  215.48   11.80
  -2   8   1  224.38   10.00
   1  -8  -1    1.30    1.60
   1  -8  -1   -0.30    1.80
  -1   8   1   -2.10    2.20
  -1   8   1    0.90    2.80
   0  -8  -1   58.29    4.70
   0  -8  -1   53.69    4.30
   0   8   1   61.19    6.10
   0   8   1   60.39    6.00
   0   8   1   57.99    4.30
  -1  -8  -1    0.10    1.80
  -1  -8  -1    0.80    1.60
   1   8   1    5.50    3.60
   1   8   1    2.00    2.40
   1   8   1    2.20    1.70
  -2  -8  -1   35.80    3.80
  -2  -8  -1   33.30    5.10
  -2  -8  -1   36.90    3.70
  -2  -8  -1   29.60    4.60
   2   8   1   43.50    5.90
   2   8   1   40.40    4.80
   2   8   1   29.30    4.60
  -3  -8  -1   69.19    5.50
  -3  -8  -1   71.49    5.20
  -3  -8  -1   75.39    6.70
  -3  -8  -1   66.89    6.10
   3   8   1   82.29    7.30
   3   8   1   73.89    7.10
   3   8   1   74.39    6.80
  -4  -8  -1   20.00    3.10
  -4  -8  -1   29.00    5.20
  -4  -8  -1   27.40    4.30
   4   8   1   21.10    4.70
   4   8   1   29.30    5.30
  -5  -8  -1   33.90    4.80
  -5  -8  -1   32.70    4.20
  -5  -8  -1   27.90    3.70
   5   8   1   35.80    5.90
   5   8   1   29.30    5.50
  -6  -8  -1   76.89    6.30
  -6  -8  -1   75.39    5.80
  -6  -8  -1   94.49    7.50
   6   8   1   79.39    8.80
   6   8   1   89.29    8.10
  -7  -8  -1    0.00    1.70
   6  -9  -1   23.60    3.60
   6  -9  -1   30.90    3.70
   6  -9  -1   28.20    3.60
  -6   9   1   15.70    2.70
  -6   9   1   15.60    4.80
   5  -9  -1    2.30    2.20
   5  -9  -1    2.60    2.40
   5  -9  -1    1.70    1.80
  -5   9   1   -2.50    3.00
  -5   9   1   -1.00    1.40
   4  -9  -1   12.70    3.10
   4  -9  -1   13.60    2.60
   4  -9  -1    9.30    2.50
  -4   9   1   16.90    3.50
  -4   9   1    7.80    2.00
  -4   9   1   10.50    4.30
   3  -9  -1    0.30    1.90
   3  -9  -1   -0.10    1.70
  -3   9   1   -0.80    3.10
  -3   9   1    1.90    2.70
  -3   9   1    0.10    1.50
   2  -9  -1  118.39    7.00
   2  -9  -1  121.59    7.60
  -2   9   1  121.09    9.80
  -2   9   1  129.89    8.90
   1  -9  -1    4.50    2.70
   1  -9  -1    3.10    2.00
  -1   9   1    7.20    3.70
  -1   9   1    0.70    3.20
   0  -9  -1   99.19    6.70
   0  -9  -1  100.19    6.40
   0   9   1   99.29    8.50
   0   9   1  118.29    8.90
  -1  -9  -1   28.40    4.20
  -1  -9  -1   20.70    3.20
   1   9   1   22.10    4.70
   1   9   1   22.30    5.00
  -2  -9  -1    0.60    2.20
  -2  -9  -1   -2.20    1.70
  -2  -9  -1    0.90    3.10
   2   9   1   -2.00    3.10
   2   9   1    3.90    3.80
   2   9   1    3.80    2.30
  -3  -9  -1   41.80    4.70
  -3  -9  -1   45.20    5.80
  -3  -9  -1   41.90    4.50
   3   9   1   41.00    5.80
   3   9   1   49.30    5.80
   3   9   1   63.39    7.50
  -4  -9  -1   22.30    4.70
  -4  -9  -1   19.00    3.30
  -4  -9  -1   24.60    4.30
   4   9   1   18.90    4.50
   4   9   1   25.80    5.70
  -5  -9  -1   22.00    4.60
  -5  -9  -1   11.90    2.90
  -5  -9  -1   19.80    4.00
   5   9   1   22.20    5.20
   5   9   1   19.40    4.70
   4 -10  -1    3.60    2.20
   4 -10  -1   11.30    3.20
  -4  10   1    1.00    2.00
  -4  10   1    7.10    4.10
   3 -10  -1    4.60    2.60
   3 -10  -1    3.30    2.20
  -3  10   1   -0.60    3.80
  -3  10   1    8.80    3.20
   2 -10  -1    1.30    2.20
   2 -10  -1    4.10    2.50
  -2  10   1   10.60    3.50
  -2  10   1    2.30    3.90
   1 -10  -1   28.50    3.80
   1 -10  -1   29.30    4.30
  -1  10   1   23.50    5.20
  -1  10   1   31.80    5.40
   0 -10  -1  100.59    6.80
   0 -10  -1  102.89    7.40
   0  10   1   94.79    9.40
   0  10   1  118.49    9.30
  -1 -10  -1  102.49    7.00
  -1 -10  -1  106.29    7.50
   1  10   1  116.79    9.70
   1  10   1  108.19    9.20
  -2 -10  -1   46.30    6.50
  -2 -10  -1   46.00    4.70
  -2 -10  -1   50.99    5.30
   2  10   1   51.69    6.80
   2  10   1   66.09    8.00
  -3 -10  -1   -0.80    2.20
  -3 -10  -1   -3.10    1.80
  -3 -10  -1   -3.20    3.00
   3  10   1   -6.30    3.40
   3  10   1    3.80    4.00
   1  11  -2    0.30    3.80
   1  11  -2   -1.00    3.20
  -1 -11   2    4.10    2.80
  -1 -11   2   -4.10    3.70
  -1 -11   2   -2.80    2.50
   0  11  -2   21.40    5.10
   0  11  -2   31.70    6.30
   0 -11   2   20.70    4.10
   0 -11   2   30.00    4.60
  -1  11  -2    4.80    3.80
  -1  11  -2   -1.50    3.10
   1 -11   2   -0.10    2.30
   1 -11   2   -4.30    2.20
  -2  11  -2   50.79    6.20
  -2  11  -2   36.30    6.30
   2 -11   2   35.10    4.70
   2 -11   2   43.20    4.80
   4  10  -2    6.50    4.50
   4  10  -2    0.70    2.70
  -4 -10   2   -3.80    2.10
  -4 -10   2    2.60    2.40
  -4 -10   2    1.90    2.50
   3  10  -2   12.30    4.90
   3  10  -2    2.30    3.20
  -3 -10   2   16.60    3.70
  -3 -10   2    9.80    3.10
  -3 -10   2   18.50    4.50
   2  10  -2   52.19    6.80
   2  10  -2   73.79    8.60
  -2 -10   2   49.70    6.60
  -2 -10   2   58.09    5.70
  -2 -10   2   60.59    5.60
   1  10  -2  127.19    9.50
   1  10  -2  125.39   10.20
  -1 -10   2  121.19    8.00
  -1 -10   2  126.99    8.10
   0  10  -2   13.00    4.80
   0  10  -2    6.10    3.60
   0 -10   2    8.70    2.90
   0 -10   2    8.40    2.90
  -1  10  -2   18.90    4.90
  -1  10  -2   12.70    4.30
   1 -10   2   20.60    3.60
   1 -10   2   25.70    4.20
  -2  10  -2    2.80    3.70
  -2  10  -2    0.40    3.40
   2 -10   2    5.80    2.60
   2 -10   2    1.10    2.10
  -3  10  -2   -1.40    3.30
  -3  10  -2    1.10    3.50
   3 -10   2    1.40    2.20
   3 -10   2    1.10    2.20
  -4  10  -2    5.50    3.40
  -4  10  -2   -2.40    3.30
   4 -10   2    1.80    2.30
   4 -10   2    1.20    2.40
  -5  10  -2    0.20    3.90
   5 -10   2    6.50    2.80
   5 -10   2    5.30    2.70
   6   9  -2   -2.30    3.90
  -6  -9   2    9.40    3.00
   5   9  -2   76.09    8.90
   5   9  -2  100.29    8.80
  -5  -9   2  107.79    7.80
  -5  -9   2   94.59    6.90
  -5  -9   2   97.59    7.30
   4   9  -2   -1.10    2.90
   4   9  -2    4.40    4.00
  -4  -9   2    1.50    2.60
  -4  -9   2   -0.90    2.10
  -4  -9   2   -1.10    2.10
   3   9  -2   10.80    3.80
   3   9  -2   11.40    3.30
   3   9  -2   15.60    4.90
  -3  -9   2   11.50    5.90
  -3  -9   2   19.30    4.40
  -3  -9   2   16.20    3.50
  -3  -9   2    9.90    2.80
   2   9  -2    4.20    4.10
   2   9  -2    2.20    2.40
   2   9  -2    4.70    2.70
  -2  -9   2    1.80    2.10
  -2  -9   2    2.70    3.30
  -2  -9   2    4.90    2.50
   1   9  -2   31.20    5.70
   1   9  -2   20.10    4.00
  -1  -9   2   27.30    3.80
  -1  -9   2   32.00    3.70
   0   9  -2   17.70    3.90
   0   9  -2   15.50    4.80
   0  -9   2   18.10    3.20
   0  -9   2   25.00    3.80
  -1   9  -2   99.59    8.80
  -1   9  -2  107.99    8.20
   1  -9   2  104.39    6.60
   1  -9   2  109.39    6.70
  -2   9  -2   -3.30    2.70
  -2   9  -2   -5.30    3.30
   2  -9   2   -1.30    1.60
   2  -9   2    0.90    1.80
  -3   9  -2   43.90    6.20
  -3   9  -2   41.10    5.70
   3  -9   2   52.49    3.70
   3  -9   2   49.90    4.50
   3  -9   2   49.70    4.50
  -4   9  -2   17.20    2.40
  -4   9  -2   12.80    4.20
  -4   9  -2   16.10    4.50
   4  -9   2   15.70    2.70
   4  -9   2   20.40    3.30
   4  -9   2   21.30    3.60
  -5   9  -2   -0.80    3.10
  -5   9  -2   -0.50    1.30
   5  -9   2   -1.00    2.30
   5  -9   2    1.30    2.10
   5  -9   2    0.50    1.90
  -6   9  -2   32.90    5.90
   6  -9   2   54.39    4.80
   6  -9   2   43.10    4.50
   6  -9   2   50.59    4.60
   7   8  -2   -4.90    3.90
   7   8  -2    6.40    3.70
  -7  -8   2   -1.30    1.90
  -7  -8   2    4.40    2.50
   6   8  -2   -2.10    3.60
   6   8  -2    6.70    3.80
  -6  -8   2    0.60    1.90
  -6  -8   2    4.20    2.60
  -6  -8   2    5.30    2.40
   5   8  -2   43.10    7.00
   5   8  -2   73.79    7.70
  -5  -8   2   56.49    5.00
  -5  -8   2   65.19    5.60
  -5  -8   2   65.59    6.00
  -5  -8   2   63.49    5.30
   4   8  -2   -1.30    2.60
   4   8  -2   -2.80    2.90
   4   8  -2    1.20    3.70
  -4  -8   2    0.30    2.30
  -4  -8   2   -1.20    2.00
  -4  -8   2    0.10    2.00
  -4  -8   2   -1.30    1.90
   3   8  -2    8.70    3.50
   3   8  -2   12.90    4.50
   3   8  -2   12.40    3.00
  -3  -8   2   14.50    3.00
  -3  -8   2   16.10    3.00
  -3  -8   2   16.00    3.70
  -3  -8   2   14.80    3.60
   2   8  -2   55.89    5.40
   2   8  -2   53.89    5.10
   2   8  -2   53.39    6.40
   2   8  -2   42.20    5.30
  -2  -8   2   57.59    5.40
  -2  -8   2   59.99    4.70
  -2  -8   2   52.19    4.50
   1   8  -2   -0.50    2.20
   1   8  -2    2.40    1.90
   1   8  -2    0.10    3.40
   1   8  -2    0.90    1.80
  -1  -8   2    1.10    1.90
  -1  -8   2    2.30    1.90
   0   8  -2    9.40    3.00
   0   8  -2   13.70    2.50
   0   8  -2   10.60    4.00
   0   8  -2   10.40    2.20
   0  -8   2   10.80    2.40
   0  -8   2   12.30    2.60
  -1   8  -2  268.77   14.00
  -1   8  -2  274.47   12.70
  -1   8  -2  263.07   14.30
   1  -8   2  281.27   12.80
   1  -8   2  275.87   12.70
   1  -8   2  285.67   11.20
  -2   8  -2   38.30    3.40
  -2   8  -2   29.20    5.20
  -2   8  -2   28.50    4.40
   2  -8   2   34.10    3.50
   2  -8   2   30.00    3.20
   2  -8   2   34.50    2.80
  -3   8  -2   88.49    7.90
  -3   8  -2  105.89    6.00
  -3   8  -2   80.29    7.40
  -3   8  -2   98.19    5.30
   3  -8   2   99.19    5.30
   3  -8   2  106.09    5.30
   3  -8   2   96.69    6.00
   3  -8   2   99.09    5.90
  -4   8  -2  209.48   10.40
  -4   8  -2  205.68    9.50
  -4   8  -2  175.08   11.40
  -4   8  -2  208.98   12.40
   4  -8   2  213.38    9.60
   4  -8   2  222.08   10.60
   4  -8   2  216.48   10.40
   4  -8   2  226.38    9.70
  -5   8  -2   77.39    7.80
  -5   8  -2   64.39    6.60
  -5   8  -2   84.79    4.90
   5  -8   2   86.29    5.90
   5  -8   2   84.49    5.50
   5  -8   2   88.59    5.60
   5  -8   2   86.29    5.40
  -6   8  -2   -1.00    1.20
  -6   8  -2    0.30    3.10
   6  -8   2    3.00    1.90
   6  -8   2    0.30    1.60
   6  -8   2    1.30    2.40
  -7   8  -2   30.30    5.80
   7  -8   2   36.20    4.40
   7  -8   2   30.90    4.00
   7   7  -2    8.40    3.80
   7   7  -2    2.80    4.50
  -7  -7   2    3.70    2.00
  -7  -7   2    7.70    2.90
   6   7  -2   64.89    6.50
   6   7  -2   73.19    7.30
  -6  -7   2   84.69    5.50
  -6  -7   2   66.59    5.60
  -6  -7   2   81.69    6.60
  -6  -7   2   69.29    5.90
   5   7  -2    0.10    2.50
   5   7  -2   -1.60    3.10
   5   7  -2    2.00    3.20
  -5  -7   2    1.20    1.70
  -5  -7   2    3.00    2.30
  -5  -7   2    1.80    1.70
  -5  -7   2    3.10    2.30
   4   7  -2   16.50    3.30
   4   7  -2    8.90    3.60
   4   7  -2   21.50    4.70
  -4  -7   2   18.70    3.40
  -4  -7   2   20.00    3.50
  -4  -7   2   18.80    3.20
  -4  -7   2   17.50    2.90
   3   7  -2   29.30    3.90
   3   7  -2   35.20    5.40
   3   7  -2   31.30    4.10
  -3  -7   2   30.80    3.90
  -3  -7   2   33.00    3.50
  -3  -7   2   29.60    3.30
  -3  -7   2   33.80    4.10
   2   7  -2   -3.30    2.80
   2   7  -2   -2.20    1.90
   2   7  -2   -2.80    1.70
   2   7  -2   -0.10    1.80
  -2  -7   2   -0.30    1.90
  -2  -7   2   -0.10    1.70
  -2  -7   2   -0.70    1.50
   1   7  -2   65.79    4.60
   1   7  -2   51.79    9.50
   1   7  -2   51.69    5.90
   1   7  -2   61.59    5.30
   1   7  -2   47.60    4.60
  -1  -7   2   63.59    4.40
  -1  -7   2   59.29    4.20
   0   7  -2    7.00    4.00
   0   7  -2   10.60    2.00
   0   7  -2    7.60    2.00
   0   7  -2    8.30    2.40
   0   7  -2    4.00    3.20
   0   7  -2    7.10    1.10
   0  -7   2    8.60    2.10
   0  -7   2    6.40    1.90
  -1   7  -2  324.37   16.70
  -1   7  -2  379.96   14.20
  -1   7  -2  361.76   16.60
  -1   7  -2  382.56   15.50
  -1   7  -2  318.17   19.70
  -1   7  -2  328.07   14.60
   1  -7   2  366.16   15.40
   1  -7   2  367.46   14.20
   1  -7   2  362.86   15.40
  -2   7  -2    1.80    2.70
  -2   7  -2   -1.10    2.90
  -2   7  -2    1.50    1.00
  -2   7  -2    2.50    2.30
  -2   7  -2    2.50    1.20
   2  -7   2    2.60    1.40
   2  -7   2    0.70    1.20
   2  -7   2    2.30    1.60
   2  -7   2    2.10    1.50
  -3   7  -2   77.59    8.00
  -3   7  -2   92.19    7.20
  -3   7  -2   95.09    5.40
  -3   7  -2   91.49    4.70
   3  -7   2   84.49    5.10
   3  -7   2   90.09    4.80
   3  -7   2   86.69    5.30
   3  -7   2   91.69    4.90
  -4   7  -2   45.00    5.40
  -4   7  -2   48.00    3.60
  -4   7  -2   42.10    3.00
  -4   7  -2   30.40    4.60
   4  -7   2   40.60    3.70
   4  -7   2   44.60    3.50
   4  -7   2   45.60    3.40
   4  -7   2   35.80    3.40
  -5   7  -2    3.60    1.20
  -5   7  -2   -2.90    2.70
  -5   7  -2    4.70    1.50
  -5   7  -2    0.30    2.30
   5  -7   2    5.80    2.30
   5  -7   2    3.00    1.80
   5  -7   2    2.90    1.60
  -6   7  -2   61.29    7.10
  -6   7  -2   61.39    4.10
  -6   7  -2   67.09    4.80
   6  -7   2   71.89    5.30
   6  -7   2   59.09    4.70
   6  -7   2   57.39    5.00
  -7   7  -2   21.30    2.50
  -7   7  -2   23.80    4.70
   7  -7   2   27.00    3.60
   7  -7   2   25.60    3.90
  -8   7  -2  289.87   13.30
  -8   7  -2  286.97   16.80
   8  -7   2  298.27   14.10
   8  -7   2  306.97   14.60
   8   6  -2   -1.30    2.80
   8   6  -2    1.40    4.70
  -8  -6   2    4.20    2.20
  -8  -6   2    9.00    3.00
   7   6  -2    4.50    2.90
   7   6  -2    2.00    4.70
   7   6  -2    6.80    3.40
  -7  -6   2   10.10    3.00
  -7  -6   2    3.00    2.10
  -7  -6   2    6.80    2.60
   6   6  -2    0.80    2.70
   6   6  -2   -0.80    2.80
  -6  -6   2    4.40    2.20
  -6  -6   2    4.20    1.50
  -6  -6   2    3.90    2.20
  -6  -6   2   -0.50    1.40
   5   6  -2    5.40    2.70
   5   6  -2    5.20    3.40
  -5  -6   2    5.60    1.90
  -5  -6   2    3.10    1.80
  -5  -6   2    5.90    2.40
  -5  -6   2    4.50    2.00
   4   6  -2    2.10    3.10
   4   6  -2    3.80    2.10
  -4  -6   2    2.70    1.70
  -4  -6   2    2.20    1.80
  -4  -6   2    3.60    2.00
  -4  -6   2    1.70    1.70
   3   6  -2    1.50    1.70
   3   6  -2   -0.40    1.90
   3   6  -2    1.70    2.90
  -3  -6   2    1.50    1.50
  -3  -6   2    0.10    1.80
  -3  -6   2    0.10    1.40
  -3  -6   2   -0.20    1.70
   2   6  -2    3.80    1.80
   2   6  -2    3.50    1.80
   2   6  -2    5.40    4.20
   2   6  -2    5.70    3.20
  -2  -6   2    5.50    1.80
  -2  -6   2    7.20    1.90
  -2  -6   2    5.80    2.20
   1   6  -2   19.20    5.00
   1   6  -2   30.30    4.50
   1   6  -2   29.50    3.20
   1   6  -2   29.00    1.60
   1   6  -2   29.00    3.70
   1   6  -2   29.40    1.60
  -1  -6   2   29.90    3.00
  -1  -6   2   29.30    2.70
   0   6  -2  240.78   10.50
   0   6  -2  235.48   11.10
   0   6  -2  199.58   14.70
   0   6  -2  236.88    9.20
   0  -6   2  220.38   10.20
   0  -6   2  231.78   10.40
  -1   6  -2   97.59    4.30
  -1   6  -2   96.19    6.30
  -1   6  -2   77.39    4.60
  -1   6  -2   80.29    8.70
  -1   6  -2   95.49    5.10
   1  -6   2   93.39    5.00
   1  -6   2   91.09    4.30
   1  -6   2   94.29    3.90
   1  -6   2   93.79    5.10
  -2   6  -2  308.37   11.90
  -2   6  -2  287.77   12.60
  -2   6  -2  250.97   15.60
  -2   6  -2  298.07   13.90
  -2   6  -2  300.97   12.00
   2  -6   2  289.77   12.60
   2  -6   2  281.27   11.90
   2  -6   2  292.27   11.90
   2  -6   2  299.27   12.60
  -3   6  -2   13.60    2.80
  -3   6  -2   16.20    1.70
  -3   6  -2   11.40    3.00
  -3   6  -2   17.70    2.10
   3  -6   2   18.40    2.20
   3  -6   2   18.00    2.30
   3  -6   2   19.20    2.00
   3  -6   2   20.20    2.20
  -4   6  -2   56.69    3.20
  -4   6  -2   50.39    3.70
  -4   6  -2   48.40    5.00
   4  -6   2   51.69    3.70
   4  -6   2   56.19    3.90
   4  -6   2   48.20    3.80
  -5   6  -2  109.29    5.60
  -5   6  -2  108.39    7.80
  -5   6  -2  119.69    6.40
   5  -6   2  112.89    6.10
   5  -6   2  115.09    6.40
   5  -6   2  114.59    6.10
  -6   6  -2    9.80    2.90
  -6   6  -2   11.30    2.30
  -6   6  -2   11.90    1.80
   6  -6   2    8.50    2.60
   6  -6   2   10.50    2.30
   6  -6   2   12.50    2.50
  -7   6  -2   40.40    3.30
  -7   6  -2   47.80    4.10
  -7   6  -2   48.10    5.70
   7  -6   2   42.10    4.30
   7  -6   2   40.90    4.40
  -8   6  -2   11.80    2.90
  -8   6  -2    9.10    2.00
  -8   6  -2    2.80    1.40
   8  -6   2    3.50    2.20
   8  -6   2   -0.80    3.00
  -9   6  -2   13.10    2.30
   9  -6   2   17.10    3.80
   9  -6   2   11.90    2.90
   9   5  -2    8.30    3.80
   9   5  -2   -0.40    5.30
  -9  -5   2   13.30    3.40
  -9  -5   2   10.20    2.60
   8   5  -2   -4.20    4.40
   8   5  -2    0.50    2.70
  -8  -5   2    2.00    2.10
  -8  -5   2    3.40    2.50
  -8  -5   2   -0.20    1.60
   7   5  -2    0.20    2.40
   7   5  -2    3.60    2.80
  -7  -5   2    7.30    2.80
  -7  -5   2    4.70    2.30
  -7  -5   2    3.90    1.90
   6   5  -2   11.00    3.10
   6   5  -2   12.30    3.20
  -6  -5   2    9.50    2.70
  -6  -5   2   13.80    3.20
  -6  -5   2   17.00    2.50
  -6  -5   2    9.80    2.10
   5   5  -2   65.49    5.90
   5   5  -2   67.39    5.50
  -5  -5   2   68.89    4.90
  -5  -5   2   66.99    4.70
  -5  -5   2   68.89    4.70
  -5  -5   2   66.09    5.10
   4   5  -2   39.40    4.20
   4   5  -2   34.30    4.50
  -4  -5   2   34.10    3.50
  -4  -5   2   36.40    2.20
  -4  -5   2   39.40    3.50
  -4  -5   2   38.70    3.40
  -4  -5   2   35.00    3.30
   3   5  -2    1.30    2.90
   3   5  -2    0.10    0.50
   3   5  -2    1.80    1.80
   3   5  -2    2.60    3.60
   3   5  -2    0.10    1.40
  -3  -5   2    1.50    1.30
  -3  -5   2    1.20    1.70
  -3  -5   2    1.70    1.40
  -3  -5   2    0.90    1.50
  -3  -5   2    0.20    1.30
   2   5  -2    3.30    1.50
   2   5  -2    4.50    0.60
   2   5  -2    3.70    0.50
   2   5  -2    5.00    3.00
   2   5  -2    3.40    3.30
   2   5  -2    3.70    1.70
  -2  -5   2    5.60    1.80
  -2  -5   2    3.70    1.50
  -2  -5   2    2.60    1.50
   1   5  -2   19.70    2.40
   1   5  -2   21.80    2.90
   1   5  -2   20.00    1.40
   1   5  -2   16.60    4.40
   1   5  -2   22.40    1.40
  -1  -5   2   23.80    2.50
  -1  -5   2   20.30    2.30
   0   5  -2   83.79    5.30
   0   5  -2   83.89    4.60
   0   5  -2   77.99    8.30
   0   5  -2   89.19    3.80
   0  -5   2   87.49    4.70
   0  -5   2   85.99    4.60
   0  -5   2   88.59    3.80
  -1   5  -2   47.40    2.50
  -1   5  -2   37.80    5.90
  -1   5  -2   42.50    3.80
  -1   5  -2   46.30    2.50
  -1   5  -2   39.10    2.90
   1  -5   2   46.00    3.20
   1  -5   2   45.60    2.60
   1  -5   2   43.30    2.80
   1  -5   2   48.40    2.60
  -2   5  -2    5.30    0.90
  -2   5  -2    2.90    1.70
  -2   5  -2    4.10    1.20
  -2   5  -2    5.10    1.20
  -2   5  -2    3.30    2.10
   2  -5   2    3.60    1.20
   2  -5   2    4.20    1.30
   2  -5   2    6.20    1.30
   2  -5   2    7.00    1.40
  -3   5  -2    7.50    2.20
  -3   5  -2   10.60    1.20
  -3   5  -2   12.60    1.70
  -3   5  -2    8.00    2.30
   3  -5   2   11.50    1.70
   3  -5   2   14.30    1.90
   3  -5   2   11.80    1.90
  -4   5  -2    0.20    1.40
  -4   5  -2    2.10    0.80
  -4   5  -2    1.10    0.90
   4  -5   2    3.20    1.30
   4  -5   2    3.00    1.60
   4  -5   2   -0.10    1.70
  -5   5  -2   83.29    4.30
  -5   5  -2   72.69    5.40
  -5   5  -2   85.99    4.90
   5  -5   2   81.49    4.80
   5  -5   2   94.09    5.10
   5  -5   2   86.69    5.10
  -6   5  -2   27.10    2.40
  -6   5  -2   28.30    2.90
   6  -5   2   27.50    3.30
   6  -5   2   29.10    3.10
   6  -5   2   26.80    3.00
  -7   5  -2    0.20    1.00
  -7   5  -2    1.20    1.30
   7  -5   2    1.80    2.10
   7  -5   2    0.40    1.60
   7  -5   2   -0.10    2.40
  -8   5  -2   10.90    1.90
  -8   5  -2   15.40    2.80
   8  -5   2   18.00    3.60
   8  -5   2   10.60    2.50
  -9   5  -2    0.80    1.30
   9  -5   2    1.90    1.90
   9  -5   2    2.10    3.10
 -10  -4   2  240.08   11.90
   9   4  -2   -7.80    4.50
   9   4  -2    0.20    2.80
  -9  -4   2   -0.10    1.70
  -9  -4   2    0.80    1.90
  -9  -4   2    5.30    3.00
   8   4  -2   68.29    6.50
  -8  -4   2   71.99    6.70
  -8  -4   2   60.39    3.70
  -8  -4   2   63.79    4.90
  -8  -4   2   63.89    5.60
   7   4  -2   37.10    4.50
   7   4  -2   36.60    4.10
  -7  -4   2   39.20    4.70
  -7  -4   2   32.40    3.70
  -7  -4   2   47.40    3.60
  -7  -4   2   30.40    3.40
   6   4  -2  128.59    5.80
   6   4  -2  137.09    8.10
   6   4  -2  138.39    7.70
   6   4  -2  132.99    5.80
  -6  -4   2  140.59    7.20
  -6  -4   2  137.89    8.10
  -6  -4   2  127.99    7.00
  -6  -4   2  127.19    7.50
   5   4  -2  165.68    8.80
   5   4  -2  157.78    8.70
   5   4  -2  166.68    6.70
   5   4  -2  165.48    6.70
  -5  -4   2  158.38    8.00
  -5  -4   2  166.48    8.10
  -5  -4   2  153.78    8.30
  -5  -4   2  169.98    8.80
   4   4  -2  233.18    8.80
   4   4  -2  223.18    8.80
   4   4  -2  214.78   10.50
   4   4  -2  215.48   11.00
  -4  -4   2  213.98   10.30
  -4  -4   2  227.68    8.90
  -4  -4   2  216.48   10.10
  -4  -4   2  223.78   10.10
  -4  -4   2  225.58   10.70
   3   4  -2 1032.00   36.80
   3   4  -2  850.51   42.80
   3   4  -2 1046.30   38.50
   3   4  -2  933.11   38.70
   3   4  -2 1016.00   36.80
  -3  -4   2  996.30   37.40
  -3  -4   2  962.80   38.50
  -3  -4   2  951.00   38.10
  -3  -4   2  939.41   38.20
  -3  -4   2  915.91   38.00
   2   4  -2 2346.77   87.79
   2   4  -2 2408.46   88.79
   2   4  -2 1992.20   92.59
   2   4  -2 2187.08   89.19
   2   4  -2 2334.97   88.49
   2   4  -2 2564.44   87.89
  -2  -4   2 2239.38   89.99
  -2  -4   2 2328.67   88.89
  -2  -4   2 2326.97   88.59
   1   4  -2   11.10    1.00
   1   4  -2   10.90    1.70
   1   4  -2    7.80    1.50
   1   4  -2    8.00    2.90
   1   4  -2   11.40    1.00
  -1  -4   2   10.30    1.50
  -1  -4   2   10.20    1.70
   0   4  -2  144.09    9.90
   0   4  -2  166.88    7.50
   0   4  -2  176.38    8.00
   0   4  -2  176.08    6.90
   0   4  -2  176.28    6.90
   0  -4   2  182.78    6.60
   0  -4   2  168.68    7.60
   0  -4   2  164.28    7.40
   0  -4   2  168.78    6.80
  -1   4  -2  176.28    7.90
  -1   4  -2  180.88    7.40
  -1   4  -2  186.38    7.40
  -1   4  -2  174.38    8.40
  -1   4  -2  168.18   10.10
   1  -4   2  186.48    7.40
   1  -4   2  178.58    7.70
   1  -4   2  190.48    7.40
   1  -4   2  175.58    7.80
  -2   4  -2  827.02   31.90
  -2   4  -2  860.01   34.50
  -2   4  -2  813.82   32.50
  -2   4  -2  863.21   32.00
   2  -4   2  817.92   33.40
   2  -4   2  832.12   32.10
   2  -4   2  802.42   32.40
   2  -4   2  806.52   32.00
  -3   4  -2   87.99    4.00
  -3   4  -2   87.69    4.30
  -3   4  -2   91.59    5.70
  -3   4  -2   88.89    4.60
   3  -4   2   82.89    4.40
   3  -4   2   85.29    4.50
   3  -4   2   80.39    4.50
   3  -4   2   92.39    5.40
  -4   4  -2    4.50    0.80
  -4   4  -2    2.90    1.10
  -4   4  -2    3.60    1.20
   4  -4   2    2.80    1.60
   4  -4   2    3.50    1.20
   4  -4   2    0.50    1.70
  -5   4  -2    1.30    0.90
  -5   4  -2    1.60    0.80
  -5   4  -2    1.50    1.10
   5  -4   2    1.60    1.20
   5  -4   2    2.00    0.60
   5  -4   2    1.40    1.80
   5  -4   2    1.50    1.70
  -6   4  -2    1.40    0.90
  -6   4  -2    1.20    1.10
   6  -4   2    3.20    2.10
   6  -4   2   -0.90    2.20
   6  -4   2    0.50    1.40
  -7   4  -2   50.69    6.10
  -7   4  -2   57.79    3.60
  -7   4  -2   59.39    4.40
   7  -4   2   60.89    4.60
   7  -4   2   52.79    4.60
   7  -4   2   60.99    4.60
  -8   4  -2    3.80    1.70
  -8   4  -2    0.60    1.20
   8  -4   2    2.30    1.80
   8  -4   2    2.20    2.90
  -9   4  -2    1.10    1.30
  -9   4  -2    3.50    1.90
   9  -4   2   -0.70    2.70
   9  -4   2    3.20    2.10
 -10   4  -2   24.60    3.00
  10  -4   2   33.60    4.30
  10  -4   2   36.80    4.70
   9   3  -2   29.30    4.60
   9   3  -2   22.50    6.50
  -9  -3   2   38.60    5.80
  -9  -3   2   32.70    3.80
  -9  -3   2   39.00    4.50
   8   3  -2   85.49    6.50
   8   3  -2   75.39    4.50
  -8  -3   2   80.39    6.00
  -8  -3   2   71.79    4.10
  -8  -3   2   87.29    7.20
  -8  -3   2   81.39    5.60
   7   3  -2  252.37   10.70
   7   3  -2  259.17   11.60
   7   3  -2  261.07   10.70
   7   3  -2  260.67   12.70
  -7  -3   2  285.07   12.30
  -7  -3   2  262.37   13.40
  -7  -3   2  239.48   10.70
  -7  -3   2  236.78   12.40
  -7  -3   2  251.77   11.80
   6   3  -2   12.30    2.40
   6   3  -2   11.00    1.50
   6   3  -2   10.70    2.70
   6   3  -2   10.20    1.40
  -6  -3   2   10.20    2.00
  -6  -3   2   10.90    2.40
  -6  -3   2   12.40    2.10
  -6  -3   2   13.50    2.90
   5   3  -2   13.50    1.40
   5   3  -2   17.10    2.80
   5   3  -2   15.90    2.80
   5   3  -2   16.70    1.50
  -5  -3   2   15.40    2.50
  -5  -3   2   16.70    2.00
  -5  -3   2   14.80    2.50
  -5  -3   2   17.30    2.10
   4   3  -2    3.60    3.30
   4   3  -2    1.80    0.80
   4   3  -2    2.70    1.90
   4   3  -2    1.80    0.80
   4   3  -2    2.70    2.30
  -4  -3   2    2.20    1.20
  -4  -3   2    0.80    1.20
  -4  -3   2    2.20    0.70
  -4  -3   2    0.90    1.10
  -4  -3   2    0.60    1.20
   3   3  -2  237.28    9.10
   3   3  -2  231.88   10.60
   3   3  -2  241.78    9.10
   3   3  -2  203.88   13.80
  -3  -3   2  228.78   10.30
  -3  -3   2  229.78    9.90
  -3  -3   2  222.58   10.10
  -3  -3   2  231.98    9.40
  -3  -3   2  241.68   10.20
  -3  -3   2  234.08   10.10
   2   3  -2    8.20    2.90
   2   3  -2    8.50    0.70
   2   3  -2    9.70    1.60
   2   3  -2    7.50    1.20
  -2  -3   2    7.00    1.40
  -2  -3   2    7.30    1.40
  -2  -3   2    6.80    1.40
  -2  -3   2    7.20    1.10
  -2  -3   2    8.40    1.30
   1   3  -2    0.80    0.50
   1   3  -2    1.50    1.60
   1   3  -2    0.50    0.30
   1   3  -2    0.90    0.80
   1   3  -2    1.60    0.80
  -1  -3   2    1.40    0.90
  -1  -3   2    1.60    0.90
  -1  -3   2    0.80    0.70
   0   3  -2 1220.28   49.99
   0   3  -2 1309.07   52.89
   0   3  -2 1345.37   50.69
   0   3  -2 1267.57   50.49
   0   3  -2 1254.27   49.99
   0  -3   2 1376.06   50.19
   0  -3   2 1423.46   49.99
   0  -3   2 1280.47   50.19
   0  -3   2 1340.27   50.49
   0  -3   2 1292.77   51.19
  -1   3  -2  675.53   27.10
  -1   3  -2  696.83   28.80
  -1   3  -2  682.33   26.70
  -1   3  -2  703.43   26.60
   1  -3   2  679.43   26.70
   1  -3   2  703.33   26.60
   1  -3   2  682.63   27.70
   1  -3   2  679.83   26.70
   1  -3   2  662.23   27.00
   1  -3   2  685.53   26.90
   1  -3   2  768.42   28.70
  -2   3  -2  352.56   14.10
  -2   3  -2  346.17   14.20
  -2   3  -2  350.56   14.50
  -2   3  -2  308.67   14.00
  -2   3  -2  383.06   15.90
   2  -3   2  377.96   14.10
   2  -3   2  362.96   14.30
   2  -3   2  359.66   15.30
   2  -3   2  372.96   14.30
   2  -3   2  335.17   14.40
   2  -3   2  408.56   15.50
  -3   3  -2  200.08    8.30
  -3   3  -2  194.88    8.00
  -3   3  -2  179.18    9.30
  -3   3  -2  182.68    9.60
  -3   3  -2  191.08    8.50
  -3   3  -2  209.58    9.50
   3  -3   2  200.98    8.40
   3  -3   2  204.68    9.30
   3  -3   2  203.58    8.40
   3  -3   2  193.38    8.50
   3  -3   2  213.38    8.00
  -4   3  -2    2.50    0.90
  -4   3  -2    1.90    1.30
  -4   3  -2    2.60    1.60
  -4   3  -2    2.30    1.30
  -4   3  -2    1.50    0.60
  -4   3  -2    3.40    1.00
   4  -3   2    2.00    1.60
   4  -3   2    2.30    0.80
   4  -3   2    2.10    1.10
   4  -3   2    1.20    1.50
   4  -3   2    2.40    1.30
  -5   3  -2   35.30    2.70
  -5   3  -2   29.60    3.40
  -5   3  -2   37.30    3.20
  -5   3  -2   34.40    2.30
  -5   3  -2   32.70    3.90
   5  -3   2   33.90    2.70
   5  -3   2   32.90    3.10
   5  -3   2   34.90    3.20
   5  -3   2   34.90    3.00
  -6   3  -2  105.59    7.80
  -6   3  -2  100.69    7.00
  -6   3  -2  110.19    5.40
  -6   3  -2  123.69    6.60
  -6   3  -2  112.09    5.90
   6  -3   2  109.69    6.00
   6  -3   2  112.09    6.00
   6  -3   2  119.79    6.20
   6  -3   2  103.99    5.90
  -7   3  -2   92.89    4.90
  -7   3  -2   94.19    5.40
  -7   3  -2   89.59    7.90
  -7   3  -2   84.49    6.70
   7  -3   2   95.59    5.70
   7  -3   2   94.29    5.60
   7  -3   2   87.49    5.50
   7  -3   2   95.99    5.80
  -8   3  -2    9.80    2.20
  -8   3  -2   11.00    2.90
  -8   3  -2    7.20    1.50
  -8   3  -2    9.00    4.30
   8  -3   2    6.80    2.40
   8  -3   2   13.30    3.00
   8  -3   2   10.90    2.40
  -9   3  -2  238.88   11.50
  -9   3  -2  212.58   14.70
  -9   3  -2  209.18   10.40
   9  -3   2  225.18   11.40
   9  -3   2  230.28   11.20
 -10   3  -2   11.20    2.10
  10  -3   2   12.60    3.60
  10  -3   2   12.40    3.10
  10   2  -2   -2.90    4.40
  10   2  -2    3.50    3.30
 -10  -2   2    7.50    2.10
   9   2  -2   -0.40    2.60
   9   2  -2    1.50    2.10
  -9  -2   2    3.20    2.90
  -9  -2   2   -0.40    1.40
   8   2  -2   55.79    3.90
   8   2  -2   53.49    3.90
   8   2  -2   49.80    5.20
  -8  -2   2   53.69    5.60
  -8  -2   2   50.49    3.00
  -8  -2   2   54.39    4.20
  -8  -2   2   53.39    4.80
   7   2  -2    1.10    1.20
   7   2  -2    0.30    2.00
   7   2  -2    1.40    1.50
   7   2  -2    0.70    1.40
  -7  -2   2    0.30    0.80
  -7  -2   2    2.40    1.30
  -7  -2   2    1.40    1.90
  -7  -2   2    1.30    1.50
  -7  -2   2   -0.40    1.10
   6   2  -2  269.07   11.10
   6   2  -2  273.67   12.60
   6   2  -2  267.57   12.00
   6   2  -2  274.57   11.60
   6   2  -2  273.47   11.10
  -6  -2   2  269.57   11.90
  -6  -2   2  278.07   13.20
  -6  -2   2  258.87   11.00
  -6  -2   2  256.37   12.40
  -6  -2   2  284.67   12.20
  -6  -2   2  260.47   11.00
   5   2  -2  112.29    5.00
   5   2  -2  105.49    6.20
   5   2  -2  114.09    5.00
   5   2  -2  107.79    4.90
   5   2  -2  104.29    5.60
   5   2  -2  113.39    5.70
  -5  -2   2  103.39    5.50
  -5  -2   2  107.89    4.80
  -5  -2   2  105.49    6.20
  -5  -2   2  105.79    5.90
  -5  -2   2  112.49    5.60
   4   2  -2   71.09    4.00
   4   2  -2   73.59    3.40
   4   2  -2   77.39    4.60
   4   2  -2   75.39    3.40
   4   2  -2   75.69    3.60
   4   2  -2   66.59    8.00
   4   2  -2   76.69    4.50
  -4  -2   2   71.99    3.30
  -4  -2   2   69.89    4.00
  -4  -2   2   66.59    4.10
  -4  -2   2   73.39    3.90
  -4  -2   2   73.79    4.40
   3   2  -2  842.92   31.20
   3   2  -2  818.12   32.20
   3   2  -2  850.71   31.20
   3   2  -2  737.13   35.10
   3   2  -2  783.92   32.10
  -3  -2   2  786.72   31.90
  -3  -2   2  843.22   32.20
  -3  -2   2  843.62   31.40
  -3  -2   2  783.92   32.10
  -3  -2   2  814.82   31.70
  -3  -2   2  852.91   31.70
   2   2  -2  697.63   26.50
   2   2  -2  579.84   28.70
   2   2  -2  666.63   25.70
   2   2  -2  691.13   26.40
  -2  -2   2  708.53   26.00
  -2  -2   2  674.13   26.30
  -2  -2   2  680.43   26.00
  -2  -2   2  686.93   26.40
  -2  -2   2  670.83   26.40
  -2  -2   2  657.43   26.10
   1   2  -2  964.30   36.20
   1   2  -2  994.90   36.10
   1   2  -2  956.40   35.70
   1   2  -2  901.21   38.20
   1   2  -2  881.71   36.10
   1   2  -2  934.41   36.40
  -1  -2   2  950.90   36.20
  -1  -2   2 1028.30   39.20
  -1  -2   2  839.82   36.10
  -1  -2   2  947.91   35.90
  -1  -2   2  882.61   36.00
   0   2  -2 1689.83   66.69
   0   2  -2 1861.31   68.29
   0   2  -2 1696.73   66.89
   0   2  -2 1694.53   67.29
   0   2  -2 1574.44   67.19
   0   2  -2 1861.61   74.49
   0  -2   2 1774.12   67.09
   0  -2   2 1714.93   67.29
   0  -2   2 1613.94   67.59
   0  -2   2 1951.80   72.19
   0  -2   2 1737.93   68.59
   0  -2   2 1791.82   66.79
  -1   2  -2  404.66   16.40
  -1   2  -2  453.65   16.50
  -1   2  -2  412.16   16.60
  -1   2  -2  379.16   17.00
  -1   2  -2  413.16   16.40
  -1   2  -2  432.66   16.60
  -1   2  -2  435.46   17.80
  -1   2  -2  412.56   16.20
   1  -2   2  438.16   16.20
   1  -2   2  466.35   17.70
   1  -2   2  414.66   16.40
   1  -2   2  433.16   16.60
   1  -2   2  418.16   16.40
   1  -2   2  414.96   17.10
   1  -2   2  422.16   17.00
   1  -2   2  405.46   16.40
   1  -2   2  392.36   16.50
  -2   2  -2 2916.81  117.79
  -2   2  -2 2949.90  115.99
  -2   2  -2 2999.60  115.39
  -2   2  -2 2871.11  117.59
  -2   2  -2 3308.57  120.99
  -2   2  -2 3062.99  115.39
  -2   2  -2 2549.34  116.09
   2  -2   2 3232.58  116.49
   2  -2   2 2998.20  117.19
   2  -2   2 3025.90  114.09
   2  -2   2 2954.50  114.09
   2  -2   2 3143.09  117.59
  -3   2  -2  862.01   33.60
  -3   2  -2  810.62   34.40
  -3   2  -2  828.92   33.30
  -3   2  -2  830.62   34.70
  -3   2  -2  941.31   34.60
  -3   2  -2  864.71   33.20
   3  -2   2  867.51   33.60
   3  -2   2  901.81   34.30
   3  -2   2  876.91   33.50
   3  -2   2  847.92   33.40
   3  -2   2  863.21   33.60
   3  -2   2  871.61   32.90
  -4   2  -2    3.80    1.60
  -4   2  -2    2.80    1.10
  -4   2  -2    2.80    1.30
  -4   2  -2    2.70    0.80
   4  -2   2    1.80    1.40
   4  -2   2    3.00    1.20
   4  -2   2    2.60    1.20
   4  -2   2    2.70    1.50
   4  -2   2    3.60    0.40
   4  -2   2    3.60    1.10
  -5   2  -2  691.43   28.00
  -5   2  -2  680.13   29.30
  -5   2  -2  680.03   29.90
   5  -2   2  699.03   28.20
   5  -2   2  739.03   27.90
   5  -2   2  659.73   28.50
   5  -2   2  752.72   28.00
   5  -2   2  757.72   27.10
  -6   2  -2    5.10    2.40
  -6   2  -2    6.10    1.40
  -6   2  -2    4.00    1.80
   6  -2   2    3.90    2.00
   6  -2   2    4.00    1.90
   6  -2   2    2.30    1.90
   6  -2   2    4.70    1.70
  -7   2  -2    6.10    1.50
  -7   2  -2    7.80    2.50
  -7   2  -2    6.20    3.00
   7  -2   2    5.30    2.20
   7  -2   2    3.60    1.70
   7  -2   2    4.10    2.10
   7  -2   2    6.70    2.30
  -8   2  -2    1.60    1.40
  -8   2  -2    4.70    3.50
  -8   2  -2    5.20    2.40
   8  -2   2    5.50    2.40
   8  -2   2    5.30    2.10
   8  -2   2    9.00    2.80
   8  -2   2    5.30    2.40
  -9   2  -2    0.20    1.50
  -9   2  -2    2.20    1.20
  -9   2  -2    3.10    3.70
   9  -2   2    0.50    2.00
   9  -2   2    0.20    2.50
 -10   2  -2    1.60    1.40
 -10   2  -2    7.20    1.90
 -10   2  -2    5.20    3.90
  10  -2   2    2.30    2.70
  10  -2   2    0.70    2.10
  10   1  -2   -1.50    2.30
  10   1  -2   -5.90    4.00
  10   1  -2   -2.80    2.40
 -10  -1   2    2.20    1.60
 -10  -1   2    9.20    3.90
   9   1  -2   72.09    5.00
   9   1  -2   73.89    5.20
   9   1  -2   80.09    6.80
  -9  -1   2   78.19    7.70
  -9  -1   2   69.39    5.10
   8   1  -2   64.19    4.30
   8   1  -2   63.59    4.30
   8   1  -2   56.89    5.30
  -8  -1   2   59.49    3.30
  -8  -1   2   66.29    4.60
  -8  -1   2   72.09    5.00
  -8  -1   2   64.59    6.30
   7   1  -2  204.38   10.30
   7   1  -2  195.78    8.80
   7   1  -2  202.38    8.80
  -7  -1   2  202.88    8.30
  -7  -1   2  182.48    9.20
  -7  -1   2  204.18    9.90
  -7  -1   2  196.78   11.20
   6   1  -2  160.88    7.10
   6   1  -2  158.68    8.30
   6   1  -2  166.88    6.90
   6   1  -2  161.98    7.20
   6   1  -2  161.78    7.70
  -6  -1   2  168.38    8.00
  -6  -1   2  150.58    8.80
  -6  -1   2  165.98    6.80
  -6  -1   2  152.78    7.50
  -6  -1   2  154.88    8.10
   5   1  -2   16.50    2.40
   5   1  -2   16.70    1.70
   5   1  -2   15.70    1.80
   5   1  -2   21.00    1.90
   5   1  -2   20.50    2.00
  -5  -1   2   17.10    2.10
  -5  -1   2   19.60    1.90
  -5  -1   2   19.20    1.70
  -5  -1   2   17.50    2.40
  -5  -1   2   18.50    1.80
  -5  -1   2   18.60    1.40
   4   1  -2    0.90    2.10
   4   1  -2    0.50    0.80
   4   1  -2    0.30    1.10
   4   1  -2    0.30    0.90
   4   1  -2    0.30    0.80
   4   1  -2    1.70    1.40
   4   1  -2   -0.20    0.90
  -4  -1   2    1.70    0.60
  -4  -1   2    0.00    0.80
  -4  -1   2    0.20    0.60
  -4  -1   2    0.50    0.70
  -4  -1   2    1.30    0.70
   3   1  -2 2321.17   89.09
   3   1  -2 2266.57   87.89
   3   1  -2 2520.65   89.19
   3   1  -2 2235.68   87.49
   3   1  -2 2264.67   87.79
   3   1  -2 2319.97   87.59
   3   1  -2 1985.30   89.89
  -3  -1   2 2256.97   89.99
  -3  -1   2 2268.47   88.79
  -3  -1   2 2363.66   89.19
  -3  -1   2 2337.67   87.89
  -3  -1   2 2359.76   89.39
  -3  -1   2 2292.67   90.49
   2   1  -2    0.40    1.30
   2   1  -2   -0.50    0.60
   2   1  -2    1.40    0.60
   2   1  -2   -0.20    0.50
   2   1  -2    0.10    0.60
   2   1  -2    1.00    0.80
  -2  -1   2   -0.10    0.60
  -2  -1   2   -0.50    0.70
  -2  -1   2    1.80    0.70
  -2  -1   2   -1.30    0.90
  -2  -1   2   -0.20    0.40
  -2  -1   2    0.30    0.80
   0   1  -2  610.94   23.80
   0   1  -2  594.04   24.30
   0   1  -2  617.04   24.10
   0   1  -2  596.94   23.80
   0   1  -2  632.24   23.70
   0   1  -2  633.74   24.80
   0  -1   2  585.64   24.00
   0  -1   2  590.34   24.20
   0  -1   2  632.14   23.80
   0  -1   2  616.24   23.70
   0  -1   2  692.33   24.90
   0  -1   2  614.84   23.80
   0  -1   2  607.04   24.20
  -1   1  -2  773.82   31.10
  -1   1  -2  793.22   31.50
  -1   1  -2  871.41   32.10
  -1   1  -2  829.52   31.70
  -1   1  -2  751.32   31.10
  -1   1  -2  818.82   31.90
  -1   1  -2  839.12   32.40
  -1   1  -2  807.42   32.30
   1  -1   2  842.72   31.20
   1  -1   2  843.72   32.20
   1  -1   2  838.72   31.90
   1  -1   2  803.42   31.10
   1  -1   2  808.32   32.00
   1  -1   2  745.43   31.30
   1  -1   2  823.12   31.40
  -2   1  -2 2888.91  114.49
  -2   1  -2 2884.21  115.39
  -2   1  -2 2947.61  112.79
  -2   1  -2 2723.63  112.29
  -2   1  -2 2724.33  111.39
   2  -1   2 3175.98  115.19
   2  -1   2 2884.61  112.99
   2  -1   2 2806.72  111.79
   2  -1   2 3053.59  113.69
   2  -1   2 2859.61  111.49
   2  -1   2 3077.29  111.99
   2  -1   2 2933.01  110.29
   2  -1   2 2783.62  114.09
  -3   1  -2 1180.78   46.60
  -3   1  -2 1192.08   45.40
  -3   1  -2 1218.18   45.60
  -3   1  -2 1130.19   45.50
  -3   1  -2 1182.08   46.30
   3  -1   2 1187.98   45.70
   3  -1   2 1255.07   45.50
   3  -1   2 1028.90   46.00
   3  -1   2 1287.37   46.20
   3  -1   2 1228.98   45.20
   3  -1   2 1148.59   45.40
   3  -1   2 1178.78   45.50
  -4   1  -2  113.59    5.10
  -4   1  -2  107.69    4.90
  -4   1  -2  112.69    5.90
  -4   1  -2  111.49    6.30
   4  -1   2  112.09    5.40
   4  -1   2  104.69    5.90
   4  -1   2  108.29    5.10
   4  -1   2  116.59    5.70
   4  -1   2  111.59    5.20
  -5   1  -2  267.27   13.10
  -5   1  -2  288.77   10.60
  -5   1  -2  262.67   11.20
  -5   1  -2  271.27   12.60
  -5   1  -2  265.67   11.50
   5  -1   2  240.18   12.50
   5  -1   2  285.77   11.90
   5  -1   2  287.77   11.50
   5  -1   2  296.47   11.50
  -6   1  -2  599.14   23.80
  -6   1  -2  576.14   25.90
  -6   1  -2  613.14   22.60
  -6   1  -2  591.24   25.20
   6  -1   2  574.64   24.10
   6  -1   2  614.74   23.60
   6  -1   2  619.94   23.70
   6  -1   2  531.05   25.00
  -7   1  -2    9.80    2.50
  -7   1  -2    6.20    1.50
  -7   1  -2    6.20    2.70
   7  -1   2    8.40    2.20
   7  -1   2    6.40    2.30
   7  -1   2    4.80    1.70
   7  -1   2    4.80    2.50
  -8   1  -2   70.09    5.90
  -8   1  -2   68.69    7.00
  -8   1  -2   64.39    4.50
   8  -1   2   56.99    6.00
   8  -1   2   66.19    5.00
   8  -1   2   62.19    4.90
   8  -1   2   71.79    4.90
  -9   1  -2    7.80    4.30
  -9   1  -2    5.90    2.00
   9  -1   2    5.30    2.40
   9  -1   2    7.30    2.40
   9  -1   2    8.20    3.40
   9  -1   2   11.80    2.90
 -10   1  -2    1.10    1.60
  10  -1   2    2.50    2.70
  10  -1   2    0.60    2.40
  10   0  -2   -3.50    4.00
  10   0  -2    3.00    2.70
  10   0  -2    5.30    3.10
 -10   0   2    4.70    1.60
 -10   0   2   16.10    4.20
 -10   0   2    4.60    1.70
   9   0  -2   23.10    3.20
   9   0  -2   20.90    3.80
   9   0  -2   22.20    2.90
  -9   0   2   24.50    3.00
  -9   0   2   28.60    5.90
   8   0  -2   28.50    2.80
   8   0  -2   25.50    3.60
   8   0  -2   28.60    3.00
  -8   0   2   28.40    3.30
  -8   0   2   28.00    3.00
  -8   0   2   29.10    4.60
  -8   0   2   29.10    2.00
   7   0  -2   12.10    2.00
   7   0  -2   13.60    2.20
   7   0  -2   12.40    2.50
  -7   0   2   10.80    1.80
  -7   0   2   14.90    2.70
  -7   0   2   19.80    3.90
   6   0  -2  438.56   18.80
   6   0  -2  437.66   17.80
   6   0  -2  459.65   17.80
   6   0  -2  447.26   18.40
  -6   0   2  447.66   17.40
  -6   0   2  421.56   19.90
  -6   0   2  439.46   18.20
  -6   0   2  447.26   18.90
   5   0  -2    6.80    1.60
   5   0  -2    6.30    1.80
   5   0  -2    7.20    1.30
   5   0  -2    5.20    1.50
  -5   0   2    5.70    0.90
  -5   0   2    5.80    1.40
  -5   0   2    6.60    1.20
  -5   0   2    6.30    1.20
  -5   0   2    9.00    2.10
   4   0  -2  310.27   12.60
   4   0  -2  305.77   13.20
   4   0  -2  326.47   12.20
   4   0  -2  303.77   12.60
   4   0  -2  321.87   12.90
  -4   0   2  314.47   12.90
  -4   0   2  321.37   12.40
  -4   0   2  309.17   13.20
  -4   0   2  325.97   12.60
  -4   0   2  320.27   14.00
   3   0  -2  636.84   25.50
   3   0  -2  680.53   25.70
   3   0  -2  561.04   27.20
   3   0  -2  631.74   25.50
   3   0  -2  678.83   25.30
   3   0  -2  635.44   26.00
   3   0  -2  720.53   26.10
  -3   0   2  652.83   25.80
  -3   0   2  638.94   25.50
  -3   0   2  665.23   25.70
  -3   0   2  751.32   27.50
  -3   0   2  675.93   26.50
  -3   0   2  656.23   25.40
   2   0  -2    3.00    0.50
   2   0  -2    2.50    0.70
   2   0  -2    2.20    0.80
   2   0  -2    2.80    0.60
   2   0  -2    3.00    0.70
   2   0  -2    2.90    1.00
   2   0  -2    1.80    0.40
   2   0  -2    2.00    0.80
   2   0  -2    3.20    1.00
   2   0  -2    2.30    0.80
  -2   0   2    2.60    0.80
  -2   0   2    2.40    0.50
  -2   0   2    2.80    0.80
  -2   0   2    1.90    0.60
  -2   0   2    2.80    0.80
  -2   0   2    2.00    0.50
  -2   0   2    2.30    0.80
  -2   0   2    2.60    0.40
   1   0  -2  373.96   14.60
   1   0  -2  368.46   14.70
   1   0  -2  390.66   14.70
   1   0  -2  383.36   14.80
   1   0  -2  346.87   14.50
   1   0  -2  361.86   14.60
   1   0  -2  383.36   14.50
   1   0  -2  372.86   14.50
   1   0  -2  373.26   14.70
   1   0  -2  392.66   15.40
  -1   0   2  368.76   14.50
  -1   0   2  364.76   14.50
  -1   0   2  414.66   15.40
  -1   0   2  364.96   14.50
  -1   0   2  378.26   14.50
  -1   0   2  360.76   14.70
  -1   0   2  392.96   14.60
   0   0  -2    2.30    0.90
   0   0  -2    2.50    1.00
   0   0  -2    2.60    0.40
   0   0  -2    2.80    0.70
   0   0  -2    4.70    0.90
   0   0  -2    1.50    0.60
   0   0  -2    2.30    0.50
   0   0  -2    2.60    0.40
   0   0  -2    2.20    0.50
   0   0  -2    2.40    0.80
   0   0   2    2.80    0.50
   0   0   2    2.80    0.80
   0   0   2    2.10    0.60
   0   0   2    2.30    0.40
   0   0   2    3.20    0.90
   0   0   2    2.50    0.70
   0   0   2    2.10    0.40
  -1   0  -2  974.10   36.90
  -1   0  -2  933.81   38.10
  -1   0  -2  955.30   37.30
  -1   0  -2  900.91   37.00
  -1   0  -2  952.80   36.80
  -1   0  -2  923.41   37.60
  -1   0  -2  947.01   36.90
  -1   0  -2  954.90   37.50
  -1   0  -2  906.11   37.20
   1   0   2  938.51   37.60
   1   0   2 1000.70   39.10
   1   0   2  979.30   36.70
   1   0   2 1030.60   38.70
   1   0   2  931.71   36.90
   1   0   2 1017.90   37.20
   1   0   2  994.70   37.50
   1   0   2  981.10   36.90
   1   0   2  979.70   38.80
  -2   0  -2 1475.55   56.39
  -2   0  -2 1470.05   57.39
  -2   0  -2 1445.46   57.09
  -2   0  -2 1440.36   56.39
  -2   0  -2 1489.35   58.09
  -2   0  -2 1588.04   57.79
  -2   0  -2 1432.96   57.99
  -2   0  -2 1492.65   56.69
   2   0   2 1477.75   56.79
   2   0   2 1563.74   57.89
   2   0   2 1539.05   58.59
   2   0   2 1516.55   56.99
   2   0   2 1452.75   57.09
   2   0   2 1293.07   58.29
   2   0   2 1539.15   57.79
  -3   0  -2    5.30    0.30
  -3   0  -2    6.40    0.90
  -3   0  -2    4.80    1.10
  -3   0  -2    4.70    0.70
  -3   0  -2    3.20    0.80
  -3   0  -2    6.00    1.40
   3   0   2    8.40    0.90
   3   0   2    2.10    1.30
   3   0   2    4.20    1.00
   3   0   2    6.10    1.00
   3   0   2    5.40    1.20
   3   0   2    5.00    1.00
  -4   0  -2  854.71   33.50
  -4   0  -2  846.52   33.90
  -4   0  -2  845.62   32.00
  -4   0  -2  814.82   32.30
  -4   0  -2  801.02   32.60
  -4   0  -2  863.51   32.80
   4   0   2  728.73   33.70
   4   0   2  910.11   33.40
   4   0   2  880.21   33.00
   4   0   2  833.72   32.50
   4   0   2  853.41   32.50
  -5   0  -2  157.48    7.90
  -5   0  -2  152.78    6.60
  -5   0  -2  149.09    8.30
  -5   0  -2  154.58    6.90
  -5   0  -2  154.98    6.00
  -5   0  -2  155.98    7.10
   5   0   2  162.48    7.00
   5   0   2  155.48    7.30
   5   0   2  134.59    8.40
   5   0   2  151.38    6.90
  -6   0  -2  181.58    7.10
  -6   0  -2  191.08    9.50
  -6   0  -2  182.38    8.30
  -6   0  -2  179.28   10.10
   6   0   2  173.38    8.00
   6   0   2  184.78    8.70
   6   0   2  168.08   10.00
   6   0   2  185.78    8.10
  -7   0  -2   58.59    3.90
  -7   0  -2   62.39    5.80
  -7   0  -2   63.09    5.10
   7   0   2   53.59    5.60
   7   0   2   64.59    4.20
   7   0   2   60.89    4.50
   7   0   2   66.29    4.20
  -8   0  -2   97.99    6.90
  -8   0  -2   88.99    7.60
  -8   0  -2   85.89    5.30
   8   0   2   85.49    5.40
   8   0   2   86.69    7.60
   8   0   2   92.79    6.20
   8   0   2   90.49    5.30
  -9   0  -2   51.39    7.10
  -9   0  -2   59.19    4.70
   9   0   2   56.69    5.10
   9   0   2   50.19    6.60
   9   0   2   58.09    4.80
   9   0   2   55.69    4.60
 -10   0  -2   -0.80    1.40
 -10   0  -2    4.80    3.40
  10   0   2   -0.30    2.40
  10   0   2   -2.30    1.90
  10   0   2   -1.40    3.00
  10  -1  -2   -3.60    2.30
  10  -1  -2    4.20    2.90
 -10   1   2    4.10    2.90
 -10   1   2    1.30    1.40
   9  -1  -2    4.20    2.70
   9  -1  -2   -0.90    3.50
   9  -1  -2    6.30    2.90
   9  -1  -2    5.10    2.90
  -9   1   2    4.60    1.80
  -9   1   2    5.30    1.50
  -9   1   2    8.60    4.10
   8  -1  -2    3.50    1.90
   8  -1  -2   -0.40    1.90
   8  -1  -2    1.20    2.00
  -8   1   2    0.40    1.00
  -8   1   2    1.80    2.50
  -8   1   2    2.00    0.80
  -8   1   2    1.90    1.60
  -8   1   2    0.70    1.20
   7  -1  -2   63.19    4.10
   7  -1  -2   61.99    4.10
   7  -1  -2   65.89    4.80
  -7   1   2   66.99    3.20
  -7   1   2   60.59    5.80
  -7   1   2   67.49    4.00
  -7   1   2   56.29    4.70
   6  -1  -2  195.48    8.80
   6  -1  -2  211.28    9.30
   6  -1  -2  205.18    8.80
   6  -1  -2  199.08    9.50
  -6   1   2  191.08   10.80
  -6   1   2  188.18    9.70
  -6   1   2  205.88    8.90
  -6   1   2  198.68    8.20
   5  -1  -2  117.59    5.50
   5  -1  -2  122.69    5.80
   5  -1  -2  116.49    5.60
   5  -1  -2  111.79    6.00
  -5   1   2  111.39    6.20
  -5   1   2  128.79    6.80
  -5   1   2  114.09    7.00
  -5   1   2  119.69    5.60
  -5   1   2  117.59    5.00
   4  -1  -2   87.09    4.20
   4  -1  -2   91.49    4.50
   4  -1  -2   90.39    4.60
   4  -1  -2   85.79    4.30
  -4   1   2   88.19    4.10
  -4   1   2   87.49    4.20
  -4   1   2   85.69    4.10
  -4   1   2   87.19    3.80
  -4   1   2   85.49    4.70
  -4   1   2  103.39    5.10
  -4   1   2   79.79    5.20
   3  -1  -2  389.66   15.80
   3  -1  -2  411.86   15.60
   3  -1  -2  349.47   16.30
   3  -1  -2  393.26   15.50
   3  -1  -2  390.76   15.50
   3  -1  -2  385.16   15.90
  -3   1   2  382.46   16.70
  -3   1   2  380.56   15.30
  -3   1   2  407.96   15.50
  -3   1   2  388.66   15.60
  -3   1   2  396.16   15.50
  -3   1   2  451.45   16.10
   2  -1  -2  714.43   27.80
   2  -1  -2  683.63   27.70
   2  -1  -2  698.13   28.50
   2  -1  -2  743.03   27.70
   2  -1  -2  673.03   28.00
   2  -1  -2  720.43   27.60
   2  -1  -2  679.73   27.70
   2  -1  -2  766.22   29.00
  -2   1   2  729.63   28.20
  -2   1   2  694.83   27.60
  -2   1   2  712.43   27.90
  -2   1   2  827.92   28.10
  -2   1   2  719.73   27.70
  -2   1   2  704.23   27.70
  -2   1   2  724.83   28.00
   1  -1  -2   15.50    1.00
   1  -1  -2   14.60    1.50
   1  -1  -2   14.80    1.20
   1  -1  -2   15.20    0.90
   1  -1  -2   13.70    1.30
   1  -1  -2   11.40    1.10
   1  -1  -2   15.30    0.80
   1  -1  -2   15.80    1.30
   1  -1  -2   14.30    1.30
   1  -1  -2   14.40    0.90
   1  -1  -2   15.00    1.10
  -1   1   2   15.80    1.00
  -1   1   2   13.20    1.20
  -1   1   2   15.30    1.00
  -1   1   2   14.30    0.90
  -1   1   2   12.90    1.10
  -1   1   2   13.90    1.30
  -1   1   2   17.00    1.60
   0  -1  -2 2558.84   95.09
   0  -1  -2 2551.44   94.39
   0  -1  -2 2382.26   93.99
   0  -1  -2 2478.25   96.29
   0  -1  -2 2486.85   94.49
   0  -1  -2 2470.65   93.69
   0  -1  -2 2487.75   95.09
   0   1   2 2495.35   95.79
   0   1   2 2345.47   93.39
   0   1   2 2426.16   93.89
   0   1   2 2314.67   95.39
   0   1   2 2351.76   94.19
   0   1   2 2405.76   96.49
   0   1   2 2457.35   95.19
  -1  -1  -2 1749.62   64.39
  -1  -1  -2 1707.23   64.19
  -1  -1  -2 1452.25   64.59
  -1  -1  -2 1559.84   64.19
  -1  -1  -2 1628.24   66.19
  -1  -1  -2 1604.54   64.09
  -1  -1  -2 1631.94   63.19
  -1  -1  -2 1837.52   63.69
  -1  -1  -2 1674.13   64.89
  -1  -1  -2 1683.63   63.39
   1   1   2 1699.43   64.29
   1   1   2 1523.05   65.79
   1   1   2 1683.13   65.59
   1   1   2 1713.83   63.99
   1   1   2 1688.13   64.29
   1   1   2 1584.54   65.59
   1   1   2 1729.13   64.39
  -2  -1  -2 1041.90   40.50
  -2  -1  -2 1023.70   40.60
  -2  -1  -2 1016.40   39.50
  -2  -1  -2 1013.50   40.30
  -2  -1  -2 1003.90   39.50
  -2  -1  -2 1059.49   40.60
  -2  -1  -2 1055.29   39.90
   2   1   2 1077.99   40.40
   2   1   2  988.80   40.00
   2   1   2 1042.90   39.80
   2   1   2 1179.88   39.90
   2   1   2 1088.19   40.60
   2   1   2 1033.30   40.10
   2   1   2 1030.60   39.50
   2   1   2  892.41   40.60
  -3  -1  -2  854.51   33.00
  -3  -1  -2  854.41   33.60
  -3  -1  -2  869.21   33.50
  -3  -1  -2  846.72   33.90
  -3  -1  -2  838.72   33.00
  -3  -1  -2  851.01   33.30
  -3  -1  -2  814.42   34.20
   3   1   2  880.81   33.10
   3   1   2  906.21   34.00
   3   1   2  857.41   33.60
   3   1   2  870.51   33.50
   3   1   2  855.21   33.00
   3   1   2  901.81   33.10
  -4  -1  -2  625.34   25.70
  -4  -1  -2  618.74   26.10
  -4  -1  -2  634.34   24.50
  -4  -1  -2  633.94   25.00
  -4  -1  -2  626.84   25.20
   4   1   2  642.34   24.60
   4   1   2  555.54   26.40
   4   1   2  653.93   25.20
   4   1   2  670.83   25.30
   4   1   2  650.73   24.60
   4   1   2  665.73   25.80
  -5  -1  -2    0.00    0.60
  -5  -1  -2   -0.10    1.20
  -5  -1  -2    0.40    1.10
  -5  -1  -2    0.80    0.90
  -5  -1  -2    0.00    0.90
  -5  -1  -2    0.90    0.40
   5   1   2    0.30    1.20
   5   1   2    0.70    1.20
   5   1   2    1.70    2.10
   5   1   2    0.20    1.20
   5   1   2   -0.10    1.40
  -6  -1  -2    4.50    1.70
  -6  -1  -2    4.50    0.60
  -6  -1  -2    2.80    1.10
  -6  -1  -2    2.00    1.00
  -6  -1  -2    4.90    1.40
  -6  -1  -2    4.70    2.10
   6   1   2    3.80    2.50
   6   1   2    5.00    1.70
   6   1   2    3.00    1.40
   6   1   2    1.60    1.50
   6   1   2    4.10    1.50
  -7  -1  -2    1.60    1.10
  -7  -1  -2    3.40    2.40
  -7  -1  -2    1.70    1.30
  -7  -1  -2    2.70    1.70
   7   1   2    2.40    2.70
   7   1   2    2.90    1.60
   7   1   2    0.70    1.80
   7   1   2    1.30    1.70
  -8  -1  -2    4.60    1.50
  -8  -1  -2    8.80    3.20
   8   1   2    7.40    2.00
   8   1   2    6.80    2.50
   8   1   2    8.60    3.60
   8   1   2    4.40    2.00
  -9  -1  -2    2.30    1.60
  -9  -1  -2   10.30    4.00
   9   1   2    0.30    2.30
   9   1   2   -0.90    2.60
   9   1   2    1.10    2.10
   9   1   2    1.90    3.60
 -10  -1  -2    7.10    4.00
 -10  -1  -2    0.90    1.60
  10   1   2    1.20    2.20
  10   1   2    0.90    3.70
  10  -2  -2   41.60    4.50
  10  -2  -2   33.10    4.60
 -10   2   2   39.50    3.80
   9  -2  -2    1.70    2.40
   9  -2  -2    0.20    2.70
  -9   2   2   -0.30    1.20
  -9   2   2   -2.70    2.70
  -9   2   2    0.40    1.20
   8  -2  -2    2.20    2.30
   8  -2  -2    0.80    1.80
   8  -2  -2    4.10    2.10
  -8   2   2   -0.50    2.50
  -8   2   2    1.40    1.10
  -8   2   2    0.50    0.70
  -8   2   2    1.80    1.10
   7  -2  -2   81.99    5.00
   7  -2  -2   85.99    5.60
   7  -2  -2   96.39    5.10
  -7   2   2   84.19    4.80
  -7   2   2   85.59    4.10
  -7   2   2   84.89    7.10
  -7   2   2   87.69    4.90
   6  -2  -2  295.27   13.40
   6  -2  -2  308.97   12.90
   6  -2  -2  312.07   12.90
  -6   2   2  312.97   13.00
  -6   2   2  310.87   12.30
  -6   2   2  290.37   15.20
  -6   2   2  312.57   13.00
   5  -2  -2    3.10    1.40
   5  -2  -2    5.50    1.30
   5  -2  -2    5.90    1.70
   5  -2  -2    3.20    1.50
  -5   2   2    5.70    0.90
  -5   2   2    5.80    2.20
  -5   2   2    3.80    0.90
  -5   2   2    3.40    1.00
   4  -2  -2    0.30    1.10
   4  -2  -2    1.30    1.30
   4  -2  -2    1.10    0.80
   4  -2  -2    1.60    1.20
  -4   2   2    0.80    0.70
  -4   2   2    0.90    0.60
  -4   2   2    0.80    1.00
  -4   2   2    0.90    0.50
   3  -2  -2  152.48    6.70
   3  -2  -2  152.18    6.50
   3  -2  -2  145.39    7.10
   3  -2  -2  146.99    6.50
   3  -2  -2  167.48    6.50
  -3   2   2  149.19    6.20
  -3   2   2  159.98    6.60
  -3   2   2  151.98    6.30
  -3   2   2  146.19    7.30
  -3   2   2  161.78    6.50
  -3   2   2  153.48    6.40
   2  -2  -2  610.54   23.90
   2  -2  -2  683.63   24.30
   2  -2  -2  665.63   24.10
   2  -2  -2  609.44   24.00
   2  -2  -2  621.14   24.00
   2  -2  -2  616.14   24.10
   2  -2  -2  603.04   24.20
  -2   2   2  605.54   24.10
  -2   2   2  644.04   24.00
  -2   2   2  585.94   23.90
  -2   2   2  604.74   24.80
  -2   2   2  615.44   24.00
  -2   2   2  601.54   24.10
   1  -2  -2 2098.89   84.59
   1  -2  -2 2134.59   84.59
   1  -2  -2 2240.88   84.49
   1  -2  -2 2306.27   86.39
   1  -2  -2 2132.09   85.19
   1  -2  -2 2320.27   84.79
   1  -2  -2 2119.79   84.29
  -1   2   2 2144.99   84.59
  -1   2   2 2189.18   85.59
  -1   2   2 2115.49   85.89
  -1   2   2 2255.07   84.39
  -1   2   2 2231.08   84.39
  -1   2   2 2133.59   84.59
  -1   2   2 2301.97   86.79
   0  -2  -2 1880.41   70.69
   0  -2  -2 1836.12   70.59
   0  -2  -2 1634.74   72.09
   0  -2  -2 2003.20   71.69
   0  -2  -2 1845.42   70.79
   0  -2  -2 1822.52   70.79
   0  -2  -2 1944.41   71.09
   0   2   2 1809.12   70.69
   0   2   2 1912.61   70.39
   0   2   2 1817.12   72.79
   0   2   2 1773.72   70.49
   0   2   2 1775.92   70.59
   0   2   2 1850.71   71.19
  -1  -2  -2 1733.03   69.59
  -1  -2  -2 1865.51   68.59
  -1  -2  -2 1658.53   69.69
  -1  -2  -2 1748.23   67.09
  -1  -2  -2 1822.82   67.69
  -1  -2  -2 1837.32   68.39
  -1  -2  -2 1831.52   68.69
   1   2   2 1583.04   70.39
   1   2   2 1740.33   67.49
   1   2   2 1714.73   67.69
   1   2   2 1676.83   68.79
   1   2   2 1875.21   68.19
  -2  -2  -2   68.39    3.00
  -2  -2  -2   64.19    3.30
  -2  -2  -2   64.49    2.70
  -2  -2  -2   65.79    3.30
  -2  -2  -2   65.69    3.10
  -2  -2  -2   64.79    3.90
  -2  -2  -2   64.69    3.70
  -2  -2  -2   63.19    2.70
   2   2   2   63.79    3.30
   2   2   2   66.79    3.20
   2   2   2   60.59    3.70
   2   2   2   61.19    4.20
  -3  -2  -2   90.69    5.20
  -3  -2  -2   95.59    4.70
  -3  -2  -2   90.39    3.80
  -3  -2  -2   97.39    4.30
  -3  -2  -2   85.69    4.90
  -3  -2  -2   94.39    4.60
  -3  -2  -2   90.39    3.80
   3   2   2   95.89    4.60
   3   2   2   88.99    4.60
   3   2   2   77.49    5.60
   3   2   2   96.69    5.10
   3   2   2   92.49    5.00
  -4  -2  -2   80.09    4.80
  -4  -2  -2   80.39    4.40
  -4  -2  -2   79.39    5.20
  -4  -2  -2   77.19    4.10
  -4  -2  -2   81.69    3.60
   4   2   2   88.49    5.10
   4   2   2   88.49    4.90
   4   2   2   72.79    5.80
   4   2   2   80.09    3.70
   4   2   2   89.59    4.60
  -5  -2  -2   -0.40    1.20
  -5  -2  -2    0.40    1.10
  -5  -2  -2   -0.20    1.30
  -5  -2  -2    0.80    0.80
  -5  -2  -2   -0.20    0.80
   5   2   2   -0.90    1.40
   5   2   2    1.50    1.40
   5   2   2   -0.60    1.00
   5   2   2   -0.30    2.20
   5   2   2   -0.60    1.00
  -6  -2  -2   17.50    2.50
  -6  -2  -2   15.30    3.30
  -6  -2  -2   11.70    1.40
  -6  -2  -2   12.20    1.80
  -6  -2  -2   14.60    2.20
   6   2   2   14.50    1.70
   6   2   2   10.20    3.40
   6   2   2   15.60    2.40
   6   2   2   15.40    2.50
   6   2   2   13.60    1.60
  -7  -2  -2    1.20    1.40
  -7  -2  -2   -0.80    1.00
  -7  -2  -2    1.10    1.30
  -7  -2  -2    0.50    1.70
   7   2   2    0.40    1.50
   7   2   2    0.90    1.70
   7   2   2    1.80    1.30
   7   2   2    0.10    1.30
   7   2   2   -0.80    2.80
  -8  -2  -2    3.90    1.80
  -8  -2  -2    4.00    1.60
  -8  -2  -2    7.70    3.40
   8   2   2   -1.70    1.80
   8   2   2    1.50    1.70
   8   2   2    2.00    3.60
  -9  -2  -2   37.60    6.80
  -9  -2  -2   28.50    3.50
   9   2   2   22.90    5.60
   9   2   2   22.40    3.90
  10   2   2    6.60    4.20
  10  -3  -2   16.20    3.50
  10  -3  -2   22.40    4.00
 -10   3   2   14.80    2.60
   9  -3  -2  118.19    7.50
   9  -3  -2  122.99    7.60
  -9   3   2  120.49    7.00
  -9   3   2  130.39    7.10
   8  -3  -2    0.20    1.80
   8  -3  -2   -1.70    2.40
   8  -3  -2   -1.10    2.10
  -8   3   2    1.40    1.10
  -8   3   2    1.90    1.20
  -8   3   2    0.30    0.80
   7  -3  -2   11.20    2.20
   7  -3  -2   15.10    2.60
   7  -3  -2   16.20    2.50
  -7   3   2   14.80    1.90
  -7   3   2   13.40    1.40
  -7   3   2   15.10    2.00
   6  -3  -2  870.31   35.00
   6  -3  -2  893.31   35.00
   6  -3  -2  855.11   35.40
  -6   3   2  907.81   34.50
  -6   3   2  874.91   36.60
  -6   3   2  935.81   35.30
  -6   3   2  895.11   35.20
   5  -3  -2   32.00    2.80
   5  -3  -2   28.60    2.60
   5  -3  -2   25.30    2.50
  -5   3   2   28.30    2.30
  -5   3   2   31.90    1.90
  -5   3   2   26.10    3.30
  -5   3   2   30.00    2.20
   4  -3  -2   76.89    4.70
   4  -3  -2   73.69    4.10
   4  -3  -2   81.49    4.20
   4  -3  -2   80.09    4.10
  -4   3   2   76.59    4.00
  -4   3   2   83.79    5.40
  -4   3   2   74.99    3.50
  -4   3   2   80.69    3.70
  -4   3   2   83.19    4.00
   3  -3  -2 1068.29   44.00
   3  -3  -2 1204.08   42.90
   3  -3  -2 1238.38   42.90
   3  -3  -2 1100.79   42.80
   3  -3  -2 1036.60   42.90
   3  -3  -2 1112.19   42.80
  -3   3   2 1135.39   42.90
  -3   3   2 1075.89   42.70
  -3   3   2 1121.49   42.90
  -3   3   2 1118.79   44.10
  -3   3   2 1067.29   42.90
  -3   3   2 1069.79   43.00
   2  -3  -2  832.02   32.30
   2  -3  -2  901.11   32.30
   2  -3  -2  753.72   33.00
   2  -3  -2  823.82   32.30
   2  -3  -2  807.22   32.30
   2  -3  -2  906.31   32.60
  -2   3   2  833.92   32.20
  -2   3   2  821.22   33.40
  -2   3   2  836.92   32.30
  -2   3   2  876.81   32.40
  -2   3   2  837.72   32.80
  -2   3   2  823.52   32.50
   1  -3  -2  540.15   19.70
   1  -3  -2  511.65   19.60
   1  -3  -2  513.95   19.60
   1  -3  -2  449.16   20.10
   1  -3  -2  463.35   21.50
   1  -3  -2  520.65   19.60
  -1   3   2  498.25   20.30
  -1   3   2  498.55   19.80
  -1   3   2  534.75   20.00
  -1   3   2  515.15   20.70
  -1   3   2  520.55   19.60
   0  -3  -2  133.59    5.40
   0  -3  -2  136.29    5.70
   0  -3  -2  133.29    5.40
   0  -3  -2  130.09    6.00
   0  -3  -2  141.19    5.70
   0  -3  -2  139.29    5.60
   0   3   2  133.39    5.80
   0   3   2  134.99    5.60
   0   3   2  137.39    6.80
   0   3   2  129.99    6.50
   0   3   2  137.19    5.50
   0   3   2  132.19    6.30
  -1  -3  -2   35.60    2.10
  -1  -3  -2   32.10    2.30
  -1  -3  -2   34.40    2.10
  -1  -3  -2   34.40    2.10
  -1  -3  -2   34.50    1.60
  -1  -3  -2   38.90    2.10
  -1  -3  -2   33.50    1.60
   1   3   2   34.40    3.10
   1   3   2   32.80    2.80
   1   3   2   36.10    2.10
   1   3   2   35.10    2.00
  -2  -3  -2    2.70    0.40
  -2  -3  -2    1.80    0.70
  -2  -3  -2    2.10    1.50
  -2  -3  -2    1.30    0.80
  -2  -3  -2    1.40    1.00
  -2  -3  -2    1.70    0.90
  -2  -3  -2    2.90    0.40
  -2  -3  -2    1.30    1.30
   2   3   2    4.70    1.70
   2   3   2    1.60    0.80
   2   3   2    1.90    1.60
   2   3   2    0.50    1.40
   2   3   2    2.10    0.90
  -3  -3  -2  204.78    7.60
  -3  -3  -2  195.28    8.80
  -3  -3  -2  192.18    9.60
  -3  -3  -2  195.18    9.30
  -3  -3  -2  202.68    8.50
  -3  -3  -2  196.48    7.60
   3   3   2  195.08    8.50
   3   3   2  175.98   10.10
   3   3   2  195.28    9.20
   3   3   2  202.58    8.60
  -4  -3  -2   25.80    2.20
  -4  -3  -2   27.00    1.40
  -4  -3  -2   21.70    2.70
  -4  -3  -2   24.90    1.40
  -4  -3  -2   24.60    2.40
  -4  -3  -2   26.50    3.10
   4   3   2   28.60    2.80
   4   3   2   23.70    2.70
   4   3   2   24.00    4.00
   4   3   2   27.30    3.10
  -5  -3  -2  227.68   11.40
  -5  -3  -2  224.78    8.90
  -5  -3  -2  221.58    9.90
  -5  -3  -2  217.38   10.30
  -5  -3  -2  227.28   10.80
   5   3   2  210.58   10.10
   5   3   2  230.68    9.00
   5   3   2  226.48   10.60
   5   3   2  247.28   10.50
   5   3   2  203.48   12.20
  -6  -3  -2  490.25   20.90
  -6  -3  -2  459.65   21.50
  -6  -3  -2  488.05   19.80
  -6  -3  -2  465.85   20.30
   6   3   2  485.85   18.70
   6   3   2  421.46   22.40
   6   3   2  504.55   20.30
   6   3   2  491.35   20.30
  -7  -3  -2    5.00    1.70
  -7  -3  -2    2.60    1.30
  -7  -3  -2    3.20    1.60
  -7  -3  -2    2.90    2.20
   7   3   2    3.30    1.20
   7   3   2    0.70    1.80
   7   3   2    2.60    2.00
   7   3   2    1.40    3.10
  -8  -3  -2   56.59    6.10
  -8  -3  -2   57.59    4.50
  -8  -3  -2   57.59    4.70
   8   3   2   43.20    7.00
   8   3   2   38.10    4.70
   8   3   2   57.39    4.50
   8   3   2   62.69    5.30
  -9  -3  -2   43.50    4.10
  -9  -3  -2   52.49    6.30
  -9  -3  -2   49.30    4.60
   9   3   2   34.80    5.00
   9   3   2   46.30    7.80
  10  -4  -2    1.00    2.10
  10  -4  -2   -0.70    3.10
 -10   4   2   -2.10    1.20
   9  -4  -2   -1.30    1.90
   9  -4  -2    1.40    2.80
  -9   4   2    4.40    2.40
  -9   4   2    0.20    1.40
   8  -4  -2   17.30    3.30
   8  -4  -2   15.30    2.60
  -8   4   2   12.30    2.10
  -8   4   2   17.30    3.50
  -8   4   2   17.60    3.50
   7  -4  -2    5.40    2.30
   7  -4  -2    3.30    1.80
   7  -4  -2    5.50    2.10
  -7   4   2    6.30    1.20
  -7   4   2    6.20    1.50
  -7   4   2    4.80    2.30
  -7   4   2    3.20    1.30
   6  -4  -2  236.88   10.50
   6  -4  -2  226.88   10.60
   6  -4  -2  240.28   10.50
  -6   4   2  230.98   10.40
  -6   4   2  228.98   12.10
  -6   4   2  250.37   10.60
  -6   4   2  224.48    9.70
   5  -4  -2    4.00    1.80
   5  -4  -2    2.60    1.60
   5  -4  -2    3.40    1.20
  -5   4   2    3.80    1.00
  -5   4   2    4.80    0.90
  -5   4   2    5.10    0.90
  -5   4   2    5.30    2.10
  -5   4   2    3.50    1.20
   4  -4  -2   36.90    2.90
   4  -4  -2   35.80    2.70
   4  -4  -2   39.00    2.90
   4  -4  -2   39.70    2.20
  -4   4   2   36.40    2.50
  -4   4   2   37.80    4.00
  -4   4   2   36.60    2.60
  -4   4   2   40.90    2.30
  -4   4   2   37.70    2.70
   3  -4  -2   91.89    4.40
   3  -4  -2   84.09    5.40
   3  -4  -2   87.39    4.40
   3  -4  -2   89.79    4.40
   3  -4  -2   94.19    4.30
   3  -4  -2   91.89    4.20
  -3   4   2   88.39    5.90
  -3   4   2   95.29    4.40
  -3   4   2   86.49    4.80
  -3   4   2   94.49    4.40
  -3   4   2   88.69    4.40
   2  -4  -2   43.30    2.80
   2  -4  -2   50.69    2.70
   2  -4  -2   48.30    2.70
   2  -4  -2   54.59    2.70
   2  -4  -2   45.10    4.00
   2  -4  -2   52.59    2.60
  -2   4   2   52.59    2.70
  -2   4   2   52.59    4.40
  -2   4   2   50.79    2.70
  -2   4   2   45.00    2.70
  -2   4   2   49.80    3.60
   1  -4  -2  158.08    6.50
   1  -4  -2  157.48    6.50
   1  -4  -2  130.09    7.10
   1  -4  -2  152.98    6.70
   1  -4  -2  167.58    6.70
  -1   4   2  165.28    6.50
  -1   4   2  157.98    7.80
  -1   4   2  160.68    6.70
  -1   4   2  156.38    6.90
  -1   4   2  163.78    7.00
  -1   4   2  164.28    8.10
   0  -4  -2   33.00    2.40
   0  -4  -2   35.80    2.00
   0  -4  -2   34.20    2.20
   0  -4  -2   34.20    1.80
   0  -4  -2   36.30    2.00
   0  -4  -2   33.60    1.80
   0   4   2   34.20    3.30
   0   4   2   35.20    2.20
   0   4   2   34.00    2.70
   0   4   2   35.60    3.40
   0   4   2   34.70    2.30
  -1  -4  -2   10.90    1.40
  -1  -4  -2   11.60    1.30
  -1  -4  -2   10.30    0.80
  -1  -4  -2    9.70    0.80
  -1  -4  -2    9.30    1.60
  -1  -4  -2    8.50    1.20
   1   4   2   11.50    2.60
   1   4   2    9.60    2.10
   1   4   2    9.10    1.00
   1   4   2    9.40    1.40
   1   4   2   15.60    2.50
  -2  -4  -2  297.17   12.40
  -2  -4  -2  313.77   12.10
  -2  -4  -2  296.97   13.40
  -2  -4  -2  315.67   12.50
  -2  -4  -2  289.77   12.70
  -2  -4  -2  285.07   13.60
   2   4   2  287.57   13.40
   2   4   2  323.67   12.50
   2   4   2  298.47   13.60
   2   4   2  303.27   12.00
   2   4   2  276.47   13.80
  -3  -4  -2  549.54   23.90
  -3  -4  -2  550.84   22.90
  -3  -4  -2  580.54   23.70
  -3  -4  -2  556.64   22.60
  -3  -4  -2  600.84   21.80
   3   4   2  603.64   22.70
   3   4   2  558.14   22.30
   3   4   2  555.84   23.60
   3   4   2  509.55   24.30
  -4  -4  -2  279.47   13.40
  -4  -4  -2  287.17   12.10
  -4  -4  -2  274.27   12.40
  -4  -4  -2  287.77   13.10
   4   4   2  280.47   13.10
   4   4   2  282.87   11.90
   4   4   2  298.17   12.30
   4   4   2  241.48   13.90
  -5  -4  -2  152.68    8.00
  -5  -4  -2  157.18    7.50
  -5  -4  -2  155.88    8.90
  -5  -4  -2  152.38    8.40
   5   4   2  145.19   10.10
   5   4   2  162.28    8.60
   5   4   2  164.38    7.90
   5   4   2  159.28    7.60
  -6  -4  -2   10.00    2.30
  -6  -4  -2    9.90    1.80
  -6  -4  -2   14.90    2.70
  -6  -4  -2   10.40    2.90
   6   4   2   12.60    2.50
   6   4   2    7.70    3.60
   6   4   2    9.60    2.20
   6   4   2   12.90    3.00
  -7  -4  -2    4.10    1.50
  -7  -4  -2    5.70    2.90
  -7  -4  -2    6.40    2.10
  -7  -4  -2   10.00    2.30
   7   4   2    2.00    3.50
   7   4   2    3.40    2.10
   7   4   2    2.30    2.10
   7   4   2    5.40    2.50
  -8  -4  -2   61.59    4.70
  -8  -4  -2   60.99    5.00
  -8  -4  -2   65.19    6.50
   8   4   2   70.09    5.50
   8   4   2   59.49    5.70
   8   4   2   57.39    7.90
  -9  -4  -2  187.38   10.60
  -9  -4  -2  202.28   10.40
  -9  -4  -2  214.48   13.30
   9   4   2  188.58   14.40
   9   4   2  178.38   10.80
   9  -5  -2    4.60    2.30
   9  -5  -2    6.50    3.20
  -9   5   2    4.90    1.80
  -9   5   2    5.00    2.90
   8  -5  -2    4.90    3.00
   8  -5  -2    0.70    1.70
  -8   5   2    0.20    2.60
  -8   5   2    1.70    1.50
   7  -5  -2    2.60    2.50
   7  -5  -2    3.20    1.60
   7  -5  -2    1.00    2.10
  -7   5   2    3.30    1.50
  -7   5   2    1.90    2.60
   6  -5  -2   56.99    4.50
   6  -5  -2   59.39    4.10
   6  -5  -2   61.59    4.40
  -6   5   2   61.69    3.90
  -6   5   2   56.39    5.70
  -6   5   2   57.39    4.00
   5  -5  -2  132.99    6.60
   5  -5  -2  133.99    6.60
   5  -5  -2  136.69    6.70
  -5   5   2  140.09    6.70
  -5   5   2  139.69    8.50
  -5   5   2  128.79    6.20
  -5   5   2  139.79    6.70
   4  -5  -2  165.78    7.70
   4  -5  -2  171.28    7.70
   4  -5  -2  170.48    7.70
  -4   5   2  175.08    9.60
  -4   5   2  173.28    7.70
  -4   5   2  167.68    8.00
  -4   5   2  165.68    7.80
   3  -5  -2 1225.98   43.80
   3  -5  -2 1111.29   43.90
   3  -5  -2 1134.79   43.70
   3  -5  -2 1097.59   43.70
  -3   5   2 1150.88   43.90
  -3   5   2 1085.39   43.90
  -3   5   2 1109.29   44.50
  -3   5   2 1119.49   45.70
   2  -5  -2   11.60    1.50
   2  -5  -2   14.60    1.70
   2  -5  -2   13.80    1.30
   2  -5  -2   12.70    1.60
  -2   5   2   11.90    1.40
  -2   5   2    9.70    1.50
  -2   5   2   11.30    1.40
  -2   5   2   11.30    2.40
  -2   5   2   11.90    2.50
   1  -5  -2   14.70    1.40
   1  -5  -2   16.80    1.80
   1  -5  -2   19.60    1.50
   1  -5  -2   16.00    2.10
   1  -5  -2   15.80    1.50
  -1   5   2   12.60    1.60
  -1   5   2   16.70    2.90
  -1   5   2   15.90    1.40
  -1   5   2   12.70    2.60
  -1   5   2   17.90    1.90
  -1   5   2   15.40    1.70
   0  -5  -2  498.15   19.30
   0  -5  -2  526.65   19.90
   0  -5  -2  494.75   19.30
   0  -5  -2  482.05   20.40
   0  -5  -2  482.35   19.90
   0   5   2  488.25   20.60
   0   5   2  527.75   19.90
   0   5   2  498.25   21.40
   0   5   2  497.55   21.30
  -1  -5  -2  142.29    5.70
  -1  -5  -2  159.18    6.70
  -1  -5  -2  143.89    5.70
  -1  -5  -2  155.18    6.80
  -1  -5  -2  136.09    6.20
  -1  -5  -2  137.69    7.00
   1   5   2  140.79    7.70
   1   5   2  143.59    8.00
   1   5   2  142.79    8.00
  -2  -5  -2    3.10    2.00
  -2  -5  -2    4.70    1.10
  -2  -5  -2    4.20    1.30
  -2  -5  -2    2.90    1.50
  -2  -5  -2    5.50    2.30
   2   5   2    4.60    2.70
   2   5   2    5.20    2.20
   2   5   2    3.70    1.40
   2   5   2    3.80    2.00
   2   5   2    4.60    0.90
  -3  -5  -2  303.47   14.50
  -3  -5  -2  306.27   14.20
  -3  -5  -2  293.57   13.40
  -3  -5  -2  304.97   13.00
   3   5   2  317.07   12.40
   3   5   2  321.17   13.20
   3   5   2  285.57   15.00
  -4  -5  -2  581.24   24.60
  -4  -5  -2  553.34   24.90
  -4  -5  -2  572.64   23.90
  -4  -5  -2  600.14   23.50
   4   5   2  581.94   22.90
   4   5   2  521.15   25.70
   4   5   2  594.94   23.60
   4   5   2  588.64   24.70
  -5  -5  -2   55.79    4.50
  -5  -5  -2   47.60    4.10
  -5  -5  -2   47.40    3.60
  -5  -5  -2   47.90    4.80
   5   5   2   50.99    3.50
   5   5   2   41.50    6.00
   5   5   2   54.99    5.00
   5   5   2   50.09    4.10
  -6  -5  -2    9.90    1.90
  -6  -5  -2   13.40    3.50
  -6  -5  -2   15.10    2.90
  -6  -5  -2   14.00    2.80
   6   5   2   10.40    3.10
   6   5   2    7.10    3.70
   6   5   2   10.20    2.00
  -7  -5  -2   24.10    3.40
  -7  -5  -2   25.90    4.80
  -7  -5  -2   19.40    2.80
   7   5   2   16.80    2.70
   7   5   2   22.10    4.10
   7   5   2   17.90    5.00
  -8  -5  -2    2.50    1.80
  -8  -5  -2   10.70    3.70
  -8  -5  -2    8.10    2.40
   8   5   2    5.60    2.90
   8   5   2    8.30    4.70
  -9  -5  -2    1.40    1.90
   9   5   2    1.80    4.30
   9  -6  -2   61.49    5.80
   9  -6  -2   60.99    5.10
  -9   6   2   57.29    7.60
  -9   6   2   56.49    4.90
   8  -6  -2   81.79    5.60
   8  -6  -2   81.79    6.50
  -8   6   2   77.99    5.40
  -8   6   2   83.29    8.30
   7  -6  -2  198.18    9.80
   7  -6  -2  199.88    9.90
  -7   6   2  197.38   12.30
  -7   6   2  192.18    9.60
   6  -6  -2    5.40    2.00
   6  -6  -2    3.40    1.60
   6  -6  -2    3.60    2.30
  -6   6   2    1.10    1.20
  -6   6   2   -1.00    2.30
   5  -6  -2  141.19    7.10
   5  -6  -2  149.88    7.10
   5  -6  -2  147.29    7.20
  -5   6   2  150.88    7.30
  -5   6   2  132.79    7.80
  -5   6   2  156.48    9.70
   4  -6  -2    6.90    2.00
   4  -6  -2    7.90    1.50
   4  -6  -2    8.40    1.80
  -4   6   2   10.00    1.70
  -4   6   2    9.80    3.10
  -4   6   2   11.00    2.20
   3  -6  -2   26.10    2.40
   3  -6  -2   27.60    2.50
   3  -6  -2   24.90    2.30
  -3   6   2   21.50    2.30
  -3   6   2   25.00    3.40
  -3   6   2   22.10    3.60
  -3   6   2   26.80    2.20
   2  -6  -2  485.55   19.10
   2  -6  -2  487.95   19.10
   2  -6  -2  479.65   19.50
  -2   6   2  478.55   19.10
  -2   6   2  470.45   19.60
  -2   6   2  489.65   19.50
  -2   6   2  488.55   21.50
  -2   6   2  474.35   20.70
   1  -6  -2   59.59    3.60
   1  -6  -2   58.29    3.10
   1  -6  -2   54.29    3.80
   1  -6  -2   57.79    3.10
  -1   6   2   62.99    3.50
  -1   6   2   61.29    4.90
  -1   6   2   54.99    3.50
  -1   6   2   58.99    3.00
  -1   6   2   59.29    3.60
  -1   6   2   61.69    5.30
   0  -6  -2    4.20    1.60
   0  -6  -2    4.40    0.90
   0  -6  -2    3.30    1.40
   0  -6  -2    4.60    0.90
   0   6   2    5.80    2.30
   0   6   2    3.70    1.50
   0   6   2    2.90    1.30
   0   6   2    3.30    2.50
  -1  -6  -2    3.40    0.50
  -1  -6  -2    1.70    1.30
  -1  -6  -2    5.00    0.50
  -1  -6  -2    2.50    1.60
   1   6   2    2.70    2.50
   1   6   2    3.50    2.20
   1   6   2    3.00    1.70
  -2  -6  -2  205.68    9.50
  -2  -6  -2  201.68   10.70
  -2  -6  -2  205.38   11.10
  -2  -6  -2  199.78    9.80
   2   6   2  207.48   11.00
   2   6   2  223.08   11.30
   2   6   2  196.38   10.90
   2   6   2  222.18    9.50
  -3  -6  -2  116.19    7.70
  -3  -6  -2  115.59    6.10
  -3  -6  -2  106.39    6.40
  -3  -6  -2  111.69    7.30
   3   6   2  108.89    7.90
   3   6   2  114.29    6.50
   3   6   2  111.09    7.50
   3   6   2  116.09    7.60
   3   6   2  118.29    5.00
  -4  -6  -2    2.30    2.20
  -4  -6  -2    0.90    1.20
  -4  -6  -2    2.30    2.10
  -4  -6  -2    1.10    1.70
   4   6   2    0.40    2.80
   4   6   2    0.80    2.40
  -5  -6  -2   22.80    3.50
  -5  -6  -2   21.90    2.80
  -5  -6  -2   23.00    4.20
  -5  -6  -2   22.20    3.00
   5   6   2   23.10    4.20
   5   6   2   19.90    4.60
  -6  -6  -2   43.80    4.30
  -6  -6  -2   53.09    4.20
  -6  -6  -2   52.39    5.50
  -6  -6  -2   57.69    4.90
   6   6   2   47.00    7.20
   6   6   2   54.79    5.90
  -7  -6  -2    5.40    2.30
  -7  -6  -2    2.50    1.80
  -7  -6  -2    9.00    3.20
   7   6   2    6.50    3.30
   7   6   2    2.80    4.10
  -8  -6  -2    2.60    1.90
  -8  -6  -2    7.60    2.20
   8   6   2    6.00    4.40
   8   6   2    4.10    2.80
   8  -7  -2   37.20    4.00
   8  -7  -2   30.30    4.40
  -8   7   2   20.10    4.70
  -8   7   2   24.60    3.20
   7  -7  -2   74.29    6.00
   7  -7  -2   80.69    5.50
  -7   7   2   72.59    5.20
  -7   7   2   66.99    8.00
   6  -7  -2   52.79    4.90
   6  -7  -2   51.59    4.20
  -6   7   2   53.69    4.20
  -6   7   2   50.49    6.60
   5  -7  -2    9.70    2.50
   5  -7  -2    4.80    2.10
   5  -7  -2   11.20    2.10
  -5   7   2    8.00    1.80
  -5   7   2    7.80    3.30
   4  -7  -2    3.80    1.50
   4  -7  -2    2.10    1.60
   4  -7  -2    1.00    1.80
  -4   7   2    2.60    1.30
  -4   7   2    5.50    2.20
  -4   7   2    3.90    2.70
   3  -7  -2   35.40    2.90
   3  -7  -2   32.30    2.90
   3  -7  -2   33.60    2.90
  -3   7   2   35.40    4.00
  -3   7   2   27.50    4.20
  -3   7   2   32.10    3.00
   2  -7  -2    0.30    1.30
   2  -7  -2    0.80    1.60
   2  -7  -2   -0.40    1.10
   2  -7  -2    0.40    1.20
  -2   7   2    1.70    2.40
  -2   7   2    2.90    2.40
  -2   7   2   -0.20    1.20
   1  -7  -2  216.48    9.00
   1  -7  -2  210.58   10.30
   1  -7  -2  216.08    9.80
   1  -7  -2  205.08    8.90
  -1   7   2  218.88   11.40
  -1   7   2  224.38    9.80
  -1   7   2  208.08   11.70
   0  -7  -2  174.08    8.80
   0  -7  -2  163.98    7.40
   0  -7  -2  167.38    8.30
   0   7   2  183.48    8.90
   0   7   2  179.48   10.30
   0   7   2  181.18   10.20
  -1  -7  -2   28.80    3.20
  -1  -7  -2   30.90    3.30
   1   7   2   32.50    4.70
   1   7   2   32.80    3.70
   1   7   2   29.50    4.10
  -2  -7  -2    1.70    2.50
  -2  -7  -2    1.10    1.80
  -2  -7  -2    1.10    1.40
  -2  -7  -2   -0.40    2.40
   2   7   2    2.90    2.10
   2   7   2    0.40    2.30
   2   7   2    1.50    2.90
  -3  -7  -2   24.70    4.40
  -3  -7  -2   18.90    3.70
  -3  -7  -2   19.90    2.70
  -3  -7  -2   23.70    3.50
   3   7   2   23.20    4.10
   3   7   2   23.90    4.10
   3   7   2   27.70    4.60
  -4  -7  -2   44.20    4.20
  -4  -7  -2   44.20    5.10
  -4  -7  -2   44.30    3.80
  -4  -7  -2   46.20    5.00
   4   7   2   49.50    6.10
   4   7   2   41.30    5.80
  -5  -7  -2    2.40    2.10
  -5  -7  -2    1.10    1.60
  -5  -7  -2    4.90    2.90
  -5  -7  -2    4.60    3.70
   5   7   2    3.90    3.40
   5   7   2    5.70    3.60
  -6  -7  -2    5.00    2.80
  -6  -7  -2   -0.80    1.40
  -6  -7  -2    2.80    2.20
   6   7   2    4.10    3.20
   6   7   2    0.40    3.50
  -7  -7  -2   27.50    4.20
  -7  -7  -2   13.70    2.70
  -7  -7  -2   18.50    3.70
   7   7   2   16.40    4.30
   7   7   2   13.30    5.00
   7  -8  -2    6.60    2.90
   7  -8  -2    8.30    2.20
  -7   8   2    2.80    1.80
  -7   8   2    3.10    3.70
   6  -8  -2   18.60    2.80
   6  -8  -2   17.20    3.30
  -6   8   2   12.80    2.30
  -6   8   2   14.10    4.60
   5  -8  -2   22.40    2.80
   5  -8  -2   14.70    2.50
   5  -8  -2   16.10    3.00
  -5   8   2   15.30    2.50
  -5   8   2   13.40    4.10
   4  -8  -2    2.00    1.50
   4  -8  -2    3.40    2.20
   4  -8  -2    2.60    1.80
   4  -8  -2    1.90    2.00
  -4   8   2   -0.80    2.80
  -4   8   2    0.30    1.40
  -4   8   2    3.90    2.30
   3  -8  -2   -0.40    1.70
   3  -8  -2    2.70    1.80
   3  -8  -2    0.90    1.40
   3  -8  -2   -0.10    1.50
  -3   8   2    1.90    2.30
  -3   8   2   -0.10    2.90
  -3   8   2   -0.10    1.30
   2  -8  -2    0.30    1.40
   2  -8  -2   -0.60    1.40
   2  -8  -2    1.60    1.90
  -2   8   2    0.00    2.40
  -2   8   2   -1.00    2.50
  -2   8   2   -0.60    1.20
   1  -8  -2   38.40    3.70
   1  -8  -2   36.60    3.40
  -1   8   2   40.90    5.30
  -1   8   2   35.20    5.00
   0  -8  -2   52.59    4.20
   0  -8  -2   51.09    4.40
   0   8   2   53.89    6.00
   0   8   2   56.09    4.30
   0   8   2   53.29    6.10
  -1  -8  -2    1.00    2.10
  -1  -8  -2    0.60    1.60
   1   8   2    1.80    2.70
   1   8   2    4.50    3.10
   1   8   2    4.00    2.00
  -2  -8  -2   34.10    5.10
  -2  -8  -2   46.10    4.40
  -2  -8  -2   37.40    5.00
  -2  -8  -2   36.40    3.60
   2   8   2   45.20    5.70
   2   8   2   34.40    4.90
   2   8   2   47.00    5.00
  -3  -8  -2    0.10    3.00
  -3  -8  -2   -1.90    1.50
  -3  -8  -2   -0.80    2.00
   3   8   2   -2.00    3.00
   3   8   2    0.20    2.20
   3   8   2    1.50    3.40
  -4  -8  -2    2.50    2.20
  -4  -8  -2    1.70    1.70
  -4  -8  -2    2.20    2.80
   4   8   2    6.00    3.80
   4   8   2    3.00    2.70
  -5  -8  -2   17.60    4.20
  -5  -8  -2   14.50    3.40
  -5  -8  -2   13.70    2.60
   5   8   2   12.80    4.30
   5   8   2   10.10    4.10
  -6  -8  -2   20.70    3.30
  -6  -8  -2   28.90    3.90
  -6  -8  -2   34.30    5.00
   6   8   2   19.80    5.50
   6   8   2   25.60    5.10
   6  -9  -2   33.80    3.80
   6  -9  -2   33.80    4.10
   6  -9  -2   35.10    4.10
  -6   9   2   20.10    5.20
  -6   9   2   28.70    3.60
   5  -9  -2   25.90    3.80
   5  -9  -2   24.70    3.40
   5  -9  -2   24.40    3.30
  -5   9   2   18.80    4.80
  -5   9   2   25.20    3.30
   4  -9  -2    3.50    1.90
   4  -9  -2    2.30    2.20
   4  -9  -2    1.90    2.50
  -4   9   2   -1.90    3.10
  -4   9   2    1.40    1.60
   3  -9  -2   51.29    4.80
   3  -9  -2   56.49    4.50
  -3   9   2   61.49    5.80
  -3   9   2   52.69    6.80
  -3   9   2   53.09    4.50
   2  -9  -2   -1.50    1.60
   2  -9  -2   -1.40    2.00
  -2   9   2    2.40    3.50
  -2   9   2    6.20    2.90
   1  -9  -2    0.20    1.90
   1  -9  -2    2.50    2.20
  -1   9   2   -1.70    3.20
  -1   9   2    6.20    3.20
   0  -9  -2   39.70    4.00
   0  -9  -2   40.30    4.50
   0   9   2   37.20    5.50
   0   9   2   46.80    6.30
  -1  -9  -2   15.60    3.50
  -1  -9  -2   13.80    2.70
   1   9   2   19.10    4.70
   1   9   2   12.50    4.00
  -2  -9  -2   25.60    4.40
  -2  -9  -2   18.10    5.00
  -2  -9  -2   17.60    2.90
   2   9   2   18.20    4.60
   2   9   2   24.20    4.00
   2   9   2   21.80    5.30
  -3  -9  -2   24.80    5.40
  -3  -9  -2   17.60    3.00
  -3  -9  -2   22.40    4.00
   3   9   2   26.10    5.50
   3   9   2   22.30    4.40
   3   9   2   13.90    4.70
  -4  -9  -2    0.50    2.80
  -4  -9  -2   -2.30    1.50
  -4  -9  -2    1.10    2.40
   4   9   2    5.20    3.70
   4   9   2    0.80    2.40
  -5  -9  -2    7.90    3.20
  -5  -9  -2    3.10    2.00
  -5  -9  -2    7.90    3.00
   5   9   2    8.00    3.70
   5   9   2    7.30    4.00
   4 -10  -2    8.80    3.20
   4 -10  -2    5.60    2.30
  -4  10   2    4.50    3.90
  -4  10   2    0.40    2.00
   3 -10  -2    8.50    2.50
   3 -10  -2   11.50    3.30
  -3  10   2   12.40    3.30
  -3  10   2    4.60    4.40
   2 -10  -2   -1.80    1.90
   2 -10  -2    2.90    2.50
  -2  10   2   -3.50    3.00
  -2  10   2    5.60    2.90
   1 -10  -2    0.60    2.10
   1 -10  -2    4.80    2.90
  -1  10   2    2.00    3.80
  -1  10   2   10.60    3.90
   0 -10  -2   21.80    3.50
   0 -10  -2   29.90    4.70
   0  10   2   37.80    5.90
   0  10   2   20.50    5.00
  -1 -10  -2  289.07   16.60
  -1 -10  -2  273.77   13.50
  -1 -10  -2  274.17   14.40
   1  10   2  295.57   16.10
   1  10   2  297.47   16.90
  -2 -10  -2   -4.20    1.70
  -2 -10  -2   -4.60    3.30
  -2 -10  -2   -1.60    2.30
   2  10   2    2.10    3.80
   2  10   2    8.70    4.40
  -3 -10  -2    8.20    4.00
  -3 -10  -2    3.50    2.20
  -3 -10  -2    9.30    3.40
   3  10   2   15.70    4.90
   1  11  -3   -5.90    2.70
   1  11  -3    2.90    4.40
  -1 -11   3    1.80    2.40
   0  11  -3    8.60    4.80
   0  11  -3    0.10    3.10
   0 -11   3    7.20    3.10
   0 -11   3   -2.50    2.70
  -1  11  -3   -2.10    3.30
  -1  11  -3    5.70    4.40
   1 -11   3    2.00    2.60
   1 -11   3   -1.80    2.60
  -2  11  -3   -0.10    3.50
  -2  11  -3    3.50    3.90
   2 -11   3   -3.20    2.40
   2 -11   3    4.40    2.80
   4  10  -3   18.50    4.60
   4  10  -3   25.20    5.90
  -4 -10   3   22.70    4.30
  -4 -10   3   14.80    3.40
  -4 -10   3   28.90    4.40
   3  10  -3    5.60    4.80
  -3 -10   3    1.70    2.90
  -3 -10   3    5.20    2.60
  -3 -10   3   -3.00    2.30
   2  10  -3   15.60    5.60
   2  10  -3   11.20    3.70
  -2 -10   3   18.70    3.70
  -2 -10   3   10.70    4.00
  -2 -10   3   13.80    3.40
   1  10  -3    2.70    3.10
   1  10  -3    1.90    4.30
  -1 -10   3    7.00    2.70
  -1 -10   3    1.80    2.60
   0  10  -3    0.70    4.20
   0  10  -3   -1.30    3.00
   0 -10   3   -4.60    2.10
   0 -10   3    0.00    1.90
  -1  10  -3    1.80    3.30
  -1  10  -3    4.40    4.60
   1 -10   3    5.60    2.70
   1 -10   3    5.10    2.50
  -2  10  -3   -1.80    3.60
  -2  10  -3   -2.80    2.90
   2 -10   3   -2.10    1.90
   2 -10   3   -1.40    1.90
  -3  10  -3    2.10    3.30
  -3  10  -3    0.70    3.70
   3 -10   3    2.30    2.30
   3 -10   3    1.40    2.40
  -4  10  -3   -4.40    3.30
  -4  10  -3   -2.50    3.20
   4 -10   3   -0.20    2.20
   4 -10   3   -0.90    2.10
  -5  10  -3   18.40    5.20
   5 -10   3   25.90    3.50
   5 -10   3   27.40    4.20
   5 -10   3   23.10    4.00
   6   9  -3   95.39    8.80
  -6  -9   3   82.09    6.60
  -6  -9   3   75.79    6.50
   5   9  -3   -6.70    3.10
   5   9  -3    1.60    4.00
  -5  -9   3   -1.10    2.00
  -5  -9   3    1.60    2.40
  -5  -9   3    6.90    2.40
   4   9  -3    4.10    4.10
   4   9  -3   -1.80    2.90
  -4  -9   3    3.90    2.70
  -4  -9   3   -0.40    2.30
  -4  -9   3    4.00    2.40
   3   9  -3   -1.90    2.70
   3   9  -3    0.80    2.50
   3   9  -3    2.20    4.10
  -3  -9   3   -3.30    2.50
  -3  -9   3    6.10    3.10
  -3  -9   3    7.60    2.60
  -3  -9   3    2.50    2.50
   2   9  -3   -1.10    2.30
   2   9  -3   -1.20    2.20
   2   9  -3    0.30    3.80
  -2  -9   3    0.70    2.20
  -2  -9   3   -2.80    2.60
  -2  -9   3    0.40    2.00
   1   9  -3    4.00    2.70
   1   9  -3    2.10    4.10
   1   9  -3    2.20    2.60
  -1  -9   3    3.20    2.20
  -1  -9   3   -0.60    2.20
   0   9  -3    3.60    2.90
   0   9  -3    7.50    2.30
   0   9  -3    1.60    4.20
   0  -9   3    5.30    2.30
   0  -9   3    8.40    2.60
  -1   9  -3   -0.60    2.80
  -1   9  -3   -1.00    3.70
  -1   9  -3    6.10    1.90
   1  -9   3    4.10    2.20
   1  -9   3    2.20    2.20
  -2   9  -3   57.19    6.40
  -2   9  -3   37.50    6.20
   2  -9   3   54.99    4.60
   2  -9   3   53.69    4.80
  -3   9  -3   -1.40    3.00
  -3   9  -3   -5.00    3.50
   3  -9   3    5.30    2.40
   3  -9   3    3.80    1.80
   3  -9   3    4.10    2.30
  -4   9  -3   -2.90    2.80
  -4   9  -3   -5.80    3.00
   4  -9   3    2.70    2.10
   4  -9   3   -0.60    1.80
   4  -9   3    2.50    2.10
  -5   9  -3   -0.70    3.30
   5  -9   3    7.70    2.60
   5  -9   3    3.20    2.10
   5  -9   3    2.40    2.20
  -6   9  -3    8.40    4.40
   6  -9   3   12.40    2.90
   6  -9   3   11.60    2.80
   6  -9   3   11.50    3.10
   7   8  -3   10.20    3.70
   7   8  -3   -5.80    3.80
  -7  -8   3   -3.10    1.60
  -7  -8   3    2.60    2.10
   6   8  -3   -5.80    3.30
   6   8  -3    1.80    3.50
  -6  -8   3    1.50    2.30
  -6  -8   3   -2.40    1.80
  -6  -8   3    7.50    2.30
   5   8  -3   68.29    7.40
   5   8  -3   59.29    6.40
  -5  -8   3   74.59    6.10
  -5  -8   3   63.39    5.60
  -5  -8   3   67.29    5.60
  -5  -8   3   68.79    5.40
   4   8  -3   54.19    5.70
   4   8  -3   50.59    6.80
  -4  -8   3   52.69    4.80
  -4  -8   3   55.49    5.10
  -4  -8   3   54.59    5.20
  -4  -8   3   51.59    4.90
   3   8  -3    2.80    2.60
   3   8  -3    0.50    2.00
   3   8  -3    5.40    4.10
  -3  -8   3    2.60    2.00
  -3  -8   3    1.30    2.40
  -3  -8   3    5.30    2.60
  -3  -8   3    6.80    2.40
   2   8  -3    2.40    2.20
   2   8  -3    0.90    2.60
   2   8  -3    4.50    2.40
   2   8  -3    3.70    3.90
  -2  -8   3    4.20    2.10
  -2  -8   3    3.80    2.10
  -2  -8   3    3.50    2.70
   1   8  -3  116.39    6.80
   1   8  -3   85.79    6.80
   1   8  -3  111.29    9.00
   1   8  -3   95.19   12.50
   1   8  -3  113.09    7.50
  -1  -8   3  113.99    6.60
  -1  -8   3  121.09    6.90
   0   8  -3   14.20    2.60
   0   8  -3   11.50    2.40
   0   8  -3   13.20    4.40
   0   8  -3   10.70    4.90
   0   8  -3   13.90    3.20
   0  -8   3   14.50    2.70
   0  -8   3   16.30    2.90
  -1   8  -3    8.90    4.10
  -1   8  -3    4.20    4.00
  -1   8  -3   13.40    2.30
  -1   8  -3   11.60    3.10
   1  -8   3   10.60    2.50
   1  -8   3   14.10    2.70
  -2   8  -3   -3.70    3.40
  -2   8  -3    2.50    2.60
  -2   8  -3   -0.60    3.20
  -2   8  -3    5.20    1.70
   2  -8   3    0.70    1.80
   2  -8   3    2.00    1.40
   2  -8   3    2.40    1.90
  -3   8  -3    1.30    1.10
  -3   8  -3    2.10    1.30
  -3   8  -3    0.90    2.60
  -3   8  -3   -4.40    2.70
   3  -8   3    0.90    1.70
   3  -8   3    2.80    1.70
   3  -8   3    1.30    1.70
  -4   8  -3   69.39    7.30
  -4   8  -3  103.59    6.20
  -4   8  -3   92.29    5.10
  -4   8  -3   92.89    7.90
   4  -8   3   96.09    5.60
   4  -8   3   95.49    5.80
   4  -8   3   97.59    6.30
  -5   8  -3   42.40    4.00
  -5   8  -3   24.70    5.00
  -5   8  -3   33.10    3.00
  -5   8  -3   35.10    5.50
   5  -8   3   36.10    3.60
   5  -8   3   41.50    3.70
   5  -8   3   33.20    4.10
   5  -8   3   41.40    3.90
  -6   8  -3    2.00    3.20
   6  -8   3    6.80    2.70
   6  -8   3    6.30    2.10
   6  -8   3    5.60    2.20
  -7   8  -3   12.90    4.20
   7  -8   3   14.30    3.00
   7  -8   3   17.70    3.40
   8   7  -3   19.30    7.30
  -8  -7   3   36.00    4.10
  -8  -7   3   37.20    4.50
   7   7  -3   90.69    7.50
   7   7  -3   55.69    9.10
   7   7  -3   71.59    6.90
  -7  -7   3   77.89    6.10
  -7  -7   3   85.39    6.60
   6   7  -3   71.69    7.30
   6   7  -3   70.39    6.90
  -6  -7   3   60.99    5.30
  -6  -7   3   89.89    6.50
  -6  -7   3   67.39    5.70
   5   7  -3   13.90    4.30
   5   7  -3   13.30    3.50
  -5  -7   3   13.40    3.10
  -5  -7   3   14.00    2.70
  -5  -7   3   15.70    3.30
  -5  -7   3   11.20    2.60
   4   7  -3   15.80    3.20
   4   7  -3   24.30    4.80
  -4  -7   3   20.90    3.10
  -4  -7   3   20.00    3.00
  -4  -7   3   22.10    3.70
  -4  -7   3   20.00    3.30
   3   7  -3   86.89    6.20
   3   7  -3   88.19    7.50
   3   7  -3   87.89    5.90
   3   7  -3   79.89   12.50
  -3  -7   3   92.29    6.20
  -3  -7   3   86.69    5.60
  -3  -7   3   82.49    5.90
  -3  -7   3   89.19    5.90
   2   7  -3  250.87   13.60
   2   7  -3  266.97   12.40
   2   7  -3  271.47   12.50
   2   7  -3  232.38   18.20
  -2  -7   3  266.07   12.60
  -2  -7   3  251.57   12.10
  -2  -7   3  251.57   12.00
   1   7  -3   98.29    5.90
   1   7  -3   92.99    6.20
   1   7  -3   79.59    7.20
   1   7  -3   73.69   10.90
  -1  -7   3   90.69    5.50
  -1  -7   3   89.59    5.70
   0   7  -3  103.59    6.50
   0   7  -3  101.39    4.60
   0   7  -3   85.69   10.70
   0   7  -3  107.89    6.10
   0  -7   3   97.89    5.90
   0  -7   3  106.59    5.80
  -1   7  -3   14.50    2.40
  -1   7  -3   11.70    2.80
  -1   7  -3    5.80    3.70
  -1   7  -3   10.70    1.80
  -1   7  -3   14.30    1.60
   1  -7   3   15.80    1.60
   1  -7   3   17.20    2.40
   1  -7   3   16.30    2.50
  -2   7  -3   11.50    4.00
  -2   7  -3   15.60    3.10
  -2   7  -3   23.80    2.80
   2  -7   3   23.00    3.10
   2  -7   3   21.60    2.20
   2  -7   3   20.20    1.90
   2  -7   3   19.00    2.30
  -3   7  -3  152.98    9.30
  -3   7  -3  154.28    8.00
  -3   7  -3  161.88    7.00
   3  -7   3  152.08    7.20
   3  -7   3  148.59    7.60
   3  -7   3  150.68    8.00
  -4   7  -3    1.70    1.00
  -4   7  -3    1.70    2.40
  -4   7  -3    3.90    1.60
   4  -7   3    2.40    1.70
   4  -7   3    1.60    1.50
   4  -7   3    0.00    1.90
   4  -7   3    1.50    1.50
  -5   7  -3   86.99    7.40
  -5   7  -3   97.89    6.00
  -5   7  -3   87.09    4.80
   5  -7   3   83.69    5.40
   5  -7   3   91.29    5.60
   5  -7   3   94.39    5.50
   5  -7   3   93.89    6.00
  -6   7  -3    7.50    3.20
  -6   7  -3    4.40    1.40
  -6   7  -3    7.70    2.00
   6  -7   3    7.70    2.30
   6  -7   3    2.50    2.50
  -7   7  -3  107.29    8.70
  -7   7  -3   95.09    5.70
  -7   7  -3  116.59    7.00
   7  -7   3  102.09    6.90
   7  -7   3  109.09    6.90
  -8   7  -3  221.68   13.60
   8  -7   3  205.88   10.90
   8  -7   3  211.48   11.30
   8   6  -3   -0.30    5.50
   8   6  -3    2.90    3.10
  -8  -6   3   11.00    3.30
  -8  -6   3    4.50    2.30
   7   6  -3  110.99    7.70
   7   6  -3   99.99    7.60
  -7  -6   3  101.69    7.20
  -7  -6   3   97.49    6.60
   6   6  -3    0.00    2.80
   6   6  -3    2.00    3.10
  -6  -6   3    2.10    2.00
  -6  -6   3    4.80    2.10
  -6  -6   3    1.80    1.80
   5   6  -3  344.37   16.00
   5   6  -3  342.07   16.60
  -5  -6   3  324.67   15.20
  -5  -6   3  323.47   15.60
  -5  -6   3  352.56   16.00
  -5  -6   3  346.47   15.20
   4   6  -3   36.00    5.40
  -4  -6   3   31.10    3.40
  -4  -6   3   31.60    3.40
  -4  -6   3   29.80    3.50
  -4  -6   3   31.10    3.70
  -4  -6   3   28.30    3.30
   3   6  -3    0.20    1.40
   3   6  -3    0.20    3.90
   3   6  -3   -0.60    0.40
   3   6  -3   -1.40    2.70
   3   6  -3   -0.50    1.80
   3   6  -3    0.00    0.40
  -3  -6   3   -0.30    1.40
  -3  -6   3   -1.60    1.50
  -3  -6   3   -0.60    1.50
  -3  -6   3    0.50    1.70
  -3  -6   3    0.10    1.40
   2   6  -3   16.20    1.20
   2   6  -3   11.80    4.90
   2   6  -3   10.70    3.80
   2   6  -3   11.60    2.20
   2   6  -3   20.30    2.90
  -2  -6   3   17.00    2.60
  -2  -6   3   17.00    2.60
  -2  -6   3   14.00    2.40
   1   6  -3    1.30    3.30
   1   6  -3   -0.60    1.50
   1   6  -3   -0.10    0.70
   1   6  -3    0.60    1.50
  -1  -6   3    0.00    1.40
  -1  -6   3    1.50    1.60
   0   6  -3    3.20    1.90
   0   6  -3    3.80    3.30
   0   6  -3    7.70    1.70
   0  -6   3    9.50    1.90
   0  -6   3   11.10    2.00
  -1   6  -3  263.97   17.20
  -1   6  -3  316.67   12.60
  -1   6  -3  312.17   14.40
  -1   6  -3  303.87   13.50
   1  -6   3  323.27   12.60
   1  -6   3  315.17   13.30
   1  -6   3  320.77   13.60
   1  -6   3  334.27   12.30
  -2   6  -3  623.14   25.40
  -2   6  -3  603.24   24.30
  -2   6  -3  624.44   23.40
  -2   6  -3  531.55   27.50
   2  -6   3  611.54   24.00
   2  -6   3  577.84   23.40
   2  -6   3  596.64   23.40
   2  -6   3  580.44   24.20
  -3   6  -3    8.90    2.40
  -3   6  -3    8.80    1.20
  -3   6  -3   10.80    1.90
  -3   6  -3    6.70    2.70
   3  -6   3   13.90    2.10
   3  -6   3   10.10    1.90
   3  -6   3   11.70    1.90
   3  -6   3   13.70    1.90
  -4   6  -3    6.80    1.20
  -4   6  -3    7.80    1.70
  -4   6  -3    7.90    2.60
   4  -6   3   12.20    2.20
   4  -6   3   12.20    2.10
   4  -6   3   11.40    2.30
   4  -6   3    7.30    1.80
  -5   6  -3    5.20    1.70
  -5   6  -3    4.10    1.10
   5  -6   3    5.60    1.90
   5  -6   3    3.20    2.10
   5  -6   3    4.30    1.80
  -6   6  -3    6.10    1.80
  -6   6  -3    1.60    1.10
   6  -6   3    1.90    2.30
   6  -6   3    3.00    2.00
   6  -6   3    4.00    1.90
  -7   6  -3   19.50    2.30
  -7   6  -3   26.10    3.30
   7  -6   3   21.80    3.30
   7  -6   3   18.20    3.50
  -8   6  -3  235.58   11.50
  -8   6  -3  195.38    9.90
   8  -6   3  216.38   11.30
   8  -6   3  219.88   11.00
   9  -6   3   63.99    5.60
   9  -6   3   56.39    5.50
   8   5  -3   11.60    3.60
  -8  -5   3    9.30    1.80
  -8  -5   3   19.90    4.50
  -8  -5   3   11.70    2.90
  -8  -5   3   14.50    3.50
   7   5  -3   27.90    4.30
   7   5  -3   47.40    5.00
  -7  -5   3   39.60    4.20
  -7  -5   3   39.10    4.20
  -7  -5   3   45.80    4.80
   6   5  -3   10.60    3.20
   6   5  -3    9.50    3.10
  -6  -5   3    8.20    2.30
  -6  -5   3   12.00    2.10
  -6  -5   3   12.80    2.80
  -6  -5   3   13.10    3.00
   5   5  -3   -0.20    0.70
   5   5  -3    0.60    1.00
   5   5  -3   -0.20    2.70
   5   5  -3   -0.50    2.10
  -5  -5   3    1.00    1.60
  -5  -5   3    2.90    1.70
  -5  -5   3    0.40    1.40
  -5  -5   3    1.60    1.30
   4   5  -3  287.27   14.20
   4   5  -3  270.87   19.30
   4   5  -3  308.07   11.60
   4   5  -3  295.37   13.70
   4   5  -3  315.77   11.60
  -4  -5   3  302.67   13.40
  -4  -5   3  287.47   13.40
  -4  -5   3  296.17   13.60
  -4  -5   3  289.17   12.10
  -4  -5   3  298.77   13.10
   3   5  -3   46.40    5.10
   3   5  -3   49.99    2.30
   3   5  -3   50.69    2.20
   3   5  -3   45.10    3.70
   3   5  -3   45.10    8.70
   3   5  -3   47.60    4.10
   3   5  -3   47.10    2.30
   3   5  -3   50.79    2.30
  -3  -5   3   46.10    3.40
  -3  -5   3   47.40    3.70
  -3  -5   3   46.40    3.70
  -3  -5   3   46.20    3.80
  -3  -5   3   47.90    3.60
   2   5  -3  218.88   10.00
   2   5  -3  209.08    8.40
   2   5  -3  187.48   14.80
   2   5  -3  212.78    9.60
   2   5  -3  212.28    8.40
  -2  -5   3  202.08    9.70
  -2  -5   3  217.78    9.70
  -2  -5   3  222.68   10.00
   1   5  -3  101.49    5.60
   1   5  -3  100.79    5.50
   1   5  -3   95.69    9.40
   1   5  -3  102.49    4.40
  -1  -5   3  107.99    5.70
  -1  -5   3  103.89    5.40
   0   5  -3  397.66   17.10
   0   5  -3  408.16   16.20
   0   5  -3  424.16   17.50
   0   5  -3  363.16   20.70
   0  -5   3  453.15   15.80
   0  -5   3  416.26   16.90
   0  -5   3  418.36   17.10
  -1   5  -3   23.20    5.00
  -1   5  -3   22.40    2.40
  -1   5  -3   25.30    1.90
  -1   5  -3   23.00    2.90
   1  -5   3   23.00    2.40
   1  -5   3   22.00    1.90
   1  -5   3   24.70    1.80
   1  -5   3   23.50    2.00
   1  -5   3   24.50    2.70
  -2   5  -3  215.08    8.60
  -2   5  -3  204.88    9.30
  -2   5  -3  210.78   12.00
  -2   5  -3  201.18    8.70
  -2   5  -3  217.98    8.30
  -2   5  -3  208.18   10.20
   2  -5   3  197.48    9.20
   2  -5   3  200.98    9.00
   2  -5   3  207.28    8.80
   2  -5   3  200.48    8.70
  -3   5  -3   15.80    1.50
  -3   5  -3   12.40    1.80
  -3   5  -3   15.50    3.50
   3  -5   3   14.50    2.00
   3  -5   3   16.00    2.10
   3  -5   3   13.10    1.90
   3  -5   3   16.20    1.80
  -4   5  -3  127.09    5.70
  -4   5  -3  124.49    7.90
  -4   5  -3  126.19    6.60
   4  -5   3  128.59    6.30
   4  -5   3  130.69    6.30
   4  -5   3  124.39    6.40
  -5   5  -3    6.20    1.50
  -5   5  -3    5.00    1.60
  -5   5  -3    4.50    1.00
   5  -5   3    9.80    2.10
   5  -5   3    4.50    2.00
   5  -5   3    5.10    1.70
  -6   5  -3   31.10    2.50
  -6   5  -3   33.90    3.30
   6  -5   3   35.20    3.60
   6  -5   3   32.80    3.30
   6  -5   3   37.10    3.60
  -7   5  -3    3.60    1.60
  -7   5  -3    3.40    1.10
   7  -5   3    1.30    2.40
   7  -5   3    3.40    1.80
   7  -5   3    1.70    2.10
  -8   5  -3    2.50    1.80
  -8   5  -3   -0.40    1.00
   8  -5   3    1.00    1.80
   8  -5   3   -0.40    2.60
  -9   5  -3   11.80    2.10
   9  -5   3   11.00    2.70
   9  -5   3   16.20    3.60
   9   4  -3    1.50    3.30
  -9  -4   3    5.00    2.60
  -9  -4   3    0.00    1.70
   8   4  -3   15.70    3.80
  -8  -4   3   18.90    3.20
  -8  -4   3   21.70    2.30
  -8  -4   3   29.90    5.40
  -8  -4   3   24.40    4.10
   7   4  -3   11.40    2.70
   7   4  -3    8.00    2.90
  -7  -4   3    9.30    2.30
  -7  -4   3   14.00    3.30
  -7  -4   3   13.70    3.00
   6   4  -3   59.09    3.20
   6   4  -3   57.59    5.20
   6   4  -3   59.19    4.90
   6   4  -3   60.69    3.20
  -6  -4   3   57.39    4.70
  -6  -4   3   57.69    4.30
  -6  -4   3   66.29    4.10
  -6  -4   3   60.89    5.00
   5   4  -3   39.10    4.20
   5   4  -3   39.80    2.30
   5   4  -3   37.60    2.30
   5   4  -3   38.60    4.40
  -5  -4   3   40.00    3.70
  -5  -4   3   40.40    3.10
  -5  -4   3   40.80    2.20
  -5  -4   3   40.30    3.50
  -5  -4   3   38.30    3.30
   4   4  -3   47.50    4.90
   4   4  -3   50.39    9.40
   4   4  -3   47.20    4.40
   4   4  -3   46.80    2.40
   4   4  -3   46.90    2.40
  -4  -4   3   41.40    3.40
  -4  -4   3   47.40    3.50
  -4  -4   3   46.60    2.80
  -4  -4   3   46.00    3.60
  -4  -4   3   48.30    3.30
   3   4  -3   41.80    2.30
   3   4  -3   42.00    2.10
   3   4  -3   40.50    3.60
   3   4  -3   39.30    7.60
  -3  -4   3   39.00    3.00
  -3  -4   3   40.10    2.80
  -3  -4   3   40.30    3.20
  -3  -4   3   39.90    3.10
  -3  -4   3   39.50    3.30
   2   4  -3  120.09   10.10
   2   4  -3  132.99    5.40
   2   4  -3  125.39    6.50
   2   4  -3  139.29    5.30
   2   4  -3  127.69    6.10
  -2  -4   3  130.89    6.50
  -2  -4   3  133.49    6.50
  -2  -4   3  126.69    6.30
   1   4  -3  287.97   16.40
   1   4  -3  314.27   13.20
   1   4  -3  327.87   12.40
   1   4  -3  309.27   12.20
   1   4  -3  322.37   13.00
  -1  -4   3  297.77   13.10
  -1  -4   3  317.17   13.00
   0   4  -3  953.10   36.60
   0   4  -3  926.31   39.80
   0   4  -3  880.51   35.90
   0   4  -3  933.91   36.80
   0  -4   3 1000.50   35.70
   0  -4   3  887.61   36.40
   0  -4   3  951.40   36.40
   0  -4   3  934.81   36.60
  -1   4  -3  221.08   10.20
  -1   4  -3  219.38   12.00
  -1   4  -3  221.98    9.00
  -1   4  -3  204.88    9.60
  -1   4  -3  232.98    9.20
   1  -4   3  227.08   10.40
   1  -4   3  228.78    9.70
   1  -4   3  223.68    9.40
   1  -4   3  228.48    9.10
   1  -4   3  237.48    9.00
   1  -4   3  221.08    9.10
  -2   4  -3 1278.47   49.70
  -2   4  -3 1310.37   49.00
  -2   4  -3 1361.46   51.99
  -2   4  -3 1214.98   49.10
  -2   4  -3 1224.28   48.90
   2  -4   3 1269.87   49.20
   2  -4   3 1327.67   50.59
   2  -4   3 1299.57   49.10
   2  -4   3 1263.37   49.10
   2  -4   3 1218.28   49.50
  -3   4  -3    0.20    0.50
  -3   4  -3    0.30    1.00
  -3   4  -3    4.40    1.20
  -3   4  -3   -0.50    0.70
   3  -4   3    0.10    1.00
   3  -4   3    0.20    1.40
   3  -4   3    0.30    1.30
  -4   4  -3  333.67   13.50
  -4   4  -3  324.77   14.20
  -4   4  -3  350.46   15.70
   4  -4   3  343.67   13.90
   4  -4   3  321.57   14.10
   4  -4   3  345.27   14.00
  -5   4  -3   39.50    4.10
  -5   4  -3   41.70    3.90
  -5   4  -3   43.40    2.60
  -5   4  -3   38.90    3.10
   5  -4   3   40.90    3.40
   5  -4   3   44.00    2.40
   5  -4   3   42.00    3.50
   5  -4   3   38.80    3.20
  -6   4  -3    0.70    0.80
  -6   4  -3    1.40    1.80
  -6   4  -3   -0.40    0.80
  -6   4  -3    1.10    1.10
  -6   4  -3    0.00    1.90
   6  -4   3    1.10    1.80
   6  -4   3   -0.30    2.00
   6  -4   3    0.50    1.40
  -7   4  -3   48.70    5.30
  -7   4  -3   51.69    6.40
  -7   4  -3   50.09    3.40
  -7   4  -3   56.59    4.20
   7  -4   3   58.89    4.30
   7  -4   3   52.69    4.50
   7  -4   3   51.89    4.30
  -8   4  -3   11.80    1.90
  -8   4  -3   17.90    5.10
  -8   4  -3   16.40    2.80
   8  -4   3   17.60    3.40
   8  -4   3   12.70    2.60
  -9   4  -3   49.20    3.80
  -9   4  -3   56.89    5.00
  -9   4  -3   44.50    7.10
   9  -4   3   53.09    5.00
   9  -4   3   53.79    5.20
 -10   4  -3   16.20    2.50
  10  -4   3   25.60    3.80
  10  -4   3   31.60    4.40
 -10  -3   3   31.10    3.40
   9   3  -3   13.90    3.60
  -9  -3   3   14.90    2.90
  -9  -3   3   26.30    5.50
  -9  -3   3   15.20    2.00
   8   3  -3   37.20    4.90
   8   3  -3   45.50    3.50
  -8  -3   3   41.80    4.40
  -8  -3   3   41.20    3.90
  -8  -3   3   50.79    5.60
  -8  -3   3   43.70    3.00
   7   3  -3    5.00    1.60
   7   3  -3    5.20    1.50
   7   3  -3    8.40    2.10
   7   3  -3    6.20    2.80
  -7  -3   3    7.90    2.00
  -7  -3   3    6.00    1.30
  -7  -3   3    8.20    2.40
  -7  -3   3    6.00    2.50
   6   3  -3   -0.20    1.10
   6   3  -3   -0.20    1.20
   6   3  -3    1.00    1.80
   6   3  -3   -0.70    2.00
  -6  -3   3    2.20    1.00
  -6  -3   3    0.00    1.10
  -6  -3   3    1.50    1.50
  -6  -3   3    0.00    1.40
   5   3  -3   27.30    2.10
   5   3  -3   22.10    3.10
   5   3  -3   27.40    3.50
   5   3  -3   20.10    5.30
   5   3  -3   23.60    2.00
  -5  -3   3   22.30    2.50
  -5  -3   3   24.00    2.20
  -5  -3   3   23.90    2.70
  -5  -3   3   20.10    2.70
   4   3  -3  144.99    7.60
   4   3  -3  146.59    6.00
   4   3  -3  123.39   11.30
   4   3  -3  144.69    6.00
   4   3  -3  140.59    7.40
  -4  -3   3  148.09    6.50
  -4  -3   3  140.69    6.60
  -4  -3   3  146.79    7.00
  -4  -3   3  145.79    7.20
  -4  -3   3  141.79    6.20
  -4  -3   3  141.39    7.20
   3   3  -3    3.90    0.80
   3   3  -3    3.40    0.80
   3   3  -3    3.30    2.80
   3   3  -3    5.30    1.70
  -3  -3   3    3.30    1.40
  -3  -3   3    5.00    1.00
  -3  -3   3    3.10    1.20
  -3  -3   3    3.30    1.20
  -3  -3   3    4.80    1.40
  -3  -3   3    4.90    1.20
   2   3  -3    0.30    0.50
   2   3  -3    1.40    2.00
   2   3  -3    0.20    1.10
   2   3  -3    0.50    0.70
  -2  -3   3   -0.80    0.90
  -2  -3   3    0.70    1.20
  -2  -3   3    1.90    1.10
  -2  -3   3   -0.20    0.80
  -2  -3   3   -0.50    0.60
   1   3  -3  323.87   11.80
   1   3  -3  292.67   12.40
   1   3  -3  300.27   12.20
   1   3  -3  292.17   15.10
  -1  -3   3  288.07   12.30
  -1  -3   3  301.47   12.40
   0   3  -3  171.08    7.10
   0   3  -3  176.68    9.70
   0   3  -3  168.38    7.60
   0   3  -3  177.68    7.60
   0  -3   3  170.08    7.80
   0  -3   3  183.88    6.90
   0  -3   3  180.38    7.00
   0  -3   3  166.18    7.60
   0  -3   3  175.48    7.40
  -1   3  -3  149.79    8.10
  -1   3  -3  142.69    5.70
  -1   3  -3  131.19    6.30
  -1   3  -3  157.58    6.20
  -1   3  -3  140.09    6.00
   1  -3   3  139.29    6.00
   1  -3   3  140.49    6.10
   1  -3   3  142.19    6.80
   1  -3   3  139.49    6.30
   1  -3   3  146.19    5.70
   1  -3   3  136.69    5.90
  -2   3  -3  741.13   32.40
  -2   3  -3  818.12   31.10
  -2   3  -3  855.61   33.50
  -2   3  -3  811.42   31.50
  -2   3  -3  803.52   31.50
  -2   3  -3  811.92   31.80
   2  -3   3  834.22   31.50
   2  -3   3  799.32   31.40
   2  -3   3  822.82   31.70
   2  -3   3  830.92   32.50
  -3   3  -3    1.50    1.00
  -3   3  -3    3.00    0.50
  -3   3  -3    3.40    1.50
  -3   3  -3    2.90    0.90
  -3   3  -3    2.40    1.00
  -3   3  -3    2.20    1.20
  -3   3  -3    1.50    0.90
   3  -3   3    2.50    0.40
   3  -3   3    5.90    1.50
   3  -3   3    3.20    0.70
   3  -3   3    3.40    1.20
   3  -3   3    3.20    1.00
   3  -3   3    3.10    1.40
  -4   3  -3  691.53   29.80
  -4   3  -3  657.93   29.30
  -4   3  -3  685.43   28.20
  -4   3  -3  702.43   27.60
  -4   3  -3  774.82   29.70
   4  -3   3  723.03   27.90
   4  -3   3  711.43   27.90
   4  -3   3  675.23   28.10
   4  -3   3  749.73   27.90
   4  -3   3  722.63   27.20
  -5   3  -3   94.89    5.10
  -5   3  -3   86.19    6.00
  -5   3  -3   93.89    4.50
  -5   3  -3   89.89    6.50
  -5   3  -3  103.69    6.20
   5  -3   3   99.89    5.00
   5  -3   3   93.19    5.30
   5  -3   3   90.79    5.20
   5  -3   3   94.69    3.90
   5  -3   3   96.49    5.20
  -6   3  -3   28.00    3.60
  -6   3  -3   35.20    2.40
  -6   3  -3   32.50    4.30
  -6   3  -3   34.50    3.60
  -6   3  -3   32.80    2.80
   6  -3   3   28.90    3.20
   6  -3   3   37.30    3.40
   6  -3   3   37.00    3.30
   6  -3   3   40.20    3.20
  -7   3  -3   47.40    3.20
  -7   3  -3   44.70    4.80
  -7   3  -3   52.99    4.70
  -7   3  -3   42.40    5.60
  -7   3  -3   47.20    3.80
   7  -3   3   53.19    4.40
   7  -3   3   55.29    4.50
   7  -3   3   51.39    4.00
   7  -3   3   53.99    4.00
  -8   3  -3   18.70    2.20
  -8   3  -3   18.30    2.80
  -8   3  -3   22.60    5.60
   8  -3   3   22.80    3.50
   8  -3   3   24.70    3.20
   8  -3   3   16.00    2.80
  -9   3  -3   44.20    3.70
  -9   3  -3   48.60    4.50
  -9   3  -3   49.30    7.80
   9  -3   3   52.49    4.80
   9  -3   3   56.19    5.00
 -10   3  -3    0.40    1.10
  10  -3   3    0.00    2.00
  10  -3   3   -1.20    2.90
  10   2  -3  102.29    8.50
 -10  -2   3  119.39    7.10
   9   2  -3    1.00    2.10
   9   2  -3   -1.00    2.80
  -9  -2   3    3.30    3.30
  -9  -2   3   -0.60    1.40
  -9  -2   3    1.40    0.90
   8   2  -3   -1.10    2.50
   8   2  -3    1.70    1.60
   8   2  -3    1.30    1.80
  -8  -2   3    1.10    2.30
  -8  -2   3   -0.60    1.30
  -8  -2   3    0.00    0.90
   7   2  -3  138.19    6.50
   7   2  -3  135.49    7.90
   7   2  -3  135.09    6.40
  -7  -2   3  145.99    7.30
  -7  -2   3  140.29    7.30
  -7  -2   3  136.39    8.60
  -7  -2   3  125.99    7.60
  -7  -2   3  130.09    6.10
   6   2  -3   98.39    6.40
   6   2  -3  110.29    5.50
   6   2  -3  100.89    5.60
   6   2  -3  105.19    5.10
   6   2  -3  108.29    5.10
  -6  -2   3  103.19    6.20
  -6  -2   3  103.99    4.90
  -6  -2   3  104.59    6.60
  -6  -2   3  113.19    5.70
  -6  -2   3  110.99    5.80
   5   2  -3   24.20    2.20
   5   2  -3   21.90    2.30
   5   2  -3   26.20    2.20
   5   2  -3   23.10    2.80
   5   2  -3   21.90    2.90
   5   2  -3   15.50    4.30
  -5  -2   3   25.30    1.80
  -5  -2   3   23.40    2.60
  -5  -2   3   21.80    2.50
  -5  -2   3   26.80    2.30
  -5  -2   3   26.70    2.10
   4   2  -3  443.76   16.80
   4   2  -3  425.16   17.90
   4   2  -3  421.86   17.60
   4   2  -3  438.86   16.80
   4   2  -3  371.86   21.10
  -4  -2   3  433.76   17.00
  -4  -2   3  419.06   17.80
  -4  -2   3  438.26   17.90
  -4  -2   3  448.56   17.10
  -4  -2   3  422.86   17.50
  -4  -2   3  424.96   17.00
   3   2  -3    5.40    0.80
   3   2  -3    6.10    1.40
   3   2  -3    4.80    0.90
   3   2  -3    5.40    2.50
  -3  -2   3    5.50    0.90
  -3  -2   3    4.30    1.10
  -3  -2   3    4.80    1.10
  -3  -2   3    5.40    0.80
  -3  -2   3    6.40    1.40
  -3  -2   3    7.80    1.30
   2   2  -3   60.19    3.40
   2   2  -3   59.39    2.80
   2   2  -3   54.79    5.20
  -2  -2   3   54.09    3.10
  -2  -2   3   55.09    2.70
  -2  -2   3   58.19    2.50
  -2  -2   3   58.89    2.90
  -2  -2   3   52.99    3.10
  -2  -2   3   54.59    3.10
   1   2  -3    6.20    0.80
   1   2  -3    4.90    1.50
   1   2  -3    4.80    1.00
   1   2  -3    7.00    1.00
   1   2  -3    5.90    0.80
   1   2  -3    5.30    1.10
  -1  -2   3    7.20    0.90
  -1  -2   3    6.20    1.10
  -1  -2   3    6.20    1.00
  -1  -2   3    7.80    1.50
  -1  -2   3    6.90    0.90
   0   2  -3   43.20    2.20
   0   2  -3   46.60    2.40
   0   2  -3   48.60    2.30
   0   2  -3   50.09    3.80
   0   2  -3   46.40    2.50
   0   2  -3   48.30    2.50
   0  -2   3   45.90    2.40
   0  -2   3   48.70    1.90
   0  -2   3   46.80    2.30
   0  -2   3   43.80    2.60
   0  -2   3   45.10    2.50
   0  -2   3   46.40    2.30
  -1   2  -3   46.40    2.30
  -1   2  -3   37.90    2.20
  -1   2  -3   37.70    2.50
  -1   2  -3   39.90    2.30
  -1   2  -3   38.40    2.50
  -1   2  -3   42.30    1.70
  -1   2  -3   46.80    2.40
  -1   2  -3   40.90    3.30
   1  -2   3   40.70    2.50
   1  -2   3   41.70    2.10
   1  -2   3   42.80    2.40
   1  -2   3   40.30    2.40
   1  -2   3   43.40    2.50
   1  -2   3   43.00    2.00
  -2   2  -3  432.76   17.50
  -2   2  -3  387.76   16.70
  -2   2  -3  412.96   16.00
  -2   2  -3  391.76   16.10
  -2   2  -3  378.16   16.80
  -2   2  -3  377.46   16.20
  -2   2  -3  413.46   15.60
   2  -2   3  400.16   15.90
   2  -2   3  427.56   16.60
   2  -2   3  390.36   16.10
   2  -2   3  443.26   16.20
  -3   2  -3   53.99    3.80
  -3   2  -3   51.79    3.00
  -3   2  -3   51.89    2.90
  -3   2  -3   54.29    3.60
  -3   2  -3   59.29    4.10
   3  -2   3   55.79    3.40
   3  -2   3   57.99    3.20
   3  -2   3   57.39    2.30
   3  -2   3   56.99    3.20
   3  -2   3   55.39    3.20
   3  -2   3   57.59    2.70
   3  -2   3   53.99    3.10
  -4   2  -3  191.18    9.50
  -4   2  -3  188.58    9.80
  -4   2  -3  179.88    8.20
  -4   2  -3  188.58    8.50
   4  -2   3  199.88    7.50
   4  -2   3  198.78    8.50
   4  -2   3  197.28    8.90
   4  -2   3  205.08    8.50
   4  -2   3  202.98    9.20
   4  -2   3  193.78    8.60
  -5   2  -3   55.79    4.30
  -5   2  -3   53.69    4.70
  -5   2  -3   55.39    3.40
   5  -2   3   63.99    3.80
   5  -2   3   51.79    4.00
   5  -2   3   54.49    3.70
   5  -2   3   57.29    3.60
  -6   2  -3    0.00    0.80
  -6   2  -3    1.20    1.60
  -6   2  -3    0.00    1.80
   6  -2   3   -0.80    1.70
   6  -2   3   -0.30    1.40
   6  -2   3   -0.20    1.30
   6  -2   3    0.20    1.80
  -7   2  -3    6.80    2.90
  -7   2  -3    5.60    2.20
  -7   2  -3    4.30    1.40
   7  -2   3    5.50    2.00
   7  -2   3    6.00    2.00
   7  -2   3    7.10    2.30
   7  -2   3    6.50    2.20
  -8   2  -3   29.20    3.20
  -8   2  -3   39.60    4.00
  -8   2  -3   30.60    6.00
   8  -2   3   32.00    3.40
   8  -2   3   31.90    4.20
   8  -2   3   26.70    3.50
   8  -2   3   27.50    3.50
  -9   2  -3  152.08    8.40
  -9   2  -3  139.59    7.50
  -9   2  -3  141.09   11.40
   9  -2   3  165.68    9.00
   9  -2   3  161.68    8.20
 -10   2  -3    4.40    1.50
 -10   2  -3    7.50    4.60
  10  -2   3   10.60    3.20
  10  -2   3    2.00    2.10
  10   1  -3   48.50    6.20
  10   1  -3   44.90    4.40
 -10  -1   3   49.30    4.30
 -10  -1   3   69.49    6.80
   9   1  -3    0.40    2.50
   9   1  -3    1.10    2.30
   9   1  -3    1.90    2.00
  -9  -1   3    0.00    1.20
  -9  -1   3    2.90    2.90
  -9  -1   3    0.90    0.90
   8   1  -3    4.80    2.70
   8   1  -3    6.60    2.00
   8   1  -3    2.80    2.00
  -8  -1   3    4.30    1.60
  -8  -1   3   13.00    3.50
   7   1  -3   10.40    2.60
   7   1  -3   10.00    1.90
   7   1  -3   10.10    2.10
   6   1  -3  101.29    5.30
   6   1  -3  102.99    5.00
   6   1  -3  106.59    4.50
   6   1  -3   97.89    6.10
   6   1  -3  101.39    5.00
  -6  -1   3   99.99    5.50
  -6  -1   3   97.49    4.60
  -6  -1   3   98.49    5.30
  -6  -1   3   97.99    6.50
   5   1  -3   56.39    3.10
   5   1  -3   56.29    4.10
   5   1  -3   54.29    3.20
   5   1  -3   53.09    7.20
   5   1  -3   54.49    3.10
   5   1  -3   54.69    3.10
  -5  -1   3   52.39    3.70
  -5  -1   3   52.99    3.30
  -5  -1   3   52.69    4.00
  -5  -1   3   58.89    2.90
  -5  -1   3   55.79    2.90
  -5  -1   3   52.19    3.30
   4   1  -3    6.80    1.50
   4   1  -3    5.70    1.80
   4   1  -3    4.40    2.50
   4   1  -3    3.90    1.20
   4   1  -3    5.90    1.10
   4   1  -3    5.10    1.20
  -4  -1   3    4.60    1.40
  -4  -1   3    6.00    1.20
  -4  -1   3    5.40    1.00
  -4  -1   3    4.20    1.10
  -4  -1   3    5.80    1.50
  -4  -1   3    3.70    0.80
  -4  -1   3    6.90    1.10
   3   1  -3   23.40    2.20
   3   1  -3   23.30    1.70
   3   1  -3   23.50    1.50
   3   1  -3   22.70    4.10
   3   1  -3   21.40    1.60
  -3  -1   3   24.40    1.90
  -3  -1   3   22.70    1.40
  -3  -1   3   21.60    1.90
  -3  -1   3   22.60    1.40
  -3  -1   3   24.70    1.80
  -3  -1   3   22.80    1.80
   2   1  -3  172.88    6.90
   2   1  -3  165.18    7.20
   2   1  -3  155.98    6.70
   2   1  -3  170.18    8.90
   2   1  -3  174.88    7.20
   2   1  -3  178.48    7.20
  -2  -1   3  155.28    6.90
  -2  -1   3  161.78    7.00
  -2  -1   3  159.38    7.10
  -2  -1   3  166.58    7.10
  -2  -1   3  159.68    6.50
   1   1  -3 9510.15  352.06
   1   1  -3 9467.05  350.86
   1   1  -3 8989.50  360.96
   1   1  -3 8475.95  351.46
   1   1  -3 9420.56  353.36
  -1  -1   3 8353.36  351.86
  -1  -1   3 9999.00  361.56
  -1  -1   3 9252.77  351.46
   0   1  -3 1204.08   46.70
   0   1  -3 1328.67   48.30
   0   1  -3 1147.49   49.30
   0   1  -3 1243.18   47.20
   0   1  -3 1225.58   46.30
   0   1  -3 1254.57   47.50
   0   1  -3 1099.29   46.70
   0   1  -3 1152.78   46.60
   0  -1   3 1351.66   50.79
   0  -1   3 1204.18   46.10
   0  -1   3 1198.78   47.00
   0  -1   3 1209.08   46.30
   0  -1   3 1148.39   46.60
   0  -1   3 1178.58   46.70
   0  -1   3 1248.18   46.90
   0  -1   3 1208.78   47.40
   0  -1   3 1160.58   46.20
  -1   1  -3  979.50   36.60
  -1   1  -3  932.91   36.80
  -1   1  -3  868.71   36.40
  -1   1  -3  944.11   36.40
  -1   1  -3  937.31   36.50
  -1   1  -3  915.51   36.20
  -1   1  -3  883.01   36.10
  -1   1  -3  999.60   37.60
   1  -1   3  958.70   36.20
   1  -1   3  930.41   36.30
   1  -1   3  935.41   36.40
   1  -1   3  985.00   37.40
   1  -1   3  960.90   36.70
   1  -1   3  964.40   37.40
  -2   1  -3  278.47   11.00
  -2   1  -3  260.87   10.90
  -2   1  -3  278.57   11.60
  -2   1  -3  244.48   11.50
  -2   1  -3  273.27   11.10
  -2   1  -3  279.57   11.60
   2  -1   3  278.87   10.90
   2  -1   3  255.67   11.30
   2  -1   3  269.07   11.00
   2  -1   3  297.27   10.70
   2  -1   3  293.17   11.50
   2  -1   3  281.57   11.40
  -3   1  -3  192.98    8.10
  -3   1  -3  190.28    8.20
  -3   1  -3  190.88    8.80
  -3   1  -3  190.28    9.00
   3  -1   3  205.78    7.90
   3  -1   3  196.58    8.10
   3  -1   3  188.28    8.80
   3  -1   3  198.48    8.30
   3  -1   3  201.28    8.10
   3  -1   3  199.88    8.70
  -4   1  -3  120.29    6.70
  -4   1  -3  118.39    5.60
  -4   1  -3  124.69    6.50
  -4   1  -3  115.89    5.40
   4  -1   3  128.99    5.70
   4  -1   3  124.39    5.70
   4  -1   3  122.29    5.80
   4  -1   3  119.09    6.50
   4  -1   3  129.29    6.30
  -5   1  -3  505.55   21.40
  -5   1  -3  497.95   21.90
  -5   1  -3  474.35   20.10
   5  -1   3  499.75   20.40
   5  -1   3  492.55   21.30
   5  -1   3  505.55   19.90
   5  -1   3  523.05   20.00
  -6   1  -3  906.31   39.00
  -6   1  -3  930.11   38.30
  -6   1  -3  890.71   36.70
   6  -1   3  986.10   36.60
   6  -1   3  936.81   36.50
   6  -1   3  883.11   38.10
   6  -1   3  989.80   37.20
  -7   1  -3   99.79    7.60
  -7   1  -3  102.29    7.00
  -7   1  -3   96.29    5.50
   7  -1   3   97.09    7.00
   7  -1   3  103.39    6.10
   7  -1   3   99.49    5.60
   7  -1   3  112.69    5.80
  -8   1  -3    0.60    1.10
  -8   1  -3    0.70    2.40
   8  -1   3    0.40    1.80
   8  -1   3   -1.70    1.90
   8  -1   3    0.50    2.30
   8  -1   3   -0.30    2.30
  -9   1  -3   28.60    6.10
  -9   1  -3   23.70    3.20
   9  -1   3   17.60    3.30
   9  -1   3   22.30    3.40
   9  -1   3   18.60    4.10
 -10   1  -3   29.60    3.70
  10  -1   3   29.10    4.10
  10  -1   3   28.30    3.80
  10   0  -3   -6.40    3.90
  10   0  -3    1.80    2.70
  10   0  -3    0.20    2.80
 -10   0   3    4.20    1.70
   9   0  -3   38.60    3.70
   9   0  -3   38.00    3.90
   9   0  -3   35.90    4.70
  -9   0   3   35.40    3.30
  -9   0   3   35.60    3.60
  -9   0   3   35.70    6.30
  -9   0   3   34.10    2.40
   8   0  -3   95.79    5.50
   8   0  -3   97.09    6.80
   8   0  -3   96.99    5.50
  -8   0   3  102.99    4.70
  -8   0   3   91.69    7.70
  -8   0   3   99.49    6.30
  -8   0   3  100.79    5.70
   7   0  -3 1159.08   47.10
   7   0  -3 1174.68   45.90
   7   0  -3 1222.78   45.90
  -7   0   3 1212.98   49.00
  -7   0   3 1136.79   46.40
  -7   0   3 1182.88   45.50
  -7   0   3 1169.78   47.20
   6   0  -3   88.19    4.70
   6   0  -3   91.29    4.80
   6   0  -3   87.79    5.60
   6   0  -3   87.89    4.60
  -6   0   3   89.69    4.80
  -6   0   3   87.59    6.10
  -6   0   3   86.79    5.20
  -6   0   3   92.49    4.20
   5   0  -3  126.89    6.50
   5   0  -3  124.89    5.70
   5   0  -3  129.49    5.70
   5   0  -3  119.09    5.70
  -5   0   3  116.59    5.20
  -5   0   3  122.29    6.10
  -5   0   3  124.89    5.80
  -5   0   3  122.39    5.80
  -5   0   3  114.79    6.90
   4   0  -3  242.28   10.60
   4   0  -3  221.48   12.50
   4   0  -3  244.28   10.00
   4   0  -3  248.68   10.10
   4   0  -3  256.77    9.50
   4   0  -3  233.88    9.90
  -4   0   3  234.58   10.30
  -4   0   3  245.78    9.80
  -4   0   3  241.58   11.20
  -4   0   3  252.87    9.90
  -4   0   3  244.78   10.10
   3   0  -3   75.59    3.50
   3   0  -3   63.19    3.70
   3   0  -3   59.69    3.20
   3   0  -3   57.49    4.90
   3   0  -3   57.39    3.20
   3   0  -3   71.19    3.10
  -3   0   3   73.79    3.40
  -3   0   3   72.49    3.30
  -3   0   3   59.79    3.40
  -3   0   3   68.29    3.90
  -3   0   3   63.19    3.20
  -3   0   3   73.09    3.10
  -3   0   3   80.49    4.70
   2   0  -3    6.20    1.10
   2   0  -3    9.30    1.70
   2   0  -3    5.90    0.80
   2   0  -3    8.40    0.90
   2   0  -3    9.20    1.00
   2   0  -3    6.40    0.60
  -2   0   3    9.40    1.50
  -2   0   3    8.70    1.00
  -2   0   3    6.90    0.70
  -2   0   3    7.40    0.70
  -2   0   3    6.90    1.10
  -2   0   3    7.90    1.10
  -2   0   3    7.40    0.80
   1   0  -3 7109.39  269.57
   1   0  -3 6574.54  268.47
   1   0  -3 7060.89  268.77
   1   0  -3 7226.08  269.07
   1   0  -3 7039.60  267.67
   1   0  -3 6820.02  269.27
   1   0  -3 7111.99  268.57
  -1   0   3 6528.45  267.37
  -1   0   3 7853.01  276.27
  -1   0   3 7106.29  269.17
  -1   0   3 6796.12  270.07
   0   0  -3 8205.98  303.57
   0   0  -3 8107.19  303.57
   0   0  -3 7673.73  304.77
   0   0  -3 8420.66  302.47
   0   0  -3 8007.70  303.67
   0   0   3 7853.21  304.17
   0   0   3 7128.49  302.57
  -1   0  -3  195.18    8.30
  -1   0  -3  197.18    7.90
  -1   0  -3  194.38    7.90
  -1   0  -3  190.38    8.60
  -1   0  -3  209.48    7.70
  -1   0  -3  194.38    7.70
  -1   0  -3  192.18    8.20
  -1   0  -3  197.18    7.90
  -1   0  -3  199.58    8.30
  -1   0  -3  185.68    8.30
   1   0   3  193.18    8.30
   1   0   3  204.58    7.80
   1   0   3  204.48    8.50
   1   0   3  198.48    8.20
   1   0   3  198.48    8.30
   1   0   3  206.58    8.40
   1   0   3  199.68    7.90
   1   0   3  206.48    7.70
  -2   0  -3   46.90    2.90
  -2   0  -3   48.40    2.50
  -2   0  -3   47.30    2.80
  -2   0  -3   52.89    2.00
  -2   0  -3   49.50    2.20
  -2   0  -3   50.59    2.60
  -2   0  -3   47.70    2.30
   2   0   3   50.39    2.50
   2   0   3   52.19    2.90
   2   0   3   53.09    2.20
   2   0   3   46.30    3.00
   2   0   3   47.90    2.40
   2   0   3   46.60    3.00
   2   0   3   51.49    2.90
  -3   0  -3 1383.26   55.29
  -3   0  -3 1366.96   54.49
  -3   0  -3 1407.66   55.59
  -3   0  -3 1435.86   55.99
  -3   0  -3 1349.47   55.29
   3   0   3 1449.55   54.49
   3   0   3 1336.37   55.59
   3   0   3 1505.75   55.39
   3   0   3 1520.15   55.69
   3   0   3 1489.95   55.29
  -4   0  -3    6.70    1.20
  -4   0  -3    8.80    1.80
  -4   0  -3    5.20    0.90
  -4   0  -3    7.70    1.20
  -4   0  -3    5.90    1.70
   4   0   3    6.80    1.40
   4   0   3    8.20    1.50
   4   0   3    5.10    1.30
   4   0   3    5.20    2.00
   4   0   3    7.90    1.70
  -5   0  -3  348.57   15.60
  -5   0  -3  359.86   14.60
  -5   0  -3  342.97   16.10
  -5   0  -3  329.97   14.10
  -5   0  -3  359.16   14.60
   5   0   3  364.46   14.40
   5   0   3  332.57   16.10
   5   0   3  370.46   14.40
   5   0   3  374.16   14.90
  -6   0  -3   17.00    1.90
  -6   0  -3   17.40    2.60
  -6   0  -3   19.60    3.50
   6   0   3   18.20    2.10
   6   0   3   19.70    2.20
   6   0   3   14.10    2.30
   6   0   3   14.30    3.30
  -7   0  -3    6.00    2.00
  -7   0  -3    6.10    2.60
  -7   0  -3    4.00    1.30
   7   0   3    3.50    1.80
   7   0   3    3.10    1.80
   7   0   3    3.20    1.90
   7   0   3    2.70    2.70
  -8   0  -3   67.79    5.70
  -8   0  -3   68.19    7.00
  -8   0  -3   64.19    4.50
   8   0   3   70.09    5.20
   8   0   3   62.69    6.60
   8   0   3   66.79    4.60
   8   0   3   65.29    4.50
  -9   0  -3    6.20    1.90
  -9   0  -3   15.60    5.10
   9   0   3   12.20    2.80
   9   0   3    7.30    2.60
   9   0   3   13.10    4.20
   9   0   3    7.20    2.30
 -10   0  -3   10.60    2.60
 -10   0  -3   19.60    5.30
  10   0   3   10.00    3.90
  10   0   3   11.10    2.80
  10   0   3    8.90    2.80
  10  -1  -3    9.00    3.10
  10  -1  -3    4.80    2.80
 -10   1   3    5.10    2.00
 -10   1   3    6.00    3.80
   9  -1  -3   24.40    3.50
   9  -1  -3   18.00    3.60
  -9   1   3   20.90    2.90
  -9   1   3   24.10    2.80
  -9   1   3   23.30    2.00
  -9   1   3   22.40    5.40
   8  -1  -3   -1.20    1.80
   8  -1  -3   -1.30    1.80
   8  -1  -3   -1.80    1.90
  -8   1   3    1.70    2.60
  -8   1   3   -0.70    0.90
  -8   1   3    0.20    1.00
  -8   1   3    0.80    0.80
   7  -1  -3  165.78    7.70
   7  -1  -3  166.58    8.60
   7  -1  -3  163.08    7.70
  -7   1   3  157.68    8.70
  -7   1   3  165.28    7.70
  -7   1   3  164.08    7.00
  -7   1   3  154.88    9.90
  -7   1   3  158.18    7.70
   6  -1  -3  498.95   21.20
   6  -1  -3  522.25   20.50
   6  -1  -3  528.15   20.90
   6  -1  -3  517.75   20.50
  -6   1   3  483.35   22.70
  -6   1   3  517.45   20.60
  -6   1   3  473.45   21.40
  -6   1   3  527.75   20.70
  -6   1   3  520.85   20.10
   5  -1  -3   18.80    2.40
   5  -1  -3   22.70    1.90
   5  -1  -3   20.50    2.20
   5  -1  -3   18.40    2.20
  -5   1   3   20.50    1.80
  -5   1   3   21.60    1.50
  -5   1   3   18.80    2.30
  -5   1   3   15.70    2.60
  -5   1   3   18.80    1.70
   4  -1  -3 1050.49   40.40
   4  -1  -3 1033.40   40.40
   4  -1  -3 1036.90   40.80
   4  -1  -3 1013.10   40.90
   4  -1  -3  931.31   41.80
  -4   1   3 1032.30   40.50
  -4   1   3 1014.40   42.00
  -4   1   3 1087.39   40.50
  -4   1   3 1095.09   40.50
  -4   1   3 1017.20   40.20
  -4   1   3 1213.38   41.60
   3  -1  -3    0.20    0.80
   3  -1  -3    1.50    0.90
   3  -1  -3   -0.10    0.50
   3  -1  -3    0.50    0.80
   3  -1  -3   -0.30    0.50
   3  -1  -3    0.20    0.50
   3  -1  -3   -0.40    0.90
  -3   1   3    1.20    0.40
  -3   1   3    0.60    0.70
  -3   1   3    0.10    0.40
  -3   1   3   -0.10    0.40
  -3   1   3   -0.50    0.40
  -3   1   3   -1.20    0.70
   2  -1  -3    1.50    0.40
   2  -1  -3    1.60    0.70
   2  -1  -3    1.70    0.60
   2  -1  -3    1.50    0.80
   2  -1  -3    1.50    0.70
   2  -1  -3    1.60    0.80
   2  -1  -3    2.20    0.70
  -2   1   3    1.60    0.40
  -2   1   3    2.00    0.80
  -2   1   3    1.60    0.30
  -2   1   3    1.00    0.40
  -2   1   3    2.10    0.90
  -2   1   3    0.90    0.60
   1  -1  -3    8.40    0.80
   1  -1  -3    8.80    1.20
   1  -1  -3    9.10    0.90
   1  -1  -3    9.30    0.60
   1  -1  -3   10.80    1.40
   1  -1  -3    8.90    1.10
   1  -1  -3   10.20    1.20
   1  -1  -3    7.80    0.90
  -1   1   3    8.50    1.20
  -1   1   3    9.30    0.50
  -1   1   3    8.80    0.80
  -1   1   3    8.10    1.00
  -1   1   3    7.40    1.20
  -1   1   3    7.00    0.60
  -1   1   3   10.10    0.70
   0  -1  -3   30.40    2.10
   0  -1  -3   30.00    2.10
   0  -1  -3   27.30    2.00
   0  -1  -3   29.90    1.50
   0  -1  -3   30.80    2.30
   0  -1  -3   28.50    1.20
   0  -1  -3   27.70    2.10
   0  -1  -3   29.10    1.40
   0  -1  -3   27.80    1.10
   0   1   3   29.20    1.60
   0   1   3   29.80    2.10
   0   1   3   28.20    1.40
   0   1   3   27.70    1.80
   0   1   3   27.90    1.90
   0   1   3   27.10    2.00
   0   1   3   28.80    2.30
  -1  -1  -3  130.79    5.50
  -1  -1  -3  123.29    4.90
  -1  -1  -3  120.49    5.00
  -1  -1  -3  127.39    5.10
  -1  -1  -3  117.89    5.70
  -1  -1  -3  120.59    5.10
  -1  -1  -3  109.99    5.50
  -1  -1  -3  123.89    4.90
   1   1   3  133.19    4.90
   1   1   3  115.99    5.80
   1   1   3  118.19    5.70
   1   1   3  117.09    5.50
   1   1   3  123.79    5.30
   1   1   3  119.99    4.90
   1   1   3  121.79    4.90
   1   1   3  126.49    5.40
  -2  -1  -3   89.19    3.40
  -2  -1  -3   80.99    3.80
  -2  -1  -3   80.09    4.50
  -2  -1  -3   80.19    4.30
  -2  -1  -3   77.29    3.60
  -2  -1  -3   80.89    3.60
  -2  -1  -3   82.29    3.70
  -2  -1  -3   82.19    3.90
   2   1   3   88.09    4.50
   2   1   3   82.69    4.20
   2   1   3   82.09    4.20
   2   1   3   84.49    3.90
   2   1   3   78.29    4.70
   2   1   3   92.89    3.80
   2   1   3   84.79    3.80
  -3  -1  -3  409.36   16.00
  -3  -1  -3  389.26   16.40
  -3  -1  -3  394.56   16.70
  -3  -1  -3  396.46   15.80
  -3  -1  -3  427.26   15.20
  -3  -1  -3  400.56   15.70
  -3  -1  -3  383.36   15.50
   3   1   3  384.86   16.10
   3   1   3  400.56   15.80
   3   1   3  385.66   15.40
   3   1   3  408.36   15.60
   3   1   3  374.56   16.10
   3   1   3  356.06   16.90
   3   1   3  422.36   16.60
  -4  -1  -3   18.70    1.70
  -4  -1  -3   18.50    2.40
  -4  -1  -3   19.20    1.50
  -4  -1  -3   18.00    2.30
  -4  -1  -3   18.40    1.70
   4   1   3   21.30    1.80
   4   1   3   20.20    2.30
   4   1   3   19.00    1.80
   4   1   3   15.80    2.90
   4   1   3   21.70    2.40
   4   1   3   19.90    2.10
  -5  -1  -3   60.99    3.50
  -5  -1  -3   57.19    3.10
  -5  -1  -3   63.49    2.60
  -5  -1  -3   61.19    3.60
  -5  -1  -3   59.79    4.60
  -5  -1  -3   55.59    4.20
   5   1   3   66.69    3.30
   5   1   3   60.29    3.90
   5   1   3   65.69    5.40
   5   1   3   56.49    3.40
   5   1   3   66.09    4.00
  -6  -1  -3   44.00    3.90
  -6  -1  -3   47.70    4.50
  -6  -1  -3   45.30    3.20
  -6  -1  -3   42.00    3.00
  -6  -1  -3   47.70    2.00
   6   1   3   45.70    3.10
   6   1   3   38.10    4.80
   6   1   3   46.40    2.80
   6   1   3   49.60    3.80
  -7  -1  -3   21.10    4.10
  -7  -1  -3   18.50    2.20
  -7  -1  -3   19.40    2.40
  -7  -1  -3   25.80    3.30
   7   1   3   17.10    2.70
   7   1   3   18.30    4.10
   7   1   3   17.60    2.30
  -8  -1  -3  189.08   10.40
  -8  -1  -3  175.48   11.30
  -8  -1  -3  163.98    8.60
   8   1   3  179.78    8.20
   8   1   3  164.08   11.40
   8   1   3  171.68    9.10
  -9  -1  -3   96.79    8.70
  -9  -1  -3   91.59    6.00
   9   1   3   96.39    5.70
   9   1   3   95.49    9.00
   9   1   3   96.79    6.80
 -10  -1  -3   60.99    5.10
 -10  -1  -3   81.39    8.30
  10   1   3   58.49    7.90
  10  -2  -3    7.20    3.00
  10  -2  -3    5.40    3.30
 -10   2   3    4.80    1.80
   9  -2  -3   20.40    3.40
   9  -2  -3   18.50    3.30
  -9   2   3   28.10    2.70
  -9   2   3   22.90    2.90
  -9   2   3   28.10    3.10
   8  -2  -3    2.30    2.00
   8  -2  -3    1.50    2.20
   8  -2  -3    3.00    2.00
  -8   2   3    3.30    1.30
  -8   2   3    1.90    0.90
  -8   2   3    0.70    2.50
  -8   2   3    2.50    1.30
   7  -2  -3    0.50    2.00
   7  -2  -3    0.80    1.80
   7  -2  -3    0.60    1.90
  -7   2   3    2.40    1.10
  -7   2   3    3.00    2.50
  -7   2   3    1.20    0.80
  -7   2   3    1.50    1.10
   6  -2  -3    4.70    1.80
   6  -2  -3    4.00    1.90
   6  -2  -3    3.10    1.60
  -6   2   3    3.10    1.10
  -6   2   3    4.20    0.90
  -6   2   3    4.40    1.20
  -6   2   3    3.80    1.70
   5  -2  -3   76.99    4.50
   5  -2  -3   77.59    4.30
   5  -2  -3   76.19    4.30
   5  -2  -3   81.89    4.50
  -5   2   3   82.99    4.10
  -5   2   3   79.39    3.70
  -5   2   3   79.09    4.20
  -5   2   3   83.49    5.20
   4  -2  -3  309.77   13.10
   4  -2  -3  316.37   12.90
   4  -2  -3  316.97   13.50
   4  -2  -3  322.57   12.90
  -4   2   3  331.27   12.90
  -4   2   3  312.07   12.60
  -4   2   3  312.87   13.80
  -4   2   3  318.17   12.80
  -4   2   3  308.57   12.90
   3  -2  -3  367.26   16.00
   3  -2  -3  397.56   15.70
   3  -2  -3  374.26   15.30
   3  -2  -3  388.36   15.40
   3  -2  -3  379.86   15.50
   3  -2  -3  413.36   15.30
  -3   2   3  382.26   15.20
  -3   2   3  377.96   15.40
  -3   2   3  376.86   15.30
  -3   2   3  396.76   16.20
  -3   2   3  387.46   15.10
  -3   2   3  400.16   15.30
   2  -2  -3  139.79    6.10
   2  -2  -3  154.58    6.60
   2  -2  -3  140.19    6.00
   2  -2  -3  146.29    6.40
   2  -2  -3  158.68    6.90
   2  -2  -3  149.69    5.90
   2  -2  -3  139.59    6.10
  -2   2   3  143.89    6.10
  -2   2   3  135.29    6.10
  -2   2   3  137.99    6.20
  -2   2   3  140.49    5.90
  -2   2   3  148.09    6.90
   1  -2  -3  153.18    6.30
   1  -2  -3  158.98    6.10
   1  -2  -3  154.08    6.30
   1  -2  -3  161.58    6.90
   1  -2  -3  150.68    6.10
  -1   2   3  161.08    6.90
  -1   2   3  146.69    6.70
  -1   2   3  154.98    6.30
  -1   2   3  153.58    7.20
   0  -2  -3 1231.08   46.10
   0  -2  -3 1225.48   46.00
   0  -2  -3 1204.48   46.10
   0   2   3 1208.88   46.80
   0   2   3 1237.58   46.60
   0   2   3 1162.68   46.20
   0   2   3 1158.28   46.40
   0   2   3 1212.58   46.10
   0   2   3 1210.48   46.00
   0   2   3 1144.49   46.00
  -1  -2  -3    3.70    1.30
  -1  -2  -3    1.80    0.90
  -1  -2  -3    1.90    1.20
  -1  -2  -3    2.50    0.50
  -1  -2  -3    2.30    0.80
   1   2   3    1.40    0.80
   1   2   3    2.10    1.20
   1   2   3    2.00    1.10
   1   2   3    1.60    0.70
   1   2   3    3.60    0.40
   1   2   3    2.20    0.50
   1   2   3    2.00    1.20
  -2  -2  -3  677.33   26.30
  -2  -2  -3  674.33   26.00
  -2  -2  -3  675.53   27.20
  -2  -2  -3  731.03   26.50
  -2  -2  -3  659.33   26.60
  -2  -2  -3  640.64   27.40
  -2  -2  -3  702.03   26.50
   2   2   3  692.53   26.30
   2   2   3  676.03   27.80
   2   2   3  661.03   26.60
   2   2   3  673.63   27.10
   2   2   3  686.63   26.20
  -3  -2  -3    0.90    0.90
  -3  -2  -3    1.40    0.60
  -3  -2  -3    1.60    0.70
  -3  -2  -3    2.30    0.70
  -3  -2  -3    0.80    1.10
  -3  -2  -3    0.90    1.40
  -3  -2  -3    0.40    1.00
   3   2   3    1.50    0.90
   3   2   3    1.20    1.70
   3   2   3    1.90    1.30
   3   2   3    1.80    0.60
   3   2   3    1.30    1.40
  -4  -2  -3   35.20    3.50
  -4  -2  -3   34.80    2.70
  -4  -2  -3   34.30    2.10
  -4  -2  -3   36.80    3.30
  -4  -2  -3   38.40    2.40
   4   2   3   35.50    3.30
   4   2   3   33.70    4.10
   4   2   3   38.50    1.80
   4   2   3   35.40    3.10
   4   2   3   42.00    2.90
  -5  -2  -3    0.10    0.70
  -5  -2  -3    0.60    1.30
  -5  -2  -3   -0.30    1.30
  -5  -2  -3    0.30    1.00
  -5  -2  -3    0.80    0.80
   5   2   3   -0.70    1.70
   5   2   3   -0.50    0.90
   5   2   3    0.50    1.40
   5   2   3    1.10    2.30
   5   2   3    1.00    1.40
  -6  -2  -3  154.48    8.40
  -6  -2  -3  153.38    9.10
  -6  -2  -3  145.59    6.50
  -6  -2  -3  150.68    7.30
  -6  -2  -3  148.49    7.60
   6   2   3  144.09    9.60
   6   2   3  162.98    7.80
   6   2   3  138.09    7.90
   6   2   3  159.78    6.70
   6   2   3  156.28    7.70
  -7  -2  -3   18.00    2.40
  -7  -2  -3   23.80    3.30
  -7  -2  -3   21.60    4.30
  -7  -2  -3   15.70    2.20
   7   2   3   19.40    4.40
   7   2   3   19.20    2.80
   7   2   3   15.30    2.70
   7   2   3   20.60    2.10
  -8  -2  -3  236.28   11.60
  -8  -2  -3  239.78   11.20
  -8  -2  -3  234.98   13.90
  -8  -2  -3  258.37   12.70
   8   2   3  235.98   11.70
   8   2   3  235.68   10.20
   8   2   3  212.78   12.10
   8   2   3  222.08   14.10
  -9  -2  -3   20.40    3.00
  -9  -2  -3   33.40    6.40
   9   2   3   18.20    4.30
   9   2   3   25.30    5.60
  10   2   3   -1.30    3.40
  10  -3  -3    8.00    2.80
  10  -3  -3    7.70    3.30
 -10   3   3    8.30    2.10
   9  -3  -3    8.20    2.70
   9  -3  -3    7.30    2.90
  -9   3   3   11.00    2.80
  -9   3   3   10.50    2.20
   8  -3  -3    3.90    2.60
   8  -3  -3    6.80    2.40
   8  -3  -3    4.30    2.20
  -8   3   3    4.50    1.20
  -8   3   3    3.80    1.40
  -8   3   3    5.70    1.70
  -8   3   3    7.80    2.50
   7  -3  -3   25.80    3.00
   7  -3  -3   24.10    3.10
   7  -3  -3   23.30    3.00
  -7   3   3   23.00    3.60
  -7   3   3   27.30    2.00
  -7   3   3   27.60    2.50
  -7   3   3   25.90    2.70
   6  -3  -3   48.70    3.80
   6  -3  -3   52.49    3.70
   6  -3  -3   51.79    3.70
  -6   3   3   53.59    3.50
  -6   3   3   51.59    2.80
  -6   3   3   47.30    4.80
  -6   3   3   57.49    3.40
   5  -3  -3  118.49    6.00
   5  -3  -3  118.99    6.10
   5  -3  -3  120.09    6.00
  -5   3   3  120.59    7.10
  -5   3   3  118.09    5.40
  -5   3   3  121.19    5.90
  -5   3   3  127.59    5.80
   4  -3  -3    4.10    1.40
   4  -3  -3    4.70    1.60
   4  -3  -3    5.20    1.60
   4  -3  -3    4.90    1.20
  -4   3   3    5.30    0.90
  -4   3   3    4.00    1.00
  -4   3   3    4.10    1.90
  -4   3   3    4.90    0.80
  -4   3   3    5.00    0.90
   3  -3  -3  335.47   13.50
   3  -3  -3  318.37   14.50
   3  -3  -3  330.57   13.50
   3  -3  -3  347.87   13.40
   3  -3  -3  323.97   13.50
  -3   3   3  340.07   13.50
  -3   3   3  326.47   13.50
  -3   3   3  344.97   14.70
  -3   3   3  335.67   13.30
  -3   3   3  350.86   13.40
  -3   3   3  328.87   13.60
   2  -3  -3 1074.49   41.20
   2  -3  -3 1124.09   41.10
   2  -3  -3 1064.39   41.20
   2  -3  -3 1050.99   41.20
  -2   3   3 1078.49   42.50
  -2   3   3 1127.19   41.30
  -2   3   3 1043.40   41.20
  -2   3   3 1054.59   41.50
  -2   3   3 1039.90   41.60
   1  -3  -3   12.90    1.20
   1  -3  -3   15.30    1.30
   1  -3  -3   14.90    1.00
   1  -3  -3   13.50    0.90
  -1   3   3   12.80    1.10
  -1   3   3   13.30    0.90
  -1   3   3   13.40    1.90
  -1   3   3   14.50    1.50
  -1   3   3   15.80    1.40
  -1   3   3   13.90    0.90
  -1   3   3   11.70    1.90
  -1   3   3   13.30    1.20
   0  -3  -3  386.56   15.40
   0  -3  -3  399.26   15.40
   0  -3  -3  411.06   15.40
   0  -3  -3  393.96   15.40
   0   3   3  409.36   16.40
   0   3   3  393.66   15.70
   0   3   3  379.26   16.40
  -1  -3  -3  786.02   29.60
  -1  -3  -3  721.73   30.60
  -1  -3  -3  789.32   29.60
  -1  -3  -3  776.82   29.30
  -1  -3  -3  759.42   30.00
   1   3   3  808.52   29.40
   1   3   3  721.13   30.80
   1   3   3  766.52   29.70
   1   3   3  776.02   30.60
   1   3   3  752.32   30.80
  -2  -3  -3   61.89    4.40
  -2  -3  -3   67.49    3.40
  -2  -3  -3   59.69    4.10
  -2  -3  -3   58.09    3.50
  -2  -3  -3   63.49    3.30
  -2  -3  -3   61.29    2.70
  -2  -3  -3   58.69    3.10
   2   3   3   61.19    3.30
   2   3   3   55.19    4.00
   2   3   3   59.79    4.40
   2   3   3   64.09    3.10
  -3  -3  -3  198.48   10.00
  -3  -3  -3  225.28    8.70
  -3  -3  -3  201.38    8.00
  -3  -3  -3  199.78    8.00
  -3  -3  -3  202.18    9.70
  -3  -3  -3  201.18    9.10
  -3  -3  -3  195.88    9.00
   3   3   3  202.18    8.90
   3   3   3  204.88    9.60
   3   3   3  190.68   10.50
   3   3   3  214.28    8.80
  -4  -3  -3   67.79    3.60
  -4  -3  -3   64.59    3.00
  -4  -3  -3   62.89    2.90
  -4  -3  -3   65.89    4.60
  -4  -3  -3   63.89    4.90
  -4  -3  -3   63.19    4.00
   4   3   3   72.09    4.00
   4   3   3   68.29    4.20
   4   3   3   62.49    5.60
   4   3   3   68.69    4.70
  -5  -3  -3    3.60    1.70
  -5  -3  -3    0.90    1.40
  -5  -3  -3    1.80    1.00
  -5  -3  -3    1.90    0.70
  -5  -3  -3    1.70    1.70
   5   3   3    1.50    2.60
   5   3   3    2.00    1.40
   5   3   3    2.40    2.00
   5   3   3    2.60    1.70
  -6  -3  -3    9.20    2.60
  -6  -3  -3   11.80    2.50
  -6  -3  -3   11.90    2.30
  -6  -3  -3   16.30    2.10
   6   3   3   11.80    3.80
   6   3   3   12.70    2.30
   6   3   3   11.70    2.40
  -7  -3  -3    4.90    1.80
  -7  -3  -3    4.10    2.50
  -7  -3  -3    5.90    1.90
  -7  -3  -3    2.20    1.20
   7   3   3    4.20    2.10
   7   3   3   -0.50    1.70
   7   3   3    0.60    2.00
   7   3   3    4.70    3.60
  -8  -3  -3    4.00    1.80
  -8  -3  -3    0.80    1.40
  -8  -3  -3    2.90    2.60
   8   3   3    3.00    2.10
   8   3   3   -1.30    2.50
   8   3   3    1.80    3.50
  -9  -3  -3  126.89    7.70
  -9  -3  -3  126.29    7.50
  -9  -3  -3  130.99   10.10
   9   3   3  123.09    8.60
   9   3   3  116.39   10.70
   9  -4  -3    4.70    3.10
   9  -4  -3    0.80    1.90
  -9   4   3    2.10    2.50
  -9   4   3   -2.00    1.20
   8  -4  -3    8.50    2.90
   8  -4  -3    8.70    2.40
  -8   4   3    7.40    1.40
  -8   4   3    7.70    3.00
  -8   4   3    6.80    1.80
   7  -4  -3   91.09    5.30
   7  -4  -3   73.79    5.20
   7  -4  -3   83.29    5.20
  -7   4   3   82.09    4.20
  -7   4   3   81.69    4.90
  -7   4   3   87.29    6.90
   6  -4  -3   -0.70    1.60
   6  -4  -3    0.90    1.20
   6  -4  -3   -0.20    1.90
  -6   4   3    0.20    0.80
  -6   4   3   -0.60    0.90
  -6   4   3    1.30    0.90
  -6   4   3   -0.80    1.80
   5  -4  -3    1.70    1.20
   5  -4  -3    1.50    1.60
   5  -4  -3   -1.70    1.40
  -5   4   3    1.20    0.80
  -5   4   3    2.60    0.60
  -5   4   3    0.90    0.70
  -5   4   3   -0.10    0.90
  -5   4   3    2.40    2.00
   4  -4  -3  211.88    9.20
   4  -4  -3  215.18    9.20
   4  -4  -3  209.78    9.20
  -4   4   3  207.08    8.80
  -4   4   3  197.98    8.90
  -4   4   3  210.38    9.30
  -4   4   3  223.28    9.10
  -4   4   3  223.78   10.90
   3  -4  -3   71.69    3.40
   3  -4  -3   69.49    3.60
   3  -4  -3   71.09    3.50
   3  -4  -3   73.99    3.90
   3  -4  -3   65.99    3.90
   3  -4  -3   75.19    3.20
  -3   4   3   70.39    3.80
  -3   4   3   69.79    3.50
  -3   4   3   65.79    4.00
  -3   4   3   71.39    5.20
  -3   4   3   67.69    3.40
   2  -4  -3  160.88    6.40
   2  -4  -3  151.38    6.60
   2  -4  -3  132.19    8.40
   2  -4  -3  153.38    6.40
   2  -4  -3  155.58    6.60
  -2   4   3  152.98    7.30
  -2   4   3  148.99    8.00
  -2   4   3  145.59    6.70
  -2   4   3  159.88    6.50
   1  -4  -3  120.39    5.20
   1  -4  -3  116.89    5.20
   1  -4  -3  129.29    5.20
   1  -4  -3  113.99    5.20
  -1   4   3  116.19    6.70
  -1   4   3  122.79    5.90
  -1   4   3  126.89    5.20
  -1   4   3  114.49    5.50
  -1   4   3  113.39    6.30
  -1   4   3  126.29    5.10
   0  -4  -3  497.45   19.20
   0  -4  -3  493.65   20.10
   0  -4  -3  490.45   19.20
   0  -4  -3  503.05   19.50
   0  -4  -3  515.35   19.50
   0   4   3  485.25   20.40
   0   4   3  499.15   19.80
   0   4   3  460.35   20.50
   0   4   3  519.85   19.30
   0   4   3  499.05   21.10
  -1  -4  -3    0.50    0.60
  -1  -4  -3    0.90    0.70
  -1  -4  -3    0.60    0.50
  -1  -4  -3    0.80    0.90
  -1  -4  -3    1.70    1.20
   1   4   3    1.30    1.40
   1   4   3    0.40    1.60
   1   4   3    0.10    0.80
   1   4   3    0.20    1.90
   1   4   3    0.00    0.80
  -2  -4  -3    0.00    1.70
  -2  -4  -3    0.20    0.80
  -2  -4  -3    0.00    0.80
  -2  -4  -3    0.10    0.40
  -2  -4  -3    1.00    1.80
  -2  -4  -3    0.50    0.50
  -2  -4  -3    0.20    1.10
  -2  -4  -3    0.60    0.40
   2   4   3    2.40    2.00
   2   4   3    2.50    2.00
   2   4   3   -0.80    1.90
   2   4   3    0.00    0.90
   2   4   3   -0.30    0.90
  -3  -4  -3  110.79    4.40
  -3  -4  -3  109.89    4.40
  -3  -4  -3  113.79    5.00
  -3  -4  -3  110.29    6.80
  -3  -4  -3  121.19    5.80
  -3  -4  -3  110.69    5.90
  -3  -4  -3  115.39    5.40
  -3  -4  -3  108.29    4.40
  -3  -4  -3  115.19    6.60
   3   4   3  101.29    7.30
   3   4   3  110.49    5.40
   3   4   3  106.09    6.50
   3   4   3  120.39    5.50
  -4  -4  -3   41.30    3.40
  -4  -4  -3   42.20    2.90
  -4  -4  -3   43.70    3.90
  -4  -4  -3   39.90    1.80
  -4  -4  -3   42.80    4.10
   4   4   3   39.50    5.10
   4   4   3   45.00    4.10
   4   4   3   40.60    3.20
   4   4   3   46.60    3.30
  -5  -4  -3   60.19    4.40
  -5  -4  -3   64.69    5.40
  -5  -4  -3   66.09    4.00
  -5  -4  -3   65.19    5.00
   5   4   3   62.39    4.20
   5   4   3   64.79    6.60
   5   4   3   64.49    5.30
   5   4   3   64.29    4.30
  -6  -4  -3    1.20    1.10
  -6  -4  -3    2.10    1.50
  -6  -4  -3    0.70    2.00
  -6  -4  -3    2.20    1.50
   6   4   3    3.10    3.20
   6   4   3   -0.20    1.50
   6   4   3   -0.60    1.60
   6   4   3    2.60    2.40
  -7  -4  -3   24.00    3.00
  -7  -4  -3   19.10    2.70
  -7  -4  -3   25.30    4.20
   7   4   3   25.00    3.90
   7   4   3   23.60    5.50
   7   4   3   21.90    3.30
  -8  -4  -3   79.89    7.30
  -8  -4  -3   72.19    5.20
  -8  -4  -3   78.49    5.70
   8   4   3   87.69    6.30
   8   4   3   79.69    8.80
   8   4   3   74.89    6.20
  -9  -4  -3   15.90    4.20
   9   4   3    3.30    4.30
   9   4   3    5.80    3.00
   9  -5  -3   74.19    6.30
   9  -5  -3   79.09    5.80
  -9   5   3   71.99    5.40
  -9   5   3   64.99    7.50
   8  -5  -3    5.70    2.80
   8  -5  -3    4.30    1.90
  -8   5   3    1.10    2.80
  -8   5   3    1.40    1.40
   7  -5  -3    7.40    2.60
   7  -5  -3    6.20    1.80
  -7   5   3    7.30    1.80
  -7   5   3    8.40    3.20
   6  -5  -3   35.00    3.50
   6  -5  -3   28.60    3.20
   6  -5  -3   33.90    3.10
  -6   5   3   28.60    4.20
  -6   5   3   35.00    3.20
   5  -5  -3  104.09    5.70
   5  -5  -3  103.49    5.50
   5  -5  -3  106.89    5.70
  -5   5   3  105.99    5.60
  -5   5   3  103.29    7.50
   4  -5  -3  374.66   15.70
   4  -5  -3  382.36   15.70
   4  -5  -3  382.76   15.70
  -4   5   3  381.26   17.70
  -4   5   3  409.26   15.80
  -4   5   3  383.86   16.00
  -4   5   3  365.56   15.90
   3  -5  -3  777.22   31.00
   3  -5  -3  786.42   30.90
   3  -5  -3  811.72   31.00
  -3   5   3  790.72   33.00
  -3   5   3  828.42   31.00
  -3   5   3  775.52   31.70
  -3   5   3  774.22   31.30
   2  -5  -3   16.10    1.70
   2  -5  -3   18.10    1.90
   2  -5  -3   19.80    1.40
   2  -5  -3   18.00    1.70
  -2   5   3   17.60    2.90
  -2   5   3   18.80    1.80
  -2   5   3   18.80    2.80
  -2   5   3   17.80    1.90
   1  -5  -3   49.90    2.60
   1  -5  -3   45.50    2.90
   1  -5  -3   49.50    2.70
   1  -5  -3   49.20    2.70
  -1   5   3   50.89    4.90
  -1   5   3   47.20    3.20
  -1   5   3   47.70    3.10
  -1   5   3   49.50    4.30
  -1   5   3   49.99    2.70
   0  -5  -3  232.48    9.40
   0  -5  -3  225.88   10.40
   0  -5  -3  245.88    9.80
   0  -5  -3  233.78    9.40
   0  -5  -3  238.08    9.90
   0   5   3  230.08   11.20
   0   5   3  235.88   10.80
  -1  -5  -3    2.50    0.60
  -1  -5  -3    2.50    1.40
  -1  -5  -3    2.50    0.70
  -1  -5  -3    3.40    0.80
  -1  -5  -3    2.40    1.20
   1   5   3    3.10    2.10
   1   5   3    1.20    1.60
   1   5   3    3.40    1.00
   1   5   3    1.80    2.10
  -2  -5  -3   -0.40    1.00
  -2  -5  -3   -0.40    1.70
  -2  -5  -3    0.40    1.30
  -2  -5  -3    1.50    2.00
   2   5   3   -1.20    1.00
   2   5   3    0.90    2.00
   2   5   3    0.50    0.90
   2   5   3   -0.20    2.10
   2   5   3   -0.60    1.70
  -3  -5  -3   41.40    4.30
  -3  -5  -3   39.30    4.40
  -3  -5  -3   39.40    3.40
  -3  -5  -3   38.30    2.90
   3   5   3   44.50    3.10
   3   5   3   43.30    4.40
   3   5   3   39.60    4.80
   3   5   3   41.00    2.70
  -4  -5  -3   97.79    6.90
  -4  -5  -3   98.09    5.90
  -4  -5  -3  105.59    5.50
  -4  -5  -3  108.19    6.80
   4   5   3  101.29    7.80
   4   5   3  103.49    6.80
   4   5   3  106.99    5.60
   4   5   3  102.19    5.20
  -5  -5  -3   24.90    3.30
  -5  -5  -3   21.60    2.80
  -5  -5  -3   20.00    3.80
  -5  -5  -3   18.10    2.40
   5   5   3   27.10    4.00
   5   5   3   20.50    4.40
   5   5   3   18.90    2.30
  -6  -5  -3   45.20    3.70
  -6  -5  -3   52.19    4.50
  -6  -5  -3   46.90    4.20
  -6  -5  -3   48.90    5.20
   6   5   3   52.89    5.30
   6   5   3   43.60    3.80
   6   5   3   41.40    6.30
  -7  -5  -3    0.50    1.50
  -7  -5  -3    3.10    1.90
  -7  -5  -3    5.60    2.70
   7   5   3    1.80    3.60
   7   5   3    2.20    1.80
   7   5   3    4.30    2.90
  -8  -5  -3    6.00    2.00
  -8  -5  -3    5.40    2.80
  -8  -5  -3    0.40    1.70
   8   5   3    1.20    3.80
   8   5   3    1.60    2.30
   8  -6  -3   17.40    2.90
   8  -6  -3   16.30    3.50
  -8   6   3   13.40    2.50
  -8   6   3   17.20    4.40
   7  -6  -3    8.50    2.10
   7  -6  -3    9.20    2.80
  -7   6   3    8.10    2.00
  -7   6   3    6.00    3.40
   6  -6  -3   11.60    2.40
   6  -6  -3   10.90    2.70
   6  -6  -3    9.50    1.90
  -6   6   3   10.80    2.10
  -6   6   3    5.60    3.10
   5  -6  -3   24.50    2.70
   5  -6  -3   26.20    2.90
   5  -6  -3   23.20    2.50
  -5   6   3   24.20    4.10
  -5   6   3   25.40    2.70
   4  -6  -3    0.00    1.70
   4  -6  -3    0.80    1.10
   4  -6  -3   -0.90    1.50
  -4   6   3    2.40    1.50
  -4   6   3   -0.20    2.30
  -4   6   3    2.00    1.20
   3  -6  -3  164.48    7.40
   3  -6  -3  162.48    7.50
   3  -6  -3  161.88    7.30
  -3   6   3  164.18    9.60
  -3   6   3  164.08    8.40
  -3   6   3  164.48    7.80
   2  -6  -3   62.39    3.50
   2  -6  -3   55.79    3.40
   2  -6  -3   60.39    3.40
  -2   6   3   56.99    3.60
  -2   6   3   56.59    4.60
  -2   6   3   54.99    5.30
   1  -6  -3    2.90    1.00
   1  -6  -3    4.10    1.30
   1  -6  -3    4.50    1.80
   1  -6  -3    4.50    1.20
  -1   6   3    4.00    2.40
  -1   6   3    3.90    1.30
  -1   6   3    4.30    2.50
  -1   6   3    3.10    1.20
   0  -6  -3  509.75   21.50
   0  -6  -3  514.75   20.10
   0  -6  -3  510.45   20.10
   0  -6  -3  522.05   20.80
   0   6   3  501.35   22.80
   0   6   3  515.05   22.40
   0   6   3  541.85   21.80
  -1  -6  -3   11.10    1.00
  -1  -6  -3   11.90    1.00
  -1  -6  -3   13.00    1.90
  -1  -6  -3   12.10    2.30
   1   6   3   13.90    2.70
   1   6   3   12.70    3.20
   1   6   3   12.10    3.00
  -2  -6  -3  496.95   20.80
  -2  -6  -3  493.85   20.10
  -2  -6  -3  472.25   21.70
  -2  -6  -3  465.85   22.00
   2   6   3  500.55   22.10
   2   6   3  494.35   21.90
   2   6   3  526.65   19.40
   2   6   3  478.35   21.90
  -3  -6  -3  208.18   10.10
  -3  -6  -3  205.08   11.40
  -3  -6  -3  207.28    9.50
  -3  -6  -3  208.88   11.10
   3   6   3  214.58    8.80
   3   6   3  215.78   11.30
   3   6   3  196.58   11.50
  -4  -6  -3    4.70    2.60
  -4  -6  -3    4.80    2.10
  -4  -6  -3    6.10    2.50
  -4  -6  -3    4.70    1.50
   4   6   3    9.20    3.50
   4   6   3    5.90    3.10
   4   6   3    4.20    1.50
  -5  -6  -3    2.70    1.90
  -5  -6  -3    2.90    2.40
  -5  -6  -3    6.30    2.40
  -5  -6  -3    1.70    1.30
   5   6   3    6.10    3.10
   5   6   3    4.30    3.30
  -6  -6  -3   99.29    6.70
  -6  -6  -3  107.09    8.00
  -6  -6  -3  107.99    6.30
   6   6   3  103.39    9.60
   6   6   3  111.29    8.10
  -7  -6  -3    4.80    2.70
  -7  -6  -3    3.50    2.10
   7   6   3    0.50    3.40
   7   6   3    3.40    3.10
  -8  -6  -3   16.20    2.90
  -8  -6  -3   26.30    3.20
   8   6   3   21.20    4.20
   8   6   3   14.90    5.30
   8  -7  -3   26.80    3.60
   8  -7  -3   21.20    4.00
  -8   7   3   18.50    4.50
  -8   7   3   17.00    2.80
   7  -7  -3   53.09    4.40
   7  -7  -3   49.20    4.70
  -7   7   3   39.80    6.10
  -7   7   3   50.59    4.40
   6  -7  -3   58.89    4.30
   6  -7  -3   51.09    4.80
  -6   7   3   54.69    4.40
  -6   7   3   45.90    6.10
   5  -7  -3    0.90    1.30
   5  -7  -3    0.00    1.70
   5  -7  -3    2.30    2.10
  -5   7   3   -0.40    1.30
  -5   7   3   -2.10    2.80
   4  -7  -3    0.20    1.60
   4  -7  -3   -0.80    1.80
   4  -7  -3    0.90    1.20
  -4   7   3   -0.50    1.10
  -4   7   3    2.70    1.80
  -4   7   3   -1.00    2.60
   3  -7  -3   44.70    3.30
   3  -7  -3   47.10    3.40
   3  -7  -3   45.30    3.30
  -3   7   3   49.90    6.20
  -3   7   3   44.80    4.30
  -3   7   3   50.29    3.70
   2  -7  -3    3.10    1.40
   2  -7  -3    4.30    1.30
   2  -7  -3    3.70    1.40
   2  -7  -3    3.90    1.90
  -2   7   3    4.20    2.60
  -2   7   3    2.00    1.30
  -2   7   3    0.60    2.60
   1  -7  -3   43.40    3.30
   1  -7  -3   41.00    2.70
   1  -7  -3   43.10    2.70
   1  -7  -3   41.10    3.80
  -1   7   3   44.20    5.40
  -1   7   3   45.90    3.40
  -1   7   3   44.90    4.70
   0  -7  -3  149.79    7.80
   0  -7  -3  140.79    7.20
   0   7   3  149.29    9.10
   0   7   3  142.89    9.50
   0   7   3  152.78    7.90
  -1  -7  -3    0.10    1.80
  -1  -7  -3   -0.20    1.30
   1   7   3    2.70    2.60
   1   7   3   -0.80    2.50
   1   7   3    0.50    1.70
  -2  -7  -3  120.29    6.60
  -2  -7  -3  122.79    8.50
  -2  -7  -3  119.99    8.20
  -2  -7  -3  127.69    7.20
   2   7   3  144.79    8.70
   2   7   3  128.89    8.80
   2   7   3  132.49    8.30
  -3  -7  -3   23.70    4.40
  -3  -7  -3   27.00    3.30
  -3  -7  -3   26.70    4.10
  -3  -7  -3   22.10    2.80
   3   7   3   24.90    4.50
   3   7   3   32.70    4.90
  -4  -7  -3    4.90    1.70
  -4  -7  -3    8.10    2.70
  -4  -7  -3   10.70    3.60
  -4  -7  -3    7.90    2.60
   4   7   3    8.20    3.60
   4   7   3    5.90    3.50
  -5  -7  -3    2.70    1.60
  -5  -7  -3    6.20    3.20
  -5  -7  -3    3.60    2.30
   5   7   3    4.70    3.30
   5   7   3    1.70    3.20
  -6  -7  -3   18.70    2.90
  -6  -7  -3   32.20    4.90
  -6  -7  -3   23.10    3.90
   6   7   3   23.40    5.60
   6   7   3   28.90    5.20
  -7  -7  -3    9.60    2.70
  -7  -7  -3    0.10    1.40
  -7  -7  -3    5.80    2.00
   7   7   3    5.40    3.50
   7   7   3    4.10    3.90
   7  -8  -3    3.60    1.80
   7  -8  -3    8.10    3.10
  -7   8   3   -0.10    1.60
  -7   8   3    2.10    3.30
   6  -8  -3   26.80    3.80
   6  -8  -3   29.40    3.30
  -6   8   3   22.20    5.10
  -6   8   3   24.90    3.20
   5  -8  -3   11.60    2.70
   5  -8  -3   14.80    2.40
  -5   8   3    8.50    3.90
  -5   8   3    7.20    1.90
   4  -8  -3    7.90    2.00
   4  -8  -3    7.80    2.40
   4  -8  -3    8.70    2.10
   4  -8  -3   11.00    2.80
  -4   8   3    7.70    3.80
  -4   8   3    8.70    2.60
  -4   8   3    7.20    1.90
   3  -8  -3  198.98    9.90
   3  -8  -3  189.78    8.90
   3  -8  -3  195.38   10.10
   3  -8  -3  198.48    9.40
  -3   8   3  204.08   12.20
  -3   8   3  201.78   10.60
  -3   8   3  179.38    9.30
   2  -8  -3   -0.60    1.40
   2  -8  -3    1.00    1.90
   2  -8  -3   -0.70    2.20
  -2   8   3   -2.40    2.70
  -2   8   3    2.80    2.50
  -2   8   3   -1.10    1.40
   1  -8  -3    0.90    1.80
   1  -8  -3   -1.10    1.40
  -1   8   3    1.50    2.80
  -1   8   3   -0.30    2.70
   0  -8  -3   -2.00    1.30
   0  -8  -3   -0.50    1.70
   0   8   3   -0.10    2.90
   0   8   3    1.40    1.50
   0   8   3    1.30    2.70
  -1  -8  -3    0.80    2.00
  -1  -8  -3   -1.50    1.40
   1   8   3    0.90    2.80
   1   8   3    2.90    3.00
   1   8   3    0.40    1.60
  -2  -8  -3   15.30    4.30
  -2  -8  -3   13.00    2.40
  -2  -8  -3   12.90    6.20
  -2  -8  -3   19.10    3.40
   2   8   3   20.80    4.70
   2   8   3   16.90    4.40
   2   8   3   16.80    3.50
  -3  -8  -3   -0.20    2.00
  -3  -8  -3   -1.40    1.40
  -3  -8  -3   -0.50    2.80
   3   8   3    2.20    2.50
   3   8   3    4.60    3.40
  -4  -8  -3   87.09    5.90
  -4  -8  -3  105.59    8.40
  -4  -8  -3   98.79    6.90
   4   8   3   95.69    8.10
   4   8   3   99.69    8.50
  -5  -8  -3    4.30    2.50
  -5  -8  -3    4.10    2.90
  -5  -8  -3   -0.90    1.40
   5   8   3    3.40    3.30
   5   8   3    3.10    3.30
  -6  -8  -3  107.09    8.50
  -6  -8  -3   95.19    7.10
  -6  -8  -3  105.79    6.40
   6   8   3  100.19    9.50
   6   8   3  103.09    8.50
   5  -9  -3    0.70    1.70
   5  -9  -3    2.60    2.20
   5  -9  -3    2.20    2.30
  -5   9   3    1.60    1.70
  -5   9   3   -3.50    3.20
   4  -9  -3    2.50    2.40
   4  -9  -3    1.00    1.70
  -4   9   3   -1.40    3.30
  -4   9   3   -0.80    1.50
   3  -9  -3    4.10    2.40
   3  -9  -3    5.20    2.00
  -3   9   3    8.50    3.00
  -3   9   3    2.30    1.90
  -3   9   3   -1.30    3.10
   2  -9  -3   20.30    3.80
   2  -9  -3   19.80    2.90
  -2   9   3   13.70    4.30
  -2   9   3   24.00    4.40
   1  -9  -3   -1.00    2.00
   1  -9  -3   -1.90    1.70
  -1   9   3    4.80    3.20
  -1   9   3   -0.90    3.30
   0  -9  -3   34.10    3.90
   0  -9  -3   45.80    4.70
   0   9   3   49.20    6.40
   0   9   3   33.30    5.40
  -1  -9  -3   62.19    5.60
  -1  -9  -3   61.89    4.80
   1   9   3   67.29    8.30
   1   9   3   74.29    7.50
  -2  -9  -3   -0.70    2.30
  -2  -9  -3   -2.50    1.60
  -2  -9  -3   -1.90    3.20
   2   9   3   -2.10    3.30
   2   9   3    2.70    3.40
   2   9   3    1.80    2.10
  -3  -9  -3   29.20    5.80
  -3  -9  -3   24.00    3.20
  -3  -9  -3   27.30    4.40
   3   9   3   36.20    6.00
   3   9   3   34.00    5.10
  -4  -9  -3   33.10    3.70
  -4  -9  -3   34.50    5.40
  -4  -9  -3   40.20    4.90
   4   9   3   38.80    6.30
   4   9   3   39.40    5.80
  -5  -9  -3   23.20    5.10
  -5  -9  -3   23.40    2.90
   3 -10  -3   15.50    3.50
   3 -10  -3   11.50    2.70
  -3  10   3   14.70    5.20
  -3  10   3    9.60    4.90
   2 -10  -3   -2.80    1.90
   2 -10  -3   -1.70    2.00
  -2  10   3    3.70    2.60
  -2  10   3    0.50    3.90
   1 -10  -3   -1.40    2.40
  -1  10   3    3.80    3.10
  -1  10   3   -2.40    3.50
   0 -10  -3    5.90    3.20
   0 -10  -3   -0.60    2.10
   0  10   3    5.70    4.20
   0  10   3    9.80    4.00
  -1 -10  -3    0.70    4.20
  -1 -10  -3   -0.40    1.80
  -1 -10  -3    3.50    2.90
   1  10   3    6.30    3.90
   1  10   3    0.70    3.80
  -2 -10  -3   10.20    3.50
  -2 -10  -3    5.50    4.40
  -2 -10  -3    7.20    2.40
   2  10   3   19.40    4.70
   2  10   3    6.30    4.50
   1  11  -4    7.90    5.00
  -1 -11   4   10.90    3.20
  -1 -11   4    0.40    2.80
   0  11  -4   -4.80    4.00
   0  11  -4   -3.40    2.90
   0 -11   4    3.10    2.50
   0 -11   4   -3.20    2.40
  -1  11  -4   -3.60    4.00
  -1  11  -4   -5.40    3.00
   1 -11   4   -5.60    2.10
   1 -11   4   -0.20    2.30
  -2  11  -4   -1.10    3.20
  -2  11  -4   -4.10    3.40
   2 -11   4    0.10    2.30
   2 -11   4   -2.90    2.60
   4  10  -4    2.90    4.20
   4  10  -4   -2.40    3.20
  -4 -10   4    8.70    2.90
  -4 -10   4    3.20    2.40
  -4 -10   4   -2.80    2.30
   3  10  -4    9.70    4.90
  -3 -10   4    2.10    2.80
  -3 -10   4    6.60    3.20
  -3 -10   4   10.40    3.10
   2  10  -4   65.69    8.50
  -2 -10   4   73.29    6.50
  -2 -10   4   62.99    6.60
  -2 -10   4   75.29    6.00
   1  10  -4    3.90    3.10
   1  10  -4    4.60    5.20
  -1 -10   4    2.40    2.50
  -1 -10   4    6.40    2.60
   0  10  -4    0.60    2.90
   0  10  -4   -1.10    4.60
   0 -10   4    4.30    2.40
   0 -10   4    0.00    2.30
  -1  10  -4   23.30    4.60
  -1  10  -4   23.00    6.30
   1 -10   4   32.20    4.10
   1 -10   4   28.80    4.10
  -2  10  -4   34.00    5.40
  -2  10  -4   38.90    6.90
   2 -10   4   42.40    4.40
   2 -10   4   40.60    4.70
  -3  10  -4    8.50    3.90
  -3  10  -4    3.30    4.50
   3 -10   4   12.50    3.10
   3 -10   4    9.50    2.80
  -4  10  -4   19.60    4.90
  -4  10  -4   12.00    4.90
   4 -10   4   24.50    3.90
   4 -10   4   21.00    3.80
   5 -10   4    9.30    3.10
   6   9  -4   -6.40    3.70
   6   9  -4    8.80    4.10
  -6  -9   4   -0.30    2.20
  -6  -9   4    6.30    2.60
   5   9  -4   -2.60    3.90
   5   9  -4   14.00    4.90
  -5  -9   4    5.50    2.80
  -5  -9   4    7.50    2.90
   4   9  -4    1.10    4.50
   4   9  -4   -5.00    3.20
  -4  -9   4    0.90    2.20
  -4  -9   4    2.30    2.20
  -4  -9   4   -2.90    2.20
   3   9  -4   -4.40    4.30
  -3  -9   4    0.60    2.30
  -3  -9   4    1.20    2.00
  -3  -9   4   -3.70    2.10
   2   9  -4   -2.40    2.50
   2   9  -4   -2.30    2.10
   2   9  -4   -1.40    4.00
   2   9  -4   -4.90    2.30
  -2  -9   4   -2.10    2.50
  -2  -9   4   -0.10    2.00
  -2  -9   4    0.10    2.20
   1   9  -4    3.90    4.40
   1   9  -4    1.20    5.30
   1   9  -4    2.00    2.60
   1   9  -4    3.90    2.40
  -1  -9   4    3.80    2.30
  -1  -9   4   -0.20    2.10
   0   9  -4   66.79    6.40
   0   9  -4   60.39    8.10
   0   9  -4   54.99   11.40
   0   9  -4   72.79    5.50
   0  -9   4   63.99    5.30
   0  -9   4   60.59    4.80
  -1   9  -4   16.10    2.80
  -1   9  -4    9.80    5.10
  -1   9  -4    7.60    3.20
   1  -9   4    8.70    2.60
   1  -9   4   12.00    2.80
  -2   9  -4    3.50    3.20
  -2   9  -4    7.30    2.00
  -2   9  -4   -0.80    4.30
  -2   9  -4   -2.30    4.10
   2  -9   4    6.30    2.30
   2  -9   4    9.00    2.80
  -3   9  -4   81.09    7.60
  -3   9  -4   81.79    5.70
  -3   9  -4   54.89    7.40
   3  -9   4   82.09    5.60
   3  -9   4   74.69    5.80
   3  -9   4   84.59    4.70
  -4   9  -4   19.90    4.10
  -4   9  -4   11.70    4.10
  -4   9  -4    4.60    4.70
   4  -9   4   16.00    2.60
   4  -9   4   14.70    3.00
   4  -9   4    8.30    2.60
  -5   9  -4   -9.90    3.50
  -5   9  -4    1.20    3.20
   5  -9   4    0.40    2.00
   5  -9   4    1.40    2.10
   5  -9   4    3.80    2.40
  -6   9  -4   11.60    4.30
   6  -9   4    9.80    2.80
   6  -9   4   10.70    2.90
   7   8  -4    8.30    3.60
   7   8  -4   -9.90    4.60
  -7  -8   4    2.80    2.10
  -7  -8   4    8.10    2.80
   6   8  -4   16.00    4.30
   6   8  -4   21.40    5.30
  -6  -8   4   31.60    4.10
  -6  -8   4   17.40    3.40
   5   8  -4    7.20    4.20
   5   8  -4   -0.10    3.00
  -5  -8   4    0.60    2.00
  -5  -8   4    8.60    2.50
  -5  -8   4    5.20    2.60
   4   8  -4   13.40    4.80
  -4  -8   4   13.20    3.10
  -4  -8   4   10.50    3.00
  -4  -8   4   10.80    2.80
  -4  -8   4   11.90    3.00
   3   8  -4   20.00    5.60
   3   8  -4   19.40    3.20
   3   8  -4    8.20    6.00
   3   8  -4   21.30    3.80
  -3  -8   4   22.40    3.70
  -3  -8   4   19.20    3.70
  -3  -8   4   25.90    3.30
  -3  -8   4   21.80    3.50
   2   8  -4    4.90    2.30
   2   8  -4    3.10    4.90
   2   8  -4    8.90    2.90
   2   8  -4    2.50    4.30
  -2  -8   4    6.70    2.60
  -2  -8   4    7.20    2.80
  -2  -8   4    9.80    2.50
   1   8  -4   16.50    4.80
   1   8  -4   10.70    5.50
   1   8  -4   24.70    3.40
   1   8  -4   16.30    3.20
  -1  -8   4   23.20    3.10
  -1  -8   4   16.90    3.10
   0   8  -4   85.59    5.60
   0   8  -4   79.79    6.30
   0   8  -4   62.39   10.80
   0  -8   4   76.29    5.60
   0  -8   4   78.49    5.20
  -1   8  -4   44.30    4.00
  -1   8  -4   27.40    4.10
   1  -8   4   34.50    3.80
   1  -8   4   36.00    3.50
  -2   8  -4    0.60    2.50
  -2   8  -4    1.90    1.50
  -2   8  -4   -3.50    3.30
   2  -8   4   -1.10    1.50
   2  -8   4   -0.50    1.70
  -3   8  -4   45.00    5.60
  -3   8  -4   51.39    4.20
   3  -8   4   46.00    3.90
   3  -8   4   46.10    4.30
   3  -8   4   48.20    3.50
  -4   8  -4   36.90    3.80
  -4   8  -4   31.80    5.00
   4  -8   4   36.40    3.40
   4  -8   4   28.50    3.30
   4  -8   4   23.30    3.40
  -5   8  -4   38.90    4.10
  -5   8  -4   26.00    4.80
   5  -8   4   24.50    3.30
   5  -8   4   27.20    3.70
   5  -8   4   25.10    3.10
  -6   8  -4    1.30    2.90
   6  -8   4    0.60    2.00
   6  -8   4    3.70    2.60
  -7   8  -4   92.89    9.10
   7  -8   4   88.09    6.80
   7  -8   4   88.19    6.20
   8   7  -4   -6.00    3.20
  -8  -7   4   -0.10    1.70
  -8  -7   4    5.00    2.40
   7   7  -4    9.90    3.80
   7   7  -4   -0.60    3.30
  -7  -7   4    3.10    2.40
  -7  -7   4    8.30    3.10
   6   7  -4   15.20    4.60
   6   7  -4   10.60    3.40
  -6  -7   4    7.90    2.50
  -6  -7   4   12.50    3.40
   5   7  -4    0.10    2.50
   5   7  -4    3.20    3.90
  -5  -7   4    4.60    2.10
  -5  -7   4    2.80    2.00
  -5  -7   4    4.70    1.80
  -5  -7   4   -1.00    2.00
   4   7  -4    7.70    5.30
   4   7  -4   16.20    4.40
  -4  -7   4    7.20    2.40
  -4  -7   4   17.50    3.10
  -4  -7   4   14.40    2.90
  -4  -7   4   12.10    2.60
   3   7  -4   19.50    5.00
   3   7  -4   13.50    2.50
   3   7  -4   17.60    3.50
   3   7  -4   12.70    5.50
  -3  -7   4   24.40    3.20
  -3  -7   4   20.80    3.40
  -3  -7   4   13.30    2.70
  -3  -7   4   18.30    3.00
   2   7  -4    3.70    3.60
   2   7  -4    2.00    4.20
   2   7  -4    4.40    2.00
   2   7  -4    3.00    2.00
  -2  -7   4    6.40    2.10
  -2  -7   4    4.70    2.30
  -2  -7   4    7.20    2.20
   1   7  -4   -1.90    1.60
   1   7  -4   -0.20    3.50
   1   7  -4    2.30    1.90
  -1  -7   4    1.20    1.70
  -1  -7   4   -1.40    1.30
   0   7  -4    1.80    0.90
   0   7  -4    1.00    3.70
   0   7  -4    4.30    1.70
   0   7  -4    0.70    1.70
   0  -7   4    0.70    1.50
   0  -7   4    2.20    1.90
  -1   7  -4  318.27   14.20
  -1   7  -4  330.47   15.00
  -1   7  -4  266.67   18.60
   1  -7   4  332.97   13.90
   1  -7   4  323.47   14.10
  -2   7  -4   20.60    3.40
  -2   7  -4   25.20    3.10
   2  -7   4   29.50    2.60
   2  -7   4   24.50    2.60
   2  -7   4   26.00    2.10
   2  -7   4   26.90    3.40
  -3   7  -4   11.10    2.90
  -3   7  -4   11.90    2.20
  -3   7  -4   11.00    1.40
   3  -7   4   14.00    2.30
   3  -7   4   11.00    1.90
   3  -7   4   13.30    2.10
   3  -7   4    9.40    2.20
  -4   7  -4   50.89    3.20
  -4   7  -4   55.59    6.00
  -4   7  -4   56.79    4.50
   4  -7   4   44.30    4.00
   4  -7   4   53.59    4.40
   4  -7   4   56.89    4.10
   4  -7   4   54.59    3.80
  -5   7  -4   89.39    4.80
  -5   7  -4   96.49    6.10
  -5   7  -4   94.79    7.60
   5  -7   4   90.79    6.10
   5  -7   4   99.29    5.90
   5  -7   4   92.99    5.40
  -6   7  -4    7.40    3.00
  -6   7  -4    7.90    2.30
   6  -7   4    5.50    1.90
   6  -7   4    4.30    2.20
   6  -7   4    3.80    2.80
  -7   7  -4   41.70    4.20
  -7   7  -4   59.39    6.60
   7  -7   4   35.90    4.50
   7  -7   4   32.40    4.20
   8  -7   4    7.20    2.40
   8  -7   4    5.80    3.30
   8   6  -4    6.70    3.50
  -8  -6   4   10.00    2.80
  -8  -6   4   15.30    3.70
  -8  -6   4    9.60    2.00
   7   6  -4    6.80    3.60
   7   6  -4    5.80    3.20
  -7  -6   4    2.30    2.00
  -7  -6   4    4.70    2.50
   6   6  -4   83.39    6.90
   6   6  -4   95.89    7.50
  -6  -6   4   92.69    6.20
  -6  -6   4   89.89    6.60
  -6  -6   4  106.09    6.80
   5   6  -4  206.38   11.50
   5   6  -4  196.88   10.80
  -5  -6   4  194.88   10.20
  -5  -6   4  197.98   10.50
  -5  -6   4  220.58   10.70
  -5  -6   4  208.48    9.90
   4   6  -4   13.80    4.20
   4   6  -4    6.80    5.20
  -4  -6   4    8.80    2.30
  -4  -6   4    8.70    2.20
  -4  -6   4   10.50    2.40
  -4  -6   4   12.80    2.70
  -4  -6   4   11.40    2.00
   3   6  -4    6.10    4.80
   3   6  -4    8.50    2.60
   3   6  -4   10.00    1.30
   3   6  -4    9.50    0.90
   3   6  -4    6.70    1.70
   3   6  -4    6.60    3.70
  -3  -6   4    7.90    2.10
  -3  -6   4    9.00    2.20
  -3  -6   4    7.40    2.10
  -3  -6   4    9.90    2.40
  -3  -6   4    8.80    2.20
   2   6  -4   20.10    2.80
   2   6  -4   10.50    4.60
   2   6  -4   20.50    1.60
   2   6  -4   16.00    2.30
  -2  -6   4   22.00    2.50
  -2  -6   4   21.60    2.90
  -2  -6   4   18.00    2.80
   1   6  -4  171.18    8.40
   1   6  -4  165.88    8.20
   1   6  -4  143.19   12.80
   1   6  -4  165.58    6.80
  -1  -6   4  169.28    8.20
  -1  -6   4  157.18    7.90
   0   6  -4   33.40    2.30
   0   6  -4   31.90    7.20
   0   6  -4   32.80    3.60
   0   6  -4   34.70    3.10
   0  -6   4   31.50    2.70
   0  -6   4   29.80    3.20
  -1   6  -4  193.18    9.70
  -1   6  -4  187.48    9.00
  -1   6  -4  164.38   12.60
  -1   6  -4  185.88    8.10
   1  -6   4  205.28    7.80
   1  -6   4  197.88    9.10
   1  -6   4  189.98    8.70
  -2   6  -4  694.93   28.00
  -2   6  -4  701.53   28.90
  -2   6  -4  655.13   31.60
   2  -6   4  704.13   27.00
   2  -6   4  693.63   27.10
   2  -6   4  693.53   27.50
   2  -6   4  678.83   27.90
  -3   6  -4   -0.50    1.70
  -3   6  -4    0.40    1.20
  -3   6  -4   -0.30    0.60
  -3   6  -4   -0.90    1.80
   3  -6   4    0.00    1.60
   3  -6   4    0.60    1.30
   3  -6   4    0.40    1.30
   3  -6   4    0.30    1.10
  -4   6  -4   99.59    5.90
  -4   6  -4   92.19    7.80
  -4   6  -4   97.19    4.60
   4  -6   4   87.89    5.20
   4  -6   4   99.69    5.70
   4  -6   4  101.99    5.20
  -5   6  -4   15.40    3.60
  -5   6  -4   21.30    2.80
  -5   6  -4   20.10    2.00
   5  -6   4   24.20    3.10
   5  -6   4   22.20    2.30
   5  -6   4   20.20    2.80
   5  -6   4   22.90    2.80
  -6   6  -4    2.60    1.10
  -6   6  -4    6.30    1.90
   6  -6   4    2.80    1.80
   6  -6   4    7.20    2.30
   6  -6   4    4.60    2.50
  -7   6  -4   20.20    2.30
  -7   6  -4   30.40    3.90
   7  -6   4   22.30    3.30
   7  -6   4   28.40    3.70
  -8   6  -4   13.40    2.70
   8  -6   4    5.60    2.30
   8  -6   4    8.10    3.40
   8   5  -4    1.50    2.90
  -8  -5   4   12.30    3.30
  -8  -5   4    3.70    1.60
  -8  -5   4    6.00    2.40
  -8  -5   4    9.50    3.20
   7   5  -4   21.80    4.20
   7   5  -4   23.20    3.90
  -7  -5   4   23.20    3.30
  -7  -5   4   23.50    4.00
  -7  -5   4   35.20    4.20
   6   5  -4    1.30    2.70
   6   5  -4   -0.70    2.20
  -6  -5   4    1.40    1.60
  -6  -5   4   -0.40    1.50
  -6  -5   4    4.10    1.10
  -6  -5   4    0.20    1.70
   5   5  -4 1102.79   45.60
   5   5  -4 1118.39   43.00
   5   5  -4 1159.08   43.00
   5   5  -4 1125.89   45.40
   5   5  -4  971.50   51.79
  -5  -5   4 1114.19   45.20
  -5  -5   4 1129.69   44.80
  -5  -5   4 1170.08   44.40
  -5  -5   4 1194.98   45.30
   4   5  -4  165.88    6.60
   4   5  -4  160.08    9.50
   4   5  -4  137.79   13.80
   4   5  -4  170.58    6.60
  -4  -5   4  155.38    8.20
  -4  -5   4  161.98    8.20
  -4  -5   4  151.38    7.20
  -4  -5   4  167.88    7.80
  -4  -5   4  160.38    8.30
   3   5  -4   88.79    5.80
   3   5  -4   78.79   10.30
   3   5  -4   90.89    4.10
   3   5  -4   96.39    5.10
   3   5  -4  105.29    4.20
  -3  -5   4   90.19    5.40
  -3  -5   4   92.19    5.20
  -3  -5   4   92.99    5.50
  -3  -5   4   98.39    5.50
  -3  -5   4   97.69    5.30
   2   5  -4    1.00    1.20
   2   5  -4    0.10    0.60
   2   5  -4    3.60    3.60
   2   5  -4   -0.80    1.50
  -2  -5   4    0.50    1.30
  -2  -5   4    2.30    1.60
  -2  -5   4   -0.40    1.30
   1   5  -4   61.79    8.10
   1   5  -4   60.29    4.20
   1   5  -4   63.89    4.10
   1   5  -4   65.79    3.20
  -1  -5   4   65.19    4.20
  -1  -5   4   63.59    3.90
   0   5  -4    4.80    1.50
   0   5  -4    6.60    3.00
   0   5  -4    8.00    1.30
   0   5  -4    5.20    1.60
   0  -5   4    6.90    0.80
   0  -5   4    8.00    1.80
   0  -5   4    5.50    1.70
   0  -5   4    7.70    1.60
  -1   5  -4   12.00    1.90
  -1   5  -4   12.50    1.50
  -1   5  -4   11.30    2.10
  -1   5  -4   10.40    2.80
   1  -5   4   13.50    2.10
   1  -5   4   14.90    1.80
   1  -5   4   13.80    2.10
   1  -5   4   14.20    1.50
  -2   5  -4    9.50    2.50
  -2   5  -4   11.90    1.90
  -2   5  -4   12.20    1.20
  -2   5  -4   11.60    1.80
  -2   5  -4   10.90    1.30
   2  -5   4    9.60    1.80
   2  -5   4   11.30    1.60
   2  -5   4    9.70    1.60
   2  -5   4    9.00    1.50
  -3   5  -4   48.10    2.80
  -3   5  -4   64.59    4.00
  -3   5  -4   58.29    2.90
  -3   5  -4   68.19    5.90
   3  -5   4   53.69    3.50
   3  -5   4   52.99    3.80
   3  -5   4   55.69    3.90
   3  -5   4   57.49    3.30
  -4   5  -4    1.10    0.70
  -4   5  -4    1.70    1.30
  -4   5  -4    1.70    1.40
   4  -5   4   10.90    2.00
   4  -5   4    3.00    1.50
   4  -5   4    9.80    2.20
  -5   5  -4   79.29    4.90
  -5   5  -4   73.59    3.90
  -5   5  -4   79.69    6.30
   5  -5   4   77.19    4.70
   5  -5   4   73.89    4.70
   5  -5   4   76.29    4.90
  -6   5  -4   25.50    2.20
  -6   5  -4   28.10    3.20
   6  -5   4   32.60    3.40
   6  -5   4   30.00    3.40
   6  -5   4   32.60    3.60
  -7   5  -4    3.60    1.20
  -7   5  -4    6.40    2.00
   7  -5   4    4.10    2.10
   7  -5   4    3.30    2.70
   7  -5   4    6.90    2.90
  -8   5  -4    2.40    1.20
  -8   5  -4    5.80    2.10
   8  -5   4    8.30    3.20
   8  -5   4    4.60    2.10
   9  -5   4   18.20    3.40
   9  -5   4   24.00    3.90
   8   4  -4   50.39    6.20
  -8  -4   4   54.99    5.20
  -8  -4   4   70.09    6.20
  -8  -4   4   58.49    3.70
  -8  -4   4   55.79    4.90
   7   4  -4   27.90    3.60
   7   4  -4   20.10    2.10
   7   4  -4   17.70    3.80
  -7  -4   4   18.70    3.00
  -7  -4   4   19.40    2.20
  -7  -4   4   23.20    3.60
  -7  -4   4   26.10    4.10
   6   4  -4   16.50    1.80
   6   4  -4   21.90    1.90
   6   4  -4   18.00    3.40
   6   4  -4   19.60    3.50
  -6  -4   4   20.30    3.30
  -6  -4   4   20.30    3.10
  -6  -4   4   22.20    2.20
  -6  -4   4   17.80    2.70
   5   4  -4   11.80    5.00
   5   4  -4   14.70    3.30
   5   4  -4   18.40    1.70
   5   4  -4   12.40    2.80
   5   4  -4   17.00    1.60
  -5  -4   4   15.00    1.70
  -5  -4   4   17.40    1.90
  -5  -4   4   14.40    2.30
  -5  -4   4   17.10    2.80
  -5  -4   4   16.50    2.40
   4   4  -4  105.49    4.60
   4   4  -4   98.89    6.60
   4   4  -4  105.39    4.60
   4   4  -4   97.09   11.50
  -4  -4   4  107.59    5.30
  -4  -4   4  105.39    5.90
  -4  -4   4   97.89    5.80
  -4  -4   4  108.59    5.10
  -4  -4   4  101.39    5.10
  -4  -4   4  105.29    5.80
   3   4  -4   74.19    3.40
   3   4  -4   75.89    4.90
  -3  -4   4   66.79    4.40
  -3  -4   4   74.39    4.10
  -3  -4   4   80.79    3.80
  -3  -4   4   72.89    4.20
  -3  -4   4   63.39    4.20
  -3  -4   4   68.79    4.20
   2   4  -4  238.78    9.90
   2   4  -4  232.78   10.60
   2   4  -4  253.17    9.50
   2   4  -4  215.38   14.50
  -2  -4   4  234.98   10.50
  -2  -4   4  227.98   10.40
  -2  -4   4  238.48   10.30
  -2  -4   4  236.68   10.50
   1   4  -4  399.46   16.20
   1   4  -4  417.06   15.60
   1   4  -4  374.76   19.90
   1   4  -4  394.36   16.50
  -1  -4   4  381.16   16.20
  -1  -4   4  410.66   16.50
   0   4  -4   53.29    2.90
   0   4  -4   52.39    3.40
   0   4  -4   58.39    5.90
   0   4  -4   55.19    3.60
   0  -4   4   53.69    3.10
   0  -4   4   59.29    2.70
   0  -4   4   58.39    2.60
   0  -4   4   57.79    3.60
   0  -4   4   57.19    3.70
  -1   4  -4   83.89    4.10
  -1   4  -4   76.69    4.30
  -1   4  -4   83.99    6.50
   1  -4   4   77.09    4.40
   1  -4   4   86.39    3.50
   1  -4   4   81.69    3.90
   1  -4   4   84.89    4.80
   1  -4   4   83.99    4.10
  -2   4  -4 1122.89   44.70
  -2   4  -4 1215.08   44.40
  -2   4  -4 1191.88   47.30
  -2   4  -4 1147.09   43.70
  -2   4  -4 1094.49   44.20
   2  -4   4 1181.38   45.50
   2  -4   4 1087.89   44.50
   2  -4   4 1161.38   44.20
   2  -4   4 1077.39   44.30
   2  -4   4 1163.68   44.10
  -3   4  -4   44.10    3.00
  -3   4  -4   54.89    4.90
  -3   4  -4   52.29    2.50
  -3   4  -4   49.30    3.30
   3  -4   4   51.79    2.80
   3  -4   4   50.69    3.30
   3  -4   4   48.90    3.20
  -4   4  -4  203.28   10.90
  -4   4  -4  194.68    8.20
  -4   4  -4  192.68    9.10
  -4   4  -4  184.48   10.30
   4  -4   4  203.68    9.10
   4  -4   4  208.68    8.90
   4  -4   4  204.18    8.80
  -5   4  -4  171.38   10.50
  -5   4  -4  177.78    7.90
  -5   4  -4  190.28   10.40
  -5   4  -4  179.38    8.80
  -5   4  -4  170.08   10.10
   5  -4   4  181.68    8.50
   5  -4   4  197.78    8.10
   5  -4   4  192.18    8.90
   5  -4   4  198.28    8.60
  -6   4  -4  189.28   10.40
  -6   4  -4  175.28    8.80
  -6   4  -4  162.48   10.20
  -6   4  -4  178.58    7.90
  -6   4  -4  173.38   11.10
   6  -4   4  186.68    8.70
   6  -4   4  181.78    8.50
   6  -4   4  178.98    8.80
  -7   4  -4  251.47   14.80
  -7   4  -4  271.37   12.00
  -7   4  -4  292.67   13.30
  -7   4  -4  275.07   15.90
   7  -4   4  290.27   13.20
   7  -4   4  302.87   12.80
   7  -4   4  304.17   12.80
  -8   4  -4  104.59    9.90
  -8   4  -4  108.49    5.90
  -8   4  -4  117.89    7.10
   8  -4   4  117.69    6.90
   8  -4   4  123.29    7.10
  -9   4  -4   44.20    8.30
  -9   4  -4   44.40    4.30
  -9   4  -4   31.00    3.20
   9  -4   4   45.90    4.90
   9  -4   4   36.90    4.30
  10   3  -4   -0.10    3.00
   9   3  -4   -1.70    2.90
  -9  -3   4   -0.70    1.00
  -9  -3   4   -1.80    1.40
   8   3  -4   -1.50    2.50
   8   3  -4   -1.40    1.60
  -8  -3   4   -0.30    1.70
  -8  -3   4    1.00    1.10
  -8  -3   4    1.50    2.20
  -8  -3   4    0.60    1.60
   7   3  -4    3.20    1.50
   7   3  -4    5.90    2.60
   7   3  -4    2.70    1.50
  -7  -3   4    7.00    1.50
  -7  -3   4    5.10    2.30
  -7  -3   4    4.90    1.30
  -7  -3   4    5.80    1.90
  -7  -3   4    4.40    2.20
   6   3  -4   -0.10    2.30
   6   3  -4   -1.40    1.20
   6   3  -4    0.00    1.90
   6   3  -4    0.20    1.20
  -6  -3   4    0.70    1.50
  -6  -3   4    0.60    0.90
  -6  -3   4   -1.60    1.00
  -6  -3   4    2.40    1.00
  -6  -3   4    0.20    1.30
   5   3  -4  201.68   15.70
   5   3  -4  224.98   10.60
   5   3  -4  225.18    9.20
   5   3  -4  219.58   10.80
   5   3  -4  221.28    9.20
  -5  -3   4  224.68   10.20
  -5  -3   4  226.48    9.40
  -5  -3   4  234.18    9.60
  -5  -3   4  224.38   10.50
  -5  -3   4  203.88   10.40
   4   3  -4   25.70    3.30
   4   3  -4   29.10    2.10
   4   3  -4   28.90    2.00
   4   3  -4   20.10    4.90
  -4  -3   4   27.50    2.50
  -4  -3   4   28.80    2.00
  -4  -3   4   25.00    2.30
  -4  -3   4   28.30    1.90
  -4  -3   4   31.20    2.70
  -4  -3   4   23.90    2.60
   3   3  -4   25.00    1.70
   3   3  -4   27.70    2.90
   3   3  -4   25.20    5.60
  -3  -3   4   20.70    2.20
  -3  -3   4   23.40    1.90
  -3  -3   4   21.90    2.40
  -3  -3   4   23.80    2.00
  -3  -3   4   23.40    2.40
   2   3  -4  814.02   37.20
   2   3  -4  866.31   33.00
   2   3  -4  843.02   33.80
  -2  -3   4  841.92   33.70
  -2  -3   4  859.31   33.80
  -2  -3   4  899.11   33.40
  -2  -3   4  873.81   33.70
   1   3  -4    0.20    1.40
   1   3  -4   -0.50    0.90
   1   3  -4    0.30    0.60
   1   3  -4    0.40    0.60
  -1  -3   4   -0.40    0.70
  -1  -3   4    0.70    0.60
  -1  -3   4    0.00    1.00
  -1  -3   4    0.80    1.50
   0   3  -4   67.49    3.60
   0   3  -4   72.59    3.80
   0  -3   4   74.49    3.00
   0  -3   4   71.89    3.90
   0  -3   4   73.59    3.50
   0  -3   4   71.69    3.90
   0  -3   4   74.59    3.40
   0  -3   4   75.09    3.80
  -1   3  -4  599.44   22.40
  -1   3  -4  513.05   21.50
  -1   3  -4  534.35   21.90
  -1   3  -4  537.95   24.00
   1  -3   4  534.15   21.90
   1  -3   4  554.54   21.50
   1  -3   4  568.44   22.30
   1  -3   4  554.14   21.60
   1  -3   4  569.24   22.30
  -2   3  -4    1.20    0.80
  -2   3  -4   -0.10    0.80
  -2   3  -4    2.30    1.10
  -2   3  -4   -0.20    0.60
  -2   3  -4    0.30    0.30
  -2   3  -4    0.60    0.90
   2  -3   4    1.10    0.60
   2  -3   4    1.70    1.20
   2  -3   4    0.90    1.10
   2  -3   4   -0.10    0.80
   2  -3   4    0.70    0.90
  -3   3  -4   15.40    2.50
  -3   3  -4   11.40    2.20
  -3   3  -4   10.90    1.50
  -3   3  -4   11.20    0.90
  -3   3  -4   12.50    1.60
  -3   3  -4   12.40    2.20
   3  -3   4   12.70    1.50
   3  -3   4   12.00    1.70
   3  -3   4   10.30    1.80
   3  -3   4   10.40    1.60
  -4   3  -4   15.90    2.80
  -4   3  -4   15.30    1.80
  -4   3  -4   17.90    2.80
  -4   3  -4   15.20    2.80
  -4   3  -4   15.10    1.30
   4  -3   4   14.10    2.00
   4  -3   4   15.90    1.80
   4  -3   4   13.10    2.10
   4  -3   4   13.60    2.00
   4  -3   4   16.80    0.90
  -5   3  -4    3.40    2.10
  -5   3  -4    3.60    1.20
  -5   3  -4    3.50    1.90
  -5   3  -4    4.20    0.80
  -5   3  -4    1.90    1.20
   5  -3   4    2.50    1.20
   5  -3   4    5.10    1.90
   5  -3   4    4.30    1.40
   5  -3   4    3.20    1.70
  -6   3  -4    4.40    1.40
  -6   3  -4    4.40    1.60
  -6   3  -4    4.10    2.40
  -6   3  -4    6.50    2.20
  -6   3  -4    3.90    1.00
   6  -3   4    5.30    1.60
   6  -3   4    4.50    2.10
   6  -3   4    4.00    1.90
   6  -3   4    6.10    1.70
  -7   3  -4    0.90    0.80
  -7   3  -4    0.90    1.20
  -7   3  -4    1.20    1.80
  -7   3  -4   -0.40    1.10
  -7   3  -4    1.00    2.60
   7  -3   4    1.40    1.50
   7  -3   4    2.10    1.90
   7  -3   4    0.60    2.20
   7  -3   4    2.50    1.50
  -8   3  -4   50.09    3.50
  -8   3  -4   52.79    4.40
  -8   3  -4   51.09    7.00
   8  -3   4   51.89    4.50
   8  -3   4   50.89    4.60
  -9   3  -4   72.29    9.00
  -9   3  -4   79.49    5.00
  -9   3  -4   88.99    6.20
   9  -3   4   82.99    6.00
   9  -3   4   84.49    6.00
 -10   3  -4   78.19    5.30
  10  -3   4   89.99    6.30
  10  -3   4   88.59    6.40
  10   2  -4   -2.30    2.90
   9   2  -4    0.30    2.10
   9   2  -4   -1.20    2.80
  -9  -2   4    2.10    2.80
  -9  -2   4    1.20    1.50
  -9  -2   4    0.00    0.90
   8   2  -4    5.00    2.00
   8   2  -4    3.40    2.80
   8   2  -4    2.10    1.80
  -8  -2   4    4.10    1.20
  -8  -2   4    9.40    3.30
  -8  -2   4    4.30    1.70
   7   2  -4   10.00    1.90
   7   2  -4   12.30    1.90
   7   2  -4   10.00    2.70
  -7  -2   4   13.90    3.00
  -7  -2   4   14.20    3.10
  -7  -2   4   13.20    1.90
  -7  -2   4   13.20    2.20
  -7  -2   4   13.50    1.70
   6   2  -4  172.18    9.10
   6   2  -4  168.48    7.90
   6   2  -4  170.98    7.50
   6   2  -4  167.98    7.50
  -6  -2   4  164.88    8.80
  -6  -2   4  174.08    8.20
  -6  -2   4  167.88    9.10
  -6  -2   4  170.88    7.90
  -6  -2   4  169.38    7.40
   5   2  -4   41.00    3.70
   5   2  -4   42.40    4.00
   5   2  -4   42.50    2.80
   5   2  -4   44.40    2.80
   5   2  -4   41.80    7.90
  -5  -2   4   43.00    2.80
  -5  -2   4   39.60    3.40
  -5  -2   4   42.80    3.40
  -5  -2   4   40.00    3.00
  -5  -2   4   40.00    2.40
  -5  -2   4   44.10    2.60
  -5  -2   4   40.60    2.70
   4   2  -4  837.82   41.00
   4   2  -4  951.40   36.30
   4   2  -4  972.00   36.40
   4   2  -4  952.80   37.50
  -4  -2   4  981.70   36.20
  -4  -2   4  928.91   37.40
  -4  -2   4  958.10   37.30
  -4  -2   4  921.11   37.00
  -4  -2   4  973.50   36.40
  -4  -2   4  922.21   36.40
  -4  -2   4  961.50   36.80
   3   2  -4  427.76   16.00
   3   2  -4  389.36   16.40
   3   2  -4  347.27   19.20
   3   2  -4  381.16   15.40
  -3  -2   4  389.66   16.20
  -3  -2   4  403.46   15.30
  -3  -2   4  400.96   16.00
  -3  -2   4  392.56   15.90
  -3  -2   4  395.36   16.10
   2   2  -4   26.20    2.20
   2   2  -4   27.50    3.80
  -2  -2   4   23.70    2.20
  -2  -2   4   26.20    2.00
  -2  -2   4   26.20    1.40
  -2  -2   4   25.30    1.60
  -2  -2   4   26.80    2.10
   1   2  -4  466.35   20.60
   1   2  -4  451.95   18.30
   1   2  -4  485.55   18.10
  -1  -2   4  458.35   18.30
  -1  -2   4  471.25   17.70
  -1  -2   4  464.55   17.90
  -1  -2   4  458.65   17.90
  -1  -2   4  453.25   18.20
  -1  -2   4  422.06   18.50
   0   2  -4   53.99    4.30
   0   2  -4   57.39    3.00
   0   2  -4   56.59    3.00
   0   2  -4   60.39    3.10
   0   2  -4   61.49    2.80
   0  -2   4   59.19    2.90
   0  -2   4   57.59    2.90
   0  -2   4   61.29    2.70
   0  -2   4   59.19    3.10
   0  -2   4   60.09    2.80
  -1   2  -4  622.84   25.70
  -1   2  -4  569.94   23.80
  -1   2  -4  566.24   24.20
  -1   2  -4  583.74   24.00
   1  -2   4  626.84   24.10
   1  -2   4  611.44   23.80
   1  -2   4  622.34   23.90
   1  -2   4  648.24   23.90
   1  -2   4  626.84   23.60
  -2   2  -4  132.49    7.30
  -2   2  -4  122.59    6.30
  -2   2  -4  126.79    5.80
  -2   2  -4  126.39    5.70
  -2   2  -4  125.09    6.30
   2  -2   4  123.79    5.70
   2  -2   4  133.79    5.10
   2  -2   4  150.68    6.30
   2  -2   4  119.39    5.50
   2  -2   4  133.59    5.90
   2  -2   4  120.89    5.90
  -3   2  -4   11.70    1.50
  -3   2  -4   11.50    1.30
  -3   2  -4   11.20    1.80
  -3   2  -4   10.70    1.70
  -3   2  -4   13.10    2.30
   3  -2   4   11.10    1.50
   3  -2   4   12.20    1.60
   3  -2   4   13.40    0.60
   3  -2   4   12.30    0.90
   3  -2   4   14.30    1.70
   3  -2   4   11.10    2.00
   3  -2   4   13.00    1.60
  -4   2  -4  177.68    9.50
  -4   2  -4  160.78    7.70
  -4   2  -4  161.08    8.80
  -4   2  -4  160.38    8.60
   4  -2   4  177.88    7.70
   4  -2   4  179.78    8.20
   4  -2   4  165.28    7.70
   4  -2   4  184.28    7.70
   4  -2   4  184.38    7.30
  -5   2  -4  268.87   12.30
  -5   2  -4  277.67   14.10
  -5   2  -4  280.87   13.60
   5  -2   4  294.27   13.00
   5  -2   4  304.87   12.30
   5  -2   4  300.47   12.50
   5  -2   4  305.67   12.30
  -6   2  -4    0.80    1.50
  -6   2  -4   -0.20    1.50
  -6   2  -4    0.10    0.90
   6  -2   4   -0.20    1.70
   6  -2   4   -0.10    1.20
   6  -2   4    0.50    1.50
   6  -2   4    0.20    1.60
  -7   2  -4    8.00    3.30
  -7   2  -4    9.80    1.90
  -7   2  -4    9.60    2.80
   7  -2   4    9.40    2.10
   7  -2   4    7.30    2.10
   7  -2   4    6.50    2.30
   7  -2   4    6.30    2.30
  -8   2  -4    3.80    1.50
  -8   2  -4    6.30    3.50
   8  -2   4   10.90    2.90
   8  -2   4    2.30    2.20
   8  -2   4    5.80    2.50
   8  -2   4    3.60    2.00
  -9   2  -4   10.20    2.40
  -9   2  -4   11.80    5.10
   9  -2   4   14.10    3.10
   9  -2   4   13.00    2.90
 -10   2  -4    2.20    1.20
 -10   2  -4   13.30    4.40
  10  -2   4    2.60    2.10
  10  -2   4    0.50    2.80
  10   1  -4   18.10    3.10
  10   1  -4   15.90    3.80
 -10  -1   4   18.90    2.60
   9   1  -4   11.30    2.40
   9   1  -4    7.90    2.50
   9   1  -4    9.90    3.30
  -9  -1   4   17.30    4.40
  -9  -1   4    8.40    2.00
  -9  -1   4    9.20    1.50
   8   1  -4   80.49    5.10
   8   1  -4   87.99    6.80
   8   1  -4   79.69    5.20
  -8  -1   4   86.79    5.50
  -8  -1   4   90.39    4.50
  -8  -1   4  100.59    7.60
   7   1  -4   -1.30    1.90
   7   1  -4    2.20    1.70
   7   1  -4   -0.50    1.40
  -7  -1   4    2.30    1.20
   6   1  -4   46.80    4.40
   6   1  -4   46.20    3.30
   6   1  -4   45.20    3.10
   6   1  -4   44.40    3.20
   6   1  -4   49.80    2.50
  -6  -1   4   49.20    2.70
  -6  -1   4   45.10    3.20
  -6  -1   4   43.50    3.20
  -6  -1   4   45.50    4.20
   5   1  -4   27.50    2.50
   5   1  -4   32.90    6.50
   5   1  -4   30.10    3.30
   5   1  -4   29.50    2.60
   5   1  -4   30.80    2.20
   5   1  -4   32.90    2.60
  -5  -1   4   29.40    2.20
  -5  -1   4   28.10    1.90
  -5  -1   4   28.90    2.40
  -5  -1   4   27.70    2.70
  -5  -1   4   29.30    3.00
   4   1  -4  938.51   44.10
   4   1  -4 1042.80   40.40
   4   1  -4 1067.59   41.40
   4   1  -4 1094.89   40.40
   4   1  -4 1082.59   40.50
  -4  -1   4 1072.99   40.40
  -4  -1   4 1087.79   40.90
  -4  -1   4 1055.19   40.60
  -4  -1   4 1045.80   41.60
  -4  -1   4 1019.10   40.90
  -4  -1   4 1045.60   41.40
   3   1  -4   55.49    3.60
   3   1  -4   50.99    2.80
   3   1  -4   58.69    3.00
   3   1  -4   51.69    2.80
   3   1  -4   51.69    5.20
  -3  -1   4   55.99    3.20
  -3  -1   4   50.09    2.40
  -3  -1   4   55.29    3.20
  -3  -1   4   56.59    2.40
  -3  -1   4   55.49    2.70
  -3  -1   4   56.29    3.10
  -3  -1   4   53.79    3.20
   2   1  -4  537.55   21.90
   2   1  -4  570.64   24.00
   2   1  -4  582.84   21.40
   2   1  -4  625.44   22.00
   2   1  -4  531.95   21.40
  -2  -1   4  531.75   21.80
  -2  -1   4  547.65   21.90
  -2  -1   4  536.55   21.60
  -2  -1   4  520.15   21.70
  -2  -1   4  530.65   21.30
   1   1  -4  533.75   19.80
   1   1  -4  514.05   21.60
   1   1  -4  504.55   19.80
   1   1  -4  513.95   19.40
   1   1  -4  472.15   19.70
  -1  -1   4  475.15   20.00
  -1  -1   4  499.85   19.60
  -1  -1   4  487.65   19.40
  -1  -1   4  487.95   19.70
  -1  -1   4  514.75   19.30
  -1  -1   4  504.95   19.20
  -1  -1   4  516.95   19.80
   0   1  -4  174.78    7.00
   0   1  -4  163.98    8.40
   0   1  -4  182.48    6.80
   0   1  -4  169.08    6.90
   0   1  -4  168.28    6.60
   0   1  -4  152.48    6.90
   0  -1   4  170.78    6.60
   0  -1   4  170.18    6.90
   0  -1   4  163.38    7.00
   0  -1   4  165.78    6.50
   0  -1   4  163.68    7.00
   0  -1   4  158.58    7.50
  -1   1  -4 1086.69   42.30
  -1   1  -4 1120.99   42.80
  -1   1  -4 1013.40   42.50
  -1   1  -4 1103.49   42.70
  -1   1  -4 1127.49   44.20
  -1   1  -4 1105.19   42.40
   1  -1   4 1148.79   42.70
   1  -1   4 1120.29   42.60
   1  -1   4 1043.50   42.90
   1  -1   4 1146.49   42.70
   1  -1   4 1108.29   43.10
   1  -1   4 1100.29   42.90
   1  -1   4 1149.58   42.60
  -2   1  -4  258.17   11.10
  -2   1  -4  283.37   11.30
  -2   1  -4  265.87   11.20
  -2   1  -4  281.47   11.80
  -2   1  -4  285.47   11.80
   2  -1   4  287.57   11.20
   2  -1   4  285.17   11.70
   2  -1   4  256.87   11.50
   2  -1   4  280.97   11.80
   2  -1   4  285.87   10.60
  -3   1  -4  176.28    7.60
  -3   1  -4  172.18    7.70
  -3   1  -4  179.68    8.60
  -3   1  -4  179.28    8.40
   3  -1   4  186.68    7.80
   3  -1   4  192.58    8.30
   3  -1   4  165.38    8.20
   3  -1   4  172.58    7.60
   3  -1   4  195.68    7.20
   3  -1   4  184.18    8.40
  -4   1  -4   99.59    5.60
  -4   1  -4   96.69    4.70
  -4   1  -4   92.69    4.70
  -4   1  -4   92.79    5.80
   4  -1   4  101.09    5.00
   4  -1   4  102.19    4.40
   4  -1   4   99.99    4.90
   4  -1   4   97.19    5.70
   4  -1   4  100.89    5.50
  -5   1  -4   74.99    5.00
  -5   1  -4   69.79    3.90
  -5   1  -4   70.29    5.20
   5  -1   4   69.59    4.10
   5  -1   4   75.69    5.20
   5  -1   4   71.99    4.10
   5  -1   4   76.69    4.30
  -6   1  -4   20.90    2.20
  -6   1  -4   22.50    3.00
  -6   1  -4   20.00    3.30
   6  -1   4   16.40    2.30
   6  -1   4   19.00    2.40
   6  -1   4   20.30    3.40
   6  -1   4   21.30    2.70
  -7   1  -4   33.50    3.00
  -7   1  -4   31.80    4.60
  -7   1  -4   40.00    4.10
   7  -1   4   35.20    4.50
   7  -1   4   37.90    3.60
   7  -1   4   39.60    3.40
   7  -1   4   36.50    3.30
  -8   1  -4   51.49    4.60
  -8   1  -4   33.90    5.40
  -8   1  -4   31.00    3.40
   8  -1   4   40.40    5.10
   8  -1   4   38.30    3.80
   8  -1   4   41.70    4.10
  -9   1  -4   -0.10    2.70
  -9   1  -4    1.30    1.50
   9  -1   4   -1.30    1.70
   9  -1   4    1.40    2.50
   9  -1   4    2.50    2.70
 -10   1  -4   44.30    4.20
  10  -1   4   39.80    4.90
  10  -1   4   39.90    4.20
  10   0  -4    2.50    2.90
  10   0  -4    5.00    2.60
 -10   0   4    3.90    1.60
   9   0  -4   15.90    3.60
   9   0  -4   10.60    2.90
  -9   0   4   10.70    2.00
  -9   0   4   12.00    2.20
  -9   0   4   15.30    1.80
  -9   0   4   17.20    4.80
   8   0  -4   96.49    6.80
   8   0  -4   90.89    5.50
   8   0  -4   98.09    5.70
  -8   0   4   95.59    4.70
  -8   0   4   90.59    5.40
  -8   0   4   89.69    5.30
  -8   0   4   92.19    7.70
   7   0  -4  153.68    7.40
   7   0  -4  154.08    7.40
   7   0  -4  144.59    8.30
  -7   0   4  155.98    7.60
  -7   0   4  152.38    9.40
  -7   0   4  153.88    8.00
  -7   0   4  161.08    6.80
   6   0  -4   45.50    3.40
   6   0  -4   48.10    3.20
   6   0  -4   43.00    3.80
   6   0  -4   47.30    2.90
  -6   0   4   45.60    3.40
  -6   0   4   47.70    3.20
  -6   0   4   42.10    4.30
  -6   0   4   46.10    2.60
   5   0  -4  100.19    5.60
   5   0  -4   88.39    8.10
   5   0  -4   97.09    4.90
   5   0  -4  101.89    5.00
   5   0  -4  102.69    4.70
  -5   0   4   94.69    6.00
  -5   0   4   94.69    4.80
  -5   0   4  100.69    4.50
   4   0  -4   65.59    6.20
   4   0  -4   71.89    3.70
   4   0  -4   69.49    3.40
   4   0  -4   65.19    3.60
   4   0  -4   72.09    4.40
  -4   0   4   70.69    3.40
  -4   0   4   72.19    3.60
  -4   0   4   67.49    3.50
  -4   0   4   72.59    3.50
  -4   0   4   74.79    4.00
  -4   0   4   70.89    4.60
  -4   0   4   73.29    3.80
   3   0  -4  210.08   10.60
   3   0  -4  218.68    8.70
   3   0  -4  208.08    8.90
   3   0  -4  203.38    8.40
   3   0  -4  200.68    8.40
   3   0  -4  206.68    8.20
  -3   0   4  198.18    8.20
  -3   0   4  193.28    8.40
  -3   0   4  196.08    9.20
  -3   0   4  209.08    8.40
  -3   0   4  197.98    8.80
  -3   0   4  207.88    8.50
   2   0  -4   98.19    4.50
   2   0  -4  100.49    4.40
   2   0  -4   99.79    5.80
   2   0  -4   91.39    4.00
   2   0  -4   96.19    4.30
  -2   0   4   96.29    4.20
  -2   0   4   95.49    4.10
  -2   0   4  100.49    4.40
  -2   0   4  101.39    4.30
  -2   0   4   94.29    4.70
   1   0  -4  458.25   19.10
   1   0  -4  454.25   17.70
   1   0  -4  455.05   17.40
   1   0  -4  472.85   17.60
   1   0  -4  431.86   17.50
   1   0  -4  433.16   17.40
   1   0  -4  452.65   17.70
  -1   0   4  446.76   17.40
  -1   0   4  460.65   17.40
  -1   0   4  441.36   17.70
  -1   0   4  435.06   17.40
  -1   0   4  448.86   17.70
  -1   0   4  455.05   17.50
  -1   0   4  450.95   18.00
   0   0  -4 3094.19  109.79
   0   0  -4 2772.42  110.39
   0   0  -4 2825.82  112.09
   0   0  -4 2881.51  110.29
   0   0  -4 2701.23  111.69
   0   0  -4 2742.83  110.49
   0   0  -4 2998.00  119.69
   0   0   4 2863.61  109.89
   0   0   4 2984.70  110.39
   0   0   4 2868.11  111.09
   0   0   4 2826.82  113.59
   0   0   4 2797.62  112.19
   0   0   4 3007.80  112.29
  -1   0  -4 3966.40  160.28
  -1   0  -4 4012.20  162.68
  -1   0  -4 4579.54  159.28
  -1   0  -4 4031.60  159.58
  -1   0  -4 4646.04  159.98
  -1   0  -4 3991.80  162.48
  -1   0  -4 3935.11  159.98
   1   0   4 4406.66  159.38
   1   0   4 3971.40  161.78
   1   0   4 4277.67  163.88
   1   0   4 4041.30  161.18
   1   0   4 4211.48  162.38
   1   0   4 4016.50  160.28
   1   0   4 4201.08  163.38
   1   0   4 4350.86  159.98
  -2   0  -4  368.86   13.80
  -2   0  -4  358.86   14.10
  -2   0  -4  348.17   14.60
  -2   0  -4  321.27   14.00
  -2   0  -4  345.17   14.70
  -2   0  -4  379.46   13.60
  -2   0  -4  346.87   14.00
   2   0   4  354.06   14.50
   2   0   4  364.36   15.00
   2   0   4  371.26   14.70
   2   0   4  349.27   14.50
   2   0   4  354.46   14.00
   2   0   4  356.56   13.60
  -3   0  -4  999.60   39.70
  -3   0  -4 1056.59   40.00
  -3   0  -4 1005.40   40.80
  -3   0  -4  996.10   39.70
  -3   0  -4 1027.40   40.60
   3   0   4 1011.50   40.10
   3   0   4  985.40   39.60
   3   0   4 1056.69   39.90
   3   0   4 1139.39   39.90
   3   0   4 1006.70   40.90
   3   0   4 1108.49   40.70
   3   0   4  969.10   40.30
  -4   0  -4    1.30    1.10
  -4   0  -4    1.60    0.60
  -4   0  -4   -0.50    1.00
  -4   0  -4    2.80    0.80
  -4   0  -4    0.80    1.10
   4   0   4    2.10    1.20
   4   0   4    0.80    1.60
   4   0   4    1.10    1.70
   4   0   4    2.10    1.00
   4   0   4    3.00    1.60
  -5   0  -4   59.89    3.40
  -5   0  -4   62.39    4.40
  -5   0  -4   54.79    4.60
  -5   0  -4   60.59    3.30
   5   0   4   59.39    3.70
   5   0   4   58.49    5.00
   5   0   4   60.19    3.50
  -6   0  -4  109.89    6.90
  -6   0  -4  107.99    7.30
  -6   0  -4  112.19    5.70
   6   0   4  118.89    6.20
   6   0   4  122.19    5.70
   6   0   4  105.49    7.50
  -7   0  -4    0.20    2.00
  -7   0  -4    0.10    0.90
  -7   0  -4    1.50    1.50
   7   0   4    2.00    1.90
   7   0   4    1.30    1.60
   7   0   4    0.00    2.40
  -8   0  -4   16.10    2.40
  -8   0  -4   30.20    4.80
   8   0   4   17.60    2.90
   8   0   4   24.50    3.00
   8   0   4   25.00    4.80
  -9   0  -4    0.40    3.00
  -9   0  -4    0.40    1.40
   9   0   4    0.50    2.10
   9   0   4   -0.10    2.90
   9   0   4   -0.60    2.00
 -10   0  -4   51.59    4.30
 -10   0  -4   62.99    7.70
  10   0   4   45.00    6.50
  10   0   4   39.00    4.10
  10   0   4   26.70    5.50
  10  -1  -4   -0.80    2.60
  10  -1  -4   -2.80    2.60
 -10   1   4    0.60    1.50
   9  -1  -4   16.10    3.50
   9  -1  -4   18.10    3.30
  -9   1   4   15.40    4.60
  -9   1   4   15.20    2.40
  -9   1   4   16.80    1.90
  -9   1   4   17.10    2.70
   8  -1  -4    1.20    1.90
   8  -1  -4   -0.60    1.90
   8  -1  -4   -1.30    2.00
  -8   1   4   -2.00    2.10
  -8   1   4   -0.30    1.00
  -8   1   4   -0.70    0.80
  -8   1   4   -0.70    1.00
   7  -1  -4  176.18    8.30
   7  -1  -4  169.68    8.20
   7  -1  -4  174.78    9.00
  -7   1   4  174.48    8.20
  -7   1   4  167.18   10.60
  -7   1   4  185.08    9.10
  -7   1   4  178.88    7.60
  -7   1   4  169.48    8.20
   6  -1  -4   31.80    2.20
   6  -1  -4   27.60    2.70
   6  -1  -4   23.60    2.70
   6  -1  -4   24.80    3.20
  -6   1   4   23.90    1.90
  -6   1   4   22.60    2.30
  -6   1   4   24.40    3.60
  -6   1   4   25.10    3.00
  -6   1   4   24.90    2.10
   5  -1  -4   83.39    4.40
   5  -1  -4   80.29    4.70
   5  -1  -4   77.29    6.50
   5  -1  -4   79.69    4.40
   5  -1  -4   86.89    4.30
  -5   1   4   79.09    4.20
  -5   1   4   76.39    5.50
  -5   1   4   82.29    4.10
  -5   1   4   77.69    3.80
  -5   1   4   86.59    5.00
   4  -1  -4   69.19    3.00
   4  -1  -4   73.59    3.90
   4  -1  -4   74.19    3.90
   4  -1  -4   66.39    5.50
   4  -1  -4   70.19    3.70
   4  -1  -4   71.59    4.20
  -4   1   4   69.39    3.70
  -4   1   4   72.09    3.70
  -4   1   4   69.79    3.50
  -4   1   4   69.99    4.20
  -4   1   4   83.29    4.60
  -4   1   4   70.49    3.40
   3  -1  -4  109.09    6.00
   3  -1  -4   96.59    4.80
   3  -1  -4   92.49    4.70
   3  -1  -4  100.49    4.70
   3  -1  -4   98.89    4.90
   3  -1  -4  101.99    4.50
   3  -1  -4  112.39    4.80
  -3   1   4   96.39    4.40
  -3   1   4  120.09    5.70
  -3   1   4  104.09    4.70
  -3   1   4  107.49    4.70
  -3   1   4  100.19    5.10
  -3   1   4  106.19    5.20
  -3   1   4  102.09    4.50
   2  -1  -4  733.53   29.60
   2  -1  -4  800.92   30.90
   2  -1  -4  777.12   29.70
   2  -1  -4  774.12   30.00
   2  -1  -4  825.22   29.50
   2  -1  -4  761.82   29.60
  -2   1   4  732.33   29.40
  -2   1   4  752.92   29.60
  -2   1   4  717.13   30.00
  -2   1   4  757.52   29.30
  -2   1   4  787.12   30.00
   1  -1  -4  198.88    8.70
   1  -1  -4  214.18    9.50
   1  -1  -4  208.78    8.00
   1  -1  -4  198.18    8.20
  -1   1   4  205.98    8.50
  -1   1   4  196.18    8.20
  -1   1   4  195.98    8.10
  -1   1   4  211.58    7.80
  -1   1   4  194.08    8.70
  -1   1   4  203.98    8.80
   0  -1  -4   26.70    2.00
   0  -1  -4   29.80    1.30
   0  -1  -4   28.90    1.30
   0   1   4   27.00    1.40
   0   1   4   29.80    2.50
   0   1   4   28.30    2.00
   0   1   4   31.00    1.70
   0   1   4   30.40    2.00
   0   1   4   27.30    2.00
   0   1   4   29.60    2.30
  -1  -1  -4  126.79    5.40
  -1  -1  -4  119.89    5.90
  -1  -1  -4  126.29    6.00
  -1  -1  -4  128.59    5.10
  -1  -1  -4  130.49    5.10
  -1  -1  -4  123.49    5.20
   1   1   4  121.39    5.80
   1   1   4  123.99    5.10
   1   1   4  125.49    6.20
   1   1   4  125.69    6.00
   1   1   4  131.89    5.10
   1   1   4  148.59    5.10
   1   1   4  124.89    5.70
   1   1   4  124.39    5.70
  -2  -1  -4 2139.89   86.39
  -2  -1  -4 2351.06   86.39
  -2  -1  -4 2311.27   88.09
  -2  -1  -4 2172.38   86.79
  -2  -1  -4 2139.99   87.39
  -2  -1  -4 2202.68   88.29
   2   1   4 2269.97   87.99
   2   1   4 2326.17   88.19
   2   1   4 2278.77   86.99
   2   1   4 2359.56   87.79
   2   1   4 2279.57   86.49
  -3  -1  -4  211.18    8.90
  -3  -1  -4  207.68    9.90
  -3  -1  -4  199.88    8.80
  -3  -1  -4  201.18    8.70
  -3  -1  -4  211.48    9.70
  -3  -1  -4  227.38    8.30
  -3  -1  -4  214.98    9.10
   3   1   4  218.78    9.00
   3   1   4  211.88    9.50
   3   1   4  228.18    9.90
   3   1   4  222.18   10.40
   3   1   4  220.68    9.50
   3   1   4  209.58    8.90
  -4  -1  -4   83.59    4.20
  -4  -1  -4   81.69    5.10
  -4  -1  -4   82.59    4.10
  -4  -1  -4   88.39    3.40
  -4  -1  -4   80.59    4.10
  -4  -1  -4   79.29    5.30
   4   1   4   85.49    4.90
   4   1   4   85.69    5.80
   4   1   4   88.49    4.50
   4   1   4   80.19    5.20
   4   1   4   92.19    4.30
  -5  -1  -4   15.80    2.50
  -5  -1  -4   15.50    0.70
  -5  -1  -4   16.80    3.00
  -5  -1  -4   15.70    0.70
  -5  -1  -4   12.40    1.60
  -5  -1  -4   11.90    1.40
  -5  -1  -4   14.10    1.50
   5   1   4   13.40    3.10
   5   1   4   14.70    2.60
   5   1   4   14.60    1.70
   5   1   4   16.90    2.00
   5   1   4   17.90    2.30
  -6  -1  -4    3.80    2.10
  -6  -1  -4    3.20    1.10
  -6  -1  -4    6.60    2.10
  -6  -1  -4    6.50    1.50
   6   1   4    3.10    2.30
   6   1   4    6.30    1.30
   6   1   4    4.70    1.60
   6   1   4    4.10    2.50
   6   1   4    4.40    1.50
  -7  -1  -4   70.39    5.50
  -7  -1  -4   68.99    4.40
  -7  -1  -4   67.69    6.10
  -7  -1  -4   70.79    4.40
   7   1   4   61.19    5.60
   7   1   4   69.69    4.10
   7   1   4   71.59    6.90
   7   1   4   75.89    5.00
  -8  -1  -4    1.20    2.50
  -8  -1  -4    0.10    1.10
   8   1   4    0.20    2.90
   8   1   4   -4.70    2.70
   8   1   4   -1.10    1.70
   8   1   4   -1.30    1.70
  -9  -1  -4    6.80    1.90
  -9  -1  -4    9.80    4.50
   9   1   4    8.60    4.00
   9   1   4    2.20    3.40
   9   1   4    7.60    2.20
   9   1   4    3.30    3.60
 -10  -1  -4    8.70    2.10
  10   1   4    3.20    3.80
  10   1   4    6.70    3.80
  10  -2  -4  120.59    7.60
  10  -2  -4  128.09    8.60
 -10   2   4  132.39    7.60
   9  -2  -4   23.30    3.40
   9  -2  -4   24.30    3.80
  -9   2   4   15.50    2.40
  -9   2   4   22.90    2.20
   8  -2  -4    3.40    2.30
   8  -2  -4    2.90    2.20
   8  -2  -4    1.30    2.00
  -8   2   4    2.90    1.30
  -8   2   4    1.90    1.00
  -8   2   4    3.80    1.50
  -8   2   4    3.10    2.00
   7  -2  -4   28.50    3.10
   7  -2  -4   27.00    2.90
   7  -2  -4   32.10    3.70
  -7   2   4   27.20    2.10
  -7   2   4   32.20    4.00
  -7   2   4   29.70    2.80
  -7   2   4   28.90    2.50
   6  -2  -4   60.09    4.20
   6  -2  -4   65.99    3.90
   6  -2  -4   60.69    4.00
   6  -2  -4   56.99    3.90
  -6   2   4   61.09    4.80
  -6   2   4   65.29    3.60
  -6   2   4   61.99    3.80
  -6   2   4   55.99    3.20
   5  -2  -4  372.06   15.90
   5  -2  -4  383.76   15.90
   5  -2  -4  398.76   16.40
   5  -2  -4  381.96   16.30
  -5   2   4  402.96   17.00
  -5   2   4  374.46   15.50
  -5   2   4  394.96   16.10
  -5   2   4  413.26   15.90
   4  -2  -4  411.36   18.60
   4  -2  -4  461.15   18.60
   4  -2  -4  464.95   18.00
   4  -2  -4  441.66   18.20
   4  -2  -4  449.16   17.90
  -4   2   4  436.96   17.70
  -4   2   4  470.95   18.90
  -4   2   4  446.66   18.10
  -4   2   4  463.45   17.80
   3  -2  -4    9.30    1.40
   3  -2  -4    8.60    1.50
   3  -2  -4    9.40    1.30
   3  -2  -4   10.90    1.50
   3  -2  -4   10.20    1.60
   3  -2  -4    9.60    1.00
   3  -2  -4   11.50    1.70
  -3   2   4    8.10    1.10
  -3   2   4   10.60    0.90
  -3   2   4   10.40    1.10
  -3   2   4    8.40    1.70
  -3   2   4   11.30    1.40
   2  -2  -4  392.86   14.70
   2  -2  -4  365.76   14.90
   2  -2  -4  405.16   16.00
   2  -2  -4  368.66   14.80
   2  -2  -4  364.06   14.90
  -2   2   4  368.66   14.80
  -2   2   4  371.36   15.00
  -2   2   4  391.46   14.60
  -2   2   4  370.76   15.00
  -2   2   4  360.16   15.70
   1  -2  -4  666.13   26.30
   1  -2  -4  696.33   26.30
   1  -2  -4  679.63   26.00
  -1   2   4  718.43   27.10
  -1   2   4  687.93   27.30
  -1   2   4  671.73   26.30
  -1   2   4  683.63   26.50
  -1   2   4  664.03   26.80
  -1   2   4  668.33   26.80
   0  -2  -4   43.00    2.20
   0  -2  -4   42.40    2.90
   0   2   4   46.70    3.00
   0   2   4   45.90    2.70
   0   2   4   46.60    3.30
   0   2   4   46.00    2.60
   0   2   4   44.50    2.10
   0   2   4   42.70    2.80
  -1  -2  -4    6.10    0.60
  -1  -2  -4    6.70    1.60
  -1  -2  -4    5.50    0.80
  -1  -2  -4    6.70    1.10
  -1  -2  -4    7.00    1.80
   1   2   4    4.40    1.20
   1   2   4    5.70    1.10
   1   2   4    5.90    1.70
   1   2   4    6.20    1.50
   1   2   4    6.40    1.60
  -2  -2  -4   93.99    5.50
  -2  -2  -4  103.79    4.30
  -2  -2  -4  100.59    5.40
  -2  -2  -4   99.19    4.70
  -2  -2  -4  102.69    4.60
   2   2   4  101.89    4.60
   2   2   4   95.49    5.70
   2   2   4   92.49    5.20
   2   2   4   97.19    4.90
  -3  -2  -4   29.00    1.90
  -3  -2  -4   25.40    2.40
  -3  -2  -4   26.00    2.10
  -3  -2  -4   27.10    1.70
  -3  -2  -4   25.00    2.90
  -3  -2  -4   22.10    2.60
   3   2   4   26.70    3.50
   3   2   4   26.50    1.80
   3   2   4   26.00    3.10
   3   2   4   25.90    2.70
   3   2   4   28.50    2.70
   3   2   4   28.30    1.90
  -4  -2  -4   53.99    2.90
  -4  -2  -4   48.40    4.10
  -4  -2  -4   53.49    4.00
  -4  -2  -4   56.69    3.00
  -4  -2  -4   49.20    3.30
   4   2   4   50.99    4.90
   4   2   4   56.79    4.10
   4   2   4   57.29    2.70
   4   2   4   59.79    3.40
   4   2   4   54.79    3.90
  -5  -2  -4  164.28    7.40
  -5  -2  -4  156.58    9.00
  -5  -2  -4  153.78    8.40
  -5  -2  -4  161.88    7.70
  -5  -2  -4  155.68    6.80
   5   2   4  155.48    9.60
   5   2   4  168.68    6.50
   5   2   4  167.08    8.30
   5   2   4  167.38    8.20
   5   2   4  158.98    7.60
  -6  -2  -4   67.89    4.30
  -6  -2  -4   65.79    4.00
  -6  -2  -4   67.79    5.20
  -6  -2  -4   71.29    5.80
   6   2   4   75.89    5.20
   6   2   4   74.29    4.60
   6   2   4   69.99    4.80
   6   2   4   64.19    6.30
  -7  -2  -4   -0.40    1.00
  -7  -2  -4    4.80    1.70
  -7  -2  -4    2.80    2.60
  -7  -2  -4    3.90    1.50
   7   2   4    0.70    2.80
   7   2   4   -0.20    2.30
   7   2   4    2.80    1.70
  -8  -2  -4   18.80    2.70
  -8  -2  -4   29.70    4.80
  -8  -2  -4   24.00    2.80
   8   2   4   18.60    4.90
   8   2   4   11.80    3.60
  -9  -2  -4    3.80    3.20
  -9  -2  -4    1.10    1.50
   9   2   4    0.80    3.40
   9   2   4   -2.20    2.90
 -10  -2  -4   52.09    4.40
  10  -3  -4   -2.70    2.70
  10  -3  -4    0.20    2.10
 -10   3   4   -0.30    1.40
   9  -3  -4   55.19    5.10
   9  -3  -4   57.99    5.30
  -9   3   4   51.59    3.40
  -9   3   4   55.59    4.50
  -9   3   4   58.59    6.30
   8  -3  -4    5.70    2.50
   8  -3  -4    2.60    2.00
  -8   3   4    5.40    2.60
  -8   3   4    3.90    1.50
  -8   3   4    4.20    1.20
   7  -3  -4   44.70    4.00
   7  -3  -4   37.30    3.60
   7  -3  -4   45.30    4.10
  -7   3   4   42.00    5.00
  -7   3   4   44.50    2.80
  -7   3   4   45.20    3.50
  -7   3   4   40.50    3.40
   6  -3  -4   15.70    2.30
   6  -3  -4   16.30    2.40
   6  -3  -4    9.90    1.90
  -6   3   4   14.80    2.90
  -6   3   4   13.60    1.50
  -6   3   4   14.30    1.70
  -6   3   4   10.80    1.70
   5  -3  -4   -1.40    1.50
   5  -3  -4   -0.70    1.10
   5  -3  -4    0.70    1.50
  -5   3   4   -0.10    0.90
  -5   3   4    0.40    0.60
  -5   3   4    1.10    0.70
  -5   3   4    1.70    1.80
   4  -3  -4   57.09    3.90
   4  -3  -4   55.59    3.40
   4  -3  -4   63.99    3.50
   4  -3  -4   55.49    3.70
   4  -3  -4   57.09    3.70
  -4   3   4   55.89    3.30
  -4   3   4   56.29    3.00
  -4   3   4   57.89    4.70
  -4   3   4   60.29    3.10
   3  -3  -4   41.60    2.60
   3  -3  -4   38.20    2.60
   3  -3  -4   35.50    2.30
   3  -3  -4   38.50    2.10
   3  -3  -4   38.10    2.70
  -3   3   4   41.10    2.50
  -3   3   4   36.90    3.60
  -3   3   4   35.90    2.40
  -3   3   4   39.10    2.60
  -3   3   4   38.50    2.10
  -3   3   4   37.40    2.20
   2  -3  -4  319.57   12.90
   2  -3  -4  329.27   12.60
   2  -3  -4  323.37   12.90
   2  -3  -4  316.57   12.70
  -2   3   4  311.87   13.30
  -2   3   4  313.37   12.80
  -2   3   4  319.77   14.20
  -2   3   4  337.97   12.90
  -2   3   4  336.57   12.50
  -2   3   4  312.77   13.10
   1  -3  -4   23.80    1.80
   1  -3  -4   23.50    1.80
   1  -3  -4   21.40    1.20
   1  -3  -4   23.50    1.10
  -1   3   4   19.40    2.20
  -1   3   4   21.60    1.80
  -1   3   4   23.60    2.20
  -1   3   4   24.30    1.50
  -1   3   4   22.40    2.90
   0  -3  -4 1325.37   51.09
   0  -3  -4 1363.76   51.09
   0  -3  -4 1343.07   51.29
   0   3   4 1293.27   52.09
   0   3   4 1334.17   52.59
   0   3   4 1336.77   51.49
   0   3   4 1375.46   52.29
   0   3   4 1320.47   51.39
  -1  -3  -4  276.57   11.50
  -1  -3  -4  270.87   12.30
  -1  -3  -4  278.97   10.90
  -1  -3  -4  283.07   10.90
  -1  -3  -4  279.17   11.00
   1   3   4  282.07   11.40
   1   3   4  271.17   12.60
   1   3   4  272.07   12.40
   1   3   4  264.87   12.10
  -2  -3  -4 2909.91  114.99
  -2  -3  -4 2843.02  111.49
  -2  -3  -4 2852.71  113.19
  -2  -3  -4 2958.40  112.49
  -2  -3  -4 3109.39  113.99
  -2  -3  -4 2909.51  114.89
   2   3   4 3090.29  113.09
   2   3   4 2853.71  112.69
   2   3   4 2858.61  111.99
   2   3   4 2925.51  113.49
  -3  -3  -4    1.40    1.50
  -3  -3  -4    3.20    0.80
  -3  -3  -4    2.90    1.40
  -3  -3  -4    2.30    0.70
  -3  -3  -4    2.00    1.70
   3   3   4    0.60    1.90
   3   3   4    2.60    1.40
   3   3   4    2.70    2.00
   3   3   4    1.80    0.90
  -4  -3  -4   20.10    3.00
  -4  -3  -4   20.10    2.90
  -4  -3  -4   19.60    1.80
  -4  -3  -4   20.20    1.60
  -4  -3  -4   21.80    2.30
   4   3   4   24.80    3.30
   4   3   4   22.70    2.30
   4   3   4   20.00    2.40
   4   3   4   18.20    3.50
  -5  -3  -4  124.59    7.20
  -5  -3  -4  112.29    6.20
  -5  -3  -4  103.19    5.70
  -5  -3  -4  111.79    7.30
  -5  -3  -4  120.89    5.90
   5   3   4  128.99    7.10
   5   3   4  121.09    6.60
   5   3   4  119.49    8.50
   5   3   4  125.69    6.20
  -6  -3  -4   47.20    3.30
  -6  -3  -4   52.19    4.40
  -6  -3  -4   52.69    5.20
  -6  -3  -4   47.90    3.70
   6   3   4   49.30    4.40
   6   3   4   51.09    3.80
   6   3   4   49.20    6.00
   6   3   4   50.89    4.50
  -7  -3  -4   79.59    5.70
  -7  -3  -4   62.69    4.30
  -7  -3  -4   67.09    4.80
  -7  -3  -4   68.79    6.30
   7   3   4   71.39    7.80
   7   3   4   69.69    5.60
   7   3   4   73.89    5.50
  -8  -3  -4  316.97   14.30
  -8  -3  -4  320.97   17.30
  -8  -3  -4  295.77   14.50
   8   3   4  316.67   18.00
   8   3   4  323.07   15.20
  -9  -3  -4  109.69    6.90
  -9  -3  -4  115.99    9.60
   9   3   4  112.59    8.30
   9   3   4  111.49   10.80
   9  -4  -4    0.10    2.90
   9  -4  -4    0.00    1.80
  -9   4   4   -1.20    1.40
  -9   4   4    2.30    2.80
  -9   4   4    0.10    1.00
   8  -4  -4   -4.50    2.50
   8  -4  -4   -1.80    1.70
  -8   4   4   -0.80    2.40
  -8   4   4   -0.40    0.80
  -8   4   4   -1.00    1.30
   7  -4  -4   16.90    2.60
   7  -4  -4   17.20    2.90
   7  -4  -4   20.80    2.80
  -7   4   4   17.10    3.60
  -7   4   4   18.40    2.50
  -7   4   4   20.30    2.10
   6  -4  -4  129.59    6.70
   6  -4  -4  131.89    6.80
   6  -4  -4  137.59    6.80
  -6   4   4  133.19    6.10
  -6   4   4  133.49    6.80
  -6   4   4  131.99    8.40
   5  -4  -4  136.89    7.00
   5  -4  -4  146.09    7.00
   5  -4  -4  144.29    7.00
  -5   4   4  152.18    7.20
  -5   4   4  154.78    6.90
  -5   4   4  150.38    6.60
  -5   4   4  148.09    8.60
   4  -4  -4  292.37   12.50
   4  -4  -4  300.27   12.60
   4  -4  -4  305.37   12.60
  -4   4   4  291.97   12.70
  -4   4   4  319.67   14.40
  -4   4   4  289.37   12.30
  -4   4   4  294.57   12.30
  -4   4   4  315.07   12.40
   3  -4  -4    1.00    1.40
   3  -4  -4   -1.40    1.20
   3  -4  -4    0.20    0.40
   3  -4  -4   -0.10    0.70
   3  -4  -4   -0.10    0.40
   3  -4  -4   -1.20    1.30
  -3   4   4    0.20    0.70
  -3   4   4    1.00    1.20
  -3   4   4    1.30    0.90
  -3   4   4    0.80    1.70
   2  -4  -4    1.20    1.10
   2  -4  -4    1.20    1.20
   2  -4  -4    0.10    0.30
   2  -4  -4    0.00    0.60
  -2   4   4    0.10    1.60
  -2   4   4   -0.30    1.40
  -2   4   4    1.40    0.80
  -2   4   4    0.00    0.80
  -2   4   4    0.80    0.80
  -2   4   4    1.00    0.40
   1  -4  -4    2.70    1.00
   1  -4  -4    3.80    0.50
   1  -4  -4    3.50    1.10
   1  -4  -4    5.00    0.80
  -1   4   4    3.40    1.00
  -1   4   4    3.60    1.30
  -1   4   4    4.70    2.00
  -1   4   4    2.60    1.80
   0  -4  -4    1.50    1.10
   0  -4  -4    1.90    0.50
   0  -4  -4    0.70    0.80
   0  -4  -4    0.60    0.80
   0  -4  -4    1.60    0.80
   0   4   4    1.20    0.90
   0   4   4    2.70    1.80
   0   4   4    1.10    1.20
   0   4   4    2.80    1.90
   0   4   4    0.40    1.00
  -1  -4  -4   68.99    3.20
  -1  -4  -4   66.89    4.00
  -1  -4  -4   68.49    3.20
  -1  -4  -4   68.59    4.90
  -1  -4  -4   72.19    3.40
  -1  -4  -4   70.39    3.40
   1   4   4   72.19    4.90
   1   4   4   73.49    3.80
   1   4   4   67.59    4.80
   1   4   4   69.59    5.30
  -2  -4  -4   21.20    1.40
  -2  -4  -4   21.40    1.90
  -2  -4  -4   19.30    2.20
  -2  -4  -4   23.20    1.80
  -2  -4  -4   24.80    3.60
  -2  -4  -4   22.30    3.10
  -2  -4  -4   21.90    1.40
   2   4   4   19.70    3.20
   2   4   4   25.70    3.40
   2   4   4   24.90    2.20
   2   4   4   24.30    1.60
   2   4   4   22.30    3.20
  -3  -4  -4  383.46   15.30
  -3  -4  -4  377.96   17.80
  -3  -4  -4  386.76   17.50
  -3  -4  -4  381.66   16.60
  -3  -4  -4  405.56   16.00
   3   4   4  396.26   18.40
   3   4   4  389.76   17.40
   3   4   4  439.06   16.00
   3   4   4  396.96   16.20
  -4  -4  -4   85.59    6.20
  -4  -4  -4   91.29    5.20
  -4  -4  -4   90.09    4.70
  -4  -4  -4   90.99    6.00
   4   4   4   91.99    5.10
   4   4   4   97.29    4.90
   4   4   4   94.59    6.20
   4   4   4   92.59    7.30
  -5  -4  -4    9.90    1.60
  -5  -4  -4   11.20    2.50
  -5  -4  -4    9.80    3.00
  -5  -4  -4    9.50    2.10
   5   4   4    7.40    1.90
   5   4   4    9.20    2.70
   5   4   4    9.30    3.30
  -6  -4  -4   18.90    2.40
  -6  -4  -4   19.70    2.70
  -6  -4  -4   26.00    3.40
  -6  -4  -4   24.20    4.40
   6   4   4   18.10    4.60
   6   4   4   29.80    4.10
   6   4   4   16.30    2.70
  -7  -4  -4   12.00    2.20
  -7  -4  -4   16.80    4.00
  -7  -4  -4   13.30    2.60
   7   4   4   11.10    4.60
   7   4   4   14.00    2.80
   7   4   4   15.30    3.40
  -8  -4  -4   31.70    3.40
  -8  -4  -4   34.20    5.00
  -8  -4  -4   30.90    3.50
   8   4   4   35.10    4.60
   8   4   4   32.50    6.80
   8   4   4   23.70    3.80
  -9  -4  -4   84.89    7.60
  -9  -4  -4   64.99    5.00
   9   4   4   63.49    8.50
   9   4   4   61.59    6.30
   9  -5  -4   10.70    2.60
   9  -5  -4   14.60    3.50
  -9   5   4   10.00    3.70
  -9   5   4   12.20    2.60
   8  -5  -4   60.19    5.10
   8  -5  -4   59.09    4.80
  -8   5   4   53.19    4.40
  -8   5   4   55.39    6.60
   7  -5  -4   57.59    5.00
   7  -5  -4   53.39    4.20
  -7   5   4   54.79    4.30
  -7   5   4   46.60    6.10
   6  -5  -4    4.60    2.00
   6  -5  -4    3.50    1.50
   6  -5  -4    0.90    2.10
  -6   5   4    2.40    2.60
  -6   5   4    3.10    1.50
   5  -5  -4   88.39    5.20
   5  -5  -4   90.89    4.90
   5  -5  -4   89.99    5.20
  -5   5   4   88.89    5.20
  -5   5   4   91.09    6.90
   4  -5  -4   83.29    4.40
   4  -5  -4   86.49    4.60
   4  -5  -4   81.99    4.60
  -4   5   4   89.59    6.40
  -4   5   4   80.69    4.70
  -4   5   4   80.49    4.50
   3  -5  -4    0.60    1.30
   3  -5  -4    2.20    1.50
   3  -5  -4    0.70    0.80
   3  -5  -4    0.60    0.60
  -3   5   4    0.90    0.90
  -3   5   4    1.30    2.00
  -3   5   4    2.30    1.50
   2  -5  -4   19.10    1.90
   2  -5  -4   21.30    2.00
   2  -5  -4   19.80    1.70
  -2   5   4   17.40    2.00
  -2   5   4   16.20    3.00
  -2   5   4   20.90    2.80
   1  -5  -4    4.80    1.20
   1  -5  -4    4.40    1.10
   1  -5  -4    4.60    0.70
   1  -5  -4    3.90    1.00
  -1   5   4    2.50    1.10
  -1   5   4    4.80    2.20
  -1   5   4    2.60    2.20
  -1   5   4    4.40    1.40
   0  -5  -4    1.20    0.80
   0  -5  -4    0.20    1.20
   0  -5  -4    1.10    0.90
   0  -5  -4    0.60    0.40
   0  -5  -4    0.90    0.90
   0   5   4   -0.70    1.90
   0   5   4    0.50    2.00
   0   5   4    1.60    1.40
  -1  -5  -4   35.00    2.00
  -1  -5  -4   37.20    4.20
  -1  -5  -4   38.00    2.50
  -1  -5  -4   37.30    2.00
  -1  -5  -4   38.90    3.10
  -1  -5  -4   38.20    3.10
   1   5   4   39.30    2.60
   1   5   4   37.20    3.70
   1   5   4   39.30    4.20
   1   5   4   29.20    3.90
  -2  -5  -4   33.20    2.90
  -2  -5  -4   28.30    2.30
  -2  -5  -4   30.40    1.60
  -2  -5  -4   29.20    1.50
  -2  -5  -4   33.50    4.00
  -2  -5  -4   32.80    4.10
   2   5   4   33.00    3.90
   2   5   4   34.90    4.50
   2   5   4   31.90    3.70
   2   5   4   33.30    2.50
  -3  -5  -4    7.80    2.50
  -3  -5  -4    9.80    1.50
  -3  -5  -4   11.60    3.10
  -3  -5  -4    8.60    2.00
   3   5   4    8.30    2.80
   3   5   4    8.20    2.90
   3   5   4    8.80    1.50
  -4  -5  -4    8.70    2.20
  -4  -5  -4    9.50    2.90
  -4  -5  -4    8.10    1.50
  -4  -5  -4    9.80    2.70
   4   5   4    8.40    3.20
   4   5   4    9.10    2.90
   4   5   4    7.90    1.70
  -5  -5  -4    9.80    1.70
  -5  -5  -4   12.70    3.50
  -5  -5  -4   16.30    3.20
  -5  -5  -4   12.90    2.50
   5   5   4   13.10    4.10
   5   5   4   12.50    3.40
   5   5   4   11.90    2.00
  -6  -5  -4   21.60    3.10
  -6  -5  -4   26.30    4.80
  -6  -5  -4   31.50    3.50
  -6  -5  -4   21.10    2.60
   6   5   4   22.00    5.20
   6   5   4   26.50    4.50
   6   5   4   19.80    2.80
  -7  -5  -4    3.70    1.80
  -7  -5  -4    0.10    1.40
  -7  -5  -4    6.70    2.80
   7   5   4    2.80    3.80
   7   5   4    2.00    1.90
   7   5   4    4.80    2.90
  -8  -5  -4   19.00    4.30
  -8  -5  -4   22.70    2.80
   8   5   4   13.10    3.50
   8   5   4   14.50    5.30
   8  -6  -4   29.40    4.10
   8  -6  -4   32.90    3.60
  -8   6   4   21.80    4.70
  -8   6   4   29.30    3.50
   7  -6  -4    7.50    1.90
   7  -6  -4    6.10    2.70
  -7   6   4    5.40    1.90
  -7   6   4    5.30    3.30
   6  -6  -4   -1.00    2.10
   6  -6  -4    0.00    1.30
   6  -6  -4   -0.30    1.80
  -6   6   4   -1.00    1.30
  -6   6   4   -2.90    2.60
   5  -6  -4   -0.10    1.60
   5  -6  -4    2.30    1.20
   5  -6  -4    1.60    2.00
  -5   6   4    1.20    1.40
  -5   6   4   -2.00    2.30
   4  -6  -4    0.90    1.80
   4  -6  -4   -1.70    1.50
   4  -6  -4    1.40    1.00
  -4   6   4    3.20    1.60
  -4   6   4    0.30    2.50
  -4   6   4    1.10    1.10
   3  -6  -4   86.89    4.60
   3  -6  -4   86.29    4.60
   3  -6  -4   79.99    4.40
  -3   6   4   88.49    5.00
  -3   6   4   83.19    5.40
  -3   6   4   84.09    6.80
   2  -6  -4   28.20    2.40
   2  -6  -4   27.90    2.30
   2  -6  -4   26.70    2.30
  -2   6   4   22.60    3.60
  -2   6   4   27.50    2.60
  -2   6   4   26.40    3.60
   1  -6  -4  144.89    6.50
   1  -6  -4  151.68    6.50
   1  -6  -4  146.09    7.60
   1  -6  -4  150.78    6.80
  -1   6   4  157.68    9.30
  -1   6   4  150.88    7.40
  -1   6   4  157.08    7.60
  -1   6   4  147.59    8.40
   0  -6  -4   58.09    3.60
   0  -6  -4   63.09    3.10
   0  -6  -4   59.09    3.10
   0  -6  -4   62.69    4.30
   0   6   4   66.39    5.50
   0   6   4   63.59    5.80
   0   6   4   66.99    4.60
  -1  -6  -4    8.00    1.50
  -1  -6  -4    7.60    2.80
  -1  -6  -4   10.10    2.30
  -1  -6  -4    8.00    0.90
   1   6   4    7.50    2.80
   1   6   4    9.00    2.30
   1   6   4   10.30    3.10
  -2  -6  -4   38.60    4.40
  -2  -6  -4   38.70    3.60
  -2  -6  -4   36.20    2.90
  -2  -6  -4   39.90    4.70
   2   6   4   39.80    2.70
   2   6   4   39.10    4.60
   2   6   4   31.80    4.60
   2   6   4   38.20    4.50
  -3  -6  -4   21.20    2.90
  -3  -6  -4   20.70    3.80
  -3  -6  -4   21.30    4.30
  -3  -6  -4   18.40    2.20
   3   6   4   27.50    4.50
   3   6   4   21.20    2.20
   3   6   4   22.50    4.20
  -4  -6  -4   24.80    2.50
  -4  -6  -4   22.90    3.20
  -4  -6  -4   28.10    4.00
  -4  -6  -4   26.00    4.10
   4   6   4   26.60    2.50
   4   6   4   20.60    4.30
   4   6   4   36.60    5.00
  -5  -6  -4    7.80    2.50
  -5  -6  -4    6.60    2.40
  -5  -6  -4    2.70    1.40
  -5  -6  -4    5.90    2.90
   5   6   4    5.70    3.50
   5   6   4    5.60    3.10
  -6  -6  -4   15.50    3.90
  -6  -6  -4   16.50    3.30
  -6  -6  -4   14.10    2.30
   6   6   4   12.70    4.30
   6   6   4   16.90    4.20
  -7  -6  -4   27.80    4.60
  -7  -6  -4   24.50    3.40
   7   6   4   22.50    5.80
   7   6   4   15.00    4.10
   7  -7  -4    5.10    1.90
   7  -7  -4    9.20    2.90
  -7   7   4   -0.30    3.10
  -7   7   4    5.60    2.10
   6  -7  -4  168.78    8.80
   6  -7  -4  175.58    8.60
  -6   7   4  178.08    9.00
  -6   7   4  159.48   11.50
   5  -7  -4    6.70    2.20
   5  -7  -4    6.80    1.70
   5  -7  -4    7.60    2.40
  -5   7   4    5.00    1.80
  -5   7   4    5.70    3.20
   4  -7  -4   24.50    2.90
   4  -7  -4   27.00    2.70
   4  -7  -4   23.20    2.70
  -4   7   4   27.10    3.20
  -4   7   4   20.20    2.60
  -4   7   4   18.60    4.10
   3  -7  -4   81.49    4.50
   3  -7  -4   68.99    4.30
   3  -7  -4   79.59    4.40
  -3   7   4   77.09    5.50
  -3   7   4   73.99    4.70
  -3   7   4   72.89    6.90
   2  -7  -4   11.60    1.70
   2  -7  -4   14.80    1.90
   2  -7  -4   11.50    1.80
   2  -7  -4   14.00    2.70
  -2   7   4   11.20    1.90
  -2   7   4   12.10    3.50
  -2   7   4   11.00    2.90
   1  -7  -4    1.30    1.20
   1  -7  -4   -0.10    1.10
   1  -7  -4    1.70    1.10
   1  -7  -4    0.90    1.60
  -1   7   4    1.30    1.30
  -1   7   4   -0.10    2.50
  -1   7   4    6.00    2.70
   0  -7  -4   14.10    2.00
   0  -7  -4   14.40    2.80
   0   7   4   10.10    3.30
   0   7   4   18.80    3.90
   0   7   4   13.80    2.50
  -1  -7  -4   24.60    4.40
  -1  -7  -4   21.90    2.50
  -1  -7  -4   23.30    3.20
   1   7   4   31.30    4.70
   1   7   4   24.30    4.40
   1   7   4   24.20    3.50
  -2  -7  -4    2.00    2.50
  -2  -7  -4    2.20    3.00
  -2  -7  -4    5.90    2.20
  -2  -7  -4    2.70    1.40
   2   7   4    4.20    2.30
   2   7   4    5.50    3.10
   2   7   4    5.00    3.20
  -3  -7  -4   56.09    5.70
  -3  -7  -4   52.09    3.80
  -3  -7  -4   55.79    5.90
  -3  -7  -4   51.59    4.50
   3   7   4   57.59    5.90
  -4  -7  -4   31.60    3.70
  -4  -7  -4   31.10    3.10
  -4  -7  -4   34.30    4.90
   4   7   4   29.30    5.00
   4   7   4   36.40    5.70
  -5  -7  -4    7.10    1.90
  -5  -7  -4   10.00    2.80
  -5  -7  -4   12.30    3.60
   5   7   4   12.40    3.90
   5   7   4    8.60    3.60
  -6  -7  -4   11.00    2.90
  -6  -7  -4    6.70    1.90
  -6  -7  -4   11.90    3.50
   6   7   4   12.20    4.70
   6   7   4    9.20    3.70
  -7  -7  -4    9.60    2.40
  -7  -7  -4    1.70    1.20
   7   7   4    3.30    3.00
   7   7   4    7.30    4.30
   6  -8  -4    9.20    3.00
   6  -8  -4   12.10    2.30
  -6   8   4    7.20    4.10
  -6   8   4    9.80    2.40
   5  -8  -4   51.29    4.00
   5  -8  -4   50.59    4.50
  -5   8   4   44.00    6.40
  -5   8   4   45.10    4.10
   4  -8  -4   63.09    4.70
   4  -8  -4   68.89    4.60
   4  -8  -4   76.39    4.80
  -4   8   4   66.09    7.80
  -4   8   4   74.89    5.00
   3  -8  -4   11.60    2.10
   3  -8  -4   12.20    2.20
   3  -8  -4   11.20    2.90
  -3   8   4   12.60    3.00
  -3   8   4    5.70    3.40
  -3   8   4   12.50    2.40
   2  -8  -4   68.69    5.10
   2  -8  -4   63.09    4.30
  -2   8   4   67.89    5.60
  -2   8   4   60.29    4.60
  -2   8   4   58.29    7.00
   1  -8  -4   26.00    3.40
   1  -8  -4   22.10    3.00
  -1   8   4   27.90    4.80
  -1   8   4   38.50    4.90
   0  -8  -4    3.40    2.10
   0  -8  -4    2.20    1.60
   0   8   4    3.80    1.80
   0   8   4    1.90    3.10
   0   8   4    3.60    2.90
  -1  -8  -4   -2.20    1.30
  -1  -8  -4   -0.30    2.10
   1   8   4    2.10    2.90
   1   8   4   -1.70    3.10
   1   8   4    2.10    1.80
  -2  -8  -4   24.90    5.40
  -2  -8  -4   16.80    2.50
  -2  -8  -4   25.00    4.00
   2   8   4   27.90    5.20
   2   8   4   25.40    4.10
   2   8   4   15.50    4.20
  -3  -8  -4   28.90    5.60
  -3  -8  -4   32.10    4.60
  -3  -8  -4   22.70    2.90
   3   8   4   29.80    5.00
   3   8   4   35.80    5.80
  -4  -8  -4   48.30    6.00
  -4  -8  -4   46.50    3.90
  -4  -8  -4   47.70    4.90
   4   8   4   53.09    6.50
   4   8   4   55.39    6.50
  -5  -8  -4   28.80    3.30
  -5  -8  -4   43.00    5.70
  -5  -8  -4   32.10    4.20
   5   8   4   40.00    6.00
  -6  -8  -4   90.19    5.40
  -6  -8  -4   84.79    7.50
   6   8   4   76.29    8.70
   6   8   4   88.89    8.30
   5  -9  -4    1.50    2.10
   5  -9  -4    0.70    1.60
  -5   9   4   -3.00    3.50
  -5   9   4   -1.10    1.60
   4  -9  -4   12.00    2.40
   4  -9  -4   14.80    3.40
  -4   9   4   11.30    2.60
  -4   9   4   11.10    4.30
   3  -9  -4   27.30    3.40
   3  -9  -4   28.40    4.10
  -3   9   4   25.90    5.60
  -3   9   4   23.60    3.30
  -3   9   4   35.60    4.60
   2  -9  -4   70.19    5.10
   2  -9  -4   72.69    5.80
  -2   9   4   84.59    8.60
  -2   9   4   94.19    7.10
   1  -9  -4  108.49    7.30
   1  -9  -4  102.99    6.30
  -1   9   4  109.79    9.90
  -1   9   4  121.49    8.50
   0  -9  -4  245.58   12.60
   0  -9  -4  235.68   11.50
   0   9   4  247.28   14.80
   0   9   4  269.57   14.20
  -1  -9  -4    5.00    2.70
  -1  -9  -4    2.30    1.80
  -1  -9  -4   -0.70    3.80
   1   9   4    4.10    3.70
   1   9   4   10.10    4.00
  -2  -9  -4   -1.80    1.50
  -2  -9  -4    4.10    2.60
  -2  -9  -4   -0.80    3.10
   2   9   4    3.50    2.40
   2   9   4    3.10    3.70
   2   9   4    2.10    3.60
  -3  -9  -4    3.00    3.60
  -3  -9  -4    2.40    1.70
  -3  -9  -4    5.80    3.00
   3   9   4   12.20    4.60
   3   9   4    7.60    3.00
  -4  -9  -4    0.50    2.20
  -4  -9  -4    2.80    3.20
  -4  -9  -4    1.30    1.30
   4   9   4    4.00    3.60
   4   9   4    6.10    3.00
   2 -10  -4   20.50    3.10
   2 -10  -4   34.00    5.10
  -2  10   4   19.20    5.60
   1 -10  -4    1.20    2.50
  -1  10   4    3.90    3.20
  -1  10   4   -5.60    3.70
   0 -10  -4   41.30    4.20
   0 -10  -4   53.99    5.40
   0  10   4   44.70    6.90
   0  10   4   64.69    7.00
  -1 -10  -4  138.79    7.70
  -1 -10  -4  133.79   11.00
  -1 -10  -4  146.99    9.20
   1  10   4  148.79   12.10
   1  10   4  167.48   10.80
  -1 -11   5   -1.30    3.10
   0  11  -5    2.10    5.30
   0 -11   5    5.40    3.40
   0 -11   5   13.90    3.30
  -1  11  -5    0.60    3.10
  -1  11  -5   -3.90    4.60
   1 -11   5    2.30    2.80
   1 -11   5    7.10    2.70
   4  10  -5   13.50    5.50
   4  10  -5   -1.00    4.20
  -4 -10   5    4.40    3.00
  -4 -10   5   12.30    3.40
   3  10  -5    3.00    4.90
  -3 -10   5    9.40    3.00
  -3 -10   5   -2.00    2.70
   2  10  -5   74.89    9.60
  -2 -10   5   74.19    5.70
  -2 -10   5   62.49    6.40
  -2 -10   5   63.89    6.10
   1  10  -5   -1.60    4.10
   1  10  -5    3.80    5.00
  -1 -10   5    0.00    2.80
  -1 -10   5    5.00    2.40
  -1 -10   5   -5.00    2.90
   0  10  -5   83.19    7.60
   0  10  -5   75.99    9.80
   0 -10   5   90.59    6.20
   0 -10   5   79.59    6.60
  -1  10  -5   -1.40    2.80
  -1  10  -5   -5.60    4.40
   1 -10   5   -1.10    2.20
   1 -10   5    3.70    2.30
  -2  10  -5   -2.40    2.90
  -2  10  -5   -7.30    4.10
   2 -10   5   -2.50    2.30
   2 -10   5    0.50    2.00
  -3  10  -5  -10.70    4.10
  -3  10  -5   -1.10    3.20
   3 -10   5   -0.70    1.90
   3 -10   5   -0.40    2.40
  -4  10  -5    1.50    3.60
  -4  10  -5   -9.00    4.00
   4 -10   5    6.90    2.70
   5   9  -5    3.10    4.40
  -5  -9   5    4.60    2.50
  -5  -9   5   -2.60    2.00
   4   9  -5    8.00    4.90
  -4  -9   5    8.30    2.90
  -4  -9   5    0.50    2.40
  -4  -9   5    9.50    3.90
   3   9  -5    2.00    6.20
   3   9  -5    1.30    3.50
   3   9  -5    7.90    5.20
  -3  -9   5    4.30    2.60
  -3  -9   5    1.80    3.30
  -3  -9   5    8.10    2.80
   2   9  -5   -4.00    4.30
   2   9  -5   -0.50    2.70
   2   9  -5   -3.70    5.30
  -2  -9   5   -0.50    2.30
  -2  -9   5   -0.70    2.10
  -2  -9   5    1.90    2.00
   1   9  -5    6.80    2.70
   1   9  -5    4.30    4.80
   1   9  -5    4.30    2.70
   1   9  -5   -1.60    4.90
  -1  -9   5    6.30    2.30
  -1  -9   5    4.30    2.60
   0   9  -5   20.50    3.80
   0   9  -5    9.60    6.00
   0   9  -5   24.00    3.60
   0   9  -5   18.30    6.10
   0  -9   5   18.20    3.30
   0  -9   5   24.50    3.20
  -1   9  -5   98.29   14.00
  -1   9  -5  138.49    7.90
  -1   9  -5  126.89    8.80
   1  -9   5  130.09    8.00
   1  -9   5  125.99    7.20
  -2   9  -5   -3.70    4.40
  -2   9  -5    4.10    3.00
  -2   9  -5    6.50    2.10
   2  -9   5    3.50    2.50
   2  -9   5    4.70    2.30
  -3   9  -5   63.59    5.10
  -3   9  -5   50.39    6.30
   3  -9   5   52.49    5.10
   3  -9   5   54.69    4.60
  -4   9  -5   56.29    4.80
  -4   9  -5   42.30    6.10
   4  -9   5   46.30    5.20
   4  -9   5   53.49    4.10
   4  -9   5   49.00    4.40
  -5   9  -5    2.10    3.20
   5  -9   5    4.70    2.40
   5  -9   5    3.00    2.50
  -6   9  -5    5.30    3.40
   6  -9   5    1.50    2.40
   6  -9   5    3.70    2.50
   7   8  -5    2.20    3.30
   7   8  -5   -6.90    3.30
  -7  -8   5   -1.20    1.80
   6   8  -5   82.59    7.60
   6   8  -5   89.89    8.50
  -6  -8   5  100.59    7.30
  -6  -8   5   87.19    6.90
   5   8  -5    4.50    3.40
   5   8  -5    7.60    4.70
  -5  -8   5    9.70    2.90
  -5  -8   5    6.80    2.80
   4   8  -5    2.10    5.50
   4   8  -5   -2.40    4.30
  -4  -8   5    3.90    2.00
  -4  -8   5    2.60    2.10
  -4  -8   5   -0.30    2.20
   3   8  -5   71.89   12.90
   3   8  -5   77.49    8.30
   3   8  -5   77.59    6.60
  -3  -8   5   93.69    6.20
  -3  -8   5   91.99    6.10
  -3  -8   5   83.79    6.20
   2   8  -5   60.09    8.00
   2   8  -5   59.39    5.20
   2   8  -5   59.69    5.10
   2   8  -5   36.00    8.40
  -2  -8   5   54.09    4.40
  -2  -8   5   54.99    4.90
  -2  -8   5   52.69    4.90
   1   8  -5   15.10    2.90
   1   8  -5   12.90    2.90
  -1  -8   5   16.70    3.20
  -1  -8   5   17.40    3.00
   0   8  -5    7.30    2.40
   0   8  -5   12.00    2.60
   0   8  -5    3.00    4.60
   0  -8   5    8.70    2.30
   0  -8   5    8.50    2.40
  -1   8  -5   -2.40    3.90
  -1   8  -5    0.30    2.10
  -1   8  -5    2.80    1.80
   1  -8   5    1.10    1.80
   1  -8   5    1.00    1.60
  -2   8  -5    3.20    1.60
  -2   8  -5   -5.30    3.50
  -2   8  -5   -0.20    2.10
   2  -8   5   -0.30    1.80
   2  -8   5    0.40    1.60
  -3   8  -5   32.50    4.80
  -3   8  -5   37.50    3.80
   3  -8   5   34.90    3.20
   3  -8   5   34.00    3.30
   3  -8   5   34.80    4.20
  -4   8  -5    4.50    2.90
  -4   8  -5    4.20    1.90
   4  -8   5    3.30    2.30
   4  -8   5    1.70    1.80
   4  -8   5    5.00    2.00
  -5   8  -5   88.79    8.40
  -5   8  -5   88.39    6.30
   5  -8   5   73.59    5.40
   5  -8   5   78.89    6.30
  -6   8  -5   70.89    7.70
  -6   8  -5   83.69    6.00
   6  -8   5   72.09    6.10
   6  -8   5   62.09    5.50
  -7   8  -5  142.49   11.00
   7  -8   5  144.39    8.10
   7  -8   5  143.99    8.80
   8   7  -5   -3.80    3.30
  -8  -7   5    8.20    2.70
   7   7  -5    5.70    3.50
   7   7  -5   -3.40    2.90
  -7  -7   5    5.90    2.50
  -7  -7   5   -0.80    2.00
   6   7  -5   10.10    3.90
   6   7  -5   13.40    4.20
  -6  -7   5    9.10    2.70
  -6  -7   5   15.10    3.40
   5   7  -5   18.10    7.20
   5   7  -5   35.10    6.10
   5   7  -5   29.70    4.60
  -5  -7   5   30.80    3.80
  -5  -7   5   22.30    3.50
   4   7  -5   -1.30    2.40
   4   7  -5    1.10    4.00
   4   7  -5   -0.50    4.50
  -4  -7   5    2.10    1.80
  -4  -7   5    3.50    1.80
  -4  -7   5    2.90    2.10
  -4  -7   5    0.10    2.00
   3   7  -5    1.60    1.60
   3   7  -5    2.40    2.60
   3   7  -5    2.50    5.20
   3   7  -5    0.80    4.10
  -3  -7   5    4.70    2.20
  -3  -7   5    5.00    2.00
  -3  -7   5    3.60    2.30
  -3  -7   5    2.40    2.20
   2   7  -5   -0.50    1.80
   2   7  -5   -0.70    1.50
   2   7  -5   -1.10    4.30
  -2  -7   5   -1.60    1.70
  -2  -7   5   -1.00    1.60
  -2  -7   5    0.20    1.40
   1   7  -5   99.19   12.40
   1   7  -5  115.89    6.80
   1   7  -5  114.19    6.80
  -1  -7   5  113.19    6.30
  -1  -7   5  114.99    6.90
   0   7  -5   40.60    9.10
   0   7  -5   50.39    3.30
   0   7  -5   54.99    4.80
   0   7  -5   55.39    4.60
   0  -7   5   54.39    3.90
   0  -7   5   54.29    4.40
  -1   7  -5  674.33   27.80
  -1   7  -5  674.93   27.30
  -1   7  -5  570.64   32.00
   1  -7   5  680.23   26.70
   1  -7   5  676.13   27.20
  -2   7  -5   61.19    8.90
  -2   7  -5   68.49    5.80
  -2   7  -5   78.09    5.20
   2  -7   5   78.09    4.60
   2  -7   5   74.39    3.80
   2  -7   5   74.79    5.10
  -3   7  -5    0.60    2.90
  -3   7  -5    4.70    1.80
  -3   7  -5    4.80    2.50
   3  -7   5    2.10    1.60
   3  -7   5    3.30    1.80
   3  -7   5    4.40    1.70
   3  -7   5    3.20    1.40
  -4   7  -5    5.80    1.90
  -4   7  -5    0.00    2.70
  -4   7  -5    5.50    2.50
   4  -7   5    7.60    2.30
   4  -7   5    3.70    1.90
   4  -7   5    3.80    1.60
   4  -7   5    5.90    2.10
  -5   7  -5   17.00    3.10
  -5   7  -5   16.00    3.40
   5  -7   5   16.10    2.80
   5  -7   5    9.10    2.60
   5  -7   5   14.40    2.90
   5  -7   5   16.00    2.40
  -6   7  -5   19.90    3.20
   6  -7   5   21.60    3.50
   6  -7   5   21.80    3.40
   6  -7   5   12.70    3.30
  -7   7  -5  160.28    8.90
   7  -7   5  150.08    8.20
   7  -7   5  140.19    8.60
   7  -7   5  138.09    9.30
   8  -7   5   65.89    5.50
   8  -7   5   39.90    5.70
   8  -7   5   61.89    5.40
   8   6  -5    1.20    3.10
  -8  -6   5    8.10    2.70
  -8  -6   5   13.70    3.60
  -8  -6   5    7.60    1.90
   7   6  -5    4.40    3.20
   7   6  -5   -0.30    3.30
  -7  -6   5    0.40    1.90
  -7  -6   5    5.70    2.60
   6   6  -5    2.30    2.80
   6   6  -5    0.80    3.20
  -6  -6   5    2.70    2.20
  -6  -6   5    3.80    1.60
  -6  -6   5    0.60    2.00
   5   6  -5   23.90    4.10
   5   6  -5   25.00    5.00
   5   6  -5   19.50    7.10
  -5  -6   5   24.10    2.90
  -5  -6   5   26.90    2.60
  -5  -6   5   22.20    3.20
  -5  -6   5   20.70    3.10
   4   6  -5    8.50    5.20
   4   6  -5   15.60    3.30
   4   6  -5   13.70    4.20
   4   6  -5   18.70    1.60
   4   6  -5   18.90    1.60
  -4  -6   5   21.90    2.70
  -4  -6   5   17.00    2.90
  -4  -6   5   20.30    2.80
  -4  -6   5   19.30    2.60
  -4  -6   5   21.50    2.60
   3   6  -5   38.40    3.40
   3   6  -5   42.00    4.30
   3   6  -5   44.40    2.40
  -3  -6   5   44.60    3.70
  -3  -6   5   45.70    3.90
  -3  -6   5   45.40    4.00
  -3  -6   5   45.90    3.70
   2   6  -5   37.70    2.40
   2   6  -5   36.60    4.00
   2   6  -5   42.60    3.50
  -2  -6   5   34.50    3.80
  -2  -6   5   40.00    4.10
  -2  -6   5   35.50    3.30
  -2  -6   5   37.30    3.40
   1   6  -5    7.20    3.70
   1   6  -5   11.60    2.10
   1   6  -5   12.90    1.50
   1   6  -5   12.30    2.30
  -1  -6   5   14.20    2.20
  -1  -6   5   11.50    2.30
   0   6  -5    3.00    1.50
   0   6  -5    4.00    1.20
   0   6  -5    0.30    2.50
   0   6  -5    2.70    1.60
   0  -6   5    2.20    1.30
   0  -6   5    3.30    1.70
   0  -6   5    2.90    0.60
  -1   6  -5    4.80    1.80
  -1   6  -5    1.20    2.70
  -1   6  -5    3.30    1.50
   1  -6   5    2.80    1.70
   1  -6   5    4.80    1.50
   1  -6   5    3.90    0.90
  -2   6  -5  122.89    9.90
  -2   6  -5  120.59    7.30
  -2   6  -5  115.59    6.40
   2  -6   5  111.89    6.40
   2  -6   5  121.99    5.90
   2  -6   5  116.19    5.60
  -3   6  -5   69.39    7.30
  -3   6  -5   73.09    3.50
  -3   6  -5   71.09    4.70
   3  -6   5   74.49    4.20
   3  -6   5   69.59    4.70
   3  -6   5   74.79    4.10
   3  -6   5   75.39    4.40
  -4   6  -5   90.79    5.70
  -4   6  -5   90.49    7.90
  -4   6  -5   87.09    4.20
   4  -6   5   81.09    5.40
   4  -6   5   87.89    5.50
   4  -6   5   91.09    5.20
   4  -6   5   95.09    4.80
  -5   6  -5   -0.60    0.70
  -5   6  -5   -0.20    1.60
  -5   6  -5    0.90    1.30
   5  -6   5   -0.70    2.10
   5  -6   5    0.90    1.60
   5  -6   5    0.50    2.00
   5  -6   5    0.20    1.10
  -6   6  -5    0.00    1.40
   6  -6   5    0.10    2.50
   6  -6   5   -3.60    2.40
   6  -6   5   -0.60    1.70
  -7   6  -5    9.90    2.50
   7  -6   5    0.80    2.80
   7  -6   5   17.20    3.50
   7  -6   5    7.40    2.50
   8  -6   5   25.00    3.60
   8  -6   5   32.10    4.20
   8  -6   5   18.60    4.60
   9   5  -5   -3.10    2.90
  -9  -5   5   -0.60    1.20
  -9  -5   5    4.30    1.90
  -9  -5   5    3.00    2.60
   8   5  -5   -1.70    2.70
  -8  -5   5    0.70    1.70
  -8  -5   5    0.60    1.30
  -8  -5   5    3.10    2.60
   7   5  -5    8.20    3.70
   7   5  -5   12.70    3.40
  -7  -5   5    8.70    1.80
  -7  -5   5   11.30    2.70
  -7  -5   5   12.40    3.10
  -7  -5   5   16.20    3.30
   6   5  -5   10.10    3.40
   6   5  -5    9.50    3.10
   6   5  -5    7.60    5.70
  -6  -5   5    7.40    2.30
  -6  -5   5   12.00    2.60
  -6  -5   5    7.80    2.60
   5   5  -5   10.80    3.00
   5   5  -5    8.30    3.60
   5   5  -5    8.60    1.30
   5   5  -5    9.90    1.40
   5   5  -5    4.50    5.00
  -5  -5   5   12.40    2.70
  -5  -5   5    7.20    2.10
  -5  -5   5    8.60    1.60
  -5  -5   5   11.40    2.20
   4   5  -5  255.57   10.20
   4   5  -5  247.48   12.30
   4   5  -5  259.37   10.20
   4   5  -5  206.98   17.80
  -4  -5   5  262.27   11.60
  -4  -5   5  255.97   11.80
  -4  -5   5  258.17   11.10
  -4  -5   5  253.07   11.90
  -4  -5   5  257.17   11.10
   3   5  -5  199.28    8.10
   3   5  -5  192.58    9.80
   3   5  -5  172.98   15.00
   3   5  -5  200.48    8.60
  -3  -5   5  210.68    9.20
  -3  -5   5  190.38    8.90
  -3  -5   5  191.08    9.50
  -3  -5   5  200.48    9.50
  -3  -5   5  202.78    9.20
   2   5  -5    7.70    1.10
   2   5  -5    6.10    1.40
   2   5  -5    6.10    3.40
   2   5  -5    6.60    2.00
  -2  -5   5    7.40    2.00
  -2  -5   5    9.60    2.60
  -2  -5   5    8.60    1.80
  -2  -5   5    7.60    1.90
   1   5  -5  141.49    6.90
   1   5  -5  134.79    6.20
   1   5  -5  142.39    7.20
   1   5  -5  129.39   10.90
  -1  -5   5  153.48    7.40
  -1  -5   5  143.99    6.80
  -1  -5   5  136.69    7.20
   0   5  -5   33.30    2.60
   0   5  -5   32.70    3.00
   0   5  -5   35.20    3.20
   0   5  -5   35.00    5.60
   0  -5   5   35.10    2.10
   0  -5   5   36.90    3.10
   0  -5   5   36.40    3.30
   0  -5   5   36.50    2.70
  -1   5  -5    2.60    1.40
  -1   5  -5    1.80    2.00
  -1   5  -5    2.00    1.30
  -1   5  -5    1.60    1.20
   1  -5   5    3.30    1.30
   1  -5   5    2.30    1.50
   1  -5   5    2.50    0.50
   1  -5   5    3.10    1.20
   1  -5   5    2.20    0.90
  -2   5  -5  120.39    8.90
  -2   5  -5  110.69    6.20
   2  -5   5  125.09    5.70
   2  -5   5  123.29    5.70
   2  -5   5  119.79    6.30
   2  -5   5  122.39    5.80
  -3   5  -5   21.20    1.50
  -3   5  -5   23.70    2.50
  -3   5  -5   23.70    4.10
   3  -5   5   22.50    2.60
   3  -5   5   24.60    2.40
   3  -5   5   24.20    2.80
   3  -5   5   23.10    2.00
  -4   5  -5  416.76   20.00
  -4   5  -5  395.86   17.30
  -4   5  -5  395.26   15.90
   4  -5   5  388.36   17.10
   4  -5   5  405.96   17.20
   4  -5   5  407.66   16.30
   4  -5   5  405.16   16.60
  -5   5  -5   42.80    5.00
  -5   5  -5   47.10    3.90
  -5   5  -5   42.70    2.60
   5  -5   5   44.70    3.70
   5  -5   5   35.10    4.00
   5  -5   5   42.00    3.90
  -6   5  -5   -0.20    0.70
  -6   5  -5    0.30    1.30
  -6   5  -5    1.00    1.50
   6  -5   5    0.90    2.30
   6  -5   5    0.90    1.60
  -7   5  -5    0.20    1.50
  -7   5  -5   -0.90    0.90
   7  -5   5    0.30    1.80
   7  -5   5    2.30    2.80
  -8   5  -5    8.10    2.60
   8  -5   5    4.70    2.30
   8  -5   5    3.80    2.90
   9  -5   5   61.09    5.50
   9  -5   5   44.80    6.10
   9  -5   5   58.79    5.40
   9   4  -5   47.60    6.10
  -9  -4   5   53.69    3.70
  -9  -4   5   60.39    5.70
  -9  -4   5   59.99    5.20
   8   4  -5   13.20    3.90
  -8  -4   5   12.90    2.00
  -8  -4   5   15.40    3.70
  -8  -4   5   22.10    4.20
  -8  -4   5   13.40    2.70
   7   4  -5   12.90    3.40
   7   4  -5   18.80    2.20
  -7  -4   5   22.10    3.70
  -7  -4   5   18.30    3.00
  -7  -4   5   22.90    3.40
  -7  -4   5   17.00    2.20
   6   4  -5   -1.30    4.20
   6   4  -5   -2.70    1.00
   6   4  -5    0.00    1.30
   6   4  -5    0.20    2.50
   6   4  -5    3.30    2.60
  -6  -4   5   -0.70    1.30
  -6  -4   5    2.70    0.90
  -6  -4   5    0.30    1.70
  -6  -4   5    0.80    1.40
   5   4  -5   68.89    5.50
   5   4  -5   72.89    3.70
   5   4  -5   66.99   11.00
   5   4  -5   71.79    3.70
   5   4  -5   69.39    5.80
  -5  -4   5   67.89    4.00
  -5  -4   5   73.39    4.70
  -5  -4   5   67.59    4.80
  -5  -4   5   70.09    5.00
  -5  -4   5   77.69    3.90
   4   4  -5    0.40    1.00
   4   4  -5   -0.80    0.90
   4   4  -5    1.10    1.90
   4   4  -5    4.70    3.90
  -4  -4   5    1.00    1.00
  -4  -4   5   -0.70    1.30
  -4  -4   5    0.20    1.30
  -4  -4   5    0.50    0.80
  -4  -4   5   -0.30    1.30
   3   4  -5  126.59   11.80
   3   4  -5  143.09    7.70
   3   4  -5  144.09    6.10
  -3  -4   5  148.49    7.10
  -3  -4   5  139.39    7.10
  -3  -4   5  142.59    6.50
  -3  -4   5  150.58    6.80
  -3  -4   5  143.89    7.30
   2   4  -5   12.80    1.60
   2   4  -5    6.90    3.00
   2   4  -5    9.50    2.10
  -2  -4   5   11.90    2.00
  -2  -4   5   10.70    1.80
  -2  -4   5   11.70    1.60
  -2  -4   5   12.70    2.40
   1   4  -5  260.97   15.20
   1   4  -5  264.17   11.60
   1   4  -5  262.07   11.10
  -1  -4   5  264.67   11.60
  -1  -4   5  278.77   10.60
  -1  -4   5  255.07   11.20
  -1  -4   5  262.27   11.40
   0   4  -5  106.79    8.00
   0   4  -5  106.49    5.00
   0   4  -5  104.39    5.50
   0   4  -5  106.29    5.50
   0  -4   5  110.79    5.10
   0  -4   5  110.89    5.70
   0  -4   5  106.39    5.60
   0  -4   5  110.59    4.40
   0  -4   5   96.49    5.70
   0  -4   5  109.29    4.80
  -1   4  -5   -0.50    1.20
  -1   4  -5   -0.70    0.80
  -1   4  -5    1.10    1.10
   1  -4   5    0.50    1.20
   1  -4   5    1.00    0.90
   1  -4   5    0.20    0.90
   1  -4   5    0.00    0.80
  -2   4  -5    3.00    1.60
  -2   4  -5    3.70    0.50
  -2   4  -5    2.60    1.30
  -2   4  -5    7.10    1.40
   2  -4   5    3.80    1.30
   2  -4   5    5.20    1.00
   2  -4   5    4.90    1.40
   2  -4   5    3.00    1.40
   2  -4   5    3.40    1.40
  -3   4  -5   80.29    5.50
  -3   4  -5   82.59    4.70
  -3   4  -5   85.39    6.60
  -3   4  -5   87.29    3.70
   3  -4   5   86.49    4.90
   3  -4   5   83.69    5.00
   3  -4   5   83.69    4.50
   3  -4   5   88.69    4.00
  -4   4  -5   59.59    5.40
  -4   4  -5   55.29    2.80
  -4   4  -5   56.19    3.80
  -4   4  -5   54.79    4.70
   4  -4   5   55.29    3.90
   4  -4   5   56.49    3.70
   4  -4   5   56.19    2.90
   4  -4   5   56.29    4.40
  -5   4  -5    4.00    1.60
  -5   4  -5    5.40    2.70
  -5   4  -5    4.80    2.10
  -5   4  -5    3.50    0.80
  -5   4  -5    5.40    1.60
   5  -4   5    4.10    1.60
   5  -4   5    4.30    1.20
   5  -4   5    5.00    2.00
  -6   4  -5  106.29    6.30
  -6   4  -5  108.09    8.40
  -6   4  -5   97.89    7.50
  -6   4  -5  108.19    5.10
  -6   4  -5  111.09    7.90
   6  -4   5  110.09    6.00
   6  -4   5  112.69    6.20
  -7   4  -5   -0.40    2.50
  -7   4  -5    1.30    1.80
  -7   4  -5    0.70    0.80
  -7   4  -5   -0.20    1.50
   7  -4   5    0.10    2.30
   7  -4   5   -1.30    1.60
  -8   4  -5    6.00    2.10
  -8   4  -5    2.50    1.10
  -8   4  -5    9.20    4.50
   8  -4   5    7.00    2.90
   8  -4   5    5.10    2.10
  -9   4  -5   28.20    3.70
   9  -4   5   17.10    3.10
   9  -4   5   21.50    3.70
   9   3  -5   15.10    3.90
  -9  -3   5   15.00    2.90
  -9  -3   5   14.60    2.00
   8   3  -5   75.99    6.50
   8   3  -5   73.39    4.60
   8   3  -5   69.49    5.10
  -8  -3   5   79.79    6.70
  -8  -3   5   77.69    4.30
  -8  -3   5   75.29    5.30
  -8  -3   5   72.19    6.00
   7   3  -5   50.59    3.50
   7   3  -5   49.99    5.20
   7   3  -5   51.29    3.60
  -7  -3   5   52.79    4.90
  -7  -3   5   47.30    4.00
  -7  -3   5   47.20    3.20
  -7  -3   5   52.69    4.60
   6   3  -5   47.60    3.30
   6   3  -5   48.10    3.20
   6   3  -5   42.50    9.30
   6   3  -5   49.30    4.80
   6   3  -5   48.50    4.40
  -6  -3   5   53.29    3.10
  -6  -3   5   47.80    4.10
  -6  -3   5   50.79    4.20
  -6  -3   5   46.20    3.00
  -6  -3   5   51.19    4.00
   5   3  -5    6.40    2.70
   5   3  -5    6.90    1.40
   5   3  -5    5.00    3.80
   5   3  -5    6.60    2.40
   5   3  -5    6.40    1.40
  -5  -3   5    4.40    1.70
  -5  -3   5    7.70    1.10
  -5  -3   5    5.70    1.60
  -5  -3   5    6.90    1.50
  -5  -3   5    5.40    1.20
  -5  -3   5    3.80    1.50
   4   3  -5   42.20    2.60
   4   3  -5   39.70    7.30
   4   3  -5   42.20    2.60
  -4  -3   5   37.80    2.80
  -4  -3   5   37.60    3.20
  -4  -3   5   38.60    3.00
  -4  -3   5   40.60    2.20
  -4  -3   5   36.10    3.10
   3   3  -5   -2.50    0.80
   3   3  -5    1.10    1.50
   3   3  -5    1.70    2.60
  -3  -3   5   -0.50    0.60
  -3  -3   5   -0.30    0.60
  -3  -3   5    0.30    1.20
  -3  -3   5   -0.60    1.00
  -3  -3   5   -0.70    1.60
   2   3  -5  286.07   12.80
   2   3  -5  299.87   11.70
   2   3  -5  304.47   16.30
  -2  -3   5  295.07   12.20
  -2  -3   5  322.47   12.10
  -2  -3   5  288.37   12.80
  -2  -3   5  299.77   12.70
  -2  -3   5  310.47   13.00
   1   3  -5    8.00    1.00
   1   3  -5    7.20    1.40
  -1  -3   5    9.80    2.30
  -1  -3   5    8.50    1.10
  -1  -3   5   10.30    1.70
  -1  -3   5    8.50    1.30
  -1  -3   5   10.00    1.00
  -1  -3   5    7.60    1.10
   0   3  -5   29.30    2.30
   0   3  -5   32.50    3.90
   0  -3   5   37.30    2.20
   0  -3   5   35.40    1.40
   0  -3   5   33.70    2.30
   0  -3   5   30.90    2.50
   0  -3   5   36.50    2.10
   0  -3   5   32.90    2.00
  -1   3  -5  590.34   26.30
  -1   3  -5  609.84   26.00
  -1   3  -5  655.03   28.50
  -1   3  -5  635.94   25.60
   1  -3   5  688.33   25.50
   1  -3   5  667.53   25.80
   1  -3   5  623.34   26.00
   1  -3   5  704.03   26.40
   1  -3   5  738.03   26.20
  -2   3  -5  989.70   42.30
  -2   3  -5  976.30   42.40
  -2   3  -5 1079.29   40.70
  -2   3  -5 1122.09   44.30
  -2   3  -5 1058.59   41.40
  -2   3  -5 1072.69   41.80
   2  -3   5 1063.39   41.70
   2  -3   5 1091.09   41.70
   2  -3   5 1127.59   42.30
   2  -3   5 1124.09   41.00
  -3   3  -5   -0.20    1.10
  -3   3  -5   -0.10    1.00
  -3   3  -5   -0.50    0.30
  -3   3  -5   -0.40    0.70
  -3   3  -5    0.60    1.00
   3  -3   5    0.60    1.50
   3  -3   5    0.70    1.10
   3  -3   5   -0.20    0.50
   3  -3   5   -0.20    0.80
   3  -3   5   -0.10    0.90
   3  -3   5   -0.50    1.30
  -4   3  -5  567.84   25.90
  -4   3  -5  572.94   26.10
  -4   3  -5  601.94   24.80
  -4   3  -5  636.24   27.20
  -4   3  -5  606.64   23.90
   4  -3   5  591.84   25.20
   4  -3   5  657.33   24.80
   4  -3   5  614.84   24.70
   4  -3   5  651.33   24.00
   4  -3   5  633.14   23.50
   4  -3   5  620.14   24.40
  -5   3  -5  215.28    9.00
  -5   3  -5  222.88   10.00
  -5   3  -5  225.38   12.00
  -5   3  -5  211.38   11.70
  -5   3  -5  199.08   11.10
   5  -3   5  214.58    9.60
   5  -3   5  238.28   10.10
   5  -3   5  209.08    9.90
  -6   3  -5  181.28   11.20
  -6   3  -5  171.88   10.40
  -6   3  -5  181.18    9.00
  -6   3  -5  186.78   11.00
  -6   3  -5  183.98    8.00
   6  -3   5  190.88    8.70
   6  -3   5  186.78    9.00
   6  -3   5  199.28    9.20
  -7   3  -5    3.00    3.10
  -7   3  -5    3.40    2.10
  -7   3  -5    3.30    1.00
  -7   3  -5    1.20    1.30
  -7   3  -5    3.40    1.50
   7  -3   5    5.80    2.60
   7  -3   5    2.80    1.60
   7  -3   5    4.20    1.70
  -8   3  -5  261.47   12.70
  -8   3  -5  251.87   15.70
  -8   3  -5  254.47   11.50
   8  -3   5  279.37   12.40
   8  -3   5  273.17   12.80
  -9   3  -5   50.79    3.70
  -9   3  -5   60.39    5.20
  -9   3  -5   51.79    7.80
   9  -3   5   39.20    5.80
   9  -3   5   55.29    4.90
   9  -3   5   57.19    5.10
 -10  -2   5   66.99    4.00
   9   2  -5    1.50    2.10
   9   2  -5   -1.40    2.60
   9   2  -5    0.60    2.60
  -9  -2   5    3.20    1.80
  -9  -2   5    3.10    1.30
  -9  -2   5    6.00    2.70
   8   2  -5    1.70    2.80
   8   2  -5    3.80    2.00
   8   2  -5    1.00    1.80
  -8  -2   5    3.70    1.80
  -8  -2   5    3.90    1.30
  -8  -2   5    5.70    2.70
   7   2  -5    1.00    1.60
   7   2  -5    0.00    1.70
   7   2  -5    1.20    2.50
  -7  -2   5    2.60    1.10
  -7  -2   5    2.70    1.90
  -7  -2   5    2.00    1.30
   6   2  -5   93.39    6.30
   6   2  -5   94.09    4.90
   6   2  -5  101.99    5.40
   6   2  -5   85.39   10.30
   6   2  -5   98.69    4.90
  -6  -2   5   91.39    4.60
  -6  -2   5   92.69    6.00
  -6  -2   5   93.09    5.30
  -6  -2   5   96.39    6.10
  -6  -2   5   94.59    4.80
   5   2  -5  192.98    8.20
   5   2  -5  199.18    9.60
   5   2  -5  162.98   13.30
   5   2  -5  190.58    8.20
  -5  -2   5  211.58    7.60
  -5  -2   5  184.28    8.10
  -5  -2   5  184.68    9.30
  -5  -2   5  188.68    8.10
  -5  -2   5  195.28    7.60
  -5  -2   5  188.38    9.30
  -5  -2   5  195.08    8.60
  -5  -2   5  187.98    8.80
   4   2  -5  159.48    6.70
   4   2  -5  156.98    7.80
   4   2  -5  141.69   11.30
   4   2  -5  164.08    6.70
  -4  -2   5  152.08    6.60
  -4  -2   5  156.68    7.20
  -4  -2   5  154.18    6.30
  -4  -2   5  145.89    7.50
  -4  -2   5  156.38    7.30
  -4  -2   5  149.39    7.30
   3   2  -5    2.40    1.00
   3   2  -5    0.00    0.90
   3   2  -5    0.90    1.40
   3   2  -5    1.70    1.90
  -3  -2   5    2.10    1.20
  -3  -2   5   -0.50    0.80
  -3  -2   5   -0.10    1.40
  -3  -2   5    0.20    0.60
  -3  -2   5    1.00    0.70
   2   2  -5 1409.76   55.69
  -2  -2   5 1459.55   55.59
  -2  -2   5 1468.65   55.79
  -2  -2   5 1433.86   55.59
  -2  -2   5 1415.36   55.49
   1   2  -5    3.30    1.00
   1   2  -5    3.10    1.40
  -1  -2   5    5.00    1.20
  -1  -2   5    4.60    0.90
  -1  -2   5    5.00    1.00
  -1  -2   5    2.30    1.60
   0   2  -5   32.40    2.20
   0   2  -5   34.20    2.30
   0   2  -5   40.10    2.10
   0   2  -5   36.40    3.80
   0  -2   5   36.30    2.00
   0  -2   5   33.80    3.00
   0  -2   5   35.30    2.30
   0  -2   5   35.10    2.40
   0  -2   5   40.80    1.70
   0  -2   5   37.40    2.10
  -1   2  -5 1155.18   46.00
  -1   2  -5 1056.39   44.00
  -1   2  -5 1093.49   43.80
  -1   2  -5 1110.89   43.70
   1  -2   5 1143.49   43.60
   1  -2   5 1194.48   43.60
   1  -2   5 1193.28   43.90
   1  -2   5 1124.49   43.70
   1  -2   5 1100.69   43.70
  -2   2  -5  710.83   28.70
  -2   2  -5  682.73   27.90
  -2   2  -5  758.32   30.50
  -2   2  -5  694.33   28.10
  -2   2  -5  705.73   28.70
   2  -2   5  654.83   28.00
   2  -2   5  755.52   28.50
   2  -2   5  715.23   28.30
   2  -2   5  766.02   28.60
  -3   2  -5  410.86   17.40
  -3   2  -5  416.06   18.50
  -3   2  -5  460.75   19.90
  -3   2  -5  399.36   17.60
  -3   2  -5  424.06   18.50
   3  -2   5  429.76   17.30
   3  -2   5  458.15   18.10
   3  -2   5  430.86   17.60
   3  -2   5  427.36   18.00
   3  -2   5  445.26   16.60
   3  -2   5  456.55   16.60
   3  -2   5  453.75   18.20
   3  -2   5  442.36   16.60
  -4   2  -5  496.75   22.20
  -4   2  -5  526.85   23.30
  -4   2  -5  511.15   20.90
  -4   2  -5  504.25   22.00
   4  -2   5  512.45   20.60
   4  -2   5  520.15   20.90
   4  -2   5  499.75   21.50
   4  -2   5  533.55   20.00
   4  -2   5  540.85   21.40
  -5   2  -5  908.21   37.60
  -5   2  -5  920.91   39.00
  -5   2  -5 1033.90   40.60
  -5   2  -5  916.81   39.40
   5  -2   5  967.70   37.70
   5  -2   5  998.40   38.40
   5  -2   5  906.91   38.30
   5  -2   5  970.30   37.30
  -6   2  -5    7.20    2.80
  -6   2  -5    4.30    1.90
  -6   2  -5    5.30    1.40
  -6   2  -5    5.30    1.90
   6  -2   5    6.50    2.00
   6  -2   5    8.00    2.20
   6  -2   5    5.60    1.70
  -7   2  -5    0.30    1.30
  -7   2  -5    0.20    1.00
  -7   2  -5    0.30    2.30
  -7   2  -5    1.00    1.70
   7  -2   5    1.50    1.80
   7  -2   5   -0.50    2.00
   7  -2   5    0.20    1.50
  -8   2  -5    1.30    1.60
  -8   2  -5    6.30    3.60
  -8   2  -5    2.90    1.70
   8  -2   5    5.80    2.70
   8  -2   5    4.60    2.20
   8  -2   5    4.70    2.30
  -9   2  -5   35.30    7.30
  -9   2  -5   24.30    3.50
   9  -2   5   19.30    3.30
   9  -2   5   17.00    4.60
   9  -2   5   17.50    3.00
 -10   2  -5   98.69    6.30
 -10   2  -5  125.29    7.40
  10  -2   5  123.29    7.80
  10  -2   5  110.09    9.50
  10  -2   5  116.79    7.20
  10   1  -5   66.59    5.30
  10   1  -5   60.09    6.80
 -10  -1   5   64.79    4.70
   9   1  -5   25.40    4.40
   9   1  -5   23.80    3.40
  -9  -1   5   35.70    3.50
  -9  -1   5   34.80    5.30
  -9  -1   5   32.30    3.30
  -9  -1   5   27.90    2.50
   8   1  -5  128.29    6.80
   8   1  -5  139.09    8.60
   8   1  -5  139.59    7.00
  -8  -1   5  133.39    7.30
  -8  -1   5  129.29    9.10
  -8  -1   5  134.39    6.30
   7   1  -5   -0.60    1.90
   7   1  -5   -1.00    1.80
   7   1  -5   -0.50    1.60
  -7  -1   5   -0.80    1.10
  -7  -1   5    1.60    1.50
  -7  -1   5    1.60    1.80
  -7  -1   5    1.40    0.90
   6   1  -5   39.40    7.40
   6   1  -5   42.00    3.10
   6   1  -5   45.00    4.10
   6   1  -5   42.90    3.20
  -6  -1   5   41.80    4.00
  -6  -1   5   38.70    2.80
  -6  -1   5   50.49    3.00
  -6  -1   5   43.00    2.60
  -6  -1   5   45.50    3.20
   5   1  -5   15.50    2.00
   5   1  -5   15.00    1.90
   5   1  -5    9.40    3.40
   5   1  -5   13.20    2.50
   5   1  -5   12.90    1.40
  -5  -1   5   12.70    2.00
  -5  -1   5   11.30    1.70
  -5  -1   5   14.50    2.20
  -5  -1   5   16.10    1.70
  -5  -1   5   11.90    1.40
   4   1  -5  549.05   22.60
   4   1  -5  563.14   21.80
   4   1  -5  483.65   25.30
   4   1  -5  545.05   21.70
  -4  -1   5  554.74   21.60
  -4  -1   5  536.35   22.70
  -4  -1   5  571.34   22.30
  -4  -1   5  593.14   21.30
  -4  -1   5  570.74   22.10
   3   1  -5   47.10    5.00
   3   1  -5   48.00    2.60
   3   1  -5   46.30    2.70
  -3  -1   5   41.60    2.40
  -3  -1   5   45.10    2.90
  -3  -1   5   48.10    2.80
  -3  -1   5   45.10    3.20
   2   1  -5 2566.24  105.39
   2   1  -5 2908.61  104.39
   2   1  -5 2699.93  111.49
   2   1  -5 2801.52  104.49
  -2  -1   5 2739.63  104.79
  -2  -1   5 2744.83  104.19
  -2  -1   5 2617.84  103.29
  -2  -1   5 2583.74  105.09
   1   1  -5  104.69    4.90
   1   1  -5  106.39    6.60
   1   1  -5  102.79    4.30
   1   1  -5  113.69    4.60
   1   1  -5   98.59    4.80
  -1  -1   5   98.79    5.30
  -1  -1   5  104.19    4.30
  -1  -1   5  105.69    4.80
  -1  -1   5  101.79    4.40
  -1  -1   5  105.19    4.80
  -1  -1   5  107.69    4.30
   0   1  -5  681.33   29.00
   0   1  -5  698.73   26.90
   0   1  -5  708.73   27.00
   0   1  -5  721.53   26.80
   0   1  -5  692.53   27.00
   0   1  -5  659.23   26.90
   0  -1   5  664.73   26.60
   0  -1   5  683.63   27.00
   0  -1   5  725.93   26.50
   0  -1   5  718.73   27.00
   0  -1   5  716.43   27.00
   0  -1   5  650.63   27.50
  -1   1  -5   77.39    3.70
  -1   1  -5   69.49    3.50
  -1   1  -5   74.59    3.00
  -1   1  -5   68.49    3.50
  -1   1  -5   75.39    5.20
  -1   1  -5   74.59    3.80
   1  -1   5   75.19    4.30
   1  -1   5   75.19    3.80
   1  -1   5   73.49    3.80
   1  -1   5   80.29    3.10
   1  -1   5   75.89    3.70
   1  -1   5   75.79    3.60
   1  -1   5   76.49    4.10
  -2   1  -5    1.30    1.10
  -2   1  -5    3.70    1.10
  -2   1  -5    2.50    0.80
  -2   1  -5    1.90    0.70
  -2   1  -5    4.20    1.10
  -2   1  -5    2.70    1.00
   2  -1   5    2.80    1.00
   2  -1   5    5.00    1.80
   2  -1   5    2.60    1.20
   2  -1   5    2.70    0.80
   2  -1   5    2.90    1.30
  -3   1  -5  902.21   36.70
  -3   1  -5  904.11   36.60
  -3   1  -5  869.91   35.60
  -3   1  -5  875.31   35.70
   3  -1   5  983.40   36.60
   3  -1   5  953.70   35.80
   3  -1   5  896.31   36.20
   3  -1   5  969.00   36.70
  -4   1  -5   16.90    2.50
  -4   1  -5   18.20    2.30
  -4   1  -5   17.50    1.70
   4  -1   5   17.40    2.70
   4  -1   5   20.40    2.00
   4  -1   5   19.30    1.30
   4  -1   5   18.20    2.80
   4  -1   5   16.10    2.00
  -5   1  -5  205.48   10.90
  -5   1  -5  212.58   10.60
  -5   1  -5  207.08    9.40
   5  -1   5  226.78   10.70
   5  -1   5  216.48    9.60
   5  -1   5  208.88    9.20
   5  -1   5  205.68   10.30
  -6   1  -5   99.09    6.60
  -6   1  -5   96.79    5.40
  -6   1  -5  103.29    7.20
   6  -1   5   94.39    6.60
   6  -1   5  104.79    6.80
   6  -1   5  108.09    5.70
   6  -1   5  104.29    5.50
  -7   1  -5   10.90    1.90
  -7   1  -5   13.50    3.00
  -7   1  -5   12.70    3.70
   7  -1   5   11.10    2.20
   7  -1   5    8.50    3.00
   7  -1   5   12.40    2.40
   7  -1   5   10.50    2.90
  -8   1  -5   56.59    6.90
  -8   1  -5   52.29    4.20
   8  -1   5   61.39    4.80
   8  -1   5   58.59    4.40
   8  -1   5   54.49    6.10
   8  -1   5   61.39    5.90
  -9   1  -5   37.80    4.00
  -9   1  -5   40.10    6.70
   9  -1   5   44.50    5.50
   9  -1   5   41.50    4.10
   9  -1   5   41.00    4.40
   9  -1   5   27.00    5.00
 -10   1  -5   53.19    4.60
 -10   1  -5   74.29    6.70
  10   0  -5    1.30    2.90
  10   0  -5    1.40    2.60
 -10   0   5    5.20    1.80
   9   0  -5    7.90    2.80
   9   0  -5    2.50    2.70
  -9   0   5    5.20    1.60
  -9   0   5    6.10    3.50
  -9   0   5    5.10    1.60
  -9   0   5    4.90    1.30
   8   0  -5    0.30    2.20
   8   0  -5   -0.60    2.00
   8   0  -5    0.70    2.40
  -8   0   5    1.50    1.20
  -8   0   5    1.80    1.00
  -8   0   5    1.90    2.50
  -8   0   5    2.00    1.20
   7   0  -5   17.00    2.30
   7   0  -5   16.50    2.50
   7   0  -5   18.10    3.00
  -7   0   5   19.30    2.20
   6   0  -5   34.80    6.40
   6   0  -5   36.70    3.00
   6   0  -5   32.90    3.00
   6   0  -5   40.50    3.90
  -6   0   5   36.10    2.70
  -6   0   5   37.90    2.30
  -6   0   5   34.30    3.80
  -6   0   5   34.80    2.60
  -6   0   5   37.80    3.10
   5   0  -5    0.80    0.60
   5   0  -5    1.40    1.60
   5   0  -5    0.60    0.60
   5   0  -5   -0.70    1.40
   5   0  -5    1.00    2.30
   5   0  -5    0.60    1.70
  -5   0   5    0.80    0.80
  -5   0   5   -0.40    0.70
  -5   0   5    0.70    1.30
  -5   0   5    0.20    0.70
  -5   0   5    0.80    1.00
   4   0  -5    2.20    1.60
   4   0  -5    1.90    1.30
   4   0  -5    2.90    0.90
   4   0  -5    2.90    0.60
   4   0  -5    2.80    2.00
   4   0  -5    1.50    1.30
  -4   0   5    2.60    0.80
  -4   0   5    2.30    1.00
  -4   0   5    2.40    0.80
  -4   0   5    3.00    1.40
  -4   0   5    3.20    0.90
   3   0  -5  169.28    7.40
   3   0  -5  170.18    7.90
   3   0  -5  187.08    9.80
   3   0  -5  175.38    7.00
   3   0  -5  169.98    7.40
   3   0  -5  184.18    7.70
  -3   0   5  163.78    7.90
  -3   0   5  178.88    7.40
  -3   0   5  171.58    7.20
  -3   0   5  177.28    7.40
  -3   0   5  170.48    7.40
   2   0  -5  102.89    4.30
   2   0  -5  109.99    6.40
   2   0  -5  102.69    4.80
   2   0  -5  106.59    5.00
   2   0  -5  103.59    4.70
   2   0  -5  106.99    4.90
   2   0  -5  103.99    4.70
  -2   0   5  107.09    4.60
  -2   0   5  104.99    4.60
  -2   0   5  102.79    4.70
  -2   0   5   99.69    5.20
  -2   0   5  101.29    4.50
   1   0  -5  235.48    9.20
   1   0  -5  236.68   11.10
   1   0  -5  225.58    9.10
   1   0  -5  235.58    9.30
   1   0  -5  236.68    9.50
   1   0  -5  217.58    9.20
  -1   0   5  225.98    9.50
  -1   0   5  221.88    9.10
  -1   0   5  228.28    9.90
  -1   0   5  219.18    9.10
   0   0  -5  133.19    5.60
   0   0  -5  132.99    5.70
   0   0  -5  140.29    7.50
   0   0  -5  137.39    5.50
   0   0  -5  133.39    5.90
   0   0  -5  133.99    5.90
   0   0   5  139.49    6.10
   0   0   5  139.29    6.50
   0   0   5  145.39    5.60
   0   0   5  140.39    6.50
   0   0   5  136.59    6.10
   0   0   5  129.29    5.50
  -1   0  -5  921.41   38.20
  -1   0  -5 1079.19   37.60
  -1   0  -5 1064.99   37.50
  -1   0  -5  944.31   38.20
  -1   0  -5  941.81   37.70
  -1   0  -5  969.40   38.20
   1   0   5  967.50   38.60
   1   0   5  982.20   38.30
   1   0   5 1030.30   38.20
   1   0   5  971.60   38.40
   1   0   5  934.21   37.70
   1   0   5  979.60   37.40
  -2   0  -5   95.09    5.00
  -2   0  -5   89.49    4.90
  -2   0  -5  101.69    4.40
  -2   0  -5   89.59    4.30
  -2   0  -5   98.29    4.00
   2   0   5   97.89    4.90
   2   0   5   97.49    5.00
   2   0   5  101.29    5.40
   2   0   5  100.79    3.90
   2   0   5   95.29    5.00
   2   0   5   98.99    4.30
  -3   0  -5   24.80    1.70
  -3   0  -5   22.10    1.90
  -3   0  -5   22.30    2.40
  -3   0  -5   21.20    2.30
  -3   0  -5   23.60    1.40
   3   0   5   22.70    2.60
   3   0   5   24.50    2.40
   3   0   5   27.50    3.00
   3   0   5   24.90    1.80
   3   0   5   21.80    2.70
  -4   0  -5   13.10    1.50
  -4   0  -5   14.50    2.30
  -4   0  -5   13.50    1.70
  -4   0  -5   14.50    2.30
  -4   0  -5   16.70    1.30
   4   0   5   17.50    2.50
   4   0   5   17.30    1.90
   4   0   5   11.30    2.30
   4   0   5   16.70    1.30
   4   0   5   19.50    2.90
  -5   0  -5    1.40    1.40
  -5   0  -5    1.50    0.80
  -5   0  -5    1.20    1.50
   5   0   5    0.70    2.00
   5   0   5    1.00    1.40
   5   0   5    2.30    1.80
   5   0   5    1.10    1.70
   5   0   5    0.60    1.10
  -6   0  -5  117.99    6.10
  -6   0  -5  120.49    7.90
  -6   0  -5  117.19    7.40
   6   0   5  127.29    6.40
   6   0   5  121.19    7.30
   6   0   5  121.49    8.00
   6   0   5  124.09    6.00
   6   0   5  123.19    6.40
  -7   0  -5  236.98   13.40
  -7   0  -5  232.88   12.60
  -7   0  -5  237.78   11.00
   7   0   5  229.78   12.20
   7   0   5  249.08   11.30
   7   0   5  250.17   13.30
   7   0   5  246.88   10.60
  -8   0  -5   20.40    4.90
  -8   0  -5   14.30    2.40
   8   0   5   13.90    2.60
   8   0   5   18.30    4.10
   8   0   5    9.50    3.70
   8   0   5   18.60    2.80
  -9   0  -5   44.70    4.10
  -9   0  -5   47.40    6.60
   9   0   5   41.90    5.90
   9   0   5   48.80    6.30
   9   0   5   51.49    4.20
 -10   0  -5  229.48   11.20
 -10   0  -5  233.38   14.60
  10   0   5  200.48   11.60
  10   0   5  186.28   12.70
  10   0   5  198.88   13.20
  10  -1  -5    0.70    2.80
  10  -1  -5    5.40    3.00
 -10   1   5    4.70    1.90
   9  -1  -5    3.30    2.60
   9  -1  -5    1.10    2.60
  -9   1   5   -0.40    1.00
  -9   1   5    1.90    1.40
   8  -1  -5    5.70    2.60
   8  -1  -5    5.80    2.30
   8  -1  -5    6.70    2.60
  -8   1   5    5.30    1.30
  -8   1   5    4.40    1.50
  -8   1   5    4.20    1.50
   7  -1  -5  152.68    8.40
   7  -1  -5  156.98    7.70
   7  -1  -5  154.28    7.70
  -7   1   5  158.18    8.30
  -7   1   5  151.88    7.50
  -7   1   5  153.58    6.90
  -7   1   5  158.38    7.60
   6  -1  -5   48.00    3.50
   6  -1  -5   49.99    4.10
   6  -1  -5   45.90    3.50
  -6   1   5   50.99    2.80
  -6   1   5   52.39    4.00
  -6   1   5   43.40    3.20
  -6   1   5   45.30    3.00
   5  -1  -5   72.39    4.20
   5  -1  -5   68.29    4.20
   5  -1  -5   72.09    3.70
   5  -1  -5   60.69    6.30
   5  -1  -5   72.19    4.50
  -5   1   5   71.99    3.60
  -5   1   5   73.09    3.90
  -5   1   5   73.19    3.70
  -5   1   5   68.19    4.40
   4  -1  -5   13.30    2.00
   4  -1  -5   10.00    1.80
   4  -1  -5   13.30    1.30
   4  -1  -5   10.20    2.20
   4  -1  -5   15.10    1.50
   4  -1  -5   11.00    1.70
  -4   1   5   13.90    1.90
  -4   1   5   13.00    1.50
  -4   1   5   13.70    1.40
  -4   1   5   13.80    1.30
   3  -1  -5   22.80    1.70
   3  -1  -5   23.10    2.10
   3  -1  -5   24.00    2.20
   3  -1  -5   23.10    2.20
   3  -1  -5   23.20    2.80
   3  -1  -5   26.70    2.00
   3  -1  -5   23.10    1.80
  -3   1   5   22.90    2.40
  -3   1   5   22.00    2.30
  -3   1   5   23.70    1.40
  -3   1   5   22.50    1.50
  -3   1   5   25.10    1.80
   2  -1  -5   27.70    2.80
   2  -1  -5   24.40    1.90
   2  -1  -5   26.10    1.70
   2  -1  -5   27.70    2.00
  -2   1   5   23.40    2.40
  -2   1   5   24.40    1.70
  -2   1   5   28.40    2.40
  -2   1   5   25.10    1.60
   1  -1  -5  320.07   13.80
   1  -1  -5  306.27   11.80
   1  -1  -5  313.97   11.80
   1  -1  -5  287.67   12.30
   1  -1  -5  293.87   11.90
  -1   1   5  294.97   12.30
  -1   1   5  294.67   11.80
  -1   1   5  291.27   12.50
  -1   1   5  301.67   12.70
  -1   1   5  297.07   12.00
   0  -1  -5    8.30    0.60
   0  -1  -5    8.70    1.40
   0  -1  -5    7.20    0.60
   0   1   5    8.00    1.50
   0   1   5    7.80    0.90
   0   1   5    6.80    1.20
   0   1   5    6.60    0.70
   0   1   5    8.20    1.60
  -1  -1  -5    0.20    0.90
  -1  -1  -5    0.40    0.90
  -1  -1  -5    0.20    0.30
  -1  -1  -5   -0.40    0.50
  -1  -1  -5   -0.10    0.40
   1   1   5    0.10    1.00
   1   1   5    0.20    0.30
   1   1   5    0.30    0.30
   1   1   5   -0.80    1.00
   1   1   5    0.80    1.10
   1   1   5    0.00    1.10
   1   1   5    0.20    0.90
   1   1   5    0.00    0.40
  -2  -1  -5  135.29    5.30
  -2  -1  -5  132.29    5.60
  -2  -1  -5  127.79    6.50
  -2  -1  -5  135.09    5.80
  -2  -1  -5  129.69    5.70
  -2  -1  -5  129.79    6.70
   2   1   5  140.49    6.50
   2   1   5  129.59    6.30
   2   1   5  137.69    5.50
   2   1   5  135.89    6.20
   2   1   5  134.39    6.90
   2   1   5  137.99    6.70
  -3  -1  -5   72.09    4.60
  -3  -1  -5   78.99    3.70
  -3  -1  -5   73.59    4.00
  -3  -1  -5   68.59    4.60
  -3  -1  -5   76.79    3.10
  -3  -1  -5   75.29    3.70
  -3  -1  -5   76.19    3.60
   3   1   5   76.69    4.50
   3   1   5   72.89    5.00
   3   1   5   76.99    4.10
   3   1   5   77.39    4.60
   3   1   5   79.59    3.70
   3   1   5   81.19    4.80
  -4  -1  -5   14.40    1.70
  -4  -1  -5   14.70    0.70
  -4  -1  -5   14.50    1.50
  -4  -1  -5   13.20    2.30
  -4  -1  -5   14.60    1.50
  -4  -1  -5   14.60    2.60
   4   1   5   15.10    1.70
   4   1   5   12.40    2.30
   4   1   5   16.40    2.00
   4   1   5   15.90    3.00
  -5  -1  -5   67.89    5.30
  -5  -1  -5   66.79    3.70
  -5  -1  -5   68.79    3.80
  -5  -1  -5   65.59    4.80
   5   1   5   66.69    3.90
   5   1   5   62.79    5.00
   5   1   5   69.79    5.80
   5   1   5   71.59    3.90
  -6  -1  -5   12.40    1.60
  -6  -1  -5   10.90    1.70
  -6  -1  -5   11.90    2.60
  -6  -1  -5   11.60    3.20
   6   1   5   10.90    2.80
   6   1   5   12.20    2.00
   6   1   5   15.50    1.80
   6   1   5   14.20    3.40
  -7  -1  -5   11.90    2.00
  -7  -1  -5   19.20    3.00
  -7  -1  -5   15.50    3.80
   7   1   5   13.60    3.40
   7   1   5   15.00    3.80
   7   1   5   13.60    2.20
  -8  -1  -5   16.20    2.50
  -8  -1  -5   21.00    5.00
   8   1   5   18.10    4.00
   8   1   5   16.50    4.20
  -9  -1  -5   -0.50    1.20
  -9  -1  -5    4.70    3.30
   9   1   5   -3.40    2.80
   9   1   5    4.50    3.60
  10  -2  -5   30.00    4.50
  10  -2  -5   28.20    4.00
 -10   2   5   22.50    3.20
   9  -2  -5    3.00    2.30
   9  -2  -5    0.50    2.60
  -9   2   5    1.60    1.10
  -9   2   5   -0.10    1.30
   8  -2  -5    7.40    2.40
   8  -2  -5   14.60    2.90
  -8   2   5   10.50    2.10
  -8   2   5   13.80    1.80
  -8   2   5   10.40    2.70
   7  -2  -5   99.99    6.10
   7  -2  -5  102.59    5.90
   7  -2  -5  103.39    5.90
  -7   2   5  103.29    5.40
  -7   2   5   98.79    4.90
  -7   2   5   95.59    5.60
  -7   2   5  103.39    6.70
   6  -2  -5   17.10    2.40
   6  -2  -5   20.20    2.70
   6  -2  -5   19.80    2.60
  -6   2   5   22.60    3.00
  -6   2   5   20.20    1.90
  -6   2   5   21.10    2.30
  -6   2   5   21.10    1.90
   5  -2  -5  236.08   10.50
   5  -2  -5  218.78   11.40
   5  -2  -5  245.48   10.50
   5  -2  -5  242.78   10.80
   5  -2  -5  249.08   10.80
  -5   2   5  257.17   10.30
  -5   2   5  244.68   10.10
  -5   2   5  248.98   10.60
  -5   2   5  257.37   11.50
   4  -2  -5   46.90    4.00
   4  -2  -5   45.30    3.30
   4  -2  -5   44.90    2.80
   4  -2  -5   48.90    3.20
   4  -2  -5   46.90    3.00
   4  -2  -5   45.60    3.10
   4  -2  -5   42.70    3.30
  -4   2   5   49.10    2.60
  -4   2   5   46.30    2.90
  -4   2   5   49.50    2.50
  -4   2   5   47.60    3.90
   3  -2  -5  404.76   15.40
   3  -2  -5  371.16   15.40
   3  -2  -5  374.56   15.50
   3  -2  -5  378.56   15.50
   3  -2  -5  405.96   16.80
  -3   2   5  385.36   16.30
  -3   2   5  372.86   15.30
  -3   2   5  388.76   15.60
   2  -2  -5   56.19    3.10
   2  -2  -5   53.29    2.80
   2  -2  -5   52.89    3.10
   2  -2  -5   57.99    2.70
   2  -2  -5   59.39    4.00
  -2   2   5   54.19    2.70
  -2   2   5   59.49    2.40
  -2   2   5   55.39    3.60
  -2   2   5   55.99    3.90
  -2   2   5   58.29    3.20
  -2   2   5   59.79    2.30
  -2   2   5   57.39    3.10
   1  -2  -5    5.30    0.60
   1  -2  -5    5.60    0.60
   1  -2  -5    5.50    1.00
  -1   2   5    5.50    1.40
  -1   2   5    4.60    0.70
  -1   2   5    4.50    1.50
  -1   2   5    5.60    1.50
  -1   2   5    4.80    0.90
  -1   2   5    5.70    1.20
   0  -2  -5  893.21   35.00
   0   2   5  883.81   34.40
   0   2   5  918.01   35.20
   0   2   5  888.51   34.30
   0   2   5  882.41   34.80
   0   2   5  878.91   35.20
   0   2   5  841.62   34.50
   0   2   5  883.11   33.90
  -1  -2  -5   64.99    2.90
  -1  -2  -5   62.69    4.30
  -1  -2  -5   60.49    4.10
  -1  -2  -5   64.99    2.70
  -1  -2  -5   65.69    3.30
   1   2   5   64.69    3.60
   1   2   5   64.79    4.00
   1   2   5   67.09    3.70
   1   2   5   66.89    4.20
   1   2   5   66.99    2.90
  -2  -2  -5  156.18    6.80
  -2  -2  -5  152.98    8.00
  -2  -2  -5  156.48    7.80
  -2  -2  -5  156.08    6.90
  -2  -2  -5  157.58    6.50
   2   2   5  155.48    7.20
   2   2   5  166.28    6.40
   2   2   5  155.08    7.60
   2   2   5  161.38    8.20
   2   2   5  158.88    7.00
  -3  -2  -5   29.00    2.10
  -3  -2  -5   29.70    2.90
  -3  -2  -5   29.30    2.30
  -3  -2  -5   29.90    2.50
  -3  -2  -5   29.70    3.30
  -3  -2  -5   30.00    1.90
   3   2   5   28.10    3.00
   3   2   5   26.50    2.70
   3   2   5   33.80    2.30
   3   2   5   28.20    3.60
   3   2   5   32.80    2.00
  -4  -2  -5  415.86   19.30
  -4  -2  -5  429.86   17.40
  -4  -2  -5  422.06   19.00
  -4  -2  -5  441.76   17.70
  -4  -2  -5  427.56   17.90
   4   2   5  455.65   18.70
   4   2   5  436.36   18.40
   4   2   5  425.06   19.90
   4   2   5  456.75   17.50
   4   2   5  487.05   17.80
  -5  -2  -5  228.18   10.60
  -5  -2  -5  244.28   10.40
  -5  -2  -5  227.88    9.90
  -5  -2  -5  239.78   12.30
  -5  -2  -5  237.48   11.80
   5   2   5  246.58   11.40
   5   2   5  247.48   11.30
   5   2   5  248.28    9.80
   5   2   5  256.27   10.60
   5   2   5  236.78   12.80
  -6  -2  -5    9.60    3.00
  -6  -2  -5   11.60    2.00
  -6  -2  -5    6.60    1.50
  -6  -2  -5    8.40    2.20
   6   2   5    8.50    3.20
   6   2   5   10.30    2.60
   6   2   5    8.10    1.80
  -7  -2  -5   19.40    2.50
  -7  -2  -5   27.60    5.10
  -7  -2  -5   31.30    3.60
  -7  -2  -5   22.30    2.50
   7   2   5   26.70    3.90
   7   2   5   21.60    4.70
  -8  -2  -5   15.50    2.50
  -8  -2  -5   27.30    5.70
   8   2   5   15.90    4.70
   8   2   5   10.40    3.50
  -9  -2  -5    8.60    2.30
  -9  -2  -5   15.80    4.80
   9   2   5    3.80    3.30
   9   2   5   10.00    4.20
   9  -3  -5   11.90    3.00
   9  -3  -5   11.00    3.30
  -9   3   5   10.60    1.70
  -9   3   5   11.80    2.40
   8  -3  -5    4.20    2.10
   8  -3  -5    0.70    2.50
  -8   3   5    7.70    1.90
  -8   3   5    2.60    2.50
  -8   3   5    3.30    1.30
   7  -3  -5   83.19    5.20
   7  -3  -5   84.99    5.20
   7  -3  -5   79.59    5.40
  -7   3   5   88.39    6.60
  -7   3   5   84.99    4.40
  -7   3   5   83.69    5.10
   6  -3  -5   53.79    4.00
   6  -3  -5   58.19    4.00
   6  -3  -5   53.49    3.90
  -6   3   5   54.09    5.10
  -6   3   5   54.89    3.10
  -6   3   5   49.70    3.60
   5  -3  -5    3.90    1.30
   5  -3  -5    2.10    1.60
   5  -3  -5    2.90    1.70
   5  -3  -5    6.80    1.80
  -5   3   5    4.60    1.00
  -5   3   5    4.20    2.00
  -5   3   5    2.20    0.90
  -5   3   5    2.40    1.10
   4  -3  -5    8.00    1.70
   4  -3  -5    4.20    1.50
   4  -3  -5    3.70    1.10
   4  -3  -5    5.10    1.20
   4  -3  -5    5.00    1.70
  -4   3   5    5.70    0.90
  -4   3   5    6.90    2.10
  -4   3   5    3.80    1.20
  -4   3   5    4.90    1.00
   3  -3  -5  240.08   10.00
   3  -3  -5  249.78    9.90
   3  -3  -5  255.17   11.10
   3  -3  -5  239.78   10.20
   3  -3  -5  233.08   10.10
  -3   3   5  234.28    9.90
  -3   3   5  258.87    9.70
  -3   3   5  238.58   10.40
  -3   3   5  232.28   10.20
  -3   3   5  236.28   11.40
   2  -3  -5    3.20    1.40
   2  -3  -5    3.60    0.70
   2  -3  -5    3.30    1.10
   2  -3  -5    5.10    1.30
   2  -3  -5    3.90    0.50
  -2   3   5    3.30    1.30
  -2   3   5    3.90    1.00
  -2   3   5    2.90    1.80
  -2   3   5    4.00    0.80
   1  -3  -5  548.45   21.60
   1  -3  -5  572.94   21.10
   1  -3  -5  549.54   21.20
   1  -3  -5  537.95   21.60
  -1   3   5  579.64   22.70
  -1   3   5  543.05   21.60
  -1   3   5  554.34   23.10
  -1   3   5  539.35   22.30
  -1   3   5  546.25   21.90
   0  -3  -5    2.90    0.90
   0  -3  -5    5.20    1.80
   0  -3  -5    4.40    0.40
   0  -3  -5    3.60    0.30
   0   3   5    3.90    1.20
   0   3   5    2.10    1.70
   0   3   5    4.10    1.50
   0   3   5    2.80    0.70
   0   3   5    6.10    1.20
   0   3   5    4.50    1.40
   0   3   5    4.20    1.90
  -1  -3  -5  605.14   22.90
  -1  -3  -5  577.14   24.50
  -1  -3  -5  593.14   24.80
  -1  -3  -5  591.74   23.70
  -1  -3  -5  614.34   23.10
   1   3   5  569.54   24.30
   1   3   5  608.64   25.00
   1   3   5  593.04   23.60
   1   3   5  603.14   24.70
   1   3   5  598.94   23.70
  -2  -3  -5    5.40    1.40
  -2  -3  -5    6.20    2.20
  -2  -3  -5    3.70    0.70
  -2  -3  -5    3.90    1.10
  -2  -3  -5    5.10    1.90
   2   3   5    3.00    2.00
   2   3   5    3.90    1.10
   2   3   5    4.40    0.50
   2   3   5    3.50    1.90
   2   3   5    4.20    1.30
  -3  -3  -5    0.80    1.90
  -3  -3  -5    2.00    0.70
  -3  -3  -5    2.30    1.30
  -3  -3  -5    2.40    1.80
  -3  -3  -5    2.50    0.90
   3   3   5    0.90    0.80
   3   3   5    1.40    0.40
   3   3   5    2.30    1.90
   3   3   5    2.50    1.40
   3   3   5    0.40    1.90
  -4  -3  -5   40.20    4.10
  -4  -3  -5   43.80    4.00
  -4  -3  -5   39.50    2.30
  -4  -3  -5   39.70    3.10
  -4  -3  -5   39.70    2.60
   4   3   5   39.60    4.00
   4   3   5   40.60    4.60
   4   3   5   37.20    3.20
   4   3   5   41.60    2.80
  -5  -3  -5   31.60    2.50
  -5  -3  -5   31.10    3.80
  -5  -3  -5   30.70    2.80
  -5  -3  -5   35.50    3.60
   5   3   5   35.30    3.60
   5   3   5   34.20    3.30
   5   3   5   33.60    5.10
   5   3   5   36.10    3.80
  -6  -3  -5    2.20    2.10
  -6  -3  -5   -0.50    0.80
  -6  -3  -5    2.50    1.40
  -6  -3  -5    2.00    1.30
   6   3   5   -0.30    2.40
   6   3   5   -0.20    2.00
   6   3   5    1.40    1.90
  -7  -3  -5    8.60    3.30
  -7  -3  -5    3.70    1.40
  -7  -3  -5    6.70    1.90
   7   3   5    4.50    2.40
   7   3   5    6.00    2.70
   7   3   5    4.90    3.50
  -8  -3  -5   35.50    5.30
  -8  -3  -5   33.70    3.50
   8   3   5   35.10    6.60
   8   3   5   31.20    4.40
  -9  -3  -5  128.99   10.00
  -9  -3  -5  109.59    6.80
   9   3   5  110.79    8.20
   9   3   5  109.59   10.30
   9  -4  -5   -1.60    2.80
   9  -4  -5    1.60    2.00
  -9   4   5    2.60    1.30
  -9   4   5    3.30    2.00
   8  -4  -5    3.70    2.90
   8  -4  -5    1.70    1.90
  -8   4   5   -3.30    2.40
  -8   4   5    1.10    1.50
  -8   4   5    0.00    1.00
   7  -4  -5    3.60    1.80
   7  -4  -5    7.10    2.50
  -7   4   5    4.90    1.50
  -7   4   5    4.40    2.60
  -7   4   5    3.40    1.20
   6  -4  -5   86.79    5.00
   6  -4  -5   85.09    5.30
   6  -4  -5   83.49    5.30
  -6   4   5   86.19    5.10
  -6   4   5   84.99    6.80
  -6   4   5   84.79    4.40
   5  -4  -5  108.29    5.50
   5  -4  -5  107.09    5.70
   5  -4  -5  104.39    5.60
  -5   4   5  109.99    5.80
  -5   4   5  110.39    7.40
  -5   4   5  104.79    5.10
   4  -4  -5  296.07   12.30
   4  -4  -5  282.97   12.10
   4  -4  -5  294.27   12.30
  -4   4   5  285.47   12.10
  -4   4   5  284.57   12.00
  -4   4   5  304.37   14.00
  -4   4   5  298.67   12.60
   3  -4  -5    8.30    1.10
   3  -4  -5    6.80    1.70
   3  -4  -5    9.30    1.70
   3  -4  -5    8.10    1.50
  -3   4   5    5.70    1.50
  -3   4   5    8.40    2.40
  -3   4   5    7.50    1.40
  -3   4   5    7.30    1.20
   2  -4  -5    0.50    0.40
   2  -4  -5    0.70    0.60
   2  -4  -5    1.60    1.20
   2  -4  -5    0.20    1.30
  -2   4   5   -0.70    0.70
  -2   4   5    0.00    1.70
  -2   4   5    0.90    1.30
  -2   4   5    1.40    0.90
   1  -4  -5    3.00    0.70
   1  -4  -5    3.40    0.40
   1  -4  -5    4.50    1.20
   1  -4  -5    4.10    1.20
  -1   4   5    2.40    1.00
  -1   4   5    3.40    1.80
  -1   4   5    2.60    1.30
  -1   4   5    4.50    2.30
   0  -4  -5    3.70    0.50
   0  -4  -5    4.10    1.00
   0  -4  -5    5.00    1.10
   0  -4  -5    3.80    0.70
   0  -4  -5    3.80    1.40
   0   4   5    3.90    2.10
   0   4   5    4.00    2.20
   0   4   5    3.70    1.30
   0   4   5    3.20    1.40
   0   4   5    3.40    1.20
  -1  -4  -5   68.29    3.10
  -1  -4  -5   63.09    3.90
  -1  -4  -5   64.99    3.10
  -1  -4  -5   61.59    3.10
  -1  -4  -5   64.29    5.00
   1   4   5   69.69    4.80
   1   4   5   64.19    4.90
   1   4   5   67.19    3.80
   1   4   5   59.99    5.30
  -2  -4  -5 1298.77   52.29
  -2  -4  -5 1316.67   50.19
  -2  -4  -5 1268.27   50.79
  -2  -4  -5 1304.27   51.89
  -2  -4  -5 1311.97   49.99
  -2  -4  -5 1311.37   49.70
   2   4   5 1298.67   51.59
   2   4   5 1297.27   50.49
  -3  -4  -5  841.62   35.50
  -3  -4  -5  869.11   33.30
  -3  -4  -5  842.52   35.10
  -3  -4  -5  847.32   34.00
  -3  -4  -5  837.22   32.80
   3   4   5  844.72   33.70
   3   4   5  890.71   36.00
   3   4   5  853.01   34.80
  -4  -4  -5  259.07   13.40
  -4  -4  -5  269.07   11.30
  -4  -4  -5  248.08   11.80
  -4  -4  -5  262.57   13.00
   4   4   5  276.67   14.30
   4   4   5  264.07   11.70
   4   4   5  282.57   13.00
  -5  -4  -5    1.70    1.60
  -5  -4  -5    0.40    1.80
  -5  -4  -5    0.70    0.90
  -5  -4  -5    0.80    1.40
   5   4   5    0.00    2.10
   5   4   5    1.30    2.50
   5   4   5   -0.60    1.40
  -6  -4  -5    0.30    1.00
  -6  -4  -5    1.70    2.10
  -6  -4  -5    3.50    1.70
  -6  -4  -5    1.50    1.40
   6   4   5    1.40    1.90
   6   4   5    0.80    2.80
   6   4   5    2.30    2.40
  -7  -4  -5   -1.10    1.00
  -7  -4  -5    1.50    1.30
  -7  -4  -5    3.30    2.50
   7   4   5    2.70    2.50
   7   4   5   -0.10    3.10
   7   4   5    2.00    2.20
  -8  -4  -5   60.29    6.50
  -8  -4  -5   50.59    4.30
   8   4   5   58.19    7.90
   8   4   5   56.49    5.40
   8   4   5   58.79    5.60
   9  -5  -5   27.50    4.10
   9  -5  -5   29.50    3.90
  -9   5   5   25.70    3.60
   8  -5  -5   15.90    2.70
   8  -5  -5   16.60    3.50
  -8   5   5    9.30    2.20
  -8   5   5   12.80    3.90
   7  -5  -5   13.60    3.20
   7  -5  -5   11.10    2.20
  -7   5   5    7.70    3.40
  -7   5   5   10.50    1.70
  -7   5   5   15.70    2.50
   6  -5  -5   49.30    4.40
   6  -5  -5   50.29    4.30
   6  -5  -5   51.89    3.70
  -6   5   5   51.99    6.00
  -6   5   5   53.39    4.10
  -6   5   5   47.90    3.30
   5  -5  -5   23.40    2.70
   5  -5  -5   24.30    2.80
   5  -5  -5   24.50    2.40
  -5   5   5   23.70    2.10
  -5   5   5   22.80    2.60
  -5   5   5   23.40    3.80
   4  -5  -5  150.38    7.10
   4  -5  -5  148.69    6.80
   4  -5  -5  146.79    7.00
  -4   5   5  155.78    9.30
  -4   5   5  150.28    7.40
  -4   5   5  144.69    7.00
  -4   5   5  146.49    6.70
   3  -5  -5  489.35   19.60
   3  -5  -5  419.96   17.60
   3  -5  -5  431.26   17.60
   3  -5  -5  433.46   17.40
  -3   5   5  438.96   19.80
  -3   5   5  423.76   18.20
  -3   5   5  410.86   18.00
   2  -5  -5    1.90    1.20
   2  -5  -5    1.80    0.80
   2  -5  -5    0.60    1.30
  -2   5   5    1.00    2.00
  -2   5   5    2.10    1.10
  -2   5   5    1.20    1.70
   1  -5  -5  376.06   15.00
   1  -5  -5  370.86   15.00
   1  -5  -5  380.46   14.90
  -1   5   5  371.46   16.40
  -1   5   5  355.36   15.60
  -1   5   5  385.86   16.30
  -1   5   5  386.46   17.50
   0  -5  -5   47.50    2.60
   0  -5  -5   46.70    2.70
   0  -5  -5   47.00    3.50
   0  -5  -5   44.70    2.60
   0   5   5   49.60    3.90
   0   5   5   46.40    4.10
   0   5   5   47.80    5.10
  -1  -5  -5    8.70    1.00
  -1  -5  -5   10.40    2.00
  -1  -5  -5   10.60    1.30
  -1  -5  -5    9.30    1.10
  -1  -5  -5   10.80    2.90
   1   5   5    9.00    2.20
   1   5   5    9.20    1.60
   1   5   5   13.30    2.90
   1   5   5    6.00    2.50
  -2  -5  -5    8.70    0.90
  -2  -5  -5    9.10    1.20
  -2  -5  -5    9.10    3.10
  -2  -5  -5    9.10    2.10
  -2  -5  -5    8.30    0.90
  -2  -5  -5    9.60    2.80
   2   5   5   10.60    2.60
   2   5   5    6.80    3.00
   2   5   5    6.80    1.50
   2   5   5    9.00    2.70
  -3  -5  -5  415.86   19.90
  -3  -5  -5  429.36   17.50
  -3  -5  -5  440.76   19.70
  -3  -5  -5  415.16   18.40
   3   5   5  471.75   20.60
   3   5   5  421.46   17.80
   3   5   5  442.46   19.50
  -4  -5  -5   11.40    2.30
  -4  -5  -5   12.10    2.90
  -4  -5  -5    9.00    1.40
  -4  -5  -5   10.80    3.20
   4   5   5   10.80    1.90
   4   5   5   11.00    3.20
   4   5   5   11.70    3.50
  -5  -5  -5  140.19    9.30
  -5  -5  -5  135.89    7.80
  -5  -5  -5  150.98    8.90
  -5  -5  -5  149.88    7.10
   5   5   5  148.29    8.90
   5   5   5  158.48   10.50
   5   5   5  143.09    7.40
  -6  -5  -5   10.30    1.90
  -6  -5  -5    8.90    3.10
  -6  -5  -5   11.80    2.70
   6   5   5    6.40    3.70
   6   5   5    7.60    2.10
   6   5   5   10.00    3.50
  -7  -5  -5   16.70    3.00
  -7  -5  -5   17.70    4.20
  -7  -5  -5   13.20    2.30
   7   5   5   10.20    2.50
   7   5   5   18.30    3.90
   7   5   5   15.70    4.90
  -8  -5  -5    0.40    1.30
   8   5   5    1.90    2.90
   8   5   5    1.50    3.70
   8  -6  -5    3.40    1.80
   8  -6  -5    2.30    2.90
  -8   6   5    3.00    1.90
  -8   6   5   -1.10    3.00
   7  -6  -5   34.90    3.50
   7  -6  -5   31.70    3.90
  -7   6   5   33.70    3.80
  -7   6   5   22.90    4.50
   6  -6  -5   -1.40    2.20
   6  -6  -5    4.90    1.60
  -6   6   5    2.20    1.50
  -6   6   5   -1.70    2.90
   5  -6  -5   -0.90    1.80
   5  -6  -5    0.20    2.10
   5  -6  -5    0.50    1.10
  -5   6   5    0.60    2.50
  -5   6   5    0.60    1.40
   4  -6  -5   97.19    5.00
   4  -6  -5   96.09    5.30
   4  -6  -5   98.09    5.30
  -4   6   5   91.19    5.50
  -4   6   5   92.59    5.40
  -4   6   5   97.29    7.80
   3  -6  -5   25.00    2.50
   3  -6  -5   25.30    2.20
   3  -6  -5   20.60    2.30
  -3   6   5   25.50    2.70
  -3   6   5   23.90    3.00
  -3   6   5   18.40    3.70
   2  -6  -5   79.39    4.10
   2  -6  -5   75.19    4.20
   2  -6  -5   81.49    4.30
  -2   6   5   77.39    6.80
  -2   6   5   76.39    4.70
  -2   6   5   87.09    5.60
   1  -6  -5    8.00    2.20
   1  -6  -5    7.80    1.30
   1  -6  -5    6.20    1.30
   1  -6  -5    6.90    1.40
  -1   6   5    7.80    2.50
  -1   6   5    8.60    2.00
  -1   6   5    5.20    1.50
  -1   6   5    5.70    2.90
   0  -6  -5   18.10    1.70
   0  -6  -5   18.00    2.50
   0  -6  -5   20.30    1.70
   0  -6  -5   16.00    2.00
   0   6   5   21.80    3.70
   0   6   5   16.60    3.40
   0   6   5   21.00    2.90
  -1  -6  -5   52.79    3.20
  -1  -6  -5   44.70    5.20
  -1  -6  -5   48.10    3.90
   1   6   5   51.59    4.90
   1   6   5   60.29    4.90
   1   6   5   57.89    6.20
  -2  -6  -5   26.00    4.30
  -2  -6  -5   23.90    4.30
  -2  -6  -5   22.70    2.10
  -2  -6  -5   24.60    3.10
   2   6   5   21.10    4.20
   2   6   5   30.60    4.50
   2   6   5   24.10    2.50
   2   6   5   27.70    4.00
  -3  -6  -5    5.00    2.20
  -3  -6  -5    4.80    2.40
  -3  -6  -5    3.00    1.10
  -3  -6  -5    5.40    2.80
   3   6   5    4.60    1.40
   3   6   5    4.70    2.90
   3   6   5    5.30    2.60
  -4  -6  -5    3.80    2.70
  -4  -6  -5    2.40    1.20
  -4  -6  -5    5.50    2.50
  -4  -6  -5    4.00    2.20
   4   6   5    4.70    2.90
   4   6   5    3.80    1.50
   4   6   5    5.30    3.00
  -5  -6  -5   47.70    3.50
  -5  -6  -5   48.10    4.30
  -5  -6  -5   43.10    5.30
   5   6   5   50.69    5.70
   5   6   5   61.39    7.10
  -6  -6  -5    6.30    3.10
  -6  -6  -5    4.30    2.10
  -6  -6  -5    0.20    1.20
   6   6   5    0.70    3.00
   6   6   5    4.40    3.20
  -7  -6  -5   24.80    4.10
  -7  -6  -5   19.60    2.80
   7   6   5   13.40    3.90
   7   6   5   12.00    4.60
   7  -7  -5    6.00    1.90
   7  -7  -5    7.00    3.00
  -7   7   5    3.60    2.00
  -7   7   5   -1.20    3.20
   6  -7  -5    2.20    1.50
   6  -7  -5    0.10    2.50
  -6   7   5   -4.20    2.60
  -6   7   5    1.40    1.60
   5  -7  -5   14.20    2.10
   5  -7  -5   14.20    3.10
   5  -7  -5   11.80    2.70
  -5   7   5   13.40    2.50
  -5   7   5   15.90    4.30
   4  -7  -5   16.30    2.40
   4  -7  -5   22.10    2.70
   4  -7  -5   22.10    2.40
  -4   7   5   19.50    4.30
  -4   7   5   18.30    2.70
   3  -7  -5   28.80    2.60
   3  -7  -5   27.20    2.80
   3  -7  -5   26.10    2.60
  -3   7   5   24.30    4.40
  -3   7   5   28.70    3.60
  -3   7   5   24.00    2.90
   2  -7  -5    5.40    1.60
   2  -7  -5    5.20    1.40
   2  -7  -5    4.10    1.40
   2  -7  -5    3.90    2.10
  -2   7   5    4.90    1.60
  -2   7   5    6.30    2.50
  -2   7   5    5.20    3.00
   1  -7  -5    5.20    1.50
   1  -7  -5    7.20    2.30
   1  -7  -5    4.60    1.40
  -1   7   5    3.10    2.80
  -1   7   5    7.40    2.00
  -1   7   5    7.50    2.90
   0  -7  -5   10.70    2.50
   0  -7  -5    8.40    1.60
   0   7   5    9.40    3.40
   0   7   5   12.60    3.40
   0   7   5   12.60    2.70
  -1  -7  -5    2.30    1.90
  -1  -7  -5   -0.60    2.50
  -1  -7  -5    1.10    1.20
   1   7   5    4.00    2.10
   1   7   5    4.60    2.80
   1   7   5    3.20    3.10
  -2  -7  -5   28.50    4.50
  -2  -7  -5   29.40    3.70
  -2  -7  -5   26.40    2.60
  -2  -7  -5   29.50    4.90
   2   7   5   35.10    4.50
   2   7   5   32.10    4.90
   2   7   5   27.80    4.80
  -3  -7  -5  189.98   10.10
  -3  -7  -5  189.28   11.80
  -3  -7  -5  181.78    8.70
   3   7   5  204.68   11.50
   3   7   5  197.88   11.70
  -4  -7  -5   11.40    3.00
  -4  -7  -5    8.50    1.70
  -4  -7  -5   12.80    3.90
   4   7   5   12.40    3.90
   4   7   5   13.70    4.20
  -5  -7  -5   76.79    7.10
  -5  -7  -5   66.39    4.50
  -5  -7  -5   69.79    5.60
   5   7   5   73.69    7.60
   5   7   5   77.59    7.40
  -6  -7  -5   24.20    5.00
  -6  -7  -5   18.70    3.40
  -6  -7  -5   21.10    2.60
   6   7   5   17.20    4.80
   6   7   5   23.70    4.90
   6  -8  -5   26.40    3.10
   6  -8  -5   22.00    3.50
  -6   8   5   13.80    2.60
  -6   8   5   16.00    4.70
   5  -8  -5    5.70    2.40
   5  -8  -5    7.80    1.90
  -5   8   5    2.70    3.60
  -5   8   5    2.70    1.90
   4  -8  -5    1.80    2.00
   4  -8  -5    2.40    1.50
  -4   8   5   -0.20    3.40
  -4   8   5    0.00    1.50
   3  -8  -5    0.50    1.90
   3  -8  -5   -0.20    1.30
   3  -8  -5   -1.40    1.70
  -3   8   5    1.70    2.10
  -3   8   5   -1.30    2.90
  -3   8   5   -1.20    1.50
   2  -8  -5   -1.60    1.30
   2  -8  -5    2.70    2.10
  -2   8   5   -0.90    1.60
  -2   8   5   -1.40    2.90
  -2   8   5    2.40    2.30
   1  -8  -5   -3.20    1.20
   1  -8  -5    0.60    1.90
  -1   8   5    2.60    2.70
  -1   8   5   -1.90    2.90
   0  -8  -5    2.10    2.10
   0  -8  -5    0.20    1.40
   0   8   5    3.50    2.10
   0   8   5    6.70    3.40
   0   8   5    0.30    3.10
  -1  -8  -5   39.90    4.40
  -1  -8  -5   43.00    6.80
  -1  -8  -5   33.80    3.20
   1   8   5   48.70    5.70
   1   8   5   43.40    6.20
   1   8   5   47.60    4.80
  -2  -8  -5   12.20    3.10
  -2  -8  -5    5.90    1.60
  -2  -8  -5    8.00    3.80
   2   8   5   16.70    4.40
   2   8   5   12.20    3.30
   2   8   5    8.20    4.30
  -3  -8  -5   50.09    4.80
  -3  -8  -5   49.70    6.60
  -3  -8  -5   46.70    3.70
   3   8   5   58.99    6.30
   3   8   5   52.99    6.40
  -4  -8  -5   32.70    4.30
  -4  -8  -5   27.10    3.00
  -4  -8  -5   31.70    5.70
   4   8   5   36.40    5.80
   4   8   5   36.50    6.00
  -5  -8  -5    5.30    2.40
  -5  -8  -5    5.00    3.20
   5   8   5    6.30    3.60
   5   8   5    0.40    3.00
   4  -9  -5   31.30    3.50
   4  -9  -5   38.10    4.30
  -4   9   5   24.30    5.60
  -4   9   5   23.90    3.40
   3  -9  -5    3.30    1.80
   3  -9  -5    5.20    2.80
  -3   9   5    0.40    2.00
  -3   9   5   -1.30    3.60
   2  -9  -5   18.70    3.90
   2  -9  -5    8.30    2.80
  -2   9   5    9.10    4.30
  -2   9   5   18.50    3.70
   1  -9  -5   36.00    4.60
  -1   9   5   29.90    5.60
  -1   9   5   47.30    5.60
   0  -9  -5  115.59    7.90
   0   9   5  133.79    9.40
   0   9   5  121.69   10.40
  -1  -9  -5    1.90    4.20
  -1  -9  -5    6.60    3.20
  -1  -9  -5    1.40    1.90
   1   9   5    8.30    3.70
   1   9   5    1.70    3.70
  -2  -9  -5   -3.20    3.50
  -2  -9  -5    2.90    2.80
  -2  -9  -5    0.80    1.30
   2   9   5    6.60    3.60
   2   9   5   -1.00    4.10
  -3  -9  -5    5.40    2.80
  -3  -9  -5    7.00    4.10
   3   9   5    6.50    3.00
   3   9   5    7.70    4.00
   4  10  -6    3.70    5.00
  -4 -10   6   -3.20    2.30
  -4 -10   6    6.10    2.50
   3  10  -6    4.50    5.20
  -3 -10   6   10.50    3.00
  -3 -10   6    3.90    3.20
   2  10  -6    3.40    5.70
   2  10  -6   -8.20    6.20
   2  10  -6    6.30    4.10
  -2 -10   6    3.80    3.00
  -2 -10   6   14.90    3.30
   1  10  -6    7.60    2.90
   1  10  -6   -4.30    6.20
   1  10  -6    3.60    5.40
  -1 -10   6    2.80    3.00
  -1 -10   6    8.80    2.60
   0  10  -6    3.00    3.00
   0  10  -6    7.60    2.70
   0  10  -6   -1.50    5.90
   0 -10   6    8.80    2.70
   0 -10   6    3.20    3.10
  -1  10  -6   -2.00    2.70
   1 -10   6   -0.70    2.60
   1 -10   6    2.40    2.10
  -2  10  -6   -1.80    3.10
   2 -10   6    6.20    2.50
   2 -10   6    0.60    2.60
  -3  10  -6    2.70    3.30
   3 -10   6    5.20    2.90
  -4  10  -6    2.20    3.60
   4 -10   6    5.60    2.80
   5   9  -6   29.80    5.00
   5   9  -6   46.10    7.40
  -5  -9   6   54.29    5.30
  -5  -9   6   39.90    5.10
   4   9  -6   -3.80    4.10
   4   9  -6   -4.70    5.90
  -4  -9   6   -2.90    2.00
  -4  -9   6    3.50    2.30
   3   9  -6    9.00    3.60
   3   9  -6   11.40    6.10
   3   9  -6    4.20    6.60
  -3  -9   6    8.70    3.10
   2   9  -6   30.30    4.50
   2   9  -6   33.00    7.10
  -2  -9   6   36.40    5.00
  -2  -9   6   31.00    4.40
  -2  -9   6   38.90    4.00
   1   9  -6    1.60    2.50
   1   9  -6   -2.80    2.30
   1   9  -6   -5.50    4.40
   1   9  -6   -3.10    4.80
  -1  -9   6   -1.50    2.20
  -1  -9   6   -0.30    1.70
   0   9  -6    7.80    2.60
   0   9  -6    1.90    2.50
   0   9  -6   -3.70    5.20
   0  -9   6    9.10    2.60
   0  -9   6    2.70    2.60
  -1   9  -6   -7.70    4.70
  -1   9  -6    0.10    2.60
  -1   9  -6    4.30    2.30
   1  -9   6    1.70    1.90
   1  -9   6   -0.80    2.10
  -2   9  -6   17.60    4.10
  -2   9  -6   33.30    4.20
   2  -9   6   24.30    3.50
   2  -9   6   24.40    3.90
  -3   9  -6   21.80    3.40
  -3   9  -6   17.80    4.20
   3  -9   6   20.40    3.20
   3  -9   6   16.80    3.40
  -4   9  -6   -1.90    3.00
  -4   9  -6    5.90    2.00
   4  -9   6    3.10    2.30
  -5   9  -6    3.20    3.20
   5  -9   6    0.50    2.30
  -6   9  -6    4.90    3.50
   6  -9   6    6.20    2.70
   6   8  -6    4.80    4.10
   6   8  -6   -3.30    3.30
  -6  -8   6   -3.30    1.80
  -6  -8   6    4.30    2.30
   5   8  -6   39.00    6.70
   5   8  -6   37.10    5.30
   5   8  -6   22.10    8.20
  -5  -8   6   37.30    4.70
  -5  -8   6   45.30    4.80
   4   8  -6    1.20    6.20
   4   8  -6    2.80    3.30
   4   8  -6   -1.80    4.30
  -4  -8   6    8.70    2.80
  -4  -8   6    2.80    2.40
   3   8  -6   51.59    7.70
   3   8  -6   58.39    6.30
  -3  -8   6   54.29    5.30
  -3  -8   6   69.49    5.30
  -3  -8   6   68.69    5.00
  -3  -8   6   62.59    5.20
   2   8  -6   11.70    3.20
   2   8  -6    5.30    5.90
  -2  -8   6   13.90    3.30
  -2  -8   6   11.40    2.90
  -2  -8   6   16.70    3.70
  -2  -8   6   18.90    3.20
   1   8  -6   10.80    2.60
   1   8  -6    5.80    5.20
   1   8  -6   10.70    2.70
  -1  -8   6    8.20    2.60
  -1  -8   6   11.10    2.50
   0   8  -6   65.09    5.80
   0   8  -6   50.89   11.10
   0   8  -6   78.49    5.60
   0  -8   6   80.69    5.10
   0  -8   6   74.49    5.60
  -1   8  -6   71.09    5.20
  -1   8  -6   62.89    5.80
  -1   8  -6   46.00   10.60
   1  -8   6   69.19    5.30
   1  -8   6   67.19    4.60
  -2   8  -6   64.09    6.10
  -2   8  -6   63.99    5.20
   2  -8   6   62.79    4.40
   2  -8   6   61.79    5.40
  -3   8  -6   52.49    6.20
  -3   8  -6   52.99    4.70
   3  -8   6   51.89    4.00
   3  -8   6   48.60    4.80
  -4   8  -6  486.55   22.90
  -4   8  -6  473.65   21.20
   4  -8   6  472.05   21.10
  -5   8  -6   61.89    7.20
  -5   8  -6   52.99    4.90
   5  -8   6   48.60    5.30
   5  -8   6   45.80    4.20
  -6   8  -6   58.99    6.90
  -6   8  -6   54.89    4.90
   6  -8   6   47.40    5.30
   6  -8   6   50.79    4.80
  -7   8  -6   28.20    5.10
   7  -8   6   20.90    3.60
   7  -8   6   29.80    3.80
   7   7  -6   10.40    4.20
   7   7  -6   17.70    5.00
  -7  -7   6   21.70    4.10
  -7  -7   6   11.80    3.00
   6   7  -6    6.10    4.30
   6   7  -6    6.50    3.50
  -6  -7   6    9.30    3.00
  -6  -7   6    7.20    2.80
   5   7  -6   22.50    4.20
   5   7  -6   30.10    5.80
   5   7  -6   20.90    7.80
  -5  -7   6   38.70    4.20
  -5  -7   6   35.50    4.40
   4   7  -6    5.40    3.30
   4   7  -6    6.50    4.40
   4   7  -6   -1.60    5.40
  -4  -7   6    8.00    2.60
  -4  -7   6   11.20    2.20
  -4  -7   6    7.60    2.50
   3   7  -6    8.10    2.80
   3   7  -6    6.20    5.30
  -3  -7   6   10.90    2.80
  -3  -7   6   13.30    2.90
  -3  -7   6   15.70    2.60
  -3  -7   6   12.70    2.70
   2   7  -6  104.29    6.80
   2   7  -6   87.49   12.90
   2   7  -6   98.39    6.00
  -2  -7   6  103.59    6.70
  -2  -7   6   98.49    6.00
  -2  -7   6  105.59    6.20
  -2  -7   6  108.59    6.80
   1   7  -6    0.20    1.70
   1   7  -6   -0.60    1.60
   1   7  -6   -1.30    3.70
  -1  -7   6   -0.10    1.80
  -1  -7   6    0.10    1.40
   0   7  -6  278.07   13.10
   0   7  -6  261.27   13.00
   0  -7   6  289.37   12.50
   0  -7   6  280.57   13.00
  -1   7  -6  162.68    8.50
  -1   7  -6  154.68    8.80
  -1   7  -6  142.09   13.10
   1  -7   6  156.48    8.30
   1  -7   6  158.98    7.70
  -2   7  -6   11.80    2.80
  -2   7  -6    6.90    3.60
  -2   7  -6   12.80    2.60
   2  -7   6   11.40    2.50
   2  -7   6   15.00    2.30
   2  -7   6   11.40    1.60
  -3   7  -6    6.70    3.50
  -3   7  -6   12.40    2.90
  -3   7  -6   17.60    2.90
   3  -7   6   13.10    2.20
   3  -7   6   10.80    1.80
   3  -7   6   10.70    2.50
  -4   7  -6   58.39    8.00
  -4   7  -6   72.09    5.40
  -4   7  -6   71.19    6.30
   4  -7   6   68.79    4.60
   4  -7   6   62.79    4.10
   4  -7   6   65.29    4.60
   4  -7   6   66.99    5.10
  -5   7  -6   35.60    4.20
   5  -7   6   16.80    3.00
   5  -7   6   22.40    3.10
   5  -7   6   22.50    3.30
  -6   7  -6   20.00    3.40
   6  -7   6   20.50    3.40
   6  -7   6   16.40    3.40
   6  -7   6   15.90    3.10
  -7   7  -6  268.27   13.20
   7  -7   6  249.58   12.10
   7  -7   6  260.97   13.20
   7  -7   6  238.68   13.20
   8   6  -6    4.40    3.50
  -8  -6   6   10.50    3.20
  -8  -6   6    7.10    2.40
  -8  -6   6    6.60    2.00
   7   6  -6    4.30    3.40
  -7  -6   6   10.90    3.20
  -7  -6   6    7.80    2.60
   6   6  -6  128.09   17.10
   6   6  -6  133.59    9.60
   6   6  -6  134.59    9.10
  -6  -6   6  144.49    8.30
  -6  -6   6  154.38    8.90
   5   6  -6   56.99    7.00
   5   6  -6   62.19    5.90
  -5  -6   6   67.69    5.30
  -5  -6   6   75.29    4.80
  -5  -6   6   62.59    5.10
   4   6  -6   45.80    2.70
   4   6  -6   47.00    2.60
   4   6  -6   38.80    4.90
   4   6  -6   32.80    7.80
  -4  -6   6   50.59    3.60
  -4  -6   6   44.60    3.40
  -4  -6   6   45.60    3.80
  -4  -6   6   45.20    4.30
  -4  -6   6   44.20    4.00
   3   6  -6   12.40    1.30
   3   6  -6   11.20    2.80
   3   6  -6    7.20    4.70
  -3  -6   6   12.80    2.70
  -3  -6   6    9.70    2.40
  -3  -6   6   15.00    2.80
  -3  -6   6    9.60    2.10
  -3  -6   6   16.40    2.20
   2   6  -6  100.59    5.50
   2   6  -6   87.49   11.50
   2   6  -6   91.09    6.20
  -2  -6   6  100.09    6.20
  -2  -6   6  105.09    5.90
  -2  -6   6  103.39    5.60
  -2  -6   6  110.39    5.90
  -2  -6   6  106.49    6.50
   1   6  -6  164.08    7.20
   1   6  -6  162.48    8.00
   1   6  -6  140.59   13.10
   1   6  -6  163.88    8.50
  -1  -6   6  170.98    8.40
  -1  -6   6  157.78    8.30
  -1  -6   6  167.58    8.00
   0   6  -6    3.00    3.20
   0   6  -6    6.50    2.00
   0   6  -6    5.10    1.70
   0  -6   6    5.10    1.90
   0  -6   6    7.00    1.70
   0  -6   6    7.70    1.00
  -1   6  -6  742.73   31.20
  -1   6  -6  725.73   30.90
  -1   6  -6  762.32   35.90
   1  -6   6  771.92   30.90
   1  -6   6  790.22   29.60
   1  -6   6  769.42   30.30
  -2   6  -6   56.79    4.30
  -2   6  -6   54.69    7.10
  -2   6  -6   51.19    4.70
   2  -6   6   54.59    3.40
   2  -6   6   50.29    4.10
   2  -6   6   56.59    3.40
  -3   6  -6  229.28   11.30
  -3   6  -6  239.68   14.80
   3  -6   6  256.17   10.50
   3  -6   6  247.08   11.40
   3  -6   6  233.68   10.70
  -4   6  -6    7.50    2.70
  -4   6  -6   10.60    2.40
   4  -6   6    7.80    2.10
   4  -6   6   11.90    2.30
   4  -6   6   11.60    1.80
   4  -6   6    9.10    2.10
  -5   6  -6   40.50    5.80
  -5   6  -6   49.80    4.50
   5  -6   6   47.60    4.20
   5  -6   6   49.99    4.70
   5  -6   6   47.10    4.20
  -6   6  -6   68.89    5.30
   6  -6   6   66.99    5.20
   6  -6   6   68.89    5.80
   6  -6   6   72.79    5.10
  -7   6  -6   31.30    3.90
   7  -6   6   19.70    3.30
   7  -6   6   21.30    3.50
   7  -6   6   23.90    4.10
   8  -6   6   10.60    3.60
   8  -6   6   10.70    2.70
   8  -6   6    9.60    3.10
  -9  -5   6   29.50    5.20
   8   5  -6   -1.90    2.90
  -8  -5   6    5.90    2.60
  -8  -5   6    1.10    2.10
  -8  -5   6    3.90    1.50
   7   5  -6   20.00    4.10
  -7  -5   6   15.40    2.90
  -7  -5   6   16.40    2.40
  -7  -5   6   26.60    4.40
   6   5  -6   -0.70    1.40
   6   5  -6    0.00    3.00
   6   5  -6   -1.00    4.70
   6   5  -6   -0.70    2.50
  -6  -5   6    2.20    1.30
  -6  -5   6   -1.30    1.50
  -6  -5   6    1.90    1.80
   5   5  -6   -1.90    3.10
   5   5  -6   -2.00    4.50
   5   5  -6    3.50    2.60
   5   5  -6    0.60    1.10
   5   5  -6    0.90    1.10
  -5  -5   6    1.90    1.90
  -5  -5   6    4.40    1.40
  -5  -5   6    0.30    1.60
  -5  -5   6    0.80    1.30
   4   5  -6   77.89   11.90
   4   5  -6   83.99    6.10
   4   5  -6   89.09    4.20
  -4  -5   6   83.59    5.10
  -4  -5   6   83.39    5.40
  -4  -5   6   94.59    5.00
  -4  -5   6   86.79    4.50
  -4  -5   6   81.79    5.50
   3   5  -6  142.19    7.80
   3   5  -6  114.79   12.00
  -3  -5   6  128.39    7.20
  -3  -5   6  130.39    6.40
  -3  -5   6  135.19    7.10
  -3  -5   6  141.59    6.50
  -3  -5   6  139.49    7.20
   2   5  -6    0.50    2.60
   2   5  -6    0.50    1.00
   2   5  -6   -1.20    1.50
  -2  -5   6    0.60    0.80
  -2  -5   6    2.50    2.20
  -2  -5   6   -0.20    1.00
  -2  -5   6   -0.10    1.50
  -2  -5   6    0.20    1.30
   1   5  -6    1.30    2.60
   1   5  -6    0.30    1.40
   1   5  -6    1.00    1.20
  -1  -5   6    1.80    1.30
  -1  -5   6    1.10    0.90
  -1  -5   6    1.60    1.60
  -1  -5   6    3.40    2.50
   0   5  -6    5.50    1.70
   0   5  -6   11.80    1.70
   0   5  -6    6.70    2.80
   0   5  -6    9.10    1.80
   0  -5   6    9.60    0.80
   0  -5   6    8.40    2.00
   0  -5   6   10.80    1.80
   0  -5   6    9.30    1.20
   0  -5   6    9.20    1.80
  -1   5  -6  102.29    5.90
  -1   5  -6  112.49    8.90
   1  -5   6  118.29    6.20
   1  -5   6  111.49    5.30
   1  -5   6   96.19    5.80
   1  -5   6  107.29    5.10
  -2   5  -6  153.38   10.40
  -2   5  -6  128.39    7.10
   2  -5   6  153.58    6.80
   2  -5   6  141.79    7.30
   2  -5   6  144.69    6.50
  -3   5  -6  102.69    8.30
  -3   5  -6   93.69    5.70
  -3   5  -6   99.09    4.30
   3  -5   6  107.49    5.30
   3  -5   6  100.59    5.60
   3  -5   6  113.19    5.00
   3  -5   6  108.99    5.90
  -4   5  -6  279.47   15.50
  -4   5  -6  270.87   11.10
  -4   5  -6  275.57   12.70
   4  -5   6  275.97   12.50
   4  -5   6  294.37   12.00
   4  -5   6  267.97   12.50
   4  -5   6  283.77   11.50
  -5   5  -6   84.89    5.60
  -5   5  -6   89.49    7.70
   5  -5   6   97.59    5.80
   5  -5   6   95.99    5.40
   5  -5   6   87.29    6.20
  -6   5  -6  198.78   12.50
  -6   5  -6  194.28   10.20
   6  -5   6  197.28   10.80
   6  -5   6  209.08   10.30
   6  -5   6  211.48    9.80
  -7   5  -6   19.40    3.20
   7  -5   6   22.50    3.40
   7  -5   6   21.90    3.40
   7  -5   6   14.50    3.80
  -8   5  -6   43.60    4.70
   8  -5   6   30.20    5.10
   8  -5   6   41.50    4.60
   8  -5   6   44.30    4.70
   9  -5   6   52.89    5.10
   9  -5   6   67.19    5.80
   9  -5   6   48.20    6.50
   9   4  -6   -1.50    2.90
  -9  -4   6   -0.80    1.10
   8   4  -6    1.10    2.90
  -8  -4   6    6.60    2.80
  -8  -4   6    2.50    2.00
  -8  -4   6    4.40    1.60
   7   4  -6    2.40    1.60
   7   4  -6    4.20    3.10
  -7  -4   6    5.00    2.40
  -7  -4   6    5.00    2.10
  -7  -4   6    5.60    1.60
  -7  -4   6    6.80    2.20
   6   4  -6    9.30    3.20
   6   4  -6    5.20    1.50
   6   4  -6    5.60    2.70
   6   4  -6    1.90    4.80
   6   4  -6    8.40    1.70
  -6  -4   6    7.40    2.40
  -6  -4   6    9.70    2.30
  -6  -4   6    8.50    2.50
  -6  -4   6    8.00    2.20
  -6  -4   6    7.70    1.60
   5   4  -6  235.38    9.80
   5   4  -6  241.68    9.80
   5   4  -6  208.28   17.50
   5   4  -6  227.08   11.60
  -5  -4   6  247.78    9.80
  -5  -4   6  221.68   11.30
  -5  -4   6  228.58   11.00
  -5  -4   6  241.18   10.90
  -5  -4   6  240.38   10.50
   4   4  -6   86.29   11.00
   4   4  -6   94.39    6.50
   4   4  -6  102.49    4.70
  -4  -4   6   92.79    5.70
  -4  -4   6   98.99    5.80
  -4  -4   6  105.39    5.30
  -4  -4   6  100.49    5.50
  -4  -4   6  102.59    4.50
   3   4  -6  283.37   11.20
   3   4  -6  261.37   12.60
   3   4  -6  230.48   16.50
  -3  -4   6  280.17   12.30
  -3  -4   6  287.57   12.40
  -3  -4   6  296.77   11.60
  -3  -4   6  275.97   12.30
  -3  -4   6  288.07   11.40
   2   4  -6  395.66   21.70
   2   4  -6  402.56   15.90
   2   4  -6  385.86   17.20
  -2  -4   6  403.36   16.90
  -2  -4   6  401.16   16.50
  -2  -4   6  411.36   17.10
  -2  -4   6  424.76   16.20
  -2  -4   6  407.96   17.30
   1   4  -6  384.36   15.80
   1   4  -6  378.06   20.20
   1   4  -6  368.26   16.40
  -1  -4   6  394.16   16.90
  -1  -4   6  404.06   15.60
  -1  -4   6  394.56   16.10
  -1  -4   6  375.56   16.40
  -1  -4   6  401.56   16.10
  -1  -4   6  405.16   15.50
   0   4  -6    0.10    1.10
   0   4  -6    0.70    1.50
   0  -4   6    1.00    0.20
   0  -4   6    2.80    0.80
   0  -4   6    1.50    0.90
   0  -4   6    0.50    0.90
   0  -4   6    0.50    0.90
   0  -4   6    0.60    1.40
  -1   4  -6   72.49    4.10
  -1   4  -6   71.39    4.40
  -1   4  -6   77.89    6.80
   1  -4   6   75.69    4.00
   1  -4   6   76.39    4.50
   1  -4   6   80.49    3.80
   1  -4   6   82.19    4.60
  -2   4  -6    3.20    1.80
  -2   4  -6    3.80    1.40
   2  -4   6    5.70    1.00
   2  -4   6    3.80    1.50
   2  -4   6    5.20    1.50
   2  -4   6    6.00    1.50
  -3   4  -6   69.79    5.20
  -3   4  -6   80.99    6.70
  -3   4  -6   75.39    4.60
  -3   4  -6   76.59    3.30
   3  -4   6   75.59    4.20
   3  -4   6   83.59    3.60
   3  -4   6   73.19    4.70
   3  -4   6   81.59    4.60
  -4   4  -6    5.70    0.80
  -4   4  -6    5.00    2.20
  -4   4  -6    7.10    2.40
  -4   4  -6    5.60    2.00
  -4   4  -6    6.60    1.60
   4  -4   6    7.00    2.00
   4  -4   6    5.40    2.00
   4  -4   6    4.10    1.50
   4  -4   6    8.00    1.10
  -5   4  -6   30.90    3.00
  -5   4  -6   29.10    4.30
  -5   4  -6   29.40    4.40
  -5   4  -6   28.20    3.70
  -5   4  -6   25.60    1.80
   5  -4   6   29.30    3.70
   5  -4   6   25.50    2.90
   5  -4   6   32.70    3.10
  -6   4  -6    3.10    1.70
  -6   4  -6    3.80    1.60
  -6   4  -6    3.50    2.10
  -6   4  -6    4.10    0.90
  -6   4  -6    8.10    3.50
   6  -4   6   11.20    2.60
   6  -4   6    5.10    1.80
   6  -4   6    1.20    2.40
  -7   4  -6    8.70    2.30
  -7   4  -6    9.90    4.60
   7  -4   6    4.00    3.00
   7  -4   6    9.00    2.20
   7  -4   6    3.90    2.50
  -8   4  -6  179.48   10.00
  -8   4  -6  179.08   13.10
   8  -4   6  183.68    9.90
   8  -4   6  205.28    9.90
   8  -4   6  196.68   11.70
  -9   4  -6   35.80    3.90
   9  -4   6   21.30    4.80
   9  -4   6   29.80    4.00
   9  -4   6   26.10    4.20
   9   3  -6   -0.80    3.10
  -9  -3   6    3.00    1.70
  -9  -3   6    1.60    1.20
   8   3  -6   17.50    2.60
   8   3  -6   18.10    4.10
   8   3  -6   11.20    2.40
  -8  -3   6   18.50    2.30
  -8  -3   6   30.00    3.90
  -8  -3   6   20.00    3.10
   7   3  -6    0.80    4.30
   7   3  -6   -0.60    2.50
   7   3  -6   -1.60    1.40
   7   3  -6    0.60    1.70
  -7  -3   6    2.80    1.70
  -7  -3   6    4.00    2.10
  -7  -3   6    1.50    1.10
  -7  -3   6    4.10    2.00
   6   3  -6   12.00    3.00
   6   3  -6    8.70    5.00
   6   3  -6   15.80    3.40
   6   3  -6   14.30    1.90
   6   3  -6   11.00    1.90
  -6  -3   6   16.10    3.00
  -6  -3   6   12.00    2.20
  -6  -3   6   13.60    1.70
  -6  -3   6   16.60    2.10
  -6  -3   6   15.40    2.50
   5   3  -6   39.10    2.70
   5   3  -6   26.10    6.00
   5   3  -6   34.10    4.00
   5   3  -6   37.60    2.80
  -5  -3   6   40.30    3.60
  -5  -3   6   42.50    3.20
  -5  -3   6   41.80    2.60
  -5  -3   6   42.60    3.40
  -5  -3   6   41.00    3.20
  -5  -3   6   39.30    2.00
   4   3  -6  136.79   12.30
   4   3  -6  159.38    6.80
  -4  -3   6  152.68    6.80
  -4  -3   6  161.98    7.70
  -4  -3   6  160.38    7.30
  -4  -3   6  150.38    7.70
  -4  -3   6  155.08    7.50
   3   3  -6   58.29    7.60
   3   3  -6   50.39    3.10
   3   3  -6   46.80    4.00
  -3  -3   6   67.99    3.90
  -3  -3   6   49.50    3.80
  -3  -3   6   63.89    3.10
  -3  -3   6   50.19    3.70
   2   3  -6  165.38   11.20
   2   3  -6  158.98    7.90
  -2  -3   6  171.58    7.90
  -2  -3   6  167.88    8.30
  -2  -3   6  173.78    6.90
  -2  -3   6  167.38    7.70
  -2  -3   6  169.18    6.80
   1   3  -6   94.69    7.50
   1   3  -6   90.09    5.00
  -1  -3   6   96.79    5.70
  -1  -3   6  100.89    4.60
  -1  -3   6   98.99    4.40
  -1  -3   6  100.09    5.30
  -1  -3   6   95.79    4.70
   0   3  -6    9.20    1.60
   0   3  -6    8.20    2.20
   0  -3   6   10.20    2.50
   0  -3   6    9.20    1.40
   0  -3   6    9.20    1.60
   0  -3   6    9.30    1.10
   0  -3   6   10.60    0.90
   0  -3   6   10.80    1.20
  -1   3  -6   57.29    3.60
  -1   3  -6   59.69    3.90
  -1   3  -6   58.49    5.40
   1  -3   6   65.99    3.60
   1  -3   6   63.59    2.90
   1  -3   6   68.19    3.30
   1  -3   6   63.79    3.60
   1  -3   6   62.99    3.70
  -2   3  -6  261.07   11.70
  -2   3  -6  280.27   14.30
  -2   3  -6  260.57   12.30
  -2   3  -6  257.27   12.10
   2  -3   6  279.27   11.70
   2  -3   6  279.67   11.70
   2  -3   6  288.07   12.10
   2  -3   6  289.67   10.70
  -3   3  -6   30.90    1.50
  -3   3  -6   28.50    3.90
  -3   3  -6   27.60    3.00
  -3   3  -6   29.10    2.40
  -3   3  -6   29.50    3.10
   3  -3   6   26.70    2.90
   3  -3   6   34.60    2.70
  -4   3  -6  352.86   17.00
  -4   3  -6  373.06   18.40
  -4   3  -6  352.86   17.10
  -4   3  -6  363.16   14.70
  -4   3  -6  360.56   15.90
   4  -3   6  375.56   15.80
   4  -3   6  366.06   16.20
   4  -3   6  399.16   16.10
   4  -3   6  399.16   14.60
   4  -3   6  381.86   14.40
   4  -3   6  394.96   14.50
   4  -3   6  383.76   15.50
  -5   3  -6  113.39    8.10
  -5   3  -6  112.09    6.10
  -5   3  -6  102.49    7.10
  -5   3  -6  108.99    7.60
  -5   3  -6  111.79    5.00
   5  -3   6  118.99    6.30
   5  -3   6  108.69    6.80
   5  -3   6  114.49    6.10
   5  -3   6  111.39    5.80
  -6   3  -6   43.70    4.70
  -6   3  -6   44.70    5.30
  -6   3  -6   47.70    5.40
  -6   3  -6   48.40    2.90
  -6   3  -6   49.40    3.80
   6  -3   6   56.69    4.10
   6  -3   6   47.20    5.00
   6  -3   6   53.99    4.30
   6  -3   6   56.69    4.10
  -7   3  -6    4.60    1.70
  -7   3  -6    4.40    3.50
  -7   3  -6    6.20    2.60
  -7   3  -6    4.50    2.00
  -7   3  -6    4.30    1.00
   7  -3   6    5.50    1.90
   7  -3   6    5.40    2.40
   7  -3   6    4.50    1.80
   7  -3   6    3.30    3.10
  -8   3  -6    5.30    4.00
  -8   3  -6    2.20    1.30
  -8   3  -6    1.50    1.70
   8  -3   6    3.50    2.80
   8  -3   6    1.80    1.90
   8  -3   6   -2.40    3.30
  -9   3  -6   15.10    3.00
   9  -3   6    7.40    4.00
   9  -3   6   22.10    3.60
   9  -3   6   15.80    3.10
  10   2  -6   -3.30    2.90
 -10  -2   6    3.00    1.50
 -10  -2   6    2.00    1.30
   9   2  -6   -0.30    2.10
   9   2  -6    0.30    3.00
  -9  -2   6    5.50    1.50
  -9  -2   6    4.50    1.90
   8   2  -6   47.30    4.00
   8   2  -6   48.60    5.50
   8   2  -6   51.29    4.10
  -8  -2   6   51.19    5.40
  -8  -2   6   53.59    4.50
  -8  -2   6   58.59    3.60
   7   2  -6   41.70    3.40
   7   2  -6   37.10    3.50
   7   2  -6   45.30    4.80
   7   2  -6   38.10    8.70
  -7  -2   6   45.20    3.60
  -7  -2   6   43.50    3.00
  -7  -2   6   48.40    4.50
   6   2  -6   12.80    3.00
   6   2  -6   11.90    1.90
   6   2  -6   14.10    2.00
   6   2  -6    8.40    4.40
   6   2  -6   12.80    2.50
  -6  -2   6   17.60    2.40
  -6  -2   6   14.70    1.70
  -6  -2   6   17.00    2.30
  -6  -2   6   15.40    2.60
   5   2  -6   15.00    2.70
   5   2  -6    8.90    3.80
   5   2  -6   12.60    1.80
   5   2  -6   10.90    1.80
  -5  -2   6   12.20    1.90
  -5  -2   6   15.40    2.20
  -5  -2   6   13.40    2.40
  -5  -2   6   13.90    2.10
  -5  -2   6   11.00    1.40
   4   2  -6   12.80    1.80
   4   2  -6   11.10    2.30
   4   2  -6    8.40    3.20
   4   2  -6   12.90    1.70
  -4  -2   6   15.90    2.10
  -4  -2   6   12.30    1.40
  -4  -2   6   12.90    2.20
  -4  -2   6   12.00    1.70
  -4  -2   6   12.90    2.20
   3   2  -6    4.90    1.20
   3   2  -6    6.20    1.10
   3   2  -6    6.20    2.40
   3   2  -6    5.10    1.70
  -3  -2   6    5.40    1.40
  -3  -2   6    8.10    1.10
  -3  -2   6    5.60    1.90
  -3  -2   6    6.20    1.10
   2   2  -6   13.80    1.90
   2   2  -6   17.10    3.70
  -2  -2   6   16.40    1.60
  -2  -2   6   16.20    1.90
  -2  -2   6   14.60    1.10
  -2  -2   6   13.90    1.30
  -2  -2   6   12.50    2.40
   1   2  -6   -0.50    1.00
   1   2  -6   -0.70    0.80
  -1  -2   6    0.30    0.30
  -1  -2   6   -0.90    0.80
  -1  -2   6   -1.30    0.60
  -1  -2   6    0.10    1.00
  -1  -2   6    0.50    0.60
  -1  -2   6    0.00    0.40
  -1  -2   6    0.80    1.70
   0   2  -6  387.86   16.20
   0   2  -6  371.26   16.10
   0   2  -6  424.66   15.80
   0   2  -6  394.46   18.70
   0  -2   6  376.56   16.80
   0  -2   6  397.46   16.20
   0  -2   6  410.26   15.70
   0  -2   6  409.66   16.00
   0  -2   6  415.06   15.90
  -1   2  -6  885.31   35.30
  -1   2  -6  860.31   34.90
  -1   2  -6  875.81   35.00
  -1   2  -6  881.51   37.50
   1  -2   6  920.61   34.30
   1  -2   6  852.91   35.60
   1  -2   6  884.11   34.90
   1  -2   6  895.91   34.90
   1  -2   6  934.21   35.10
   1  -2   6  960.70   34.80
  -2   2  -6    0.50    1.00
  -2   2  -6    0.20    0.70
  -2   2  -6    0.20    0.20
  -2   2  -6    0.20    1.10
  -2   2  -6   -0.30    0.90
  -2   2  -6    0.30    0.80
   2  -2   6    1.00    1.00
   2  -2   6    0.20    0.80
   2  -2   6    0.00    0.80
   2  -2   6   -0.10    0.30
   2  -2   6    1.40    1.30
  -3   2  -6  114.49    6.50
  -3   2  -6  122.09    8.00
  -3   2  -6  111.99    5.70
  -3   2  -6  121.59    6.60
   3  -2   6  129.69    6.40
   3  -2   6  115.59    6.40
   3  -2   6  129.89    6.40
   3  -2   6  122.59    4.70
   3  -2   6  117.59    5.70
  -4   2  -6  342.27   15.90
  -4   2  -6  322.17   14.60
  -4   2  -6  357.76   17.40
  -4   2  -6  338.57   15.80
   4  -2   6  382.66   15.40
   4  -2   6  352.06   15.30
   4  -2   6  355.46   14.30
   4  -2   6  345.77   14.60
  -5   2  -6  107.99    7.80
  -5   2  -6  103.99    7.00
  -5   2  -6   97.39    5.40
  -5   2  -6   96.59    6.60
   5  -2   6   99.29    6.40
   5  -2   6  103.89    5.30
   5  -2   6  102.29    5.50
   5  -2   6  109.79    6.30
  -6   2  -6   13.70    2.10
  -6   2  -6   16.60    3.80
  -6   2  -6   18.00    3.30
  -6   2  -6   19.60    4.00
   6  -2   6   14.40    2.20
   6  -2   6   18.20    2.50
   6  -2   6   10.90    3.00
   6  -2   6   15.50    2.80
  -7   2  -6    5.20    2.90
  -7   2  -6    2.70    1.80
  -7   2  -6    3.70    2.20
  -7   2  -6    3.60    1.50
   7  -2   6    6.40    3.20
   7  -2   6    6.70    2.40
   7  -2   6    2.70    1.60
   7  -2   6    5.20    2.20
  -8   2  -6   11.80    2.40
  -8   2  -6    7.70    2.60
  -8   2  -6   19.00    5.40
   8  -2   6   12.30    2.80
   8  -2   6   15.00    3.20
   8  -2   6   14.60    2.70
   8  -2   6   13.20    4.10
  -9   2  -6   15.60    2.90
   9  -2   6   14.40    2.80
   9  -2   6   12.90    2.90
   9  -2   6    8.50    3.90
  10   1  -6   18.00    3.30
  10   1  -6   14.90    4.00
 -10  -1   6   21.60    2.50
 -10  -1   6   17.50    2.60
   9   1  -6   20.80    4.20
   9   1  -6   18.80    3.10
  -9  -1   6   18.40    2.60
  -9  -1   6   21.20    2.40
   8   1  -6  169.68    8.60
   8   1  -6  162.38    8.50
   8   1  -6  158.78    9.90
  -8  -1   6  179.98    9.00
  -8  -1   6  190.28    8.20
  -8  -1   6  189.08    8.80
  -8  -1   6  192.78   11.30
   7   1  -6    4.50    2.10
   7   1  -6    3.60    2.40
   7   1  -6    5.40    1.90
  -7  -1   6    5.70    1.60
   6   1  -6   43.00    4.40
   6   1  -6   36.80    7.80
   6   1  -6   42.00    3.20
   6   1  -6   44.70    3.30
  -6  -1   6   41.70    3.10
  -6  -1   6   41.80    4.00
  -6  -1   6   40.20    2.60
  -6  -1   6   38.10    2.90
   5   1  -6    0.70    1.40
   5   1  -6    1.80    1.90
   5   1  -6    0.80    2.60
   5   1  -6    2.10    1.60
  -5  -1   6    0.90    0.80
  -5  -1   6    0.30    0.80
  -5  -1   6    1.40    0.60
  -5  -1   6    1.50    1.30
  -5  -1   6    1.80    1.00
  -5  -1   6    2.20    1.50
   4   1  -6  103.29    5.00
   4   1  -6  102.59    5.00
   4   1  -6  106.39    8.80
   4   1  -6  101.09    6.00
  -4  -1   6  114.39    5.30
  -4  -1   6  107.09    5.70
  -4  -1   6  105.29    4.80
  -4  -1   6  102.19    5.60
  -4  -1   6  105.89    5.00
   3   1  -6   15.70    1.70
   3   1  -6   17.70    3.70
   3   1  -6   18.20    2.30
  -3  -1   6   15.00    1.40
  -3  -1   6   17.00    1.80
  -3  -1   6   17.50    2.50
  -3  -1   6   16.10    1.40
   2   1  -6 1354.36   51.89
   2   1  -6 1450.05   52.49
   2   1  -6 1369.46   55.29
   2   1  -6 1394.76   51.99
   2   1  -6 1231.08   52.39
  -2  -1   6 1324.87   52.79
  -2  -1   6 1308.97   51.89
  -2  -1   6 1332.27   51.89
  -2  -1   6 1428.26   52.29
   1   1  -6 4488.35  182.98
   1   1  -6 4637.54  182.18
   1   1  -6 4951.00  182.88
   1   1  -6 4875.61  197.78
   1   1  -6 5133.39  183.38
  -1  -1   6 4849.51  181.48
  -1  -1   6 4649.13  181.08
  -1  -1   6 4495.75  184.08
  -1  -1   6 4611.84  183.58
  -1  -1   6 4721.03  181.68
   0   1  -6 2425.76   91.89
   0   1  -6 2431.86   94.19
   0   1  -6 2447.16   93.19
   0   1  -6 2348.76  100.49
   0   1  -6 2510.95   93.79
   0   1  -6 2398.96   94.79
   0  -1   6 2239.18   92.59
   0  -1   6 2426.46   92.79
   0  -1   6 2410.06   93.09
   0  -1   6 2463.05   92.39
   0  -1   6 2384.66   92.49
   0  -1   6 2405.86   91.59
  -1   1  -6  239.88    9.60
  -1   1  -6  240.98   10.60
  -1   1  -6  238.88   10.20
  -1   1  -6  236.08   10.30
  -1   1  -6  247.58   12.60
  -1   1  -6  268.47    9.70
  -1   1  -6  256.17   10.40
   1  -1   6  249.78   10.40
   1  -1   6  270.47   10.60
   1  -1   6  240.98   10.30
   1  -1   6  255.77   10.60
   1  -1   6  254.27    9.80
   1  -1   6  255.67   11.10
   1  -1   6  243.98   11.00
  -2   1  -6   12.00    1.30
  -2   1  -6   13.50    1.60
  -2   1  -6   11.10    0.90
  -2   1  -6    9.20    1.20
  -2   1  -6    9.50    1.50
  -2   1  -6   13.50    2.80
   2  -1   6    9.80    1.80
   2  -1   6    8.70    1.80
   2  -1   6   13.20    2.40
   2  -1   6   11.40    0.70
   2  -1   6   14.60    1.80
   2  -1   6   12.90    1.50
  -3   1  -6  854.71   35.00
  -3   1  -6  846.12   34.10
  -3   1  -6  872.71   35.00
  -3   1  -6  813.12   33.90
   3  -1   6  851.91   34.70
   3  -1   6  863.81   34.00
   3  -1   6  911.71   34.70
   3  -1   6  926.01   34.90
   3  -1   6  908.01   35.10
  -4   1  -6  668.53   28.10
  -4   1  -6  669.03   27.90
  -4   1  -6  666.23   26.80
   4  -1   6  679.33   26.80
   4  -1   6  667.63   27.50
   4  -1   6  712.03   28.00
   4  -1   6  658.03   27.40
  -5   1  -6  295.17   14.70
  -5   1  -6  303.67   13.50
  -5   1  -6  310.67   15.20
   5  -1   6  324.17   14.40
   5  -1   6  336.97   13.60
   5  -1   6  304.07   14.00
   5  -1   6  323.27   13.20
   5  -1   6  340.67   14.90
  -6   1  -6   19.80    3.40
  -6   1  -6   17.80    3.80
  -6   1  -6   17.70    2.10
   6  -1   6   12.80    2.20
   6  -1   6   16.50    3.10
   6  -1   6   16.40    3.20
   6  -1   6   17.30    3.20
   6  -1   6   12.10    2.00
  -7   1  -6   67.29    6.60
  -7   1  -6   66.59    4.60
  -7   1  -6   65.19    5.80
   7  -1   6   71.19    4.60
   7  -1   6   65.09    4.60
   7  -1   6   65.49    6.10
   7  -1   6   79.59    6.20
   7  -1   6   63.99    5.20
  -8   1  -6    0.80    1.30
  -8   1  -6    2.20    3.10
   8  -1   6    0.20    2.30
   8  -1   6    0.50    3.10
   8  -1   6    2.50    2.30
   8  -1   6    0.50    1.50
  -9   1  -6   12.50    2.70
  -9   1  -6   14.80    4.80
   9  -1   6   14.50    3.00
   9  -1   6   14.80    3.80
   9  -1   6   14.00    4.30
  10   0  -6    1.70    2.60
  10   0  -6    1.10    3.00
 -10   0   6    1.00    1.30
 -10   0   6    2.20    1.70
   9   0  -6   -3.10    2.20
   9   0  -6    2.00    2.60
  -9   0   6    3.10    1.30
  -9   0   6    2.00    1.40
   8   0  -6  363.76   15.50
   8   0  -6  350.86   15.50
   8   0  -6  364.96   17.00
  -8   0   6  379.36   15.20
  -8   0   6  360.86   15.80
  -8   0   6  359.76   15.90
   7   0  -6  159.88    8.90
   7   0  -6  154.58    7.90
   7   0  -6  155.48    7.80
  -7   0   6  172.28    7.30
  -7   0   6  162.58    7.90
  -7   0   6  164.28    7.90
   6   0  -6   -1.00    1.70
   6   0  -6    1.40    1.70
   6   0  -6    0.00    1.60
   6   0  -6   -1.90    2.50
  -6   0   6   -0.10    0.80
  -6   0   6    0.50    1.00
  -6   0   6   -0.50    1.10
  -6   0   6   -0.10    0.80
   5   0  -6  440.86   18.30
   5   0  -6  421.46   17.40
   5   0  -6  431.46   16.90
   5   0  -6  375.66   20.90
   5   0  -6  424.86   17.40
  -5   0   6  425.16   17.20
  -5   0   6  458.85   17.60
  -5   0   6  450.35   17.40
  -5   0   6  434.36   18.00
  -5   0   6  432.96   17.50
   4   0  -6    1.00    1.60
   4   0  -6    0.40    0.40
   4   0  -6    0.40    1.40
   4   0  -6    2.00    1.50
   4   0  -6    0.60    1.30
  -4   0   6   -0.30    1.40
  -4   0   6    0.70    0.60
  -4   0   6   -0.70    0.60
  -4   0   6    1.30    0.90
  -4   0   6   -0.30    0.70
   3   0  -6  104.59    5.10
   3   0  -6  115.49    7.50
   3   0  -6  109.89    4.40
   3   0  -6  105.69    4.50
   3   0  -6  118.29    5.50
   3   0  -6  109.69    5.60
  -3   0   6  109.89    4.90
  -3   0   6  113.29    5.10
  -3   0   6  114.19    5.00
  -3   0   6  110.49    5.00
  -3   0   6  106.79    5.80
   2   0  -6  246.58   10.30
   2   0  -6  238.88    9.70
   2   0  -6  249.48   10.30
   2   0  -6  245.88   10.40
   2   0  -6  240.28   10.10
   2   0  -6  255.27   12.50
   2   0  -6  255.97   10.40
  -2   0   6  252.77   10.10
  -2   0   6  260.97   10.00
  -2   0   6  241.78   10.00
  -2   0   6  232.88   10.80
   1   0  -6  606.44   24.30
   1   0  -6  620.34   24.20
   1   0  -6  621.74   24.30
   1   0  -6  653.73   26.80
  -1   0   6  626.44   24.60
  -1   0   6  603.74   25.00
  -1   0   6  608.44   24.00
  -1   0   6  637.64   24.10
   0   0  -6   21.20    3.00
   0   0  -6   20.50    1.30
   0   0  -6   20.50    1.70
   0   0  -6   21.20    1.40
   0   0  -6   21.70    1.40
   0   0  -6   19.40    1.60
   0   0   6   23.00    2.70
   0   0   6   21.20    2.00
   0   0   6   21.30    1.40
   0   0   6   22.70    2.10
   0   0   6   18.50    1.30
  -1   0  -6    1.10    0.50
  -1   0  -6    0.70    0.80
  -1   0  -6    1.40    0.60
  -1   0  -6    0.80    1.00
  -1   0  -6    0.20    0.70
  -1   0  -6    0.50    0.50
   1   0   6    0.10    1.40
   1   0   6    2.10    1.20
   1   0   6    0.40    1.10
   1   0   6    0.60    0.40
   1   0   6    0.50    1.00
   1   0   6    0.90    0.50
  -2   0  -6  591.84   22.90
  -2   0  -6  556.74   23.50
  -2   0  -6  588.84   22.90
  -2   0  -6  570.94   22.40
  -2   0  -6  576.74   23.60
   2   0   6  595.44   22.80
   2   0   6  593.04   24.10
   2   0   6  597.14   22.40
   2   0   6  550.44   23.50
   2   0   6  594.74   23.70
   2   0   6  606.94   23.50
  -3   0  -6    7.60    0.70
  -3   0  -6   11.20    1.90
  -3   0  -6    6.80    1.70
  -3   0  -6    3.40    1.30
  -3   0  -6    5.40    0.90
   3   0   6    2.70    1.80
   3   0   6    9.50    2.20
   3   0   6    6.30    1.10
   3   0   6    5.40    1.80
   3   0   6    7.40    1.90
  -4   0  -6   32.30    3.20
  -4   0  -6   33.40    1.80
  -4   0  -6   32.00    3.10
  -4   0  -6   31.80    2.30
   4   0   6   37.80    3.90
   4   0   6   36.10    2.50
   4   0   6   36.10    3.30
   4   0   6   33.60    3.50
  -5   0  -6    1.70    0.80
  -5   0  -6    4.90    2.20
  -5   0  -6    3.80    1.80
   5   0   6    2.40    1.20
   5   0   6    3.90    1.80
   5   0   6    2.20    1.80
   5   0   6    1.20    1.90
  -6   0  -6    1.40    1.90
  -6   0  -6    2.40    1.10
  -6   0  -6    1.30    1.40
   6   0   6    4.10    1.40
   6   0   6    3.30    1.80
   6   0   6    3.60    2.40
   6   0   6    2.50    2.50
  -7   0  -6   64.79    6.30
  -7   0  -6   65.79    5.60
  -7   0  -6   58.59    4.30
   7   0   6   63.89    6.20
   7   0   6   66.09    4.60
   7   0   6   70.19    6.40
  -8   0  -6   33.90    6.30
  -8   0  -6   25.70    3.20
   8   0   6   26.70    4.80
   8   0   6   17.30    4.10
  -9   0  -6   30.00    3.50
  -9   0  -6   33.90    7.10
   9   0   6   27.60    5.10
   9   0   6   25.80    4.80
  10  -1  -6    4.30    3.10
  10  -1  -6    8.70    3.20
 -10   1   6    7.20    2.10
 -10   1   6    6.90    2.40
   9  -1  -6    1.50    2.60
   9  -1  -6    3.40    2.60
  -9   1   6    0.50    1.10
  -9   1   6   -0.50    1.20
   8  -1  -6    4.60    2.50
   8  -1  -6    4.10    2.40
  -8   1   6    6.90    1.80
  -8   1   6    5.40    1.40
   7  -1  -6  126.09    6.60
   7  -1  -6  124.59    7.30
   7  -1  -6  122.99    6.60
  -7   1   6  134.39    6.80
  -7   1   6  126.99    6.00
  -7   1   6  128.79    7.60
  -7   1   6  130.59    6.70
   6  -1  -6   13.60    2.30
   6  -1  -6    8.10    2.90
   6  -1  -6   12.10    2.50
   6  -1  -6   15.50    2.10
  -6   1   6   13.10    1.60
  -6   1   6   11.10    2.10
  -6   1   6   13.50    1.60
  -6   1   6   11.80    1.80
   5  -1  -6    3.20    1.70
   5  -1  -6    1.80    2.10
   5  -1  -6    3.10    1.50
   5  -1  -6    3.70    1.60
  -5   1   6    2.80    1.10
  -5   1   6    3.70    0.90
  -5   1   6    3.40    1.00
  -5   1   6    2.50    1.40
   4  -1  -6  289.87   12.20
   4  -1  -6  312.37   12.30
   4  -1  -6  284.37   12.20
   4  -1  -6  281.57   12.50
   4  -1  -6  293.27   14.60
   4  -1  -6  287.27   12.00
  -4   1   6  289.27   12.20
  -4   1   6  301.07   12.60
  -4   1   6  291.07   11.90
  -4   1   6  312.07   12.00
  -4   1   6  289.27   12.90
   3  -1  -6  350.96   14.60
   3  -1  -6  390.76   14.70
   3  -1  -6  366.26   14.80
   3  -1  -6  331.97   14.60
   3  -1  -6  377.16   16.90
   3  -1  -6  349.07   14.60
  -3   1   6  361.66   14.40
  -3   1   6  349.47   15.30
  -3   1   6  366.46   14.30
  -3   1   6  366.06   15.10
  -3   1   6  371.16   14.70
   2  -1  -6  104.19    6.30
   2  -1  -6   92.59    4.60
   2  -1  -6  100.79    4.50
   2  -1  -6   92.79    4.60
  -2   1   6   96.29    4.50
  -2   1   6   97.79    5.20
  -2   1   6   96.39    4.30
  -2   1   6   92.89    5.30
  -2   1   6  100.69    4.00
   1  -1  -6  187.68    9.60
   1  -1  -6  183.48    7.30
   1  -1  -6  180.58    7.30
   1  -1  -6  175.98    7.80
  -1   1   6  179.78    8.30
  -1   1   6  175.68    7.30
  -1   1   6  165.98    8.10
  -1   1   6  174.68    7.50
  -1   1   6  176.98    7.80
   0  -1  -6    6.40    1.60
   0  -1  -6    8.20    0.70
   0  -1  -6    7.50    0.80
   0  -1  -6    9.70    1.70
   0  -1  -6    8.40    1.40
   0   1   6    6.90    0.80
   0   1   6    6.40    1.70
   0   1   6    8.60    1.00
   0   1   6    9.00    1.70
   0   1   6    8.20    1.50
  -1  -1  -6  936.51   38.50
  -1  -1  -6  949.21   38.70
  -1  -1  -6  986.60   37.80
  -1  -1  -6  996.60   38.40
  -1  -1  -6  976.50   37.60
   1   1   6 1022.60   39.20
   1   1   6  981.90   37.50
   1   1   6  972.90   38.30
   1   1   6 1004.40   38.50
  -2  -1  -6   39.90    2.10
  -2  -1  -6   38.70    3.10
  -2  -1  -6   40.70    2.40
  -2  -1  -6   40.10    2.30
  -2  -1  -6   41.10    3.10
   2   1   6   43.60    3.60
   2   1   6   43.30    3.50
   2   1   6   39.80    3.10
   2   1   6   39.30    3.20
  -3  -1  -6   39.40    3.30
  -3  -1  -6   38.90    3.50
  -3  -1  -6   43.50    2.70
  -3  -1  -6   41.80    2.80
  -3  -1  -6   38.30    2.30
  -3  -1  -6   40.90    2.40
  -3  -1  -6   42.60    1.90
   3   1   6   41.50    3.80
   3   1   6   38.60    3.40
   3   1   6   42.20    3.20
   3   1   6   44.60    2.40
  -4  -1  -6  177.18    7.90
  -4  -1  -6  179.08    9.40
  -4  -1  -6  166.78    7.80
  -4  -1  -6  174.18    9.00
  -4  -1  -6  182.58    7.80
   4   1   6  183.78    9.80
   4   1   6  181.18    8.80
   4   1   6  201.48    8.00
   4   1   6  179.48    8.20
  -5  -1  -6   75.79    5.80
  -5  -1  -6   71.19    5.20
  -5  -1  -6   74.29    4.10
  -5  -1  -6   76.99    4.00
   5   1   6   79.39    4.40
   5   1   6   81.29    4.30
   5   1   6   75.99    5.50
   5   1   6   79.89    6.30
  -6  -1  -6   28.30    2.50
  -6  -1  -6   30.30    3.60
  -6  -1  -6   31.30    4.20
  -6  -1  -6   29.40    2.30
   6   1   6   29.30    3.70
   6   1   6   30.30    4.50
   6   1   6   30.30    3.50
   6   1   6   28.90    2.90
  -7  -1  -6   11.70    2.00
  -7  -1  -6   16.80    4.20
  -7  -1  -6   13.60    2.90
   7   1   6   13.30    3.90
   7   1   6   13.20    3.30
  -8  -1  -6   88.29    5.70
  -8  -1  -6   90.49    8.40
   8   1   6   88.69    7.60
   8   1   6  102.99    8.40
  -9  -1  -6   19.60    5.00
  -9  -1  -6   12.20    2.50
   9   1   6   15.60    4.30
   9   1   6   11.60    4.00
   9  -2  -6    2.60    2.60
   9  -2  -6    0.70    2.40
  -9   2   6    0.20    1.10
  -9   2   6    2.10    1.60
   8  -2  -6    2.70    2.10
   8  -2  -6    3.40    2.50
  -8   2   6    2.30    1.20
  -8   2   6    2.10    1.50
   7  -2  -6   -1.20    1.90
   7  -2  -6    2.20    1.90
   7  -2  -6    0.80    2.20
  -7   2   6   -1.70    1.70
  -7   2   6    0.40    0.90
  -7   2   6    0.60    1.10
   6  -2  -6   49.60    4.00
   6  -2  -6   47.80    3.90
   6  -2  -6   49.90    4.00
  -6   2   6   46.80    3.50
  -6   2   6   51.39    3.00
  -6   2   6   46.60    4.40
   5  -2  -6   77.49    4.60
   5  -2  -6   70.79    4.50
   5  -2  -6   73.49    4.60
   5  -2  -6   78.99    4.20
  -5   2   6   80.69    3.90
  -5   2   6   70.59    4.20
  -5   2   6   73.99    5.10
  -5   2   6   74.79    3.90
   4  -2  -6    7.80    1.70
   4  -2  -6    8.40    1.80
   4  -2  -6   11.00    1.50
   4  -2  -6    9.20    1.90
   4  -2  -6   10.10    1.60
  -4   2   6   11.60    1.30
  -4   2   6    9.90    1.00
  -4   2   6    7.50    1.90
  -4   2   6    8.40    1.40
   3  -2  -6    0.10    1.20
   3  -2  -6    0.80    0.90
   3  -2  -6   -0.20    0.70
   3  -2  -6    1.80    1.00
   3  -2  -6    0.50    1.30
  -3   2   6    0.60    1.50
  -3   2   6    1.40    1.50
  -3   2   6    0.30    0.70
  -3   2   6    1.60    0.90
  -3   2   6    0.80    0.40
   2  -2  -6    1.90    0.80
   2  -2  -6    0.90    1.10
   2  -2  -6    0.80    0.90
   2  -2  -6   -1.80    1.20
   2  -2  -6    0.50    0.60
  -2   2   6   -0.20    0.60
  -2   2   6    0.60    1.40
  -2   2   6   -0.60    1.40
  -2   2   6    1.00    0.80
   1  -2  -6  765.12   29.90
   1  -2  -6  880.51   33.00
   1  -2  -6  772.32   30.40
   1  -2  -6  789.32   30.00
   1  -2  -6  737.23   31.10
  -1   2   6  788.22   30.90
  -1   2   6  758.62   30.30
  -1   2   6  799.32   31.70
  -1   2   6  791.52   30.60
  -1   2   6  808.62   31.10
  -1   2   6  737.23   31.10
   0  -2  -6    2.60    1.50
   0   2   6    3.30    1.50
   0   2   6    2.40    0.80
   0   2   6    2.70    1.30
   0   2   6    4.10    0.70
   0   2   6    3.90    1.90
   0   2   6    3.50    1.50
   0   2   6    3.10    1.40
  -1  -2  -6  266.27   10.90
  -1  -2  -6  252.27   11.60
  -1  -2  -6  268.07   12.00
  -1  -2  -6  254.87   10.30
  -1  -2  -6  261.07   10.20
   1   2   6  270.77   12.10
   1   2   6  257.37   11.20
   1   2   6  265.67   11.20
   1   2   6  270.17   11.60
   1   2   6  255.87   10.40
  -2  -2  -6  663.53   26.90
  -2  -2  -6  666.73   28.10
  -2  -2  -6  675.03   26.70
  -2  -2  -6  692.43   26.40
  -2  -2  -6  661.03   27.90
   2   2   6  696.93   27.20
   2   2   6  739.53   26.20
   2   2   6  683.73   27.70
   2   2   6  668.43   27.30
   2   2   6  691.73   28.40
  -3  -2  -6   30.60    2.30
  -3  -2  -6   28.50    3.00
  -3  -2  -6   31.30    2.30
  -3  -2  -6   32.30    1.90
  -3  -2  -6   32.70    3.50
  -3  -2  -6   29.10    2.40
   3   2   6   31.90    2.50
   3   2   6   34.60    3.30
   3   2   6   31.70    3.00
   3   2   6   33.20    3.70
  -4  -2  -6  697.63   28.60
  -4  -2  -6  689.23   29.90
  -4  -2  -6  736.83   28.40
  -4  -2  -6  705.23   30.30
  -4  -2  -6  693.53   28.20
   4   2   6  741.73   29.60
   4   2   6  738.83   30.90
   4   2   6  760.02   28.40
   4   2   6  750.42   28.50
   4   2   6  711.33   29.20
  -5  -2  -6  257.57   11.40
  -5  -2  -6  256.77   13.40
  -5  -2  -6  266.37   13.10
  -5  -2  -6  261.27   11.70
   5   2   6  276.77   11.20
   5   2   6  267.17   12.40
   5   2   6  291.37   12.10
   5   2   6  279.97   14.30
  -6  -2  -6   58.59    3.80
  -6  -2  -6   58.89    5.00
  -6  -2  -6   58.89    3.80
  -6  -2  -6   60.79    5.60
   6   2   6   65.69    6.60
   6   2   6   60.69    5.00
  -7  -2  -6  174.18   11.10
  -7  -2  -6  166.88    8.40
  -7  -2  -6  169.48   13.10
   7   2   6  166.58    9.70
   7   2   6  174.78   11.40
  -8  -2  -6   16.00    2.50
  -8  -2  -6   28.80    5.90
   8   2   6   24.50    4.00
   8   2   6   17.70    4.80
  -9  -2  -6   24.50    3.10
   9   2   6   20.90    5.20
   9   2   6   15.60    4.00
   9  -3  -6   12.70    2.90
   9  -3  -6   14.70    3.40
  -9   3   6   14.30    2.00
  -9   3   6   14.30    2.50
   8  -3  -6    2.40    2.60
   8  -3  -6    0.40    2.00
  -8   3   6    1.60    1.50
  -8   3   6    1.90    1.30
   7  -3  -6   14.70    2.60
   7  -3  -6   15.50    2.60
   7  -3  -6   17.40    2.90
  -7   3   6   16.60    2.40
  -7   3   6   12.80    3.00
  -7   3   6   15.30    2.00
   6  -3  -6   55.09    4.00
   6  -3  -6   53.09    4.10
   6  -3  -6   48.50    4.00
  -6   3   6   55.99    3.30
  -6   3   6   57.59    3.90
  -6   3   6   50.49    5.10
   5  -3  -6  112.29    6.00
   5  -3  -6  113.99    5.80
   5  -3  -6  112.29    6.00
  -5   3   6  118.39    5.90
  -5   3   6  110.69    7.00
  -5   3   6  112.29    5.30
   4  -3  -6    3.80    1.60
   4  -3  -6    4.70    1.40
   4  -3  -6    0.80    1.40
   4  -3  -6    2.60    1.10
   4  -3  -6    3.20    1.10
  -4   3   6    3.40    1.90
  -4   3   6    3.80    1.00
  -4   3   6    3.20    1.20
   3  -3  -6   74.69    4.30
   3  -3  -6   74.29    4.20
   3  -3  -6   79.79    3.90
   3  -3  -6   84.09    3.80
   3  -3  -6   86.79    5.30
  -3   3   6   80.09    5.60
  -3   3   6   79.39    3.90
  -3   3   6   78.39    4.30
   2  -3  -6   18.40    1.20
   2  -3  -6   16.50    1.20
   2  -3  -6   18.50    2.60
   2  -3  -6   17.00    1.90
   2  -3  -6   14.30    1.70
  -2   3   6   17.50    2.20
  -2   3   6   14.30    2.60
  -2   3   6   14.30    1.70
  -2   3   6   16.70    1.50
   1  -3  -6   60.99    3.40
  -1   3   6   62.19    3.10
  -1   3   6   61.29    3.50
  -1   3   6   57.79    3.80
  -1   3   6   65.79    4.30
  -1   3   6   59.29    3.90
  -1   3   6   59.69    4.90
   0  -3  -6   42.00    2.60
   0  -3  -6   41.10    3.70
   0   3   6   39.90    3.00
   0   3   6   44.40    2.90
   0   3   6   45.70    3.60
   0   3   6   44.20    3.20
   0   3   6   45.20    3.50
   0   3   6   47.70    2.40
   0   3   6   39.30    4.20
  -1  -3  -6   71.39    4.90
  -1  -3  -6   67.59    3.10
  -1  -3  -6   66.49    5.00
  -1  -3  -6   68.39    2.80
  -1  -3  -6   69.19    3.90
   1   3   6   63.79    3.90
   1   3   6   70.99    4.80
   1   3   6   70.59    4.10
   1   3   6   63.89    4.50
  -2  -3  -6    1.50    1.60
  -2  -3  -6    1.90    1.90
  -2  -3  -6    0.00    1.10
  -2  -3  -6    1.60    0.50
   2   3   6    1.20    1.80
   2   3   6    0.50    1.70
   2   3   6    1.40    1.40
   2   3   6    1.30    1.10
  -3  -3  -6   29.30    3.50
  -3  -3  -6   33.60    2.20
  -3  -3  -6   27.50    3.30
  -3  -3  -6   34.10    2.00
  -3  -3  -6   28.90    2.60
   3   3   6   33.90    3.60
   3   3   6   35.60    2.40
   3   3   6   30.50    3.10
   3   3   6   34.50    4.20
  -4  -3  -6  125.59    6.50
  -4  -3  -6  132.19    7.70
  -4  -3  -6  128.59    8.00
  -4  -3  -6  131.69    6.00
  -4  -3  -6  125.19    6.20
   4   3   6  131.49    6.90
   4   3   6  139.79    7.60
   4   3   6  139.59    8.70
   4   3   6  136.79    5.90
  -5  -3  -6    1.70    1.20
  -5  -3  -6    0.80    1.70
  -5  -3  -6    0.30    0.70
  -5  -3  -6    1.80    1.50
   5   3   6   -0.30    1.90
   5   3   6    1.50    2.40
   5   3   6    0.00    1.70
  -6  -3  -6  114.49    6.10
  -6  -3  -6  117.29    7.60
  -6  -3  -6  118.39    8.30
  -6  -3  -6  114.09    6.40
   6   3   6  121.39    9.10
   6   3   6  123.29    7.20
   6   3   6  131.29    7.70
  -7  -3  -6   68.19    6.50
  -7  -3  -6   59.29    4.20
   7   3   6   54.29    5.40
   7   3   6   61.59    7.50
  -8  -3  -6   67.29    7.20
  -8  -3  -6   56.99    4.50
   8   3   6   64.69    8.10
   8   3   6   63.79    6.00
  -9  -3  -6   31.80    3.60
   9   3   6   30.40    6.40
   9   3   6   27.00    4.50
   9  -4  -6    9.10    2.50
   9  -4  -6   11.20    3.30
  -9   4   6    5.50    2.00
  -9   4   6    7.10    1.60
   8  -4  -6   44.70    4.60
   8  -4  -6   44.50    4.20
  -8   4   6   43.80    4.20
  -8   4   6   44.40    3.30
  -8   4   6   37.80    5.10
   7  -4  -6    2.90    2.40
   7  -4  -6    3.30    1.70
  -7   4   6    2.40    1.60
  -7   4   6    0.70    2.50
  -7   4   6    2.50    1.20
   6  -4  -6   19.70    2.50
   6  -4  -6   20.00    2.80
   6  -4  -6   22.50    3.10
  -6   4   6   20.10    2.20
  -6   4   6   19.40    2.50
  -6   4   6   17.70    3.40
   5  -4  -6   58.49    3.60
   5  -4  -6   54.79    4.00
   5  -4  -6   55.79    4.10
  -5   4   6   56.69    3.50
  -5   4   6   57.89    4.00
  -5   4   6   64.39    5.60
   4  -4  -6  268.27   11.80
   4  -4  -6  273.47   11.80
   4  -4  -6  275.27   11.50
  -4   4   6  274.57   13.50
  -4   4   6  280.97   11.60
  -4   4   6  289.67   12.20
   3  -4  -6    1.20    1.40
   3  -4  -6    0.30    0.70
   3  -4  -6    0.10    0.60
   3  -4  -6   -1.00    1.20
  -3   4   6   -0.40    0.90
  -3   4   6    0.20    0.80
  -3   4   6    0.20    1.20
  -3   4   6   -1.50    1.70
   2  -4  -6    3.60    0.60
   2  -4  -6    1.50    1.30
   2  -4  -6    4.60    1.50
   2  -4  -6    3.60    0.60
  -2   4   6    3.00    1.20
  -2   4   6    2.10    2.00
  -2   4   6    3.00    0.90
  -2   4   6    4.20    1.60
   1  -4  -6   29.90    2.30
   1  -4  -6   30.90    1.30
   1  -4  -6   26.90    2.20
   1  -4  -6   29.60    1.50
  -1   4   6   28.20    3.00
  -1   4   6   27.20    3.10
  -1   4   6   22.50    3.30
  -1   4   6   28.90    2.40
   0  -4  -6   76.39    3.70
   0  -4  -6   71.39    5.10
   0  -4  -6   73.19    3.60
   0  -4  -6   70.39    4.30
   0   4   6   69.39    4.80
   0   4   6   71.99    4.20
   0   4   6   66.69    4.10
   0   4   6   77.59    5.00
   0   4   6   71.19    5.70
  -1  -4  -6   14.30    2.20
  -1  -4  -6   13.20    2.80
  -1  -4  -6   12.40    3.10
  -1  -4  -6   13.50    1.00
  -1  -4  -6   11.00    0.80
  -1  -4  -6   12.00    1.30
   1   4   6   13.70    2.80
   1   4   6   12.40    2.50
   1   4   6   11.20    3.00
   1   4   6   10.50    1.80
  -2  -4  -6   33.00    2.90
  -2  -4  -6   39.50    2.10
  -2  -4  -6   36.20    3.90
  -2  -4  -6   34.80    1.90
  -2  -4  -6   32.60    4.20
   2   4   6   31.00    3.00
   2   4   6   31.80    3.60
   2   4   6   36.50    3.90
  -3  -4  -6   10.40    2.70
  -3  -4  -6    7.90    2.70
  -3  -4  -6   11.20    1.30
  -3  -4  -6    9.90    2.00
   3   4   6    9.90    2.70
   3   4   6    8.20    2.70
   3   4   6   10.10    2.00
  -4  -4  -6   25.20    3.70
  -4  -4  -6   24.50    2.70
  -4  -4  -6   25.40    2.00
  -4  -4  -6   25.80    3.40
   4   4   6   26.10    3.80
   4   4   6   21.30    2.70
   4   4   6   18.50    3.90
  -5  -4  -6    8.90    2.10
  -5  -4  -6    9.70    3.00
  -5  -4  -6    7.80    1.40
  -5  -4  -6   11.80    2.60
   5   4   6    6.70    2.10
   5   4   6   10.50    2.90
   5   4   6    6.50    3.10
  -6  -4  -6    8.20    2.00
  -6  -4  -6    6.30    1.50
  -6  -4  -6    9.90    3.30
   6   4   6    7.70    3.50
   6   4   6    5.90    2.20
   6   4   6    7.40    3.10
  -7  -4  -6    8.40    3.50
  -7  -4  -6    7.50    1.80
   7   4   6    5.30    2.40
   7   4   6    8.60    4.10
   7   4   6    6.90    3.00
  -8  -4  -6    2.60    1.60
  -8  -4  -6    8.80    3.40
   8   4   6    1.80    3.90
   8   4   6    1.70    2.40
   8  -5  -6    0.80    1.60
   8  -5  -6   -1.20    2.50
  -8   5   6   -5.20    2.50
  -8   5   6   -0.70    1.60
  -8   5   6   -1.50    1.00
   7  -5  -6    1.20    1.50
   7  -5  -6    1.70    2.50
  -7   5   6    0.00    2.70
  -7   5   6   -0.70    1.00
  -7   5   6   -1.40    1.40
   6  -5  -6    3.40    1.40
   6  -5  -6    7.60    3.90
   6  -5  -6    1.00    2.20
  -6   5   6   -0.10    2.50
  -6   5   6    4.10    1.40
  -6   5   6    6.20    1.80
   5  -5  -6   18.60    2.10
   5  -5  -6   20.10    2.70
   5  -5  -6   15.50    2.50
  -5   5   6   16.40    2.00
  -5   5   6   12.60    3.40
  -5   5   6   15.40    2.30
   4  -5  -6  534.85   21.90
   4  -5  -6  532.45   21.90
   4  -5  -6  542.45   21.60
  -4   5   6  558.64   22.40
  -4   5   6  538.35   21.70
  -4   5   6  559.74   24.30
  -4   5   6  528.75   21.90
   3  -5  -6  118.99    5.90
   3  -5  -6  122.79    5.40
   3  -5  -6  122.79    5.90
  -3   5   6  115.69    6.10
  -3   5   6  112.49    6.20
  -3   5   6  117.99    7.90
   2  -5  -6   47.10    3.20
   2  -5  -6   49.60    2.60
   2  -5  -6   52.69    3.30
  -2   5   6   51.79    5.50
  -2   5   6   46.70    3.90
  -2   5   6   49.00    3.60
   1  -5  -6    2.60    1.20
   1  -5  -6    0.50    0.70
   1  -5  -6   -1.20    1.00
  -1   5   6   -0.20    1.70
  -1   5   6    1.00    1.10
  -1   5   6   -0.20    1.30
  -1   5   6    0.30    2.20
   0  -5  -6   32.30    1.80
   0  -5  -6   34.80    2.30
   0  -5  -6   29.30    4.10
   0  -5  -6   30.10    2.30
   0  -5  -6   32.10    3.00
   0   5   6   36.20    3.60
   0   5   6   35.10    4.00
   0   5   6   25.60    3.90
  -1  -5  -6  163.58    6.90
  -1  -5  -6  160.08    9.20
  -1  -5  -6  159.38    6.90
  -1  -5  -6  161.88    8.10
  -1  -5  -6  159.58    9.60
  -1  -5  -6  166.78    6.80
   1   5   6  166.18    7.70
   1   5   6  162.68   10.00
   1   5   6  175.18    9.20
   1   5   6  164.88    9.00
  -2  -5  -6    2.20    0.70
  -2  -5  -6    3.10    2.50
  -2  -5  -6    3.30    0.90
  -2  -5  -6    1.90    0.80
  -2  -5  -6    2.20    1.70
  -2  -5  -6   -1.50    1.70
   2   5   6    2.00    2.10
   2   5   6    1.40    1.40
   2   5   6    3.30    2.50
  -3  -5  -6    0.50    0.70
  -3  -5  -6    0.70    1.60
  -3  -5  -6    0.00    1.90
  -3  -5  -6    1.80    2.40
   3   5   6   -0.20    1.90
   3   5   6    1.20    1.40
   3   5   6    0.50    2.20
  -4  -5  -6    6.80    2.10
  -4  -5  -6    8.80    3.00
  -4  -5  -6    5.70    1.20
  -4  -5  -6    8.10    2.50
   4   5   6    9.10    3.20
   4   5   6    6.50    1.80
   4   5   6    8.40    3.10
  -5  -5  -6   21.60    3.30
  -5  -5  -6   19.00    4.00
  -5  -5  -6   17.50    2.10
   5   5   6   16.80    4.30
   5   5   6   19.40    3.90
   5   5   6   15.40    2.50
  -6  -5  -6   18.60    4.40
  -6  -5  -6   11.90    1.90
  -6  -5  -6   15.20    2.80
   6   5   6   15.50    4.40
   6   5   6   14.00    2.60
   6   5   6   16.10    3.90
  -7  -5  -6   11.70    3.40
  -7  -5  -6    4.80    1.60
   7   5   6    6.00    3.20
   7   5   6    5.40    3.80
   8  -6  -6    4.60    3.00
   8  -6  -6    5.90    1.90
  -8   6   6   -0.80    3.30
  -8   6   6    1.60    1.90
   7  -6  -6  137.49    8.00
   7  -6  -6  138.19    7.40
  -7   6   6  138.19   10.20
  -7   6   6  145.29    8.10
   6  -6  -6   37.40    3.20
   6  -6  -6   33.50    3.80
  -6   6   6   36.10    3.70
  -6   6   6   30.40    5.00
   5  -6  -6   38.20    3.60
   5  -6  -6   42.20    3.10
   5  -6  -6   47.00    3.90
  -5   6   6   44.90    3.90
  -5   6   6   33.80    5.00
   4  -6  -6   94.49    5.50
   4  -6  -6  104.19    5.00
   4  -6  -6  103.19    5.60
  -4   6   6   98.49    8.10
  -4   6   6   92.69    5.50
  -4   6   6   99.09    5.90
   3  -6  -6   35.80    2.40
   3  -6  -6   25.50    2.70
   3  -6  -6   28.60    2.90
  -3   6   6   31.60    3.30
  -3   6   6   22.10    4.20
  -3   6   6   29.50    3.10
   2  -6  -6   20.10    2.20
   2  -6  -6   21.90    2.00
   2  -6  -6   20.20    2.10
  -2   6   6   24.00    3.30
  -2   6   6   21.00    2.60
  -2   6   6   21.20    4.10
   1  -6  -6  299.87   12.90
   1  -6  -6  318.57   12.90
   1  -6  -6  307.47   12.70
   1  -6  -6  311.77   14.20
  -1   6   6  307.97   15.80
  -1   6   6  326.47   14.80
  -1   6   6  317.57   13.90
  -1   6   6  336.27   14.60
   0  -6  -6   17.70    1.70
   0  -6  -6   19.00    1.70
   0  -6  -6   19.10    3.70
   0  -6  -6   17.60    1.80
   0  -6  -6   24.80    3.00
   0   6   6   21.00    4.00
   0   6   6   27.60    4.00
   0   6   6   24.30    3.40
  -1  -6  -6   -0.90    1.40
  -1  -6  -6   -3.30    2.40
  -1  -6  -6   -1.70    2.20
  -1  -6  -6   -0.30    0.60
   1   6   6   -1.10    2.50
   1   6   6    0.60    1.80
   1   6   6    1.60    2.30
  -2  -6  -6   44.40    2.70
  -2  -6  -6   44.60    5.10
  -2  -6  -6   42.50    4.00
  -2  -6  -6   42.80    5.20
   2   6   6   43.00    4.90
   2   6   6   50.99    5.20
   2   6   6   45.90    3.40
  -3  -6  -6    8.10    1.30
  -3  -6  -6    6.30    3.20
  -3  -6  -6    9.00    2.50
  -3  -6  -6    7.10    2.80
   3   6   6   12.20    3.50
   3   6   6    7.70    3.00
   3   6   6    6.50    1.70
  -4  -6  -6   15.30    3.00
  -4  -6  -6   19.90    4.50
  -4  -6  -6   14.60    1.90
   4   6   6   20.50    4.30
   4   6   6   14.30    2.40
   4   6   6   15.90    4.00
  -5  -6  -6  112.29    8.60
  -5  -6  -6  107.49    7.00
  -5  -6  -6  109.79    6.00
   5   6   6  125.49    8.80
   5   6   6  133.49   10.10
  -6  -6  -6    0.60    1.10
  -6  -6  -6    5.80    2.90
  -6  -6  -6    2.90    1.70
   6   6   6   -0.20    2.90
   6   6   6    2.20    3.40
   7   6   6    6.80    3.40
   7   6   6    5.10    3.90
   7  -7  -6    6.50    2.70
   7  -7  -6    9.40    2.00
  -7   7   6    1.00    3.30
  -7   7   6    3.90    2.20
   6  -7  -6   96.39    5.30
   6  -7  -6   83.79    5.90
  -6   7   6   81.79    5.80
  -6   7   6   82.39    8.30
   5  -7  -6    2.90    1.30
   5  -7  -6    4.50    2.50
  -5   7   6    0.00    2.80
  -5   7   6    3.30    1.70
   4  -7  -6    9.80    2.40
   4  -7  -6    8.50    2.10
   4  -7  -6   12.50    1.80
  -4   7   6    8.00    2.00
  -4   7   6    3.00    3.20
   3  -7  -6   46.50    3.20
   3  -7  -6   46.60    3.50
   3  -7  -6   43.70    3.70
  -3   7   6   42.90    4.00
  -3   7   6   35.70    5.50
  -3   7   6   51.19    4.50
   2  -7  -6    4.40    1.30
   2  -7  -6    6.60    1.80
   2  -7  -6    7.20    2.40
  -2   7   6    9.20    2.60
  -2   7   6    5.20    1.70
  -2   7   6    6.20    3.30
   1  -7  -6   45.30    3.20
   1  -7  -6   57.29    4.60
  -1   7   6   64.59    5.50
  -1   7   6   56.19    4.60
  -1   7   6   55.89    6.50
   0  -7  -6   -1.20    2.80
   0  -7  -6   -0.40    1.60
   0   7   6    0.80    1.70
   0   7   6   -1.10    2.70
   0   7   6    1.60    2.40
  -1  -7  -6   12.50    2.80
  -1  -7  -6    8.60    1.40
  -1  -7  -6   10.10    3.40
  -1  -7  -6    8.70    3.90
   1   7   6   12.10    2.90
   1   7   6    9.60    3.70
   1   7   6   14.60    3.60
  -2  -7  -6   86.79    7.60
  -2  -7  -6   80.19    4.40
  -2  -7  -6   83.29    6.00
   2   7   6  100.39    7.30
   2   7   6   90.79    7.20
  -3  -7  -6   89.19    4.90
  -3  -7  -6   91.99    7.90
  -3  -7  -6   94.99    6.50
   3   7   6  101.49    8.00
   3   7   6  105.99    8.10
  -4  -7  -6   28.70    3.80
  -4  -7  -6   32.40    5.80
  -4  -7  -6   24.20    2.50
   4   7   6   28.40    5.20
   4   7   6   32.60    5.40
  -5  -7  -6    6.00    1.50
  -5  -7  -6    7.70    3.30
  -5  -7  -6   10.60    2.80
   5   7   6    7.90    3.90
   5   7   6    7.30    3.80
  -6  -7  -6    9.70    3.20
   6   7   6    3.70    3.40
   6   7   6   -1.40    2.90
   5  -8  -6   -0.60    2.20
   5  -8  -6    0.10    1.20
  -5   8   6   -1.30    1.70
  -5   8   6   -2.90    3.00
   4  -8  -6   12.50    2.20
   4  -8  -6   13.30    2.60
  -4   8   6    9.80    2.40
  -4   8   6    9.90    4.10
   3  -8  -6   50.79    4.90
  -3   8   6   43.80    4.50
  -3   8   6   42.50    6.20
  -3   8   6   54.99    4.90
   2  -8  -6   13.20    3.10
  -2   8   6   14.40    3.40
  -2   8   6    8.40    3.90
   1  -8  -6   45.80    4.50
  -1   8   6   61.69    5.90
  -1   8   6   44.70    6.40
   0  -8  -6   -0.20    1.80
   0   8   6    0.70    3.20
   0   8   6    2.40    2.80
  -1  -8  -6    2.80    2.30
  -1  -8  -6    0.30    3.70
   1   8   6    1.80    3.90
   1   8   6    5.80    2.50
   1   8   6    7.90    3.50
  -2  -8  -6   -2.40    3.00
  -2  -8  -6    0.80    2.20
   2   8   6    0.90    2.20
   2   8   6    3.00    3.30
  -3  -8  -6   29.10    5.80
  -3  -8  -6   28.00    3.90
  -3  -8  -6   27.10    2.90
   3   8   6   32.10    5.10
   3   8   6   39.30    6.20
  -4  -8  -6   11.20    4.10
  -4  -8  -6   10.70    3.10
   4   8   6   11.90    3.60
   4   8   6   11.70    4.40
   3  -9  -6   30.40    4.40
  -3   9   6   16.50    5.10
   2  -9  -6   22.00    4.10
  -2   9   6   20.20    3.90
  -2   9   6   12.20    4.80
   1  -9  -6    6.80    3.00
  -1   9   6   13.30    3.50
  -1   9   6    9.30    4.70
   0  -9  -6   92.09    7.00
   0   9   6  112.69    8.50
   0   9   6   86.69    9.50
  -1  -9  -6   -0.90    2.60
  -1  -9  -6   -1.60    4.00
   1   9   6   -1.50    3.60
   1   9   6    6.90    3.50
  -2  -9  -6   11.00    3.40
  -2  -9  -6    5.60    4.30
   2   9   6   11.50    4.40
   3  10  -7   15.00    6.20
   3  10  -7   -0.40    7.70
   3  10  -7   10.20    4.70
  -3 -10   7   19.10    4.20
   2  10  -7   -1.10    2.80
   2  10  -7   -9.30    5.30
  -2 -10   7    5.70    2.30
  -2 -10   7   -4.40    2.40
   1  10  -7    4.90    2.70
   1  10  -7   -9.70    5.20
  -1 -10   7    4.20    2.00
  -1 -10   7   -7.40    3.50
  -1 -10   7   -4.10    2.40
   0  10  -7   36.70    4.60
   0 -10   7   17.90    4.00
   0 -10   7   25.80    3.60
  -1  10  -7    5.00    3.20
  -1  10  -7   17.00    3.00
   1 -10   7    9.40    2.50
   1 -10   7    3.50    3.20
  -2  10  -7    8.20    3.50
   2 -10   7    6.30    3.30
  -3  10  -7   20.70    4.80
   3 -10   7   27.00    4.40
   5   9  -7   56.49    8.20
   5   9  -7   54.69    7.10
  -5  -9   7   73.29    6.00
  -5  -9   7   51.69    5.90
   4   9  -7   -7.70    6.10
   4   9  -7   -1.20    4.70
  -4  -9   7   -3.90    2.00
  -4  -9   7    4.80    2.30
   3   9  -7   -2.50    5.50
   3   9  -7    3.10    3.50
   3   9  -7   -5.00    5.60
  -3  -9   7    9.60    2.80
  -3  -9   7    2.70    2.70
   2   9  -7   -4.50    6.00
   2   9  -7    4.70    2.90
   2   9  -7   -5.40    5.00
  -2  -9   7    5.00    2.30
  -2  -9   7    1.80    2.90
  -2  -9   7    4.40    3.40
   1   9  -7   -4.90    5.70
   1   9  -7    1.10    2.60
  -1  -9   7   -0.70    2.40
  -1  -9   7    2.40    2.00
   0   9  -7   34.60    4.50
   0   9  -7   53.69    5.10
   0  -9   7   43.00    5.30
   0  -9   7   42.40    4.10
  -1   9  -7   -6.90    5.20
  -1   9  -7    8.10    2.50
  -1   9  -7    3.00    2.70
   1  -9   7    6.40    2.20
   1  -9   7    2.90    2.50
  -2   9  -7    0.00    2.80
  -2   9  -7    6.00    2.40
   2  -9   7    5.20    2.20
   2  -9   7    1.70    2.60
  -3   9  -7   12.00    3.80
  -3   9  -7   21.70    3.50
   3  -9   7   14.80    3.30
  -4   9  -7  126.09    8.00
  -4   9  -7  122.09    9.90
   4  -9   7  116.29    8.20
  -5   9  -7   27.00    5.00
   5  -9   7   23.50    4.00
   6   8  -7   -3.90    2.90
   6   8  -7    4.40    4.30
  -6  -8   7    3.20    2.20
  -6  -8   7   -4.60    1.90
   5   8  -7   -4.50    4.20
   5   8  -7   -1.80    6.00
   5   8  -7    2.00    3.30
  -5  -8   7   -2.40    2.00
  -5  -8   7    5.60    2.40
   4   8  -7   -0.60    6.30
   4   8  -7    2.00    3.80
   4   8  -7    1.90    5.00
  -4  -8   7   -0.60    2.20
  -4  -8   7    6.30    2.50
   3   8  -7    6.00    6.60
   3   8  -7   15.90    4.00
  -3  -8   7   12.80    3.20
  -3  -8   7   26.10    3.90
  -3  -8   7   19.40    3.50
   2   8  -7   -1.00    2.40
   2   8  -7   -6.50    5.10
  -2  -8   7   -1.60    2.10
  -2  -8   7    0.20    1.50
  -2  -8   7   -4.30    2.70
   1   8  -7    2.00    2.30
   1   8  -7   -3.40    4.90
  -1  -8   7    0.80    2.20
  -1  -8   7    2.50    1.80
   0   8  -7   15.10    3.00
   0   8  -7   22.60    3.50
   0   8  -7    8.70    5.70
   0  -8   7   20.80    2.80
   0  -8   7   13.50    3.10
  -1   8  -7   57.79    5.60
  -1   8  -7   69.29    5.30
   1  -8   7   61.89    4.40
   1  -8   7   60.69    5.30
  -2   8  -7   14.80    3.40
  -2   8  -7   20.40    3.20
   2  -8   7   19.70    2.70
   2  -8   7   16.60    3.10
  -3   8  -7   37.50    4.50
  -3   8  -7   26.60    4.50
   3  -8   7   33.70    4.30
  -4   8  -7   52.69    6.40
  -4   8  -7   70.39    5.60
   4  -8   7   59.19    5.40
  -5   8  -7    6.70    2.30
  -5   8  -7    4.80    2.80
   5  -8   7    1.90    2.40
  -6   8  -7   15.80    3.80
   6  -8   7   11.50    3.30
   7   7  -7   -2.70    3.00
  -7  -7   7    4.50    2.30
  -7  -7   7   -0.80    2.00
   6   7  -7   31.40    5.80
   6   7  -7   37.40    5.70
   6   7  -7   25.60    8.70
  -6  -7   7   37.30    5.00
  -6  -7   7   47.80    4.90
   5   7  -7   28.60    6.30
  -5  -7   7   37.30    4.30
  -5  -7   7   23.90    4.00
   4   7  -7   -1.00    5.00
   4   7  -7    1.40    3.10
  -4  -7   7    4.20    2.20
  -4  -7   7    0.00    2.30
  -4  -7   7    4.90    2.40
   3   7  -7   -0.50    2.30
   3   7  -7   -3.10    4.80
  -3  -7   7    0.00    1.70
  -3  -7   7    0.30    2.20
  -3  -7   7   -1.30    1.90
   2   7  -7    2.20    4.60
   2   7  -7    5.90    2.50
  -2  -7   7   10.80    2.40
  -2  -7   7    7.00    3.10
  -2  -7   7    5.80    2.40
  -2  -7   7    6.80    2.00
   1   7  -7    3.40    1.80
   1   7  -7    2.50    4.40
   1   7  -7    8.90    2.60
  -1  -7   7    7.60    3.30
  -1  -7   7    4.90    2.30
  -1  -7   7    9.20    2.20
   0   7  -7   66.49   10.50
   0   7  -7   79.39    5.60
   0   7  -7   71.39    5.40
   0  -7   7   78.09    5.60
   0  -7   7   87.89    5.00
  -1   7  -7   58.09    4.70
  -1   7  -7   54.39    5.00
  -1   7  -7   51.99    9.10
   1  -7   7   58.29    5.00
   1  -7   7   61.79    4.00
  -2   7  -7   36.40    4.50
  -2   7  -7   24.50    5.50
  -2   7  -7   38.10    3.80
   2  -7   7   30.70    3.80
   2  -7   7   37.30    2.90
   2  -7   7   35.80    3.20
  -3   7  -7  107.49    7.50
  -3   7  -7  112.29    6.80
  -3   7  -7   99.49   10.50
   3  -7   7  103.49    5.60
   3  -7   7   97.89    6.50
   3  -7   7  107.49    6.20
  -4   7  -7  137.59   12.00
  -4   7  -7  159.88    8.70
   4  -7   7  142.99    7.50
   4  -7   7  138.19    8.20
  -5   7  -7    4.40    2.20
   5  -7   7   -0.80    2.00
   5  -7   7    1.30    2.00
  -6   7  -7   57.09    5.40
   6  -7   7   50.69    5.30
   6  -7   7   51.49    5.00
   6  -7   7   56.19    4.70
   7  -7   7   16.10    3.50
   7  -7   7   16.50    3.20
   7  -7   7   12.70    3.40
   8   6  -7   12.60    4.30
  -8  -6   7   17.90    4.00
  -8  -6   7   11.90    2.20
   7   6  -7    7.60    3.90
  -7  -6   7    9.00    2.90
  -7  -6   7   10.10    2.00
  -7  -6   7   16.00    3.60
   6   6  -7  169.28   19.40
   6   6  -7  196.38   12.00
   6   6  -7  214.78   12.00
  -6  -6   7  209.68   11.10
  -6  -6   7  206.08   10.70
   5   6  -7  210.58   13.00
   5   6  -7  199.78   19.90
  -5  -6   7  258.07   12.20
  -5  -6   7  237.28   11.60
   4   6  -7   93.99    4.50
   4   6  -7   72.69   12.20
   4   6  -7   86.99    6.90
  -4  -6   7   94.99    5.70
  -4  -6   7   98.39    6.30
  -4  -6   7  102.89    6.20
   3   6  -7   11.80    5.50
   3   6  -7   19.50    3.40
  -3  -6   7   22.50    3.30
  -3  -6   7   16.90    3.00
  -3  -6   7   25.50    2.20
  -3  -6   7   17.60    2.50
  -3  -6   7   23.20    3.00
   2   6  -7   57.69    9.60
   2   6  -7   77.79    5.70
   2   6  -7   74.39    4.60
  -2  -6   7   84.29    4.40
  -2  -6   7   76.99    5.50
  -2  -6   7   72.49    5.30
  -2  -6   7   80.09    5.00
   1   6  -7  118.09    6.30
   1   6  -7  110.09    6.80
   1   6  -7  111.09   11.40
  -1  -6   7  126.79    6.40
  -1  -6   7  118.09    7.00
  -1  -6   7  117.69    6.00
  -1  -6   7  117.19    7.50
   0   6  -7  240.88   11.70
   0   6  -7  242.78   11.40
   0   6  -7  238.68   16.30
   0  -6   7  252.97   11.00
   0  -6   7  239.28   11.60
   0  -6   7  259.47   10.20
  -1   6  -7  119.79    7.00
  -1   6  -7  121.99    7.10
  -1   6  -7  124.39   11.00
   1  -6   7  128.49    6.20
   1  -6   7  127.79    5.80
   1  -6   7  123.59    7.00
  -2   6  -7   32.90    3.40
  -2   6  -7   34.50    6.20
   2  -6   7   30.90    2.50
   2  -6   7   33.20    3.70
   2  -6   7   30.00    2.70
  -3   6  -7    9.20    2.10
  -3   6  -7    7.30    2.90
   3  -6   7    9.30    1.90
   3  -6   7    8.70    2.20
   3  -6   7   11.40    1.70
  -4   6  -7    4.00    2.40
  -4   6  -7    6.60    2.00
   4  -6   7    3.70    1.90
   4  -6   7    5.70    2.00
  -5   6  -7    2.00    2.00
  -5   6  -7    4.10    1.90
   5  -6   7    3.50    2.30
   5  -6   7    4.20    2.00
   5  -6   7    5.10    2.40
  -6   6  -7    5.10    2.10
   6  -6   7    1.40    1.90
   6  -6   7   -0.90    2.60
   6  -6   7    1.10    2.40
  -7   6  -7   49.10    4.70
   7  -6   7   41.30    4.50
   7  -6   7   44.10    4.60
   7  -6   7   37.50    4.90
   8  -6   7   12.50    3.40
   8  -6   7   14.70    3.20
   8  -6   7   11.60    4.00
   8   5  -7   -0.70    3.10
  -8  -5   7    1.30    1.50
  -8  -5   7    4.60    2.20
  -8  -5   7    3.80    2.50
   7   5  -7   -2.00    3.20
   7   5  -7   -1.90    4.90
  -7  -5   7   -1.20    1.60
  -7  -5   7    4.00    2.50
  -7  -5   7    1.90    1.50
   6   5  -7   31.50    2.80
   6   5  -7   22.80    7.50
   6   5  -7   32.90    5.20
   6   5  -7   34.80    4.90
  -6  -5   7   32.80    3.80
  -6  -5   7   33.10    2.80
  -6  -5   7   37.10    4.20
   5   5  -7  282.27   14.40
   5   5  -7  295.07   12.20
   5   5  -7  299.07   12.30
  -5  -5   7  312.77   14.20
  -5  -5   7  289.67   13.70
  -5  -5   7  300.37   13.10
   4   5  -7    6.10    2.60
   4   5  -7    5.80    1.30
   4   5  -7    2.40    4.30
  -4  -5   7    2.50    1.90
  -4  -5   7   10.40    1.50
  -4  -5   7    6.60    2.20
  -4  -5   7    7.90    2.30
   3   5  -7    0.20    3.50
   3   5  -7    1.70    2.10
  -3  -5   7   -0.70    1.00
  -3  -5   7    0.40    1.60
  -3  -5   7    2.40    2.10
  -3  -5   7    1.80    1.50
  -3  -5   7    2.50    0.80
   2   5  -7  465.65   26.50
   2   5  -7  505.75   20.10
   2   5  -7  490.35   21.50
  -2  -5   7  511.85   21.10
  -2  -5   7  528.65   21.60
  -2  -5   7  527.75   20.20
  -2  -5   7  515.25   20.70
  -2  -5   7  502.15   21.30
   1   5  -7    9.10    2.10
   1   5  -7    7.90    3.20
   1   5  -7   10.40    1.60
  -1  -5   7    8.40    2.20
  -1  -5   7    8.90    1.30
  -1  -5   7   12.20    2.00
  -1  -5   7   11.20    1.60
  -1  -5   7   13.50    3.10
  -1  -5   7   13.10    1.70
   0   5  -7  106.99    6.30
   0   5  -7  106.79    6.10
   0   5  -7  118.99   10.10
   0  -5   7  124.79    6.20
   0  -5   7  116.99    6.40
   0  -5   7  119.19    5.70
   0  -5   7  118.69    5.40
  -1   5  -7  161.48    8.40
  -1   5  -7  166.98   11.80
   1  -5   7  172.78    7.60
   1  -5   7  172.98    8.50
   1  -5   7  181.78    7.70
  -2   5  -7   26.50    2.90
  -2   5  -7   24.70    4.80
   2  -5   7   24.70    3.10
   2  -5   7   24.90    1.90
   2  -5   7   24.20    2.50
  -3   5  -7  129.99    7.30
  -3   5  -7  141.09   10.40
   3  -5   7  144.29    7.10
   3  -5   7  143.59    6.10
   3  -5   7  138.49    7.30
  -4   5  -7    5.20    1.70
  -4   5  -7    2.50    2.00
   4  -5   7    4.30    1.90
   4  -5   7    4.10    1.70
  -5   5  -7   34.70    5.40
  -5   5  -7   36.10    3.60
   5  -5   7   34.10    3.40
   5  -5   7   35.20    3.90
   5  -5   7   31.50    3.50
  -6   5  -7   23.00    4.80
  -6   5  -7   24.40    3.50
  -6   5  -7   30.00    4.30
   6  -5   7   22.20    3.70
   6  -5   7   27.50    3.50
   6  -5   7   29.30    3.60
  -7   5  -7    5.50    2.30
   7  -5   7    1.90    3.10
   7  -5   7    5.70    2.20
   7  -5   7    3.30    2.60
  -8   5  -7   33.80    4.00
   8  -5   7   28.60    5.10
   8  -5   7   38.20    4.50
   8  -5   7   36.90    4.20
   9   4  -7   27.40    4.90
  -9  -4   7   23.40    2.80
   8   4  -7    9.50    3.60
  -8  -4   7   12.10    2.10
  -8  -4   7   12.30    2.70
   7   4  -7    3.90    5.30
   7   4  -7    2.60    2.70
   7   4  -7    7.20    1.90
   7   4  -7    2.60    3.20
  -7  -4   7    9.50    2.90
  -7  -4   7    4.70    2.10
  -7  -4   7    6.00    1.60
   6   4  -7   -3.20    2.80
   6   4  -7    1.50    1.50
   6   4  -7    0.90    4.40
   6   4  -7    0.70    2.70
   6   4  -7    1.60    1.40
  -6  -4   7    3.10    1.50
  -6  -4   7    2.50    1.90
  -6  -4   7    1.10    1.70
  -6  -4   7    4.00    2.20
  -6  -4   7    2.20    1.30
   5   4  -7  144.79    6.40
   5   4  -7  138.79    6.30
   5   4  -7  135.89    8.10
   5   4  -7  106.69   13.30
  -5  -4   7  145.49    7.90
  -5  -4   7  141.79    7.10
  -5  -4   7  133.29    7.50
  -5  -4   7  129.49    6.40
  -5  -4   7  143.89    7.10
   4   4  -7   73.89    3.80
   4   4  -7   55.39    9.80
   4   4  -7   62.39    5.20
  -4  -4   7   65.69    4.50
  -4  -4   7   73.59    4.90
  -4  -4   7   69.49    3.80
  -4  -4   7   70.19    4.70
   3   4  -7   18.60    4.60
   3   4  -7   18.10    2.90
  -3  -4   7   19.10    2.70
  -3  -4   7   22.90    1.40
  -3  -4   7   22.90    1.40
  -3  -4   7   24.20    3.20
  -3  -4   7   22.40    1.60
  -3  -4   7   22.10    2.50
   2   4  -7  223.08    9.00
   2   4  -7  222.28   14.60
   2   4  -7  213.78   10.50
  -2  -4   7  231.78    8.90
  -2  -4   7  228.78   10.20
  -2  -4   7  230.58    9.40
  -2  -4   7  236.28   10.60
  -2  -4   7  220.68   10.80
   1   4  -7  115.59    9.50
   1   4  -7  116.09    6.40
   1   4  -7  117.49    5.70
  -1  -4   7  119.19    7.00
  -1  -4   7  111.39    6.30
  -1  -4   7  128.29    5.70
  -1  -4   7  124.09    5.60
  -1  -4   7  127.19    4.90
  -1  -4   7  124.89    4.90
  -1  -4   7  118.29    5.90
   0   4  -7  496.05   21.60
   0   4  -7  508.15   25.30
   0  -4   7  528.25   22.30
   0  -4   7  508.45   21.50
   0  -4   7  534.85   20.90
   0  -4   7  543.15   20.60
   0  -4   7  548.75   21.30
   0  -4   7  528.25   20.90
  -1   4  -7   24.30    4.30
  -1   4  -7   21.20    2.50
   1  -4   7   29.60    2.50
   1  -4   7   31.90    2.50
   1  -4   7   32.00    1.90
   1  -4   7   29.20    2.90
  -2   4  -7    0.60    1.10
  -2   4  -7    0.40    1.20
  -2   4  -7    0.30    1.50
   2  -4   7    1.10    1.40
   2  -4   7    1.20    0.60
   2  -4   7    1.10    1.40
  -3   4  -7   61.69    4.10
  -3   4  -7   65.49    6.40
  -3   4  -7   56.89    4.80
   3  -4   7   65.09    4.20
   3  -4   7   71.69    4.50
   3  -4   7   67.19    2.80
  -4   4  -7  388.46   19.10
  -4   4  -7  439.96   21.40
  -4   4  -7  434.76   18.10
  -4   4  -7  393.16   19.10
   4  -4   7  446.16   18.10
   4  -4   7  425.36   17.90
  -5   4  -7  167.48    8.50
  -5   4  -7  156.88    9.90
  -5   4  -7  156.98    9.70
  -5   4  -7  165.88   11.10
   5  -4   7  171.68    9.10
   5  -4   7  161.38    8.30
   5  -4   7  175.88    8.10
  -6   4  -7    0.50    1.40
  -6   4  -7   -0.70    2.50
  -6   4  -7    0.70    1.60
  -6   4  -7    1.50    1.50
   6  -4   7    1.00    1.50
   6  -4   7    0.20    2.00
   6  -4   7   -1.10    2.60
  -7   4  -7  460.15   20.20
  -7   4  -7  434.86   23.10
  -7   4  -7  443.06   23.00
   7  -4   7  449.36   20.90
   7  -4   7  472.95   20.10
   7  -4   7  475.45   19.40
  -8   4  -7   29.30    3.80
  -8   4  -7   32.40    7.00
   8  -4   7   17.70    4.30
   8  -4   7   34.00    4.20
   8  -4   7   26.50    3.90
   9  -4   7    0.70    2.60
   9  -4   7    0.10    3.50
   9  -4   7    4.00    2.20
   9   3  -7   -0.60    2.90
  -9  -3   7    1.60    1.40
   8   3  -7    3.90    2.10
   8   3  -7    6.20    2.20
   8   3  -7    6.90    3.50
  -8  -3   7    8.30    2.30
  -8  -3   7    8.10    1.70
   7   3  -7   -1.80    4.20
   7   3  -7   -1.70    1.50
   7   3  -7   -3.60    2.40
   7   3  -7    0.60    1.80
  -7  -3   7    0.00    1.50
  -7  -3   7    0.20    1.10
  -7  -3   7    3.20    2.20
   6   3  -7   -0.30    2.30
   6   3  -7   -2.30    3.80
   6   3  -7   -1.80    1.30
   6   3  -7    1.30    1.50
   6   3  -7   -3.00    2.50
  -6  -3   7   -0.10    1.20
  -6  -3   7   -0.40    1.60
  -6  -3   7    0.90    1.40
  -6  -3   7    1.20    1.30
  -6  -3   7   -0.10    0.90
   5   3  -7  234.78    9.60
   5   3  -7  189.48   15.90
   5   3  -7  231.28    9.60
   5   3  -7  223.48   11.30
  -5  -3   7  224.88   10.30
  -5  -3   7  236.28   11.00
  -5  -3   7  212.38    9.50
  -5  -3   7  232.28   10.50
  -5  -3   7  217.98   10.40
   4   3  -7   -0.70    1.90
   4   3  -7    0.80    2.90
   4   3  -7    2.20    1.10
  -4  -3   7   -0.10    0.60
  -4  -3   7   -0.80    1.10
  -4  -3   7    0.70    1.60
  -4  -3   7   -0.30    1.00
  -4  -3   7    0.20    0.80
   3   3  -7   59.69    3.40
   3   3  -7   60.69    4.40
   3   3  -7   59.99    7.60
  -3  -3   7   58.99    4.50
  -3  -3   7   59.19    2.80
  -3  -3   7   59.69    3.90
  -3  -3   7   64.09    4.10
  -3  -3   7   59.39    3.30
   2   3  -7    5.10    1.80
   2   3  -7    4.30    2.40
  -2  -3   7    4.60    2.40
  -2  -3   7    6.10    1.70
  -2  -3   7    5.30    1.40
   1   3  -7   30.80    2.70
   1   3  -7   29.20    4.50
  -1  -3   7   32.60    1.50
  -1  -3   7   32.30    3.10
  -1  -3   7   31.10    2.20
  -1  -3   7   29.60    3.60
  -1  -3   7   36.50    2.60
  -1  -3   7   32.10    1.90
   0   3  -7   38.10    2.90
   0   3  -7   39.00    4.90
   0  -3   7   41.10    1.70
   0  -3   7   39.70    2.30
   0  -3   7   38.10    2.70
   0  -3   7   39.10    2.40
   0  -3   7   38.80    3.10
   0  -3   7   36.60    3.90
  -1   3  -7  130.19    6.90
  -1   3  -7  131.09    6.70
  -1   3  -7  142.89    9.50
   1  -3   7  144.59    6.70
   1  -3   7  148.99    6.20
   1  -3   7  144.19    7.90
   1  -3   7  143.69    6.60
   1  -3   7  145.09    5.80
   1  -3   7  135.79    6.80
  -2   3  -7  246.28   11.80
  -2   3  -7  262.97   14.20
  -2   3  -7  242.68   11.20
  -2   3  -7  253.67   11.50
   2  -3   7  276.17   11.60
   2  -3   7  273.27   11.30
   2  -3   7  254.87   11.20
  -3   3  -7  819.42   30.80
  -3   3  -7  769.92   33.00
  -3   3  -7  758.82   33.10
  -3   3  -7  788.62   32.20
  -3   3  -7  794.72   35.30
   3  -3   7  806.82   32.10
   3  -3   7  860.01   30.90
   3  -3   7  858.91   32.40
  -4   3  -7    0.70    1.50
  -4   3  -7    1.20    0.40
  -4   3  -7    0.60    1.40
  -4   3  -7    1.00    1.10
  -4   3  -7    3.70    1.90
   4  -3   7    3.00    1.90
   4  -3   7    2.20    1.40
   4  -3   7    1.90    1.30
  -5   3  -7    5.80    2.10
  -5   3  -7    7.80    0.90
  -5   3  -7    8.90    2.50
  -5   3  -7   12.90    3.40
  -5   3  -7    8.70    1.90
   5  -3   7    8.30    2.70
   5  -3   7    9.40    2.10
   5  -3   7    7.00    1.80
  -6   3  -7   -0.60    2.40
  -6   3  -7    0.20    1.40
  -6   3  -7    2.50    2.00
  -6   3  -7    0.60    1.20
  -6   3  -7    0.90    0.60
   6  -3   7    0.30    1.40
   6  -3   7    1.50    1.90
   6  -3   7    0.00    2.60
   6  -3   7   -0.10    1.30
  -7   3  -7    4.80    1.90
  -7   3  -7    1.00    1.60
  -7   3  -7    8.60    4.10
   7  -3   7   -0.40    3.10
   7  -3   7    3.80    2.00
   7  -3   7    4.80    2.40
   7  -3   7    2.30    1.70
  -8   3  -7   44.20    4.30
  -8   3  -7   39.90    6.20
  -8   3  -7   47.60    8.40
   8  -3   7   42.60    5.60
   8  -3   7   40.40    4.20
   8  -3   7   42.20    4.40
   9   2  -7    2.40    2.40
   9   2  -7    0.10    3.10
  -9  -2   7    1.40    1.30
  -9  -2   7    1.80    1.30
   8   2  -7   13.70    2.70
   8   2  -7   19.80    3.90
   8   2  -7   12.40    2.60
  -8  -2   7   18.30    2.30
  -8  -2   7   20.80    2.30
  -8  -2   7   19.20    2.90
   7   2  -7   48.60    5.50
   7   2  -7   54.59    4.10
   7   2  -7   48.00    3.90
   7   2  -7   44.90    9.50
  -7  -2   7   58.79    3.70
  -7  -2   7   61.19    3.60
  -7  -2   7   59.29    5.00
  -7  -2   7   53.29    4.00
   6   2  -7   16.60    2.30
   6   2  -7    4.60    4.10
   6   2  -7   11.90    2.10
   6   2  -7   14.10    3.00
  -6  -2   7   11.20    2.00
  -6  -2   7   14.10    2.70
  -6  -2   7   15.90    1.90
  -6  -2   7   14.00    2.30
   5   2  -7   46.00    3.30
   5   2  -7   50.69    4.70
   5   2  -7   41.00    7.90
   5   2  -7   48.40    3.40
  -5  -2   7   45.60    2.90
  -5  -2   7   49.50    3.50
  -5  -2   7   48.50    3.70
  -5  -2   7   48.40    3.70
   4   2  -7    0.70    2.30
   4   2  -7   -0.70    1.10
  -4  -2   7    0.80    0.70
  -4  -2   7    3.20    1.60
  -4  -2   7    2.40    1.20
  -4  -2   7    0.80    0.80
   3   2  -7    3.20    1.60
   3   2  -7    0.70    1.20
   3   2  -7   -0.20    1.70
  -3  -2   7    1.80    0.80
  -3  -2   7    3.00    2.00
  -3  -2   7    1.20    0.60
  -3  -2   7    1.40    1.10
  -3  -2   7    2.10    1.30
   2   2  -7   -0.20    1.50
   2   2  -7    0.10    1.30
  -2  -2   7    0.80    1.90
  -2  -2   7   -0.60    0.70
  -2  -2   7    1.30    1.20
  -2  -2   7   -0.60    0.40
  -2  -2   7   -0.10    0.70
   1   2  -7   57.79    3.70
   1   2  -7   60.79    5.70
   1   2  -7   65.89    3.40
  -1  -2   7   63.29    2.70
  -1  -2   7   63.49    3.00
  -1  -2   7   56.49    4.40
  -1  -2   7   60.89    3.00
  -1  -2   7   61.39    3.50
  -1  -2   7   65.59    3.80
   0   2  -7   42.60    4.80
   0   2  -7   38.70    2.60
   0   2  -7   41.40    2.80
   0   2  -7   46.20    2.40
   0  -2   7   41.80    2.20
   0  -2   7   41.90    2.50
   0  -2   7   41.00    4.10
   0  -2   7   46.80    3.10
   0  -2   7   42.50    3.00
  -1   2  -7  270.87   11.90
  -1   2  -7  273.87   14.60
  -1   2  -7  274.67   12.20
  -1   2  -7  267.07   11.70
   1  -2   7  291.27   12.00
   1  -2   7  305.47   11.70
   1  -2   7  301.77   12.00
   1  -2   7  289.47   11.20
   1  -2   7  288.17   12.00
   1  -2   7  267.77   12.80
  -2   2  -7  474.65   19.30
  -2   2  -7  464.85   19.60
  -2   2  -7  465.65   18.10
  -2   2  -7  466.25   19.90
  -2   2  -7  474.55   22.20
   2  -2   7  473.25   19.40
   2  -2   7  486.35   18.40
   2  -2   7  495.75   19.30
   2  -2   7  493.05   19.60
   2  -2   7  460.95   20.10
  -3   2  -7  177.08    8.30
  -3   2  -7  180.78    9.20
  -3   2  -7  180.18    9.10
  -3   2  -7  192.48   11.20
   3  -2   7  197.28    9.10
   3  -2   7  174.68    8.20
   3  -2   7  181.38    7.20
   3  -2   7  189.18    8.90
   3  -2   7  185.98    9.40
  -4   2  -7  680.23   28.10
  -4   2  -7  657.43   29.20
  -4   2  -7  693.43   29.40
  -4   2  -7  710.13   31.50
   4  -2   7  682.13   28.80
   4  -2   7  765.72   29.10
   4  -2   7  704.53   28.60
   4  -2   7  710.03   28.00
  -5   2  -7  112.59    8.60
  -5   2  -7  113.19    7.50
  -5   2  -7  111.39    7.10
  -5   2  -7  111.89    6.10
   5  -2   7  117.99    6.90
   5  -2   7  117.49    6.00
   5  -2   7  107.79    6.80
  -6   2  -7   40.20    4.40
  -6   2  -7   45.90    3.60
  -6   2  -7   44.90    5.60
  -6   2  -7   47.20    5.10
   6  -2   7   48.50    4.40
   6  -2   7   47.20    3.60
   6  -2   7   51.39    5.40
  -7   2  -7    4.80    2.20
  -7   2  -7    9.90    2.50
  -7   2  -7    7.50    3.20
  -7   2  -7    6.70    1.90
   7  -2   7    3.80    3.30
   7  -2   7    2.80    3.10
   7  -2   7    7.90    2.10
   7  -2   7    8.80    2.40
   7  -2   7    6.60    2.40
  -8   2  -7   44.40    6.30
  -8   2  -7   54.59    6.90
  -8   2  -7   46.40    4.30
   8  -2   7   53.09    5.30
   8  -2   7   50.69    4.50
   8  -2   7   41.70    5.50
   8  -2   7   53.59    4.40
  -9   2  -7   48.00    4.70
   9  -2   7   39.10    6.00
   9   1  -7   23.40    3.40
   9   1  -7   23.60    4.50
  -9  -1   7   32.70    2.90
  -9  -1   7   27.00    3.20
   8   1  -7    0.60    2.40
   8   1  -7   -1.70    2.00
   8   1  -7    2.30    2.30
   7   1  -7    6.10    4.00
   7   1  -7   11.60    3.10
   7   1  -7   11.20    2.30
   7   1  -7    9.00    2.10
  -7  -1   7   13.40    2.10
   6   1  -7   52.39    8.80
   6   1  -7   68.39    5.20
   6   1  -7   67.99    4.40
   6   1  -7   65.79    4.30
  -6  -1   7   71.59    3.80
  -6  -1   7   86.19    4.30
  -6  -1   7   72.29    4.70
  -6  -1   7   66.69    4.20
   5   1  -7   29.60    3.50
   5   1  -7   32.50    3.00
   5   1  -7   34.80    3.00
  -5  -1   7   32.30    2.30
  -5  -1   7   34.60    2.70
  -5  -1   7   33.90    3.20
  -5  -1   7   39.10    2.60
   4   1  -7   62.19    3.90
   4   1  -7   76.99    4.90
   4   1  -7   67.59    7.10
   4   1  -7   67.39    3.90
  -4  -1   7   67.59    3.80
  -4  -1   7   61.09    4.50
  -4  -1   7   71.09    3.60
  -4  -1   7   66.29    3.50
   3   1  -7    4.80    2.00
   3   1  -7    7.30    1.80
   3   1  -7    5.70    1.30
  -3  -1   7    5.80    1.00
  -3  -1   7    6.50    2.00
  -3  -1   7    4.80    1.00
  -3  -1   7    5.60    1.20
   2   1  -7  169.48    7.10
   2   1  -7  165.88    7.80
   2   1  -7  184.38    7.90
   2   1  -7  166.18   10.20
  -2  -1   7  168.98    7.10
  -2  -1   7  176.08    7.50
  -2  -1   7  167.88    7.20
  -2  -1   7  165.38    8.30
   1   1  -7   65.09    3.20
   1   1  -7   65.19    3.70
   1   1  -7   66.99    5.80
   1   1  -7   72.19    3.80
   1   1  -7   73.89    3.80
  -1  -1   7   72.99    4.00
  -1  -1   7   70.69    3.30
  -1  -1   7   64.99    4.60
  -1  -1   7   70.09    3.20
  -1  -1   7   73.59    3.70
   0   1  -7  148.99    6.80
   0   1  -7  161.08    6.60
   0   1  -7  156.38    6.90
   0   1  -7  165.68    6.90
   0   1  -7  155.48    9.40
   0   1  -7  152.08    6.40
   0  -1   7  140.89    7.70
   0  -1   7  162.08    6.30
   0  -1   7  158.58    7.10
   0  -1   7  156.08    6.90
   0  -1   7  159.28    7.00
   0  -1   7  151.88    6.40
  -1   1  -7  102.79    5.30
  -1   1  -7  113.89    5.10
  -1   1  -7  113.99    4.40
  -1   1  -7  105.39    7.30
  -1   1  -7   99.69    5.00
  -1   1  -7  100.59    4.90
  -1   1  -7  108.79    4.30
   1  -1   7  107.79    4.50
   1  -1   7  110.69    5.40
   1  -1   7  107.49    5.10
   1  -1   7  105.39    6.20
   1  -1   7  108.19    5.40
  -2   1  -7   39.90    3.00
  -2   1  -7   37.20    2.50
  -2   1  -7   40.30    4.40
  -2   1  -7   38.90    2.80
  -2   1  -7   40.80    2.00
   2  -1   7   38.10    3.90
   2  -1   7   39.70    2.60
   2  -1   7   43.10    3.10
   2  -1   7   39.00    1.80
   2  -1   7   41.30    3.30
   2  -1   7   40.40    3.40
  -3   1  -7  464.95   20.40
  -3   1  -7  481.05   20.50
  -3   1  -7  517.85   23.10
  -3   1  -7  459.55   19.60
   3  -1   7  512.05   20.80
   3  -1   7  489.45   19.50
   3  -1   7  501.25   20.30
   3  -1   7  487.15   18.60
   3  -1   7  467.35   20.30
  -4   1  -7  362.16   16.60
  -4   1  -7  356.16   15.30
  -4   1  -7  360.96   16.40
   4  -1   7  361.76   16.00
   4  -1   7  365.36   16.00
   4  -1   7  384.36   16.60
   4  -1   7  380.36   15.30
  -5   1  -7    1.00    1.30
  -5   1  -7    3.30    2.00
  -5   1  -7    0.90    1.00
   5  -1   7    0.60    2.20
   5  -1   7    2.20    1.20
   5  -1   7    1.30    1.70
   5  -1   7    1.40    2.20
  -6   1  -7   31.20    5.10
  -6   1  -7   23.10    3.40
  -6   1  -7   22.30    2.60
   6  -1   7   21.30    3.50
   6  -1   7   24.90    3.80
   6  -1   7   25.20    2.80
   6  -1   7   26.20    3.60
  -7   1  -7   16.60    2.50
  -7   1  -7   23.60    5.00
  -7   1  -7   28.10    3.80
   7  -1   7   18.10    3.70
   7  -1   7   20.90    3.50
   7  -1   7   16.90    3.70
   7  -1   7   13.80    2.30
  -8   1  -7    5.70    1.90
  -8   1  -7    6.80    3.80
   8  -1   7    1.30    3.10
   8  -1   7    5.20    2.80
  -9   1  -7   45.30    4.40
  -9   1  -7   35.30    6.40
   9  -1   7   38.60    5.50
   9  -1   7   44.70    5.70
   9   0  -7    3.30    2.70
   9   0  -7    0.10    2.60
  -9   0   7    6.80    1.50
  -9   0   7    4.50    1.80
   8   0  -7  158.78    8.30
   8   0  -7  167.78    9.80
  -8   0   7  168.38    7.80
  -8   0   7  174.38    8.50
   7   0  -7   90.19    6.30
   7   0  -7   80.19    5.30
   7   0  -7   87.99    5.40
  -7   0   7   94.09    5.20
  -7   0   7   84.59    4.60
   6   0  -7   88.19    5.20
   6   0  -7   91.59    6.00
   6   0  -7   93.69    5.30
   6   0  -7   74.39    9.10
  -6   0   7   94.99    4.70
  -6   0   7  101.49    5.10
  -6   0   7   98.89    5.00
   5   0  -7   66.39    4.00
   5   0  -7   73.89    4.90
   5   0  -7   69.29    4.10
   5   0  -7   54.99    7.10
  -5   0   7   71.79    3.80
  -5   0   7   69.29    3.80
  -5   0   7   72.59    3.90
  -5   0   7   72.39    4.70
  -5   0   7   68.69    3.70
   4   0  -7   11.00    1.70
   4   0  -7   13.20    2.20
   4   0  -7   12.00    1.90
   4   0  -7    9.30    2.60
  -4   0   7   10.60    1.40
  -4   0   7   12.00    1.40
  -4   0   7   11.30    1.30
  -4   0   7   13.80    1.60
  -4   0   7   10.90    2.20
   3   0  -7   16.70    2.20
   3   0  -7   17.70    3.60
   3   0  -7   14.60    1.80
   3   0  -7   18.20    2.40
  -3   0   7   14.20    2.50
  -3   0   7   16.10    2.00
  -3   0   7   18.70    1.50
  -3   0   7   16.90    1.60
  -3   0   7   16.60    1.50
   2   0  -7  166.98    7.10
   2   0  -7  163.08    9.50
   2   0  -7  155.28    7.00
   2   0  -7  157.38    7.10
   2   0  -7  153.58    6.40
   2   0  -7  162.18    7.00
  -2   0   7  160.48    6.60
  -2   0   7  152.68    6.60
  -2   0   7  159.38    6.70
  -2   0   7  142.09    7.70
   1   0  -7  479.25   18.00
   1   0  -7  456.45   20.70
   1   0  -7  443.66   17.80
   1   0  -7  448.16   18.00
   1   0  -7  440.86   17.90
  -1   0   7  436.76   18.80
  -1   0   7  441.76   18.30
  -1   0   7  453.05   17.70
  -1   0   7  451.55   17.60
  -1   0   7  459.55   17.70
   0   0  -7    1.60    0.70
   0   0  -7    2.30    0.80
   0   0  -7    2.50    1.40
   0   0  -7    2.00    0.70
   0   0  -7    1.70    0.90
   0   0   7    2.40    0.60
   0   0   7    2.70    1.30
   0   0   7    0.50    1.80
   0   0   7    2.10    0.70
   0   0   7    2.10    0.60
  -1   0  -7 1059.59   41.80
  -1   0  -7 1008.40   41.10
  -1   0  -7 1031.50   41.20
  -1   0  -7 1046.20   41.80
  -1   0  -7 1100.49   44.60
   1   0   7 1087.89   40.90
   1   0   7 1105.99   42.70
   1   0   7 1056.49   42.00
   1   0   7 1112.09   41.80
   1   0   7 1094.99   42.20
  -2   0  -7  101.59    5.40
  -2   0  -7   97.79    4.10
  -2   0  -7   95.39    4.60
  -2   0  -7   92.19    4.60
  -2   0  -7   98.19    5.40
   2   0   7  102.49    4.60
   2   0   7  107.29    5.80
   2   0   7  100.99    5.90
   2   0   7  102.79    5.60
   2   0   7  102.19    4.10
   2   0   7  103.69    5.40
  -3   0  -7  277.97   12.90
  -3   0  -7  279.07   12.90
  -3   0  -7  279.07   11.90
   3   0   7  293.97   12.80
   3   0   7  298.27   11.90
   3   0   7  284.97   12.70
   3   0   7  301.67   13.50
  -4   0  -7  441.46   19.90
  -4   0  -7  452.95   18.50
  -4   0  -7  446.46   19.70
   4   0   7  462.85   20.20
   4   0   7  453.85   19.00
   4   0   7  473.15   18.40
   4   0   7  455.85   19.30
  -5   0  -7    4.50    1.70
  -5   0  -7    2.20    1.00
  -5   0  -7    3.30    2.00
   5   0   7    4.20    2.30
   5   0   7    5.10    2.10
   5   0   7    3.50    1.20
   5   0   7    1.60    2.00
  -6   0  -7   93.09    6.50
  -6   0  -7   80.49    4.90
  -6   0  -7   81.59    6.60
   6   0   7   88.09    6.80
   6   0   7   87.39    5.30
   6   0   7   85.49    6.30
   6   0   7   91.59    5.10
  -7   0  -7   22.70    2.80
  -7   0  -7   28.30    3.60
  -7   0  -7   25.40    5.10
   7   0   7   22.00    4.10
   7   0   7   21.90    4.10
  -8   0  -7   19.80    5.10
  -8   0  -7   14.60    2.50
   8   0   7   16.60    4.00
   8   0   7   16.10    3.90
  -9   0  -7    1.50    1.50
   9   0   7    2.70    3.50
   9   0   7    3.10    2.80
   9  -1  -7    8.70    3.20
   9  -1  -7    7.40    2.80
  -9   1   7    8.60    2.20
  -9   1   7    7.40    1.70
   8  -1  -7    2.40    2.60
   8  -1  -7   -2.10    2.20
  -8   1   7   -0.90    1.20
  -8   1   7    0.80    1.10
   7  -1  -7   23.90    3.10
   7  -1  -7   19.70    2.80
   7  -1  -7   19.30    3.10
  -7   1   7   20.80    2.20
  -7   1   7   20.80    2.50
   6  -1  -7    4.10    2.00
   6  -1  -7    4.10    2.00
   6  -1  -7    3.70    1.80
  -6   1   7    2.90    1.50
  -6   1   7    2.80    1.30
  -6   1   7    5.50    1.30
   5  -1  -7  505.45   25.60
   5  -1  -7  560.34   23.20
   5  -1  -7  541.35   22.60
   5  -1  -7  552.44   22.60
  -5   1   7  577.24   22.40
  -5   1   7  578.74   22.80
  -5   1   7  593.54   23.10
  -5   1   7  602.14   22.50
   4  -1  -7   35.90    4.40
   4  -1  -7   35.40    2.80
   4  -1  -7   31.70    2.80
   4  -1  -7   36.50    3.00
   4  -1  -7   34.60    2.10
  -4   1   7   36.90    3.10
  -4   1   7   35.50    2.10
  -4   1   7   31.00    2.20
  -4   1   7   34.70    3.30
  -4   1   7   34.00    2.50
   3  -1  -7  397.36   16.10
   3  -1  -7  404.36   16.20
   3  -1  -7  392.46   16.10
   3  -1  -7  416.76   18.80
   3  -1  -7  404.96   16.30
   3  -1  -7  366.06   16.00
  -3   1   7  408.36   16.10
  -3   1   7  390.26   16.90
  -3   1   7  396.76   15.90
  -3   1   7  400.86   16.60
   2  -1  -7  358.16   14.00
   2  -1  -7  344.47   14.00
   2  -1  -7  326.77   14.00
   2  -1  -7  359.16   16.60
   2  -1  -7  338.27   14.00
  -2   1   7  332.77   14.80
  -2   1   7  327.97   13.70
  -2   1   7  343.27   14.70
  -2   1   7  346.37   14.00
  -2   1   7  373.26   13.30
   1  -1  -7    0.50    0.70
   1  -1  -7    0.20    1.00
   1  -1  -7    0.90    0.70
   1  -1  -7   -0.60    0.90
  -1   1   7   -0.60    1.20
  -1   1   7   -0.40    1.50
  -1   1   7   -0.50    0.60
  -1   1   7   -0.20    0.50
   0  -1  -7   17.40    1.10
   0  -1  -7   16.20    1.20
   0  -1  -7   15.50    1.90
   0  -1  -7   15.30    2.20
   0  -1  -7   20.10    3.20
   0   1   7   15.70    2.00
   0   1   7   17.40    1.60
   0   1   7   17.20    2.60
   0   1   7   20.60    2.80
   0   1   7   16.50    1.30
  -1  -1  -7   99.19    4.40
  -1  -1  -7   99.99    5.40
  -1  -1  -7   99.09    5.60
  -1  -1  -7  105.59    4.50
  -1  -1  -7  103.59    4.70
   1   1   7  102.59    5.70
   1   1   7  104.59    6.00
   1   1   7  103.19    4.40
   1   1   7  107.89    5.50
  -2  -1  -7   61.39    4.20
  -2  -1  -7   57.39    3.10
  -2  -1  -7   60.99    4.00
  -2  -1  -7   56.59    3.20
  -2  -1  -7   61.79    3.10
   2   1   7   63.49    4.20
   2   1   7   67.69    3.00
   2   1   7   63.59    2.80
   2   1   7   62.89    4.20
   2   1   7   67.79    4.70
   2   1   7   62.49    4.90
  -3  -1  -7   83.69    4.10
  -3  -1  -7   81.29    5.30
  -3  -1  -7   82.39    4.00
  -3  -1  -7   82.09    5.20
   3   1   7   89.29    6.00
   3   1   7   91.79    4.10
   3   1   7   84.09    5.10
   3   1   7   88.59    5.00
  -4  -1  -7  179.08    8.20
  -4  -1  -7  184.78    9.90
  -4  -1  -7  175.58    9.50
  -4  -1  -7  186.08    8.00
   4   1   7  193.88    8.80
   4   1   7  200.78    9.40
   4   1   7  193.78    8.20
   4   1   7  196.98   10.40
  -5  -1  -7    3.30    1.60
  -5  -1  -7    3.40    2.00
  -5  -1  -7    2.40    1.00
   5   1   7    1.60    2.10
   5   1   7    1.90    2.00
   5   1   7    2.40    1.50
  -6  -1  -7   27.90    4.80
  -6  -1  -7   21.80    2.40
  -6  -1  -7   26.00    3.50
   6   1   7   22.70    4.20
   6   1   7   22.00    3.40
  -7  -1  -7   53.49    5.90
  -7  -1  -7   54.69    4.10
   7   1   7   55.89    5.90
   7   1   7   62.89    6.80
  -8  -1  -7    5.90    1.80
  -8  -1  -7   14.10    4.60
   8   1   7   10.00    4.00
   8   1   7   11.80    3.50
   9  -2  -7    3.00    3.00
   9  -2  -7   -1.10    2.20
  -9   2   7    3.80    1.70
  -9   2   7    0.70    1.10
   8  -2  -7   17.50    3.10
   8  -2  -7   12.00    2.90
  -8   2   7   17.10    2.60
  -8   2   7   16.40    2.10
   7  -2  -7    0.00    2.10
   7  -2  -7    1.50    1.90
   7  -2  -7    1.20    2.20
  -7   2   7    0.40    1.30
  -7   2   7   -0.60    1.00
   6  -2  -7    3.40    1.90
   6  -2  -7    4.70    2.10
   6  -2  -7    5.30    1.80
  -6   2   7    3.20    1.90
  -6   2   7    5.30    1.40
  -6   2   7    7.10    1.40
   5  -2  -7  217.78   13.30
   5  -2  -7  246.48   10.80
   5  -2  -7  245.78   10.60
   5  -2  -7  237.78   10.50
  -5   2   7  245.68   10.70
  -5   2   7  240.68   10.20
  -5   2   7  251.37   11.40
   4  -2  -7    2.90    1.70
   4  -2  -7    3.10    1.30
   4  -2  -7    4.40    1.20
   4  -2  -7    4.40    1.60
   4  -2  -7    2.60    1.40
  -4   2   7    2.00    1.10
  -4   2   7    3.50    1.00
  -4   2   7    2.40    1.60
   3  -2  -7  326.07   15.20
   3  -2  -7  312.67   12.90
   3  -2  -7  305.67   12.90
   3  -2  -7  330.47   13.40
   3  -2  -7  309.37   12.80
  -3   2   7  298.27   12.60
  -3   2   7  317.87   13.10
  -3   2   7  309.47   13.90
  -3   2   7  302.97   12.30
  -3   2   7  309.47   13.70
   2  -2  -7   12.60    1.40
   2  -2  -7   13.50    2.00
   2  -2  -7   10.80    1.20
   2  -2  -7    9.80    1.60
   2  -2  -7   11.60    2.60
  -2   2   7   10.20    2.20
  -2   2   7    9.70    1.20
  -2   2   7    9.00    1.30
  -2   2   7    9.20    2.10
   1  -2  -7  127.69    6.70
   1  -2  -7  136.79    6.20
   1  -2  -7  133.49    5.50
   1  -2  -7  139.49    5.50
   1  -2  -7  149.09    8.50
  -1   2   7  143.09    6.80
  -1   2   7  135.39    7.00
  -1   2   7  136.49    6.20
  -1   2   7  137.09    7.50
  -1   2   7  132.89    5.90
   0  -2  -7    2.30    1.60
   0  -2  -7    1.70    1.40
   0   2   7    1.00    1.40
   0   2   7    1.70    1.30
   0   2   7    0.80    1.40
   0   2   7    0.30    0.80
   0   2   7    0.80    0.60
  -1  -2  -7  101.59    4.30
  -1  -2  -7  100.09    4.40
  -1  -2  -7  103.59    6.10
  -1  -2  -7   97.69    5.70
  -1  -2  -7  106.39    5.00
   1   2   7  110.09    6.20
   1   2   7   98.79    5.40
   1   2   7  103.19    5.50
   1   2   7  101.69    4.50
   1   2   7  103.39    5.80
  -2  -2  -7    0.10    0.90
  -2  -2  -7   -0.90    1.50
  -2  -2  -7    0.60    0.40
  -2  -2  -7    0.30    1.30
  -2  -2  -7    0.80    0.80
   2   2   7    0.00    1.50
   2   2   7   -0.70    1.30
   2   2   7    0.60    1.30
   2   2   7   -1.60    1.70
  -3  -2  -7  196.08    8.10
  -3  -2  -7  188.28    8.40
  -3  -2  -7  182.78    9.80
  -3  -2  -7  187.88    9.60
  -3  -2  -7  192.68    8.20
   3   2   7  190.08    9.10
   3   2   7  197.38   10.30
   3   2   7  200.88    9.60
   3   2   7  194.98    8.70
  -4  -2  -7  281.67   12.40
  -4  -2  -7  294.77   13.90
  -4  -2  -7  292.07   14.20
  -4  -2  -7  292.97   12.20
   4   2   7  281.57   13.10
   4   2   7  320.37   15.00
   4   2   7  300.67   12.50
  -5  -2  -7   16.40    1.80
  -5  -2  -7   17.70    3.60
  -5  -2  -7   15.30    1.80
  -5  -2  -7   15.80    2.90
   5   2   7   16.60    2.00
   5   2   7   15.50    3.60
   5   2   7   17.20    2.80
  -6  -2  -7   55.69    3.80
  -6  -2  -7   62.59    6.10
  -6  -2  -7   65.69    5.30
   6   2   7   50.79    4.90
   6   2   7   67.49    6.70
  -7  -2  -7   92.99    7.90
  -7  -2  -7   94.59    5.60
   7   2   7   99.69    7.20
   7   2   7  100.79    8.50
  -8  -2  -7  231.68   14.30
  -8  -2  -7  224.08   11.20
   8   2   7  245.78   14.90
   8   2   7  232.18   12.50
  -9  -2  -7   33.10    3.60
   9   2   7   25.10    5.60
   9   2   7   28.70    4.70
   9  -3  -7   -1.00    1.90
   9  -3  -7   -5.00    2.70
  -9   3   7   -1.60    1.30
  -9   3   7    0.10    1.20
   8  -3  -7   34.50    4.00
   8  -3  -7   36.40    4.00
  -8   3   7   31.10    3.60
  -8   3   7   30.50    2.80
   7  -3  -7   46.70    4.40
   7  -3  -7   37.30    4.00
  -7   3   7   37.50    3.00
  -7   3   7   46.30    3.90
  -7   3   7   37.80    4.90
   6  -3  -7   15.60    2.50
   6  -3  -7   14.90    2.70
   6  -3  -7   12.30    2.10
  -6   3   7    6.30    2.50
  -6   3   7   15.50    2.00
  -6   3   7   14.70    2.30
   5  -3  -7  237.58   10.50
   5  -3  -7  225.88   10.40
   5  -3  -7  246.48   10.50
  -5   3   7  247.18   10.80
  -5   3   7  230.58   11.70
  -5   3   7  230.48   10.10
   4  -3  -7    4.10    1.60
   4  -3  -7    4.80    1.50
   4  -3  -7    4.40    1.80
   4  -3  -7    5.80    1.30
  -4   3   7    5.30    1.40
  -4   3   7    6.40    1.30
  -4   3   7    3.10    1.90
   3  -3  -7  111.49    5.40
   3  -3  -7  105.99    4.90
   3  -3  -7  104.29    5.40
   3  -3  -7  117.99    7.00
  -3   3   7  105.29    6.70
  -3   3   7  103.29    5.40
  -3   3   7  105.39    5.00
   2  -3  -7   63.19    2.80
   2  -3  -7   62.09    3.80
   2  -3  -7   67.59    5.20
   2  -3  -7   64.49    3.70
   2  -3  -7   63.09    3.00
  -2   3   7   64.89    3.80
  -2   3   7   61.39    5.10
  -2   3   7   61.99    3.30
   1  -3  -7  233.88    9.70
   1  -3  -7  226.08   10.80
  -1   3   7  228.88    9.60
  -1   3   7  243.68   11.60
  -1   3   7  223.68   10.00
  -1   3   7  233.68   10.50
  -1   3   7  232.68   10.50
   0  -3  -7  128.09    7.10
   0  -3  -7  132.39    5.90
   0   3   7  133.69    7.10
   0   3   7  133.59    6.60
   0   3   7  132.29    6.30
   0   3   7  132.39    6.70
   0   3   7  138.69    7.40
   0   3   7  133.39    8.00
   0   3   7  129.19    5.80
  -1  -3  -7  585.14   23.10
  -1  -3  -7  548.75   24.00
  -1  -3  -7  576.54   22.00
  -1  -3  -7  551.64   24.40
  -1  -3  -7  589.94   22.10
   1   3   7  570.44   23.30
   1   3   7  571.54   23.20
   1   3   7  583.14   24.00
   1   3   7  594.14   24.50
  -2  -3  -7  482.95   21.60
  -2  -3  -7  493.35   20.10
  -2  -3  -7  512.25   19.30
  -2  -3  -7  488.05   21.30
   2   3   7  498.15   20.40
   2   3   7  513.65   21.90
   2   3   7  494.35   21.10
   2   3   7  481.75   20.10
  -3  -3  -7   20.10    1.90
  -3  -3  -7   18.00    2.20
  -3  -3  -7   21.50    3.40
  -3  -3  -7   21.40    3.10
  -3  -3  -7   20.80    1.60
   3   3   7   23.00    3.60
   3   3   7   20.50    2.60
   3   3   7   21.60    2.10
   3   3   7   25.70    3.50
  -4  -3  -7  160.78    9.00
  -4  -3  -7  159.38    7.20
  -4  -3  -7  153.08    7.60
  -4  -3  -7  150.88    9.20
   4   3   7  172.78    9.10
   4   3   7  171.68    8.30
   4   3   7  177.58   10.20
   4   3   7  159.78    7.20
  -5  -3  -7   22.00    3.10
  -5  -3  -7   17.30    3.70
  -5  -3  -7   17.20    2.20
  -5  -3  -7   15.50    1.80
   5   3   7   17.60    4.00
   5   3   7   18.90    3.40
   5   3   7   18.20    2.80
  -6  -3  -7   71.69    4.50
  -6  -3  -7   80.19    6.80
   6   3   7   78.49    5.60
   6   3   7   84.49    7.70
  -7  -3  -7  213.88   13.00
  -7  -3  -7  197.78    9.90
   7   3   7  231.18   14.00
   7   3   7  201.78   10.80
  -8  -3  -7   63.39    4.90
  -8  -3  -7   87.99    7.80
   8   3   7   69.49    6.00
   8   3   7   73.59    8.50
   8  -4  -7    0.60    1.70
   8  -4  -7    0.30    3.00
  -8   4   7   -0.50    1.20
  -8   4   7   -0.50    1.40
   7  -4  -7   -1.00    1.40
   7  -4  -7   -1.10    2.30
  -7   4   7    1.10    1.50
  -7   4   7   -1.60    2.20
  -7   4   7    1.10    1.20
   6  -4  -7   29.90    2.90
   6  -4  -7   32.20    3.50
   6  -4  -7   31.00    3.30
  -6   4   7   23.50    3.80
  -6   4   7   29.50    3.20
  -6   4   7   32.90    2.60
   5  -4  -7   97.69    5.60
   5  -4  -7   85.19    5.40
   5  -4  -7   91.49    4.90
  -5   4   7   91.69    5.40
  -5   4   7   92.29    4.80
  -5   4   7   87.79    6.70
   4  -4  -7  285.67   12.30
   4  -4  -7  279.97   12.30
   4  -4  -7  276.97   11.70
  -4   4   7  289.37   12.00
  -4   4   7  282.07   14.00
  -4   4   7  294.77   12.60
   3  -4  -7   59.39    2.90
   3  -4  -7   59.39    3.80
   3  -4  -7   52.49    3.80
   3  -4  -7   64.49    4.80
  -3   4   7   59.29    3.40
  -3   4   7   56.19    5.20
  -3   4   7   57.09    3.80
   2  -4  -7  325.57   13.70
   2  -4  -7  376.46   16.30
   2  -4  -7  331.17   13.00
   2  -4  -7  320.87   13.60
  -2   4   7  324.97   14.10
  -2   4   7  328.27   14.40
  -2   4   7  332.27   13.60
  -2   4   7  317.17   15.60
   1  -4  -7  134.99    6.10
   1  -4  -7  133.39    6.10
   1  -4  -7  127.39    7.60
  -1   4   7  141.79    7.50
  -1   4   7  131.19    6.00
  -1   4   7  127.19    8.10
  -1   4   7  141.79    7.30
  -1   4   7  133.19    6.50
   0  -4  -7   -0.40    1.70
   0  -4  -7    1.00    1.00
   0  -4  -7    0.50    1.10
   0  -4  -7    1.90    1.20
   0   4   7    0.30    1.40
   0   4   7    1.50    2.30
   0   4   7    0.80    1.40
   0   4   7    0.50    1.70
  -1  -4  -7    0.30    2.20
  -1  -4  -7   -0.40    0.80
  -1  -4  -7   -0.20    0.20
  -1  -4  -7    0.80    0.30
  -1  -4  -7    0.20    1.20
  -1  -4  -7   -0.70    1.60
   1   4   7   -0.20    1.30
   1   4   7   -0.60    1.80
   1   4   7    0.10    1.50
  -2  -4  -7  310.47   12.10
  -2  -4  -7  295.17   14.80
  -2  -4  -7  308.67   12.30
  -2  -4  -7  304.97   13.30
  -2  -4  -7  300.87   14.50
   2   4   7  302.47   13.30
   2   4   7  306.97   14.30
   2   4   7  318.27   15.00
  -3  -4  -7   11.10    3.10
  -3  -4  -7   11.20    2.20
  -3  -4  -7   12.10    1.20
  -3  -4  -7   13.60    2.90
   3   4   7   13.30    3.30
   3   4   7   12.40    2.20
   3   4   7   12.80    3.00
  -4  -4  -7   42.20    2.70
  -4  -4  -7   40.60    3.40
  -4  -4  -7   46.50    4.50
  -4  -4  -7   43.40    4.70
   4   4   7   44.10    5.20
   4   4   7   41.70    3.80
   4   4   7   45.00    4.90
  -5  -4  -7   42.90    4.90
  -5  -4  -7   44.70    4.40
  -5  -4  -7   38.40    3.40
  -5  -4  -7   40.20    2.90
   5   4   7   37.60    3.90
   5   4   7   44.80    4.80
   5   4   7   45.40    5.70
  -6  -4  -7    3.80    2.40
  -6  -4  -7   -0.70    0.90
   6   4   7    2.00    2.10
   6   4   7    2.60    2.50
   6   4   7    1.00    2.90
  -7  -4  -7    8.90    3.20
  -7  -4  -7    2.20    1.30
   7   4   7   -2.00    2.00
   7   4   7    4.30    3.80
  -8  -4  -7   20.00    2.50
   8   4   7   13.20    4.80
   8   4   7   13.50    3.20
   8  -5  -7    2.50    1.70
   8  -5  -7    3.00    3.00
  -8   5   7    3.10    1.50
  -8   5   7    1.00    1.80
   7  -5  -7    2.70    2.90
   7  -5  -7    4.60    1.60
  -7   5   7    0.50    2.70
  -7   5   7    3.90    1.50
  -7   5   7    1.40    1.80
   6  -5  -7    0.80    2.40
   6  -5  -7   -0.30    1.10
  -6   5   7    1.80    1.20
  -6   5   7   -2.00    1.40
  -6   5   7   -1.70    2.20
   5  -5  -7    1.00    2.20
   5  -5  -7   -3.80    1.70
   5  -5  -7    0.50    1.00
  -5   5   7   -0.70    1.00
  -5   5   7    0.40    1.40
  -5   5   7   -1.10    2.40
   4  -5  -7   37.00    3.30
   4  -5  -7   36.30    2.40
   4  -5  -7   38.70    3.40
  -4   5   7   31.50    4.40
  -4   5   7   35.60    2.70
  -4   5   7   35.60    3.30
   3  -5  -7    1.50    0.70
   3  -5  -7    1.70    1.50
   3  -5  -7    2.00    1.60
  -3   5   7    0.90    1.00
  -3   5   7    1.30    1.40
  -3   5   7    0.20    2.50
  -3   5   7    2.40    1.60
   2  -5  -7  123.09    6.10
   2  -5  -7  125.29    6.20
   2  -5  -7  125.69    5.40
   2  -5  -7  145.89    8.40
  -2   5   7  126.09    7.00
  -2   5   7  125.69    6.70
  -2   5   7  128.49    8.70
   1  -5  -7   38.60    2.80
   1  -5  -7   42.30    2.90
   1  -5  -7   38.80    4.30
  -1   5   7   39.00    3.30
  -1   5   7   47.80    5.30
  -1   5   7   49.80    4.20
  -1   5   7   43.10    4.10
   0  -5  -7   30.50    2.40
   0  -5  -7   31.40    4.10
   0  -5  -7   33.00    3.10
   0  -5  -7   33.60    2.50
   0   5   7   38.80    4.00
   0   5   7   32.80    3.80
   0   5   7   24.20    4.00
  -1  -5  -7  106.09    4.80
  -1  -5  -7   99.89    4.80
  -1  -5  -7  106.99    4.30
  -1  -5  -7  100.89    7.50
  -1  -5  -7   96.69    7.00
  -1  -5  -7  105.29    6.00
   1   5   7  107.59    8.00
   1   5   7  106.49    6.80
   1   5   7  112.99    7.00
   1   5   7  103.99    5.70
  -2  -5  -7    3.00    2.60
  -2  -5  -7    3.10    2.20
  -2  -5  -7    2.50    1.80
  -2  -5  -7    3.00    0.60
   2   5   7    2.20    2.40
   2   5   7    1.30    2.00
   2   5   7    2.30    1.50
  -3  -5  -7    0.60    0.60
  -3  -5  -7    1.70    1.70
  -3  -5  -7    3.10    2.20
  -3  -5  -7    1.10    2.50
   3   5   7    4.00    2.60
   3   5   7    2.20    1.60
   3   5   7    2.10    2.30
  -4  -5  -7   62.99    6.30
  -4  -5  -7   65.49    3.70
  -4  -5  -7   62.59    4.70
  -4  -5  -7   70.49    5.90
   4   5   7   69.49    6.00
   4   5   7   73.49    4.80
   4   5   7   79.59    7.00
  -5  -5  -7    0.80    0.90
  -5  -5  -7    1.20    2.20
  -5  -5  -7    2.50    1.70
   5   5   7    1.40    2.90
   5   5   7   -0.60    1.60
   5   5   7    2.80    2.90
  -6  -5  -7    1.00    1.10
  -6  -5  -7    5.90    2.90
   6   5   7    0.00    2.70
   6   5   7    2.60    3.30
   6   5   7    0.60    1.90
  -7  -5  -7   22.60    2.40
   7   5   7   14.30    3.80
   7   5   7   17.00    5.00
   7  -6  -7   14.60    3.40
   7  -6  -7   12.10    2.10
  -7   6   7    7.80    2.30
  -7   6   7    9.50    3.80
   6  -6  -7   -0.30    2.40
   6  -6  -7    0.90    1.20
  -6   6   7   -3.80    2.40
  -6   6   7    0.00    1.50
   5  -6  -7    1.20    1.10
   5  -6  -7    0.60    2.40
  -5   6   7   -2.50    2.70
  -5   6   7    0.00    1.50
   4  -6  -7    0.70    0.90
   4  -6  -7    0.10    1.70
   4  -6  -7    1.60    2.00
  -4   6   7   -0.50    1.50
  -4   6   7   -1.40    2.70
   3  -6  -7   55.99    4.00
   3  -6  -7   61.49    4.10
   3  -6  -7   64.39    3.40
  -3   6   7   59.69    4.50
  -3   6   7   62.29    4.60
  -3   6   7   56.49    6.70
   2  -6  -7   36.30    3.00
   2  -6  -7   41.20    3.20
  -2   6   7   42.80    3.60
  -2   6   7   43.80    4.20
  -2   6   7   43.10    5.60
   1  -6  -7   10.10    2.30
   1  -6  -7    9.40    1.70
   1  -6  -7    7.60    1.50
  -1   6   7    9.30    2.70
  -1   6   7    7.70    3.10
  -1   6   7    5.60    1.90
   0  -6  -7   62.59    3.70
   0  -6  -7   66.69    4.70
   0  -6  -7   63.29    6.10
   0   6   7   69.19    7.20
   0   6   7   78.29    5.70
   0   6   7   77.09    5.70
  -1  -6  -7   -1.40    2.50
  -1  -6  -7    0.60    2.20
  -1  -6  -7   -0.50    1.50
   1   6   7    1.30    2.30
   1   6   7    0.10    2.80
   1   6   7    1.10    1.90
  -2  -6  -7   71.69    5.20
  -2  -6  -7   68.39    6.80
  -2  -6  -7   71.59    3.50
  -2  -6  -7   68.59    6.20
   2   6   7   71.69    4.70
   2   6   7   75.79    6.20
   2   6   7   81.89    6.60
  -3  -6  -7  170.68   11.00
  -3  -6  -7  172.38    9.30
  -3  -6  -7  176.58    7.70
   3   6   7  196.98   11.30
   3   6   7  180.48   10.50
   3   6   7  168.38    8.60
  -4  -6  -7    1.50    2.40
  -4  -6  -7    0.90    1.90
  -4  -6  -7    0.60    0.80
   4   6   7   -0.70    2.40
   4   6   7    2.70    2.90
   4   6   7    3.00    2.80
  -5  -6  -7   24.80    2.40
  -5  -6  -7   34.70    5.20
  -5  -6  -7   27.30    3.40
   5   6   7   32.40    5.30
   5   6   7   27.40    5.30
  -6  -6  -7    7.10    2.80
   6   6   7    1.70    3.10
   6   6   7    0.00    2.90
   6  -7  -7   15.20    3.10
   6  -7  -7   12.20    1.90
  -6   7   7    7.00    3.80
  -6   7   7    9.90    2.60
   5  -7  -7    3.90    2.40
   5  -7  -7    7.10    1.60
  -5   7   7    4.30    2.00
  -5   7   7    2.90    3.40
   4  -7  -7   44.50    4.10
  -4   7   7   43.70    4.20
  -4   7   7   41.00    6.00
   3  -7  -7   11.80    3.50
   3  -7  -7    9.80    2.20
  -3   7   7    6.80    3.50
  -3   7   7    8.40    2.20
  -3   7   7   14.20    2.80
   2  -7  -7    5.00    2.10
   2  -7  -7    3.40    1.70
  -2   7   7    4.80    2.40
  -2   7   7    3.30    3.10
  -2   7   7   -0.10    1.60
   1  -7  -7   15.20    4.30
   1  -7  -7   20.90    3.40
  -1   7   7   18.40    4.40
  -1   7   7   20.70    3.70
   0  -7  -7    0.90    1.80
   0   7   7    1.10    2.30
   0   7   7    2.50    2.00
   0   7   7   -0.70    2.90
  -1  -7  -7   -3.90    2.60
  -1  -7  -7    1.50    2.00
   1   7   7    1.10    2.00
   1   7   7   -1.60    3.10
   1   7   7    0.90    2.60
  -2  -7  -7   70.49    5.60
  -2  -7  -7   69.09    7.30
   2   7   7   79.09    6.80
   2   7   7   80.29    6.80
  -3  -7  -7    3.30    2.30
  -3  -7  -7    3.90    3.20
   3   7   7    3.30    2.60
   3   7   7    5.90    3.40
  -4  -7  -7    6.70    1.50
  -4  -7  -7    7.60    3.40
  -4  -7  -7    7.00    2.50
   4   7   7    6.60    3.50
   4   7   7    6.70    3.30
  -5  -7  -7    5.70    2.10
  -5  -7  -7    6.90    3.20
   5   7   7    5.90    3.60
   5   7   7    2.50    2.90
   5  -8  -7    5.20    2.40
  -5   8   7    1.60    2.00
  -5   8   7    0.10    3.70
   4  -8  -7    7.40    2.90
  -4   8   7    3.40    3.70
  -4   8   7    9.50    2.50
   3  -8  -7  188.68   10.40
  -3   8   7  190.48   12.80
  -3   8   7  183.68    9.80
   2  -8  -7   86.89    6.50
  -2   8   7  102.29    7.10
  -2   8   7   91.19    8.90
   1  -8  -7   78.99    6.20
  -1   8   7   90.99    7.00
  -1   8   7   81.79    8.70
   0  -8  -7    0.70    2.10
   0   8   7    0.10    3.70
   0   8   7    2.60    2.80
  -1  -8  -7    3.50    2.60
  -1  -8  -7    1.80    3.70
   1   8   7    8.50    3.40
   1   8   7    4.70    2.50
   1   8   7    0.30    4.10
  -2  -8  -7   -5.10    2.50
  -2  -8  -7    0.60    2.30
   2   8   7   -0.20    3.10
   2   8   7    0.60    2.30
  -3  -8  -7   16.30    3.60
  -3  -8  -7   21.30    5.10
   3   8   7   21.90    4.80
   3   8   7   16.80    4.20
  -4  -8  -7    2.90    3.00
  -4  -8  -7    5.10    2.30
   4   8   7    6.60    3.90
   4   8   7    4.10    3.10
   2  -9  -7    2.30    2.50
  -2   9   7   -2.60    3.40
  -2   9   7    6.30    2.80
   1  -9  -7  204.38   11.70
  -1   9   7  208.78   14.80
  -1   9   7  241.98   12.70
   0  -9  -7   97.89    9.70
   0  -9  -7  107.69    7.60
   0   9   7  134.59    9.10
   0   9   7  108.59   10.40
  -1  -9  -7   -6.50    3.40
  -1  -9  -7   -2.40    2.10
   1   9   7   -3.50    4.10
   1   9   7    3.30    3.10
   2  10  -8   34.30    8.30
   2  10  -8   45.80    6.10
  -2 -10   8   44.30    5.70
   1  10  -8   56.89    6.40
  -1 -10   8   40.00    5.50
  -1 -10   8   61.19    4.90
  -1 -10   8   50.69    6.70
   0 -10   8   10.80    3.60
   1 -10   8   -2.80    2.70
  -2  10  -8   25.90    6.00
   2 -10   8   27.40    4.60
   4   9  -8    1.00    7.10
   4   9  -8   11.90    4.90
   4   9  -8   10.10    6.40
  -4  -9   8   12.80    3.50
   3   9  -8   37.40    8.00
   3   9  -8   38.00    5.70
  -3  -9   8   58.39    5.00
  -3  -9   8   45.30    5.60
   2   9  -8    0.10    2.90
   2   9  -8   -7.60    5.80
  -2  -9   8   -2.70    2.40
  -2  -9   8    2.80    1.90
  -2  -9   8   -0.10    3.10
   1   9  -8    9.50    3.10
  -1  -9   8   15.30    3.00
  -1  -9   8    5.70    3.30
  -1  -9   8    9.70    4.10
   0   9  -8   47.40    5.00
   0  -9   8   44.40    4.00
   0  -9   8   27.80    4.60
  -1   9  -8    4.50    2.20
  -1   9  -8   -2.30    2.20
   1  -9   8   -2.20    2.40
  -2   9  -8    6.80    2.40
  -2   9  -8    2.10    2.80
   2  -9   8    1.80    2.60
  -3   9  -8  216.58   13.10
  -3   9  -8  227.18   12.00
   3  -9   8  216.68   12.10
  -4   9  -8   16.80    4.30
   4  -9   8   14.50    3.40
  -5   9  -8    9.00    3.30
   5  -9   8    3.40    2.70
   6   8  -8   -3.60    4.00
   6   8  -8   -8.40    6.20
   6   8  -8   -4.80    2.90
  -6  -8   8   -1.20    1.90
   5   8  -8   -7.20    6.20
   5   8  -8   -1.90    4.90
  -5  -8   8   -5.00    2.20
  -5  -8   8    3.90    2.30
   4   8  -8    0.40    5.20
   4   8  -8    1.10    6.70
   4   8  -8    2.20    3.50
  -4  -8   8    5.80    3.00
   3   8  -8   -2.50    2.70
   3   8  -8   -2.80    6.10
  -3  -8   8   -1.50    2.20
  -3  -8   8    1.10    2.60
  -3  -8   8    3.10    2.10
   2   8  -8  131.69    8.70
  -2  -8   8  140.49    8.80
  -2  -8   8  140.69    7.90
  -2  -8   8  126.39    8.30
   1   8  -8   59.29    5.50
  -1  -8   8   67.29    4.80
  -1  -8   8   53.09    5.40
  -1  -8   8   56.59    5.90
   0   8  -8   44.30    5.40
   0   8  -8   64.49    5.70
   0  -8   8   60.29    4.40
   0  -8   8   52.39    5.20
  -1   8  -8   -1.30    2.10
  -1   8  -8   -1.80    4.00
  -1   8  -8    4.90    2.20
   1  -8   8    4.30    1.70
   1  -8   8    2.50    2.40
  -2   8  -8   -5.10    3.60
  -2   8  -8   -1.10    2.10
  -2   8  -8    2.60    1.80
   2  -8   8    2.30    2.30
  -3   8  -8    7.80    3.10
  -3   8  -8   11.50    2.70
   3  -8   8   11.40    3.00
  -4   8  -8   35.50    4.30
  -4   8  -8   31.60    4.90
   4  -8   8   26.20    4.20
  -5   8  -8   10.70    2.50
  -5   8  -8    9.90    3.10
   5  -8   8    4.20    2.50
  -6   8  -8  334.17   17.90
  -6   8  -8  350.16   16.20
   6  -8   8  303.97   16.00
   7   7  -8   -3.50    3.10
  -7  -7   8    6.40    2.60
  -7  -7   8    2.80    1.70
   6   7  -8   34.10    6.30
   6   7  -8   32.20    5.60
   6   7  -8   20.70    8.90
  -6  -7   8   43.30    4.70
  -6  -7   8   33.30    4.60
   5   7  -8    4.90    5.20
   5   7  -8    5.70    7.10
  -5  -7   8   25.20    4.20
  -5  -7   8   12.00    3.10
   4   7  -8    0.60    5.90
   4   7  -8   -1.60    3.20
  -4  -7   8    3.90    2.30
  -4  -7   8   -0.70    2.20
  -4  -7   8    9.60    2.80
   3   7  -8   -0.30    2.70
   3   7  -8   -3.60    5.00
  -3  -7   8   -0.10    2.40
  -3  -7   8    1.50    2.50
  -3  -7   8    2.00    1.90
   2   7  -8    0.60    4.50
   2   7  -8    8.60    2.70
  -2  -7   8    8.50    3.20
  -2  -7   8    8.20    2.20
  -2  -7   8    6.30    2.50
   1   7  -8    1.30    4.30
   1   7  -8   13.80    3.00
  -1  -7   8    9.40    2.20
  -1  -7   8    8.50    2.60
  -1  -7   8    8.40    3.30
   0   7  -8  189.88   10.10
   0   7  -8  175.48   15.80
   0   7  -8  177.18    9.60
   0  -7   8  195.68   10.10
   0  -7   8  196.38   10.80
   0  -7   8  202.38    9.20
  -1   7  -8   83.29    6.30
  -1   7  -8   91.59    6.20
  -1   7  -8   89.09   11.00
   1  -7   8   96.79    6.50
   1  -7   8   96.69    5.30
  -2   7  -8   19.10    3.30
  -2   7  -8   17.30    3.00
  -2   7  -8   11.90    4.40
   2  -7   8   16.50    3.00
  -3   7  -8   41.50    4.60
  -3   7  -8   47.80    4.70
  -3   7  -8   36.70    7.50
   3  -7   8   34.40    3.30
   3  -7   8   46.30    4.80
  -4   7  -8  155.68   13.20
  -4   7  -8  166.48    9.20
   4  -7   8  159.38    9.10
   4  -7   8  161.88    8.30
  -5   7  -8   33.70    4.10
   5  -7   8   27.60    3.60
   5  -7   8   25.80    3.80
  -6   7  -8   95.09    6.70
   6  -7   8   84.39    6.50
   6  -7   8   81.39    6.50
   7  -7   8   23.80    4.00
   7  -7   8   23.20    3.90
   7   6  -8   -1.70    3.50
   7   6  -8   -9.50    5.80
  -7  -6   8    0.90    2.20
  -7  -6   8   -2.20    1.40
  -7  -6   8   -0.80    1.90
   6   6  -8   -2.30    5.90
   6   6  -8    0.90    3.00
   6   6  -8   -7.50    3.70
  -6  -6   8   -0.70    1.50
  -6  -6   8   -2.70    1.80
  -6  -6   8    4.20    2.40
   5   6  -8    4.40    6.00
  -5  -6   8   17.40    3.40
  -5  -6   8    6.90    2.50
   4   6  -8   -1.20    2.50
   4   6  -8   -1.60    4.40
   4   6  -8    1.20    1.20
  -4  -6   8    2.40    2.10
  -4  -6   8    4.40    2.30
  -4  -6   8    4.60    2.10
   3   6  -8   56.19   11.30
   3   6  -8   76.29    6.20
  -3  -6   8   69.39    5.50
  -3  -6   8   78.99    5.10
  -3  -6   8   69.89    5.30
   2   6  -8   25.80    3.60
  -2  -6   8   28.90    3.00
  -2  -6   8   25.20    3.50
  -2  -6   8   30.40    4.00
   1   6  -8   20.10    3.10
   1   6  -8   14.10    4.50
   1   6  -8   23.50    2.80
  -1  -6   8   27.80    2.70
  -1  -6   8   25.60    4.10
  -1  -6   8   22.70    3.20
   0   6  -8   68.49    4.80
   0   6  -8   66.29    9.10
   0   6  -8   68.19    5.00
   0  -6   8   72.39    3.80
   0  -6   8   69.19    5.10
   0  -6   8   74.39    6.40
   0  -6   8   72.69    4.30
  -1   6  -8    0.20    2.20
  -1   6  -8    2.40    1.50
  -1   6  -8    3.10    1.80
   1  -6   8    2.60    1.20
   1  -6   8    0.90    1.80
   1  -6   8    1.80    1.10
  -2   6  -8    3.70    2.70
  -2   6  -8    5.90    2.00
   2  -6   8    9.90    1.50
   2  -6   8    6.70    1.60
   2  -6   8    6.30    2.20
  -3   6  -8   54.09    4.70
  -3   6  -8   53.59    7.40
   3  -6   8   50.89    3.80
   3  -6   8   49.20    4.40
  -4   6  -8    1.60    1.70
  -4   6  -8    0.90    2.00
   4  -6   8   -0.30    1.60
   4  -6   8   -0.80    1.70
  -5   6  -8   42.30    4.30
  -5   6  -8   41.50    6.70
   5  -6   8   40.00    4.20
   5  -6   8   43.30    4.50
  -6   6  -8   15.90    3.10
   6  -6   8   15.10    3.00
   6  -6   8   11.90    3.30
  -7   6  -8   90.59    6.70
   7  -6   8   89.69    6.50
   7  -6   8   81.69    7.20
   8   5  -8   -0.90    3.20
  -8  -5   8    2.30    1.50
  -8  -5   8    6.90    2.90
   7   5  -8   -4.70    5.10
   7   5  -8   -4.60    3.10
  -7  -5   8    1.60    2.20
  -7  -5   8   -1.70    1.70
  -7  -5   8    0.80    1.40
   6   5  -8    3.80    3.30
   6   5  -8    1.70    1.60
   6   5  -8   -1.70    5.40
   6   5  -8   -5.00    3.50
  -6  -5   8    0.90    2.00
  -6  -5   8    2.60    2.20
  -6  -5   8    2.30    1.40
   5   5  -8   56.79    3.50
   5   5  -8   56.39    3.60
  -5  -5   8   55.09    4.80
  -5  -5   8   50.19    3.50
  -5  -5   8   57.89    4.90
  -5  -5   8   60.79    4.40
   4   5  -8   22.70    2.10
   4   5  -8   19.80    3.70
   4   5  -8   11.30    5.30
  -4  -5   8   19.10    3.00
  -4  -5   8   23.90    3.30
  -4  -5   8   24.50    2.90
   3   5  -8  250.67   18.70
   3   5  -8  263.17   13.10
  -3  -5   8  279.17   12.80
  -3  -5   8  292.97   13.10
  -3  -5   8  287.17   12.70
   2   5  -8  325.67   15.10
   2   5  -8  332.27   20.70
  -2  -5   8  329.47   14.90
  -2  -5   8  343.37   14.60
  -2  -5   8  335.67   15.30
   1   5  -8   68.59    8.50
   1   5  -8   67.79    4.90
   1   5  -8   69.79    4.10
  -1  -5   8   70.29    4.20
  -1  -5   8   72.79    3.90
  -1  -5   8   68.19    5.70
  -1  -5   8   64.59    4.80
  -1  -5   8   81.69    4.10
   0   5  -8    0.80    1.10
   0   5  -8   -1.20    1.20
   0   5  -8   -0.60    1.80
   0  -5   8    0.40    1.60
   0  -5   8    0.70    0.90
   0  -5   8   -0.60    2.70
   0  -5   8    0.60    1.00
  -1   5  -8   77.09    7.90
  -1   5  -8   71.99    4.80
   1  -5   8   72.09    5.10
   1  -5   8   72.59    4.20
   1  -5   8   75.49    3.80
   1  -5   8   75.59    6.00
  -2   5  -8  106.19    9.40
  -2   5  -8   97.59    6.00
   2  -5   8  105.49    5.50
   2  -5   8  111.19    4.80
   2  -5   8  105.39    6.10
  -3   5  -8  115.29    6.60
  -3   5  -8  117.09    9.80
   3  -5   8  120.19    6.30
   3  -5   8  116.09    6.60
  -4   5  -8   71.69    7.70
  -4   5  -8   70.39    5.20
   4  -5   8   70.79    5.10
   4  -5   8   71.49    5.10
  -5   5  -8   25.90    5.30
  -5   5  -8   33.30    4.20
  -5   5  -8   30.70    3.70
   5  -5   8   31.60    3.70
   5  -5   8   30.00    3.90
  -6   5  -8    1.20    1.90
  -6   5  -8    1.80    1.80
   6  -5   8    2.20    2.10
   6  -5   8   -0.20    2.40
  -7   5  -8   60.69    5.30
   7  -5   8   46.30    5.70
   7  -5   8   57.29    5.00
   8  -5   8   23.50    3.60
   8  -5   8   21.90    4.30
   8   4  -8   21.20    4.40
  -8  -4   8   28.40    2.80
   7   4  -8   20.70    2.70
   7   4  -8   15.70    3.60
   7   4  -8   17.10    4.20
  -7  -4   8   22.60    4.00
  -7  -4   8   18.90    2.40
  -7  -4   8   19.50    3.30
   6   4  -8    6.90    1.80
   6   4  -8    3.50    4.90
   6   4  -8    9.70    2.00
   6   4  -8    8.50    3.50
  -6  -4   8    7.70    2.10
  -6  -4   8    8.50    1.80
  -6  -4   8   11.40    2.20
  -6  -4   8   10.80    2.90
   5   4  -8   14.20    3.10
   5   4  -8   15.80    2.00
   5   4  -8    6.90    5.00
   5   4  -8   18.00    2.10
  -5  -4   8   15.80    1.90
  -5  -4   8   12.00    2.40
  -5  -4   8   18.00    3.20
  -5  -4   8   18.00    2.70
   4   4  -8    4.50    4.00
   4   4  -8    7.10    2.70
   4   4  -8    4.00    1.40
  -4  -4   8    7.00    2.40
  -4  -4   8    8.00    1.50
  -4  -4   8    4.80    1.80
  -4  -4   8    7.40    2.00
   3   4  -8  159.08   13.40
   3   4  -8  164.88    8.90
  -3  -4   8  169.58    8.40
  -3  -4   8  170.28    8.80
  -3  -4   8  182.78    8.70
   2   4  -8   15.30    4.00
   2   4  -8   17.10    2.60
  -2  -4   8   15.00    2.40
  -2  -4   8   16.20    3.10
  -2  -4   8   19.00    1.20
  -2  -4   8   14.10    2.00
   1   4  -8  177.88    8.00
   1   4  -8  180.38   12.70
   1   4  -8  171.28    8.80
  -1  -4   8  185.38    7.90
  -1  -4   8  185.08    8.20
  -1  -4   8  187.98    7.10
  -1  -4   8  189.48    8.10
  -1  -4   8  177.68    8.90
  -1  -4   8  179.78    9.60
   0   4  -8   11.20    2.00
   0   4  -8    9.80    2.90
   0  -4   8   10.90    3.20
   0  -4   8   10.10    1.30
   0  -4   8    8.00    1.90
   0  -4   8   11.30    1.70
   0  -4   8   14.70    1.50
  -1   4  -8  138.49   10.30
  -1   4  -8  126.99    6.90
   1  -4   8  136.39    7.10
   1  -4   8  142.49    8.30
   1  -4   8  140.59    6.60
   1  -4   8  148.49    6.90
   1  -4   8  139.09    6.00
  -2   4  -8   15.60    2.70
  -2   4  -8   14.70    2.20
  -2   4  -8   10.60    2.90
   2  -4   8   18.10    2.40
   2  -4   8   16.30    2.20
   2  -4   8   17.70    3.50
  -3   4  -8   11.70    2.10
  -3   4  -8    8.90    2.80
  -3   4  -8   14.90    2.80
   3  -4   8   13.60    2.30
   3  -4   8   10.50    2.10
  -4   4  -8   17.10    2.50
  -4   4  -8   14.60    3.50
  -4   4  -8   14.00    3.10
  -4   4  -8   22.30    3.90
   4  -4   8   17.70    2.50
   4  -4   8   18.40    2.90
  -5   4  -8    2.10    2.30
  -5   4  -8    3.90    1.60
  -5   4  -8    1.50    1.80
  -5   4  -8    1.20    1.80
   5  -4   8    2.90    2.20
   5  -4   8    2.30    1.60
  -6   4  -8   30.60    5.30
  -6   4  -8   41.20    6.70
  -6   4  -8   27.00    3.40
  -6   4  -8   36.30    4.20
   6  -4   8   33.60    3.80
   6  -4   8   35.50    4.60
  -7   4  -8   24.50    6.30
  -7   4  -8    9.80    3.00
  -7   4  -8   17.20    3.10
   7  -4   8   18.40    3.10
   7  -4   8   12.50    3.60
  -8   4  -8   21.60    3.60
   8  -4   8   18.00    3.20
   8  -4   8   23.80    4.70
   9   3  -8   27.30    5.10
  -9  -3   8   32.50    3.00
  -9  -3   8   22.20    2.90
   8   3  -8   -5.50    2.80
   8   3  -8   -0.10    2.00
   8   3  -8   -2.70    2.00
  -8  -3   8   -0.40    1.20
  -8  -3   8    0.70    1.20
   7   3  -8   75.69    4.70
   7   3  -8   76.09    6.60
   7   3  -8   76.19    4.70
   7   3  -8   51.79   11.80
  -7  -3   8   82.29    4.50
  -7  -3   8   71.59    5.00
   6   3  -8   33.20    4.30
   6   3  -8   34.40    3.10
   6   3  -8   24.40    6.60
   6   3  -8   35.60    3.20
  -6  -3   8   35.60    3.40
  -6  -3   8   35.90    2.70
  -6  -3   8   40.70    3.40
   5   3  -8   34.10    4.40
   5   3  -8   21.70    5.80
   5   3  -8   32.70    2.70
   5   3  -8   29.70    2.60
  -5  -3   8   31.40    3.30
  -5  -3   8   28.60    3.00
  -5  -3   8   30.20    2.50
  -5  -3   8   28.40    3.20
   4   3  -8    0.20    2.70
   4   3  -8    0.80    1.20
   4   3  -8    0.70    1.90
  -4  -3   8    0.00    1.20
  -4  -3   8   -0.60    0.60
  -4  -3   8   -0.20    1.80
  -4  -3   8   -0.20    0.90
  -4  -3   8   -0.50    1.30
   3   3  -8  234.68   15.20
   3   3  -8  237.38    9.90
   3   3  -8  233.48   11.20
  -3  -3   8  234.68   10.70
  -3  -3   8  230.78   10.70
  -3  -3   8  224.28    9.80
  -3  -3   8  244.78    9.70
  -3  -3   8  241.48   11.30
   2   3  -8  322.57   14.10
   2   3  -8  315.77   17.90
  -2  -3   8  321.97   13.70
  -2  -3   8  314.97   14.50
  -2  -3   8  309.37   13.00
  -2  -3   8  331.77   12.70
  -2  -3   8  323.67   13.80
   1   3  -8  122.89    9.50
   1   3  -8  116.79    6.40
  -1  -3   8  113.69    7.10
  -1  -3   8  133.79    5.00
  -1  -3   8  128.89    6.10
  -1  -3   8  122.69    5.50
  -1  -3   8  128.89    5.40
  -1  -3   8  122.89    6.40
  -1  -3   8  124.29    5.90
   0   3  -8  131.29    6.80
   0   3  -8  137.79    9.90
   0  -3   8  143.49    6.40
   0  -3   8  140.59    6.00
   0  -3   8  142.69    7.00
   0  -3   8  133.39    7.70
   0  -3   8  140.19    6.60
  -1   3  -8  352.56   18.60
  -1   3  -8  338.27   15.40
  -1   3  -8  349.67   15.20
   1  -3   8  363.56   14.20
   1  -3   8  362.66   15.20
   1  -3   8  377.76   15.10
   1  -3   8  359.66   15.00
   1  -3   8  347.77   16.10
   1  -3   8  387.36   14.50
  -2   3  -8    0.70    1.40
  -2   3  -8    0.70    0.90
  -2   3  -8    0.50    1.10
  -2   3  -8    0.60    0.90
   2  -3   8   -2.00    2.20
   2  -3   8    0.40    1.40
   2  -3   8    0.20    0.50
   2  -3   8    0.70    1.30
  -3   3  -8    6.30    1.50
  -3   3  -8    7.80    2.10
  -3   3  -8    3.60    2.00
  -3   3  -8    6.40    1.90
   3  -3   8    7.40    2.90
   3  -3   8    6.80    0.70
   3  -3   8    6.50    1.90
   3  -3   8    6.30    1.60
  -4   3  -8  379.06   17.10
  -4   3  -8  389.26   18.40
  -4   3  -8  382.26   18.20
  -4   3  -8  408.66   20.80
   4  -3   8  404.36   17.40
   4  -3   8  407.56   17.00
   4  -3   8  437.86   17.80
   4  -3   8  400.06   18.10
  -5   3  -8    0.30    1.00
  -5   3  -8   -0.50    1.40
  -5   3  -8    0.90    1.60
  -5   3  -8   -0.60    1.70
   5  -3   8    0.20    1.40
   5  -3   8   -0.20    1.40
   5  -3   8    0.30    2.00
  -6   3  -8   51.79    4.20
  -6   3  -8   47.80    5.80
  -6   3  -8   59.99    5.40
  -6   3  -8   50.69    6.40
   6  -3   8   53.19    4.30
   6  -3   8   56.69    5.40
   6  -3   8   55.99    4.70
  -7   3  -8   51.09    6.70
  -7   3  -8   59.89    4.90
  -7   3  -8   49.90    6.60
   7  -3   8   54.49    6.30
   7  -3   8   60.49    4.80
   7  -3   8   60.69    6.60
  -8   3  -8    3.30    1.80
  -8   3  -8    1.90    2.00
   8  -3   8    3.10    3.40
   8  -3   8   -5.00    5.20
  -9   3  -8   71.39    4.80
   9   2  -8   11.40    3.00
   9   2  -8   10.40    3.80
  -9  -2   8   11.70    2.20
  -9  -2   8   12.00    2.00
   8   2  -8    2.30    2.80
   8   2  -8    2.20    2.40
  -8  -2   8    6.30    1.80
  -8  -2   8    5.50    1.50
   7   2  -8   45.20    5.20
   7   2  -8   46.80    3.90
   7   2  -8   38.90    3.50
  -7  -2   8   44.00    3.30
  -7  -2   8   48.90    3.60
  -7  -2   8   42.90    3.70
   6   2  -8   24.20    2.70
   6   2  -8   24.30    2.60
   6   2  -8   21.30    3.50
  -6  -2   8   26.40    2.30
  -6  -2   8   26.20    3.10
  -6  -2   8   27.40    2.50
  -6  -2   8   25.30    2.70
   5   2  -8  317.07   13.20
   5   2  -8  273.37   18.80
   5   2  -8  322.37   14.60
   5   2  -8  314.37   13.20
  -5  -2   8  299.97   13.00
  -5  -2   8  328.67   13.70
  -5  -2   8  328.17   13.20
  -5  -2   8  329.67   14.10
   4   2  -8  157.28    7.00
   4   2  -8  146.99   11.80
  -4  -2   8  150.28    6.90
  -4  -2   8  161.58    7.50
  -4  -2   8  160.58    6.90
  -4  -2   8  148.39    7.90
   3   2  -8 1357.46   56.29
   3   2  -8 1315.17   51.69
   3   2  -8 1308.47   50.69
  -3  -2   8 1270.87   50.59
  -3  -2   8 1366.16   50.59
  -3  -2   8 1282.07   51.19
  -3  -2   8 1293.77   51.89
   2   2  -8  540.75   22.80
   2   2  -8  574.84   26.80
   2   2  -8  549.54   21.40
  -2  -2   8  518.45   23.20
  -2  -2   8  543.75   21.90
  -2  -2   8  596.94   22.60
  -2  -2   8  582.94   21.80
   1   2  -8   60.59    6.10
   1   2  -8   60.39    4.00
   1   2  -8   69.59    3.80
  -1  -2   8   67.09    4.00
  -1  -2   8   67.69    3.30
  -1  -2   8   68.89    2.90
  -1  -2   8   68.59    4.00
  -1  -2   8   61.49    4.80
  -1  -2   8   66.69    3.20
   0   2  -8   58.69    3.70
   0   2  -8   65.59    3.10
   0   2  -8   63.39    6.00
   0   2  -8   57.69    3.50
   0  -2   8   63.29    3.90
   0  -2   8   55.79    4.70
   0  -2   8   63.19    3.80
   0  -2   8   61.19    3.00
   0  -2   8   66.59    3.50
  -1   2  -8   58.09    3.60
  -1   2  -8   61.79    3.40
  -1   2  -8   57.59    3.80
  -1   2  -8   66.89    6.20
   1  -2   8   64.29    4.10
   1  -2   8   64.19    2.90
   1  -2   8   64.39    3.70
   1  -2   8   59.29    5.00
   1  -2   8   65.49    3.90
  -2   2  -8  331.47   14.50
  -2   2  -8  324.97   14.20
  -2   2  -8  330.77   14.80
  -2   2  -8  343.67   17.60
   2  -2   8  349.87   14.50
   2  -2   8  353.06   14.30
   2  -2   8  328.87   15.20
   2  -2   8  355.16   14.60
   2  -2   8  336.97   13.30
  -3   2  -8  527.65   22.60
  -3   2  -8  540.55   25.50
  -3   2  -8  521.65   22.80
  -3   2  -8  490.45   21.80
   3  -2   8  540.95   22.80
   3  -2   8  541.05   22.20
   3  -2   8  552.24   21.80
   3  -2   8  539.05   20.60
   3  -2   8  586.94   23.00
  -4   2  -8  160.78    8.80
  -4   2  -8  151.48    8.70
  -4   2  -8  161.58   10.90
  -4   2  -8  149.59    7.70
   4  -2   8  164.78    7.70
   4  -2   8  159.38    8.30
   4  -2   8  157.48    8.70
   4  -2   8  180.18    8.80
  -5   2  -8   55.19    6.30
  -5   2  -8   53.49    3.90
  -5   2  -8   50.19    5.00
  -5   2  -8   55.99    4.80
   5  -2   8   50.69    5.10
   5  -2   8   51.19    4.80
   5  -2   8   52.59    3.80
   5  -2   8   54.19    4.60
  -6   2  -8   26.60    4.90
  -6   2  -8   29.30    3.80
  -6   2  -8   27.80    5.00
  -6   2  -8   26.00    2.90
   6  -2   8   24.30    3.60
   6  -2   8   27.50    4.10
   6  -2   8   23.70    4.10
   6  -2   8   27.00    3.10
  -7   2  -8   51.29    4.30
  -7   2  -8   49.40    6.10
  -7   2  -8   47.60    6.50
   7  -2   8   50.19    5.00
   7  -2   8   48.30    5.40
   7  -2   8   53.39    5.90
  -8   2  -8   -0.50    1.70
  -8   2  -8    1.80    1.70
  -8   2  -8    3.90    3.00
   8  -2   8   -3.30    2.80
   8  -2   8    0.80    2.00
   9   1  -8   99.99    6.50
   9   1  -8  103.09    8.10
  -9  -1   8  102.49    6.30
  -9  -1   8   96.79    5.50
   8   1  -8   12.90    3.60
   8   1  -8   11.50    2.90
  -8  -1   8   11.30    1.90
  -8  -1   8   11.20    2.10
   7   1  -8   54.89    4.30
   7   1  -8   56.79    4.50
   7   1  -8   58.69    5.70
  -7  -1   8   58.69    4.00
  -7  -1   8   54.69    3.60
   6   1  -8   21.00    3.40
   6   1  -8   22.00    2.70
   6   1  -8   22.20    2.50
  -6  -1   8   21.60    2.40
  -6  -1   8   26.30    3.20
  -6  -1   8   24.50    2.20
  -6  -1   8   22.70    2.40
   5   1  -8   -1.40    1.30
   5   1  -8   -0.60    2.60
   5   1  -8    0.00    1.50
   5   1  -8    0.20    1.80
  -5  -1   8   -0.40    0.90
  -5  -1   8    2.20    1.80
  -5  -1   8    0.10    0.90
  -5  -1   8    1.30    1.00
   4   1  -8    9.30    2.30
   4   1  -8    7.30    1.60
   4   1  -8    7.70    2.90
  -4  -1   8    6.70    1.10
  -4  -1   8    7.80    1.30
  -4  -1   8    9.40    2.30
  -4  -1   8    8.10    1.40
   3   1  -8  101.49    8.20
   3   1  -8  101.89    5.00
   3   1  -8  102.89    5.70
  -3  -1   8  100.19    4.70
  -3  -1   8  107.39    5.00
  -3  -1   8   96.69    4.70
  -3  -1   8   94.39    6.00
   2   1  -8  968.90   41.30
   2   1  -8  912.61   37.60
   2   1  -8  935.51   37.00
   2   1  -8 1018.40   37.70
  -2  -1   8  915.71   38.30
  -2  -1   8  972.80   37.30
  -2  -1   8  988.20   37.00
  -2  -1   8  944.01   37.00
   1   1  -8   85.09    4.50
   1   1  -8   83.19    4.00
   1   1  -8   87.69    4.50
   1   1  -8   86.89    7.00
  -1  -1   8   78.59    5.40
  -1  -1   8   90.49    3.90
  -1  -1   8   86.39    4.00
  -1  -1   8   87.79    4.30
  -1  -1   8   87.49    4.70
   0   1  -8   21.40    1.80
   0   1  -8   21.60    2.00
   0   1  -8   24.30    2.00
   0   1  -8   23.30    1.50
   0   1  -8   27.70    1.80
   0   1  -8   22.70    3.80
   0  -1   8   23.10    2.20
   0  -1   8   22.70    3.20
   0  -1   8   23.50    2.30
   0  -1   8   23.00    2.60
   0  -1   8   27.30    1.60
  -1   1  -8  523.35   21.10
  -1   1  -8  551.84   20.00
  -1   1  -8  513.65   24.10
  -1   1  -8  490.05   20.50
  -1   1  -8  521.55   20.70
  -1   1  -8  523.35   19.90
  -1   1  -8  478.15   20.60
   1  -1   8  520.55   21.10
   1  -1   8  515.55   20.10
   1  -1   8  533.65   21.80
   1  -1   8  506.95   20.60
   1  -1   8  534.35   21.10
  -2   1  -8  123.39    6.40
  -2   1  -8  114.89    5.80
  -2   1  -8  121.29    8.70
  -2   1  -8  121.89    5.10
  -2   1  -8  121.89    6.20
   2  -1   8  121.19    6.80
   2  -1   8  132.59    6.60
   2  -1   8  127.19    7.10
   2  -1   8  123.29    5.80
   2  -1   8  125.09    6.50
   2  -1   8  122.59    5.00
  -3   1  -8  287.97   13.00
  -3   1  -8  281.77   13.10
  -3   1  -8  276.97   12.20
  -3   1  -8  296.37   15.80
   3  -1   8  298.67   12.80
   3  -1   8  291.27   12.10
   3  -1   8  268.17   12.90
   3  -1   8  282.27   11.10
   3  -1   8  298.97   13.40
  -4   1  -8   15.80    2.50
  -4   1  -8   16.40    2.00
  -4   1  -8   16.50    2.70
  -4   1  -8   18.10    4.00
   4  -1   8   17.40    2.10
   4  -1   8   15.40    2.90
   4  -1   8   17.10    3.00
   4  -1   8   15.80    2.80
  -5   1  -8  230.68   10.70
  -5   1  -8  235.58   12.30
  -5   1  -8  241.68   14.50
  -5   1  -8  225.78   11.90
   5  -1   8  230.38   11.50
   5  -1   8  234.68   10.50
   5  -1   8  224.28   11.20
   5  -1   8  249.68   12.20
  -6   1  -8  180.88   10.90
  -6   1  -8  195.78    9.60
  -6   1  -8  208.78   13.60
  -6   1  -8  199.58   11.60
   6  -1   8  197.58   10.10
   6  -1   8  200.78   10.90
   6  -1   8  216.58   11.30
  -7   1  -8   12.20    2.30
  -7   1  -8    8.30    3.00
  -7   1  -8   15.60    4.30
   7  -1   8   13.60    3.40
   7  -1   8   14.60    3.60
  -8   1  -8    4.00    2.50
  -8   1  -8    8.30    4.10
  -8   1  -8    9.40    2.30
   8  -1   8    8.90    3.70
   8  -1   8    8.10    3.10
  -9   1  -8   14.00    3.00
  -9   1  -8    9.10    3.50
   9  -1   8    7.70    4.00
   9  -1   8   15.70    5.80
   9   0  -8    3.50    3.00
   9   0  -8   11.70    3.00
  -9   0   8    8.50    2.10
  -9   0   8   11.50    2.00
   8   0  -8    2.00    2.70
   8   0  -8    0.90    2.50
  -8   0   8    3.40    1.70
  -8   0   8    2.30    1.40
   7   0  -8    4.40    2.20
   7   0  -8    1.50    1.90
   7   0  -8    1.20    2.40
  -7   0   8    4.30    1.50
   6   0  -8    0.40    1.50
   6   0  -8   -3.10    2.80
   6   0  -8   -0.70    1.80
   6   0  -8   -1.70    1.80
  -6   0   8    0.20    0.90
  -6   0   8    1.10    1.10
   5   0  -8   -0.10    2.30
   5   0  -8   -0.90    1.60
   5   0  -8   -1.10    1.40
   5   0  -8   -0.10    1.80
  -5   0   8   -1.30    1.10
  -5   0   8   -0.30    0.90
  -5   0   8    1.80    1.70
  -5   0   8    0.70    1.00
   4   0  -8    6.70    1.60
   4   0  -8   10.60    1.90
   4   0  -8    6.10    2.00
   4   0  -8    6.70    2.50
  -4   0   8    8.60    2.20
  -4   0   8    8.00    1.30
  -4   0   8    6.90    1.20
  -4   0   8    7.40    1.10
   3   0  -8   35.90    2.80
   3   0  -8   36.70    4.90
   3   0  -8   37.40    3.10
  -3   0   8   38.70    2.50
  -3   0   8   35.10    2.30
  -3   0   8   39.10    2.20
  -3   0   8   34.20    3.70
   2   0  -8   53.39    2.60
   2   0  -8   55.29    3.30
   2   0  -8   55.99    3.10
   2   0  -8   53.09    5.40
   2   0  -8   54.29    3.50
   2   0  -8   57.49    3.40
  -2   0   8   52.29    2.90
  -2   0   8   60.29    3.10
  -2   0   8   54.09    4.20
   1   0  -8    8.70    1.40
   1   0  -8   10.90    1.40
   1   0  -8    4.70    1.80
   1   0  -8    7.80    1.30
   1   0  -8    8.10    1.10
  -1   0   8    8.40    1.70
  -1   0   8    7.80    0.90
  -1   0   8    9.90    1.10
  -1   0   8    8.10    1.10
  -1   0   8    8.90    2.30
   0   0  -8   66.89    3.60
   0   0  -8   74.79    4.00
   0   0  -8   84.89    6.60
   0   0  -8   75.69    3.90
   0   0  -8   77.99    3.80
   0   0   8   73.99    3.40
   0   0   8   79.99    3.60
   0   0   8   63.39    4.80
   0   0   8   78.49    3.50
   0   0   8   74.29    4.40
  -1   0  -8   89.89    7.00
  -1   0  -8   95.39    4.90
  -1   0  -8   88.39    4.40
  -1   0  -8   95.49    4.10
  -1   0  -8   92.99    5.00
  -1   0  -8   87.79    4.30
   1   0   8   90.59    5.30
   1   0   8   94.19    4.30
   1   0   8  107.99    5.90
   1   0   8   96.59    4.10
   1   0   8   90.19    5.60
   1   0   8   96.49    5.20
  -2   0  -8   23.40    2.40
  -2   0  -8   24.50    1.30
  -2   0  -8   23.90    1.90
  -2   0  -8   21.30    1.90
  -2   0  -8   26.00    1.20
  -2   0  -8   22.10    2.40
  -2   0  -8   24.60    3.90
   2   0   8   24.80    2.00
   2   0   8   24.90    3.00
   2   0   8   23.60    3.10
   2   0   8   25.40    1.40
   2   0   8   21.20    2.60
  -3   0  -8  404.86   16.90
  -3   0  -8  409.86   18.00
  -3   0  -8  414.26   18.10
   3   0   8  427.46   16.80
   3   0   8  406.66   17.70
   3   0   8  412.86   17.80
   3   0   8  445.06   18.70
  -4   0  -8  147.59    8.20
  -4   0  -8  147.19    8.30
  -4   0  -8  150.68    7.00
   4   0   8  156.28    8.00
   4   0   8  153.38    8.60
   4   0   8  140.09    7.70
   4   0   8  149.59    6.90
  -5   0  -8   28.70    2.60
  -5   0  -8   27.60    3.30
  -5   0  -8   30.10    4.00
   5   0   8   34.20    3.90
   5   0   8   32.30    3.40
   5   0   8   32.50    4.30
  -6   0  -8   61.69    5.30
  -6   0  -8   62.89    6.10
  -6   0  -8   62.59    4.30
   6   0   8   62.49    4.70
   6   0   8   69.99    6.20
   6   0   8   65.09    5.60
  -7   0  -8   35.60    3.60
  -7   0  -8   43.30    5.80
   7   0   8   44.60    5.60
   7   0   8   34.80    4.70
  -8   0  -8    4.10    1.60
  -8   0  -8    8.60    3.70
   8   0   8    2.50    2.80
   8   0   8    3.00    3.30
  -9   0  -8    3.70    1.50
   9   0   8   -0.30    3.00
   9   0   8   -0.40    2.40
   9  -1  -8    1.10    2.60
   9  -1  -8    2.20    2.70
  -9   1   8    3.40    1.70
  -9   1   8    4.30    1.50
   8  -1  -8    5.50    2.60
   8  -1  -8    1.50    2.20
  -8   1   8    3.90    1.70
  -8   1   8    5.90    1.50
   7  -1  -8   65.99    4.80
   7  -1  -8   71.19    5.50
  -7   1   8   62.99    4.10
  -7   1   8   72.19    4.70
   6  -1  -8   15.10    2.50
   6  -1  -8   13.80    2.60
   6  -1  -8   14.00    2.40
  -6   1   8   18.10    2.00
  -6   1   8   14.50    2.00
   5  -1  -8   26.30    3.10
   5  -1  -8   21.50    2.40
   5  -1  -8   23.00    2.70
   5  -1  -8   15.40    3.50
  -5   1   8   22.20    2.80
  -5   1   8   27.10    2.50
  -5   1   8   26.10    2.20
   4  -1  -8   34.60    3.00
   4  -1  -8   35.60    3.00
   4  -1  -8   36.90    4.80
   4  -1  -8   33.40    2.20
   4  -1  -8   33.30    2.90
  -4   1   8   36.10    2.40
  -4   1   8   37.80    3.80
  -4   1   8   33.90    3.20
  -4   1   8   35.10    2.70
   3  -1  -8  172.18   10.20
   3  -1  -8  162.58    7.00
   3  -1  -8  166.58    7.50
   3  -1  -8  154.08    7.10
   3  -1  -8  168.58    7.50
  -3   1   8  152.78    8.20
  -3   1   8  163.78    7.90
  -3   1   8  161.28    7.10
  -3   1   8  172.98    7.40
   2  -1  -8  298.97   12.20
   2  -1  -8  288.07   12.10
   2  -1  -8  294.37   12.10
   2  -1  -8  300.17   12.30
   2  -1  -8  310.97   15.30
  -2   1   8  279.17   13.10
  -2   1   8  292.07   12.20
  -2   1   8  290.97   12.00
   1  -1  -8  502.65   20.10
   1  -1  -8  530.45   23.60
   1  -1  -8  508.35   20.60
   1  -1  -8  520.25   20.00
  -1   1   8  527.55   20.30
  -1   1   8  486.85   21.30
  -1   1   8  511.35   20.10
  -1   1   8  507.05   20.90
   0  -1  -8   80.49    3.70
   0  -1  -8   79.49    4.40
   0  -1  -8   87.19    6.70
   0  -1  -8   77.69    3.60
   0  -1  -8   80.99    4.70
   0   1   8   81.99    4.80
   0   1   8   83.99    4.10
   0   1   8   85.59    3.80
   0   1   8   80.39    5.00
  -1  -1  -8   21.80    2.50
  -1  -1  -8   25.50    4.00
  -1  -1  -8   21.40    1.60
  -1  -1  -8   21.00    1.70
  -1  -1  -8   21.60    1.50
  -1  -1  -8   22.60    2.30
   1   1   8   22.00    1.50
   1   1   8   22.40    3.10
   1   1   8   23.80    2.70
   1   1   8   21.60    2.80
  -2  -1  -8    1.40    1.20
  -2  -1  -8    2.80    1.50
  -2  -1  -8    0.90    0.80
  -2  -1  -8    1.70    0.60
   2   1   8    0.90    1.60
   2   1   8    1.10    1.60
   2   1   8    1.30    0.50
   2   1   8    2.20    1.80
  -3  -1  -8    0.20    0.60
  -3  -1  -8    0.80    1.30
  -3  -1  -8    0.30    0.60
  -3  -1  -8    0.80    1.10
   3   1   8   -0.50    1.50
   3   1   8    0.60    1.80
   3   1   8   -0.10    1.60
  -4  -1  -8   62.39    3.50
  -4  -1  -8   56.19    4.50
  -4  -1  -8   61.19    4.90
   4   1   8   63.79    5.60
   4   1   8   62.49    4.30
   4   1   8   65.49    4.90
  -5  -1  -8   31.80    3.50
  -5  -1  -8   32.00    2.70
  -5  -1  -8   35.10    4.10
   5   1   8   38.30    4.10
   5   1   8   36.80    3.30
   5   1   8   36.40    4.60
  -6  -1  -8  183.88   10.60
  -6  -1  -8  195.38   11.30
  -6  -1  -8  180.28    8.90
   6   1   8  190.38   11.40
   6   1   8  197.08   10.20
  -7  -1  -8   31.90    5.10
  -7  -1  -8   31.60    3.20
   7   1   8   23.80    4.10
   7   1   8   32.20    5.50
  -8  -1  -8   16.70    4.40
  -8  -1  -8    9.30    2.20
   8   1   8   10.40    3.90
   8   1   8    7.60    3.40
   9  -2  -8    9.70    3.40
   9  -2  -8    6.50    2.80
  -9   2   8    6.70    1.70
  -9   2   8   10.50    2.30
   8  -2  -8   19.70    3.40
   8  -2  -8   23.70    3.50
  -8   2   8   28.00    2.70
  -8   2   8   20.20    2.80
   7  -2  -8   55.09    4.70
   7  -2  -8   51.49    4.80
  -7   2   8   50.19    4.10
  -7   2   8   56.89    3.70
   6  -2  -8   13.40    2.40
   6  -2  -8   19.20    2.70
   6  -2  -8   18.00    2.70
  -6   2   8   14.20    1.90
  -6   2   8   15.00    2.10
   5  -2  -8    4.90    2.00
   5  -2  -8    5.00    1.70
   5  -2  -8    4.90    1.90
  -5   2   8    6.50    1.30
  -5   2   8    2.80    1.80
  -5   2   8    4.00    1.40
   4  -2  -8    4.90    1.90
   4  -2  -8    1.20    1.60
   4  -2  -8    2.10    1.50
   4  -2  -8    3.20    1.30
  -4   2   8    2.00    1.00
  -4   2   8    1.50    1.10
  -4   2   8    2.20    1.70
   3  -2  -8  118.19    5.50
   3  -2  -8  111.09    5.90
   3  -2  -8  123.29    5.90
   3  -2  -8  122.59    8.00
   3  -2  -8  116.29    5.80
  -3   2   8  117.99    6.60
  -3   2   8  111.79    6.70
  -3   2   8  122.09    5.90
  -3   2   8  117.39    5.40
   2  -2  -8  568.04   24.40
   2  -2  -8  523.45   20.80
   2  -2  -8  535.45   20.80
   2  -2  -8  541.95   21.30
   2  -2  -8  503.05   21.60
  -2   2   8  550.64   22.50
  -2   2   8  523.75   21.00
  -2   2   8  519.85   22.20
  -2   2   8  528.75   21.40
   1  -2  -8    5.10    0.60
   1  -2  -8    5.10    1.30
   1  -2  -8    4.00    1.60
   1  -2  -8    4.90    1.50
   1  -2  -8    5.60    0.70
  -1   2   8    4.40    1.70
  -1   2   8    3.60    1.10
  -1   2   8    4.70    0.90
  -1   2   8    4.50    1.80
   0  -2  -8   71.59    6.10
   0  -2  -8   63.49    2.70
   0  -2  -8   68.29    2.80
   0  -2  -8   63.49    4.70
   0  -2  -8   65.59    4.30
   0   2   8   59.99    4.30
   0   2   8   65.19    4.80
   0   2   8   66.29    3.70
   0   2   8   64.39    3.20
   0   2   8   68.19    4.40
  -1  -2  -8   84.89    5.50
  -1  -2  -8   85.59    3.80
  -1  -2  -8   85.29    5.20
  -1  -2  -8   88.79    3.80
  -1  -2  -8   87.89    4.40
   1   2   8   85.59    4.00
   1   2   8   89.59    5.90
   1   2   8   83.89    5.10
   1   2   8   88.69    5.10
  -2  -2  -8    0.00    0.40
  -2  -2  -8    0.00    1.20
  -2  -2  -8   -1.90    1.30
  -2  -2  -8   -0.40    0.90
   2   2   8    0.20    1.50
   2   2   8    0.60    1.50
   2   2   8    0.50    1.60
  -3  -2  -8    6.40    1.90
  -3  -2  -8    6.90    1.00
  -3  -2  -8    5.80    2.10
  -3  -2  -8    7.10    1.40
   3   2   8    5.60    1.70
   3   2   8    6.90    1.90
   3   2   8    5.00    2.20
  -4  -2  -8    7.60    1.70
  -4  -2  -8    5.30    2.10
  -4  -2  -8    6.30    2.00
  -4  -2  -8    4.60    1.00
   4   2   8    8.00    2.80
   4   2   8    4.30    2.10
   4   2   8    6.60    1.70
  -5  -2  -8   63.79    3.80
  -5  -2  -8   64.29    5.20
  -5  -2  -8   60.49    5.50
   5   2   8   69.59    6.30
   5   2   8   61.89    5.20
  -6  -2  -8  101.99    5.70
  -6  -2  -8  109.99    8.20
   6   2   8  101.59    6.90
   6   2   8  116.29    8.90
  -7  -2  -8    8.00    3.40
  -7  -2  -8    2.20    1.40
   7   2   8    2.40    3.10
   7   2   8   -0.30    2.30
   8   2   8    1.70    2.60
   8   2   8    4.30    3.50
   8  -3  -8    1.30    2.80
   8  -3  -8   -1.30    1.80
  -8   3   8    0.10    1.20
  -8   3   8   -0.50    1.50
   7  -3  -8  121.29    7.00
   7  -3  -8  113.19    7.10
  -7   3   8  128.49    7.10
  -7   3   8  122.99    6.20
   6  -3  -8   51.89    3.90
   6  -3  -8   41.90    3.90
   6  -3  -8   41.70    4.00
  -6   3   8   45.80    3.30
  -6   3   8   48.10    3.80
  -6   3   8   41.20    4.90
   5  -3  -8    3.10    1.40
   5  -3  -8    4.60    2.10
   5  -3  -8    0.90    1.70
  -5   3   8    1.40    1.90
  -5   3   8    3.10    1.40
  -5   3   8    2.80    1.20
   4  -3  -8   -1.10    1.70
   4  -3  -8    0.00    1.70
   4  -3  -8   -1.00    0.90
   4  -3  -8   -0.10    1.50
  -4   3   8   -0.60    1.10
  -4   3   8   -0.30    0.90
  -4   3   8   -1.70    1.80
   3  -3  -8  122.19    7.80
   3  -3  -8  113.79    5.10
   3  -3  -8  117.09    5.90
   3  -3  -8  115.09    5.90
  -3   3   8  114.59    5.50
  -3   3   8  117.39    6.00
  -3   3   8  111.29    7.10
   2  -3  -8   32.00    4.00
   2  -3  -8   29.20    1.50
   2  -3  -8   29.80    2.60
   2  -3  -8   23.30    3.10
   2  -3  -8   26.50    2.60
  -2   3   8   24.70    3.00
  -2   3   8   31.80    3.80
  -2   3   8   30.50    2.60
  -2   3   8   28.60    2.10
   1  -3  -8    7.50    1.50
   1  -3  -8    7.60    2.10
   1  -3  -8    5.40    1.90
  -1   3   8    5.20    2.40
  -1   3   8    6.70    1.40
  -1   3   8    4.50    2.00
  -1   3   8    6.10    1.10
   0  -3  -8   32.40    3.40
   0  -3  -8   28.10    3.60
   0  -3  -8   30.30    2.40
   0   3   8   30.00    3.40
   0   3   8   29.00    3.00
   0   3   8   30.60    2.10
   0   3   8   30.40    3.60
   0   3   8   30.30    3.10
  -1  -3  -8  615.04   26.90
  -1  -3  -8  650.23   27.50
  -1  -3  -8  634.54   25.90
   1   3   8  624.24   26.10
   1   3   8  642.54   26.20
   1   3   8  675.03   27.60
   1   3   8  687.63   27.00
  -2  -3  -8   98.39    6.20
  -2  -3  -8   93.99    6.40
  -2  -3  -8   94.49    5.20
  -2  -3  -8  101.39    4.30
   2   3   8   99.69    5.40
   2   3   8   99.09    6.30
   2   3   8   97.59    5.80
   2   3   8  111.99    7.10
  -3  -3  -8    2.70    0.70
  -3  -3  -8    3.70    2.30
  -3  -3  -8    6.40    2.10
  -3  -3  -8    3.10    1.40
   3   3   8    2.00    1.70
   3   3   8    3.00    2.20
   3   3   8    4.40    1.40
   3   3   8    5.50    2.40
  -4  -3  -8   57.89    3.90
  -4  -3  -8   62.49    5.60
  -4  -3  -8   65.89    3.50
  -4  -3  -8   69.89    5.30
   4   3   8   72.29    6.50
   4   3   8   65.59    3.80
   4   3   8   64.39    4.90
  -5  -3  -8    2.30    1.00
  -5  -3  -8    3.20    2.30
  -5  -3  -8    4.80    1.80
   5   3   8    2.40    2.70
   5   3   8    0.40    2.00
  -6  -3  -8   42.20    5.10
  -6  -3  -8   38.30    3.20
   6   3   8   42.50    6.20
   6   3   8   40.70    4.50
  -7  -3  -8    5.00    1.60
  -7  -3  -8   15.20    4.00
   7   3   8    4.40    3.30
   7   3   8    2.10    2.70
  -8  -3  -8  292.57   15.60
  -8  -3  -8  249.88   12.20
   8   3   8  252.57   13.40
   8   3   8  251.67   16.10
   8  -4  -8   -0.80    2.80
   8  -4  -8    4.30    1.90
  -8   4   8    1.50    1.60
  -8   4   8   -0.40    1.30
   7  -4  -8    8.10    2.00
   7  -4  -8    5.60    2.80
  -7   4   8    8.00    2.20
  -7   4   8    4.60    1.70
   6  -4  -8    2.60    1.40
   6  -4  -8    1.80    2.40
  -6   4   8    1.40    2.40
  -6   4   8    1.50    1.30
  -6   4   8    1.40    1.60
   5  -4  -8  426.76   17.70
   5  -4  -8  433.06   18.10
   5  -4  -8  430.66   18.10
  -5   4   8  436.66   18.50
  -5   4   8  442.66   20.00
  -5   4   8  428.56   17.80
   4  -4  -8  136.09    6.90
   4  -4  -8  131.19    6.00
   4  -4  -8  132.19    6.80
  -4   4   8  140.19    6.50
  -4   4   8  129.99    7.00
  -4   4   8  130.79    8.50
   3  -4  -8   89.19    6.40
   3  -4  -8   87.59    3.90
   3  -4  -8   82.09    4.90
   3  -4  -8   83.09    4.90
  -3   4   8   86.79    4.50
  -3   4   8   88.19    5.10
  -3   4   8   84.09    6.60
   2  -4  -8   17.60    2.20
   2  -4  -8   12.40    2.90
   2  -4  -8   15.50    3.10
   2  -4  -8   15.40    2.00
  -2   4   8   15.10    1.80
  -2   4   8   15.80    2.20
  -2   4   8   14.20    3.10
   1  -4  -8    5.00    2.20
   1  -4  -8    9.20    1.80
   1  -4  -8    7.70    1.60
  -1   4   8    5.50    1.50
  -1   4   8    6.70    2.10
  -1   4   8    5.30    2.50
  -1   4   8    4.40    1.10
   0  -4  -8   52.29    3.20
   0  -4  -8   52.49    4.60
   0  -4  -8   50.09    3.60
   0   4   8   54.79    4.40
   0   4   8   58.29    4.80
   0   4   8   53.29    4.10
   0   4   8   49.70    5.50
  -1  -4  -8   44.30    2.80
  -1  -4  -8   40.10    4.00
  -1  -4  -8   42.00    4.80
  -1  -4  -8   44.80    3.40
   1   4   8   44.70    3.80
   1   4   8   50.19    4.40
   1   4   8   46.40    4.60
  -2  -4  -8  321.97   15.80
  -2  -4  -8  332.37   13.30
  -2  -4  -8  337.47   13.70
  -2  -4  -8  328.67   14.60
  -2  -4  -8  340.17   16.50
   2   4   8  362.56   16.60
   2   4   8  341.27   14.80
   2   4   8  346.07   15.70
  -3  -4  -8  181.28   10.00
  -3  -4  -8  170.08    8.60
  -3  -4  -8  181.78    7.60
  -3  -4  -8  168.38   10.20
   3   4   8  168.68    8.90
   3   4   8  189.88   10.00
   3   4   8  202.58   11.10
  -4  -4  -8  166.68    8.70
  -4  -4  -8  175.98   10.70
  -4  -4  -8  186.08   10.40
  -4  -4  -8  188.98    8.10
   4   4   8  178.68    9.20
   4   4   8  197.88   11.50
   4   4   8  193.28   10.30
  -5  -4  -8   16.00    4.00
  -5  -4  -8   14.00    1.80
   5   4   8   12.60    2.60
   5   4   8   17.00    3.70
   5   4   8   18.40    4.40
  -6  -4  -8   27.60    4.60
  -6  -4  -8   16.80    2.30
   6   4   8   22.40    5.20
   6   4   8   16.50    3.10
  -7  -4  -8   52.49    3.90
  -7  -4  -8   68.59    6.20
   7   4   8   56.99    7.30
   7   4   8   47.00    5.20
   7  -5  -8   54.89    4.00
   7  -5  -8   50.59    5.00
  -7   5   8   52.99    3.80
  -7   5   8   53.39    4.80
   6  -5  -8    1.20    2.70
   6  -5  -8    1.30    1.20
  -6   5   8   -0.10    1.50
  -6   5   8   -3.60    2.30
  -6   5   8    1.60    1.40
   5  -5  -8   24.10    2.20
   5  -5  -8   17.60    3.10
  -5   5   8   21.90    2.50
  -5   5   8   25.10    3.10
  -5   5   8   17.40    4.00
   4  -5  -8  323.57   13.00
   4  -5  -8  314.17   13.70
   4  -5  -8  316.87   13.70
  -4   5   8  310.37   13.50
  -4   5   8  320.47   16.10
  -4   5   8  323.17   14.30
   3  -5  -8    1.70    1.60
   3  -5  -8    2.00    1.80
  -3   5   8    2.20    1.10
  -3   5   8    2.00    2.50
  -3   5   8    0.00    1.40
   2  -5  -8  234.68   12.50
   2  -5  -8  217.78    9.80
   2  -5  -8  217.28    9.80
  -2   5   8  213.78   10.40
  -2   5   8  227.58   10.80
  -2   5   8  229.38   12.50
   1  -5  -8    8.30    1.60
   1  -5  -8    8.20    2.80
   1  -5  -8   10.80    1.80
  -1   5   8    7.90    3.20
  -1   5   8   13.80    2.80
  -1   5   8    4.80    1.70
   0  -5  -8   13.30    3.10
   0  -5  -8   16.40    1.90
   0  -5  -8   18.00    2.80
   0  -5  -8   13.40    1.70
   0   5   8   13.00    3.50
   0   5   8   19.70    3.50
   0   5   8   18.10    3.30
  -1  -5  -8   77.09    3.90
  -1  -5  -8   76.49    5.00
  -1  -5  -8   74.39    6.00
  -1  -5  -8   70.39    6.50
  -1  -5  -8   71.19    3.90
   1   5   8   83.59    6.00
   1   5   8   77.19    5.00
   1   5   8   81.09    6.20
  -2  -5  -8  142.89    9.40
  -2  -5  -8  139.49    7.60
  -2  -5  -8  133.59    8.60
   2   5   8  147.99    8.90
   2   5   8  148.49    7.50
   2   5   8  152.98    9.20
  -3  -5  -8   26.20    3.20
  -3  -5  -8   31.00    4.80
  -3  -5  -8   36.30    4.40
  -3  -5  -8   28.50    1.90
   3   5   8   25.40    3.10
   3   5   8   35.30    4.90
   3   5   8   32.70    5.00
  -4  -5  -8   30.80    4.80
  -4  -5  -8   25.10    3.10
  -4  -5  -8   28.60    2.20
   4   5   8   38.00    5.70
   4   5   8   37.10    4.90
   4   5   8   27.30    3.30
  -5  -5  -8    4.30    2.50
  -5  -5  -8    0.00    0.80
   5   5   8    2.20    3.10
   5   5   8    1.70    2.70
   5   5   8   -3.50    1.60
  -6  -5  -8   61.59    4.00
  -6  -5  -8   70.49    6.60
   6   5   8   51.79    5.00
   6   5   8   70.29    7.70
   6   5   8   59.69    6.10
   6  -6  -8    0.10    1.10
   6  -6  -8   -1.10    2.30
  -6   6   8   -4.00    2.70
  -6   6   8   -3.40    1.40
   5  -6  -8    1.50    2.40
  -5   6   8   -1.00    1.50
  -5   6   8   -1.50    2.70
   4  -6  -8   -0.10    2.00
   4  -6  -8    4.70    2.10
  -4   6   8    3.00    3.00
  -4   6   8    1.80    1.70
   3  -6  -8    4.20    2.10
   3  -6  -8    2.10    1.90
  -3   6   8    7.30    2.10
  -3   6   8    3.90    3.20
  -3   6   8    7.00    2.20
   2  -6  -8   60.09    4.10
   2  -6  -8   66.79    4.20
  -2   6   8   68.09    4.80
  -2   6   8   77.89    5.40
  -2   6   8   68.49    7.30
   1  -6  -8   -0.60    1.50
   1  -6  -8   -4.90    2.20
   1  -6  -8   -1.30    1.50
   1  -6  -8   -1.20    1.40
  -1   6   8    0.60    2.10
  -1   6   8   -2.40    2.80
   0  -6  -8   57.29    4.60
   0  -6  -8   50.09    5.60
   0   6   8   59.29    7.30
   0   6   8   69.09    5.80
   0   6   8   63.49    5.40
  -1  -6  -8   -0.10    2.80
  -1  -6  -8    1.10    1.90
  -1  -6  -8    0.70    2.20
   1   6   8    0.80    2.10
   1   6   8    3.70    2.70
  -2  -6  -8   40.40    5.80
  -2  -6  -8   41.40    4.10
   2   6   8   45.70    4.10
   2   6   8   53.99    5.80
   2   6   8   53.79    5.70
  -3  -6  -8   35.10    5.40
  -3  -6  -8   35.30    3.90
   3   6   8   46.70    6.10
   3   6   8   30.10    3.40
   3   6   8   45.00    5.70
  -4  -6  -8    3.40    2.10
  -4  -6  -8    4.20    2.90
   4   6   8    8.10    3.40
   4   6   8    4.40    3.20
  -5  -6  -8   35.10    5.00
  -5  -6  -8   42.50    2.60
   5   6   8   38.60    5.90
   5   6   8   34.30    6.20
   6   6   8    1.40    2.70
   6   6   8    5.70    3.80
   5  -7  -8   28.30    3.50
  -5   7   8   19.00    3.10
  -5   7   8   18.40    4.80
   4  -7  -8   10.50    2.60
  -4   7   8   12.30    4.40
  -4   7   8   13.00    2.70
   3  -7  -8    3.50    2.10
  -3   7   8    9.90    3.40
  -3   7   8    2.90    3.60
  -3   7   8    4.60    2.00
   2  -7  -8   12.80    2.90
  -2   7   8    8.30    2.30
  -2   7   8   13.10    3.20
  -2   7   8    9.90    4.20
   1  -7  -8    8.90    2.70
  -1   7   8    4.00    3.60
  -1   7   8   11.90    3.20
   0  -7  -8    7.80    2.60
   0  -7  -8    3.70    4.10
   0   7   8    7.80    4.20
   0   7   8   11.70    3.30
   0   7   8   10.30    2.90
  -1  -7  -8   40.60    6.70
  -1  -7  -8   36.80    4.20
   1   7   8   46.20    5.20
   1   7   8   41.50    5.30
  -2  -7  -8   32.00    6.00
  -2  -7  -8   35.80    4.30
   2   7   8   41.90    5.40
   2   7   8   42.00    5.90
  -3  -7  -8    3.70    2.50
  -3  -7  -8    2.50    2.90
   3   7   8    2.40    2.70
   3   7   8    4.10    3.50
  -4  -7  -8    4.70    2.80
  -4  -7  -8    1.50    2.00
   4   7   8    3.00    3.10
   4   7   8    2.80    3.10
  -4   8   8    3.90    3.80
  -4   8   8    9.50    2.70
   3  -8  -8   45.90    4.90
  -3   8   8   36.90    4.40
  -3   8   8   33.10    5.90
   2  -8  -8    2.20    2.30
  -2   8   8   -2.10    3.50
  -2   8   8    5.60    2.60
   1  -8  -8   -0.20    2.00
  -1   8   8   -2.10    3.60
  -1   8   8    2.10    2.40
   0  -8  -8    0.60    2.20
   0   8   8    1.60    2.70
   0   8   8   -5.60    3.30
  -1  -8  -8    9.10    3.00
  -1  -8  -8    8.40    4.70
   1   8   8   15.20    4.30
   1   8   8   11.30    3.20
  -2  -8  -8   14.80    4.80
  -2  -8  -8   13.30    3.40
   2   8   8   18.80    4.20
   2   8   8   17.80    4.30
   1  10  -9    6.60    2.70
  -1 -10   9   -4.80    2.60
  -1 -10   9    2.00    3.80
   0  10  -9    6.90    2.60
   0 -10   9   -6.80    2.70
   0 -10   9   -5.60    3.80
   1 -10   9   -4.60    2.40
   4   9  -9  -13.20    4.70
  -4  -9   9   -5.40    2.50
   3   9  -9   -6.80    3.00
   3   9  -9   -9.90    6.30
  -3  -9   9   -3.80    2.60
   2   9  -9   -1.40    2.60
  -2  -9   9    6.20    2.20
  -2  -9   9   -1.80    3.00
  -2  -9   9   -5.30    2.30
   1   9  -9    2.90    2.50
  -1  -9   9   -5.90    2.30
  -1  -9   9    4.20    1.80
  -1  -9   9   -1.90    3.60
   0   9  -9   -8.50    5.60
   0   9  -9   10.90    2.90
   0  -9   9   -0.10    3.80
   0  -9   9    0.80    2.80
  -1   9  -9    5.70    2.50
   1  -9   9   -3.40    2.30
  -2   9  -9    4.60    3.20
  -2   9  -9   17.30    3.30
   2  -9   9    9.00    3.20
  -3   9  -9   13.20    2.80
  -3   9  -9    5.00    2.90
   3  -9   9    2.90    2.90
  -4   9  -9   15.30    3.80
   4  -9   9    4.70    3.00
   5   8  -9  -10.40    4.40
   5   8  -9   -9.40    6.40
  -5  -8   9    0.80    2.40
  -5  -8   9    9.80    2.70
   4   8  -9   -2.00    3.30
   4   8  -9   -3.30    6.90
  -4  -8   9    6.60    2.50
  -4  -8   9   -2.20    2.60
   3   8  -9  232.38   13.50
  -3  -8   9  239.68   12.40
  -3  -8   9  253.67   12.30
  -3  -8   9  230.48   12.70
   2   8  -9   20.70    4.10
  -2  -8   9   30.30    3.50
  -2  -8   9   14.90    3.60
  -2  -8   9   22.10    4.30
   1   8  -9   79.69    6.40
   1   8  -9   51.39   12.00
  -1  -8   9   86.89    5.40
  -1  -8   9   73.09    6.70
  -1  -8   9   74.39    6.60
   0   8  -9    9.10    2.70
   0   8  -9   -3.70    4.50
   0  -8   9   12.40    2.40
   0  -8   9    6.50    3.80
   0  -8   9    4.90    2.70
  -1   8  -9   -4.30    4.20
  -1   8  -9    4.90    2.20
  -1   8  -9    0.60    2.10
   1  -8   9    1.40    2.40
  -2   8  -9   24.20    3.70
  -2   8  -9   11.20    5.40
  -2   8  -9   17.40    3.50
   2  -8   9   20.80    3.60
  -3   8  -9   34.10    4.90
  -3   8  -9   38.20    4.40
   3  -8   9   31.00    4.30
  -4   8  -9    4.40    2.10
  -4   8  -9   -4.40    3.30
   4  -8   9   -1.50    2.00
  -5   8  -9   61.89    5.30
  -5   8  -9   59.89    6.30
   6   7  -9    4.70    7.90
   6   7  -9   20.90    4.60
   6   7  -9   15.70    5.70
  -6  -7   9   16.50    3.30
  -6  -7   9   23.00    2.90
   5   7  -9   -0.20    5.90
  -5  -7   9    2.40    2.70
   4   7  -9   -2.40    5.20
   4   7  -9    1.90    3.10
  -4  -7   9    3.30    2.40
  -4  -7   9    6.30    2.70
  -4  -7   9    7.70    2.40
   3   7  -9   -2.80    4.70
   3   7  -9   -3.30    2.40
  -3  -7   9   -2.80    2.20
  -3  -7   9    3.20    1.90
  -3  -7   9    0.30    2.60
   2   7  -9   63.39   12.50
   2   7  -9   84.39    6.50
  -2  -7   9   86.89    5.50
  -2  -7   9   83.39    6.70
  -2  -7   9   78.39    6.40
   1   7  -9   70.29    5.90
   1   7  -9   57.19   10.50
  -1  -7   9   82.49    5.00
  -1  -7   9   71.19    6.70
  -1  -7   9   75.19    5.80
   0   7  -9  436.06   27.40
   0   7  -9  487.85   21.40
   0  -7   9  475.35   21.10
   0  -7   9  496.55   20.20
   0  -7   9  502.95   22.10
  -1   7  -9   16.40    2.90
  -1   7  -9   17.10    3.10
  -1   7  -9   11.50    4.70
   1  -7   9   12.70    3.10
   1  -7   9   14.40    4.30
  -2   7  -9    4.20    2.00
  -2   7  -9    1.40    3.30
  -2   7  -9    6.50    2.20
   2  -7   9    4.60    2.60
  -3   7  -9   16.10    3.10
  -3   7  -9   10.60    4.00
   3  -7   9   15.60    3.10
   3  -7   9   17.00    2.40
  -4   7  -9    5.50    3.30
  -4   7  -9   11.90    2.90
   4  -7   9   10.00    3.00
   4  -7   9    9.70    2.30
  -5   7  -9   10.90    4.10
   5  -7   9   16.70    3.00
   5  -7   9   21.60    3.60
  -6   7  -9   75.19    6.00
   6  -7   9   54.99    5.50
   6  -7   9   58.49    5.60
   7   6  -9   -1.90    3.10
  -7  -6   9    0.50    1.60
  -7  -6   9    4.60    2.60
   6   6  -9  108.39    8.50
   6   6  -9   80.49    8.80
   6   6  -9   73.39   15.70
  -6  -6   9  125.19    7.80
  -6  -6   9  111.29    5.90
  -6  -6   9  111.09    7.30
   5   6  -9   30.20    3.50
   5   6  -9   15.00    7.40
  -5  -6   9   34.00    5.90
  -5  -6   9   23.10    2.70
  -5  -6   9   32.40    3.80
  -5  -6   9   22.10    3.50
   4   6  -9   15.40    1.90
   4   6  -9    7.20    5.90
   4   6  -9   10.90    3.50
  -4  -6   9   24.20    3.20
  -4  -6   9   22.90    3.60
  -4  -6   9   12.90    3.00
   3   6  -9    0.20    2.20
   3   6  -9    0.00    3.90
  -3  -6   9   -0.90    2.20
  -3  -6   9    2.50    1.70
  -3  -6   9   -3.40    1.80
   2   6  -9    5.80    4.20
   2   6  -9    8.90    2.80
  -2  -6   9   11.40    2.30
  -2  -6   9   11.30    3.30
  -2  -6   9    7.70    2.60
   1   6  -9   18.70    3.10
  -1  -6   9   13.10    2.80
  -1  -6   9   18.50    2.20
  -1  -6   9   14.40    3.90
   0   6  -9    1.70    3.00
   0   6  -9    4.70    1.70
   0   6  -9    5.30    2.00
   0  -6   9    5.20    1.40
   0  -6   9    3.90    3.10
   0  -6   9    2.40    2.00
   0  -6   9    3.10    1.30
  -1   6  -9  279.07   13.10
  -1   6  -9  278.57   18.10
   1  -6   9  264.47   12.90
   1  -6   9  278.47   11.80
   1  -6   9  273.07   14.00
  -2   6  -9   56.09    8.10
  -2   6  -9   57.89    4.70
   2  -6   9   61.89    4.90
   2  -6   9   63.79    4.00
  -3   6  -9   58.39    4.90
  -3   6  -9   57.79    7.90
   3  -6   9   65.69    5.20
   3  -6   9   59.99    4.30
  -4   6  -9   27.20    3.70
  -4   6  -9   13.00    3.80
   4  -6   9   20.90    3.00
   4  -6   9   20.30    3.30
  -5   6  -9   11.20    3.80
  -5   6  -9   16.20    3.20
   5  -6   9   14.50    3.10
   5  -6   9   10.40    2.70
  -6   6  -9   63.39    5.40
   6  -6   9   56.99    5.50
   6  -6   9   65.89    5.90
   7  -6   9    4.20    3.10
   7  -6   9    7.20    2.40
   8   5  -9   -3.00    3.30
  -8  -5   9    2.00    1.50
   7   5  -9   -8.10    5.40
   7   5  -9   -0.60    3.00
  -7  -5   9    1.60    2.10
  -7  -5   9    2.70    1.70
  -7  -5   9    0.60    1.40
   6   5  -9    4.10    1.80
   6   5  -9    5.80    3.30
   6   5  -9   -0.50    5.40
  -6  -5   9    4.80    2.40
  -6  -5   9    8.00    1.80
  -6  -5   9    8.20    2.70
   5   5  -9    4.10    1.60
   5   5  -9    7.20    1.70
   5   5  -9   -2.20    4.90
  -5  -5   9    5.70    1.50
  -5  -5   9    4.60    2.20
  -5  -5   9    5.10    2.40
  -5  -5   9    5.90    2.20
   4   5  -9   50.09    3.30
   4   5  -9   42.70    5.10
  -4  -5   9   43.50    4.30
  -4  -5   9   49.80    4.60
  -4  -5   9   54.09    4.30
  -4  -5   9   48.80    3.40
   3   5  -9   70.99   10.30
   3   5  -9   82.69    6.10
  -3  -5   9   91.89    5.50
  -3  -5   9   90.19    5.70
  -3  -5   9   92.39    6.30
   2   5  -9   84.19   10.00
   2   5  -9   88.19    6.10
  -2  -5   9   90.29    5.70
  -2  -5   9   86.29    5.10
  -2  -5   9   84.39    6.20
   1   5  -9   75.59    5.30
   1   5  -9   80.59    9.40
  -1  -5   9   80.69    4.30
  -1  -5   9   81.39    4.50
  -1  -5   9   78.29    5.50
  -1  -5   9   75.29    6.20
   0   5  -9    0.80    2.30
   0   5  -9    0.60    1.40
   0  -5   9    2.00    1.00
   0  -5   9   -1.10    1.60
   0  -5   9    0.60    1.20
   0  -5   9    1.50    2.70
  -1   5  -9  136.79    7.70
  -1   5  -9  147.59   11.80
   1  -5   9  150.78    7.90
   1  -5   9  153.38    6.60
   1  -5   9  153.18    9.00
   1  -5   9  142.19    7.00
  -2   5  -9  166.18   12.50
  -2   5  -9  146.99    8.30
   2  -5   9  160.88    8.40
   2  -5   9  169.88    7.90
   2  -5   9  170.78   10.00
  -3   5  -9    3.60    2.30
  -3   5  -9    5.00    1.70
   3  -5   9    5.10    2.00
   3  -5   9    4.30    1.80
  -4   5  -9    0.90    1.50
  -4   5  -9   -1.30    1.60
   4  -5   9    0.30    1.80
   4  -5   9    1.50    2.00
  -5   5  -9   87.39    9.00
  -5   5  -9  109.99    7.00
  -5   5  -9   90.39    6.20
   5  -5   9   92.09    6.60
   5  -5   9   87.99    6.00
  -6   5  -9   60.29    7.80
  -6   5  -9   72.79    5.50
   6  -5   9   71.69    5.90
   6  -5   9   67.69    5.30
  -7   5  -9    2.90    1.80
   7  -5   9    1.90    2.10
   7  -5   9   -1.00    2.80
   8   4  -9    5.10    3.60
  -8  -4   9    7.50    1.70
  -8  -4   9    3.30    1.50
   7   4  -9   -1.40    2.80
   7   4  -9   -4.60    5.30
   7   4  -9    1.50    2.00
  -7  -4   9    1.80    1.90
  -7  -4   9    1.70    1.10
  -7  -4   9    2.10    1.50
   6   4  -9   -1.80    4.90
   6   4  -9    1.30    1.70
   6   4  -9   -1.80    1.50
   6   4  -9    0.00    2.60
  -6  -4   9    0.60    1.30
  -6  -4   9    0.60    1.60
  -6  -4   9    1.30    1.70
   5   4  -9   42.40    5.20
   5   4  -9   39.80    3.20
   5   4  -9   46.30    3.30
  -5  -4   9   43.80    4.10
  -5  -4   9   45.50    4.20
  -5  -4   9   38.60    3.10
  -5  -4   9   42.20    3.90
   4   4  -9    6.10    1.50
   4   4  -9    1.70    3.60
   4   4  -9    6.50    2.70
  -4  -4   9    3.90    1.30
  -4  -4   9    3.90    1.90
  -4  -4   9    7.40    2.50
  -4  -4   9    5.30    1.00
  -4  -4   9    9.50    2.30
   3   4  -9   32.40    4.10
   3   4  -9   32.80    7.00
  -3  -4   9   30.80    3.00
  -3  -4   9   38.30    2.10
  -3  -4   9   34.80    4.30
  -3  -4   9   33.50    2.50
  -3  -4   9   32.40    3.40
   2   4  -9   19.90    2.90
   2   4  -9   14.80    4.10
  -2  -4   9   17.10    2.20
  -2  -4   9   16.50    2.60
  -2  -4   9   17.90    1.20
  -2  -4   9   18.80    3.40
  -2  -4   9   15.10    1.70
   1   4  -9    1.90    2.10
   1   4  -9    2.60    1.60
  -1  -4   9    2.00    1.30
  -1  -4   9    4.30    1.20
  -1  -4   9    2.50    1.70
  -1  -4   9    1.00    2.50
   0   4  -9   24.60    2.80
   0   4  -9   22.90    4.80
   0  -4   9   23.20    2.90
   0  -4   9   25.70    2.00
   0  -4   9   31.30    2.10
   0  -4   9   24.30    3.80
   0  -4   9   25.10    2.60
  -1   4  -9  308.97   14.30
  -1   4  -9  318.87   18.40
   1  -4   9  328.37   15.50
   1  -4   9  333.37   13.90
   1  -4   9  349.57   14.20
   1  -4   9  328.57   14.30
  -2   4  -9  172.38   12.10
  -2   4  -9  166.18    8.40
  -2   4  -9  151.48    8.80
   2  -4   9  183.68    9.80
   2  -4   9  172.58    8.20
   2  -4   9  172.58    7.10
   2  -4   9  181.68    8.60
  -3   4  -9    3.80    1.60
  -3   4  -9    3.40    1.90
  -3   4  -9    2.10    2.10
   3  -4   9    4.30    0.70
   3  -4   9    4.30    1.80
   3  -4   9    2.00    3.20
   3  -4   9    3.70    1.80
  -4   4  -9    9.70    3.00
  -4   4  -9   15.70    2.40
  -4   4  -9   14.00    3.10
   4  -4   9   14.00    2.40
   4  -4   9    9.70    3.60
   4  -4   9   15.60    2.80
  -5   4  -9   27.70    3.30
  -5   4  -9   31.80    3.90
  -5   4  -9   24.90    5.30
  -5   4  -9   26.80    4.30
   5  -4   9   30.40    3.30
   5  -4   9   25.30    3.70
   5  -4   9   30.10    5.10
  -6   4  -9   12.80    3.50
  -6   4  -9   19.10    3.00
   6  -4   9   21.20    3.00
   6  -4   9   21.60    4.80
   6  -4   9   27.10    4.20
  -7   4  -9    9.90    3.30
  -7   4  -9   17.00    3.00
   7  -4   9   10.80    4.50
   7  -4   9   18.00    3.90
  -8   4  -9   29.90    3.60
   8  -4   9   15.10    4.00
   8   3  -9   22.60    4.30
   8   3  -9   21.40    3.10
  -8  -3   9   22.70    2.80
  -8  -3   9   23.10    2.70
   7   3  -9   10.30    3.70
   7   3  -9   12.30    2.40
   7   3  -9   12.70    2.50
   7   3  -9    3.10    5.50
  -7  -3   9   14.50    2.10
  -7  -3   9   13.20    2.00
  -7  -3   9   16.20    3.20
   6   3  -9   15.00    2.20
   6   3  -9   14.50    3.60
   6   3  -9   19.10    2.50
  -6  -3   9   15.00    2.60
  -6  -3   9   15.30    2.00
  -6  -3   9   15.90    1.90
  -6  -3   9   19.00    3.00
   5   3  -9   20.10    3.40
   5   3  -9   25.00    2.70
   5   3  -9   20.20    2.40
  -5  -3   9   20.10    2.60
  -5  -3   9   22.60    2.20
  -5  -3   9   22.90    2.20
  -5  -3   9   25.40    3.50
   4   3  -9    3.10    2.30
   4   3  -9    0.00    3.00
   4   3  -9    2.60    1.40
  -4  -3   9    1.40    1.50
  -4  -3   9    3.30    1.20
  -4  -3   9    1.70    2.10
  -4  -3   9    1.40    0.80
   3   3  -9  217.68   10.70
   3   3  -9  212.58   14.90
   3   3  -9  217.68    9.40
  -3  -3   9  232.78    9.10
  -3  -3   9  218.68    9.40
  -3  -3   9  216.88   10.20
  -3  -3   9  207.68   10.80
   2   3  -9   75.99    5.00
   2   3  -9   77.09    8.20
  -2  -3   9   74.89    5.50
  -2  -3   9   81.69    4.90
  -2  -3   9   77.59    3.90
  -2  -3   9   82.39    3.60
   1   3  -9   38.50    3.50
   1   3  -9   43.00    5.80
  -1  -3   9   43.50    2.60
  -1  -3   9   43.90    3.30
  -1  -3   9   47.70    2.50
  -1  -3   9   36.80    4.20
  -1  -3   9   42.90    1.90
  -1  -3   9   42.10    3.40
   0   3  -9   42.70    3.40
   0   3  -9   43.40    5.60
   0  -3   9   39.90    3.50
   0  -3   9   40.00    4.30
   0  -3   9   47.60    2.80
   0  -3   9   43.50    2.50
   0  -3   9   47.90    3.40
  -1   3  -9    5.00    1.50
  -1   3  -9    2.30    1.80
  -1   3  -9    4.80    1.40
   1  -3   9    4.30    1.60
   1  -3   9    9.30    1.40
   1  -3   9    5.20    2.80
   1  -3   9    5.20    0.90
   1  -3   9    4.00    1.50
  -2   3  -9   41.60    3.10
  -2   3  -9   40.40    3.20
  -2   3  -9   40.00    3.60
  -2   3  -9   46.90    5.90
   2  -3   9   42.80    4.60
   2  -3   9   44.90    3.60
   2  -3   9   41.30    3.30
   2  -3   9   43.10    2.20
  -3   3  -9   28.50    5.20
  -3   3  -9   33.10    3.20
  -3   3  -9   32.90    3.60
  -3   3  -9   30.20    2.90
   3  -3   9   37.00    3.20
   3  -3   9   32.80    4.40
   3  -3   9   35.20    1.70
   3  -3   9   35.50    3.50
  -4   3  -9   14.90    2.30
  -4   3  -9   12.40    3.20
  -4   3  -9   15.30    3.10
  -4   3  -9   17.60    3.40
   4  -3   9   11.30    2.60
   4  -3   9   16.20    2.40
   4  -3   9   17.80    3.90
  -5   3  -9    3.20    1.40
  -5   3  -9    1.30    1.80
  -5   3  -9    3.10    2.00
  -5   3  -9    3.00    2.30
   5  -3   9    2.90    2.30
   5  -3   9    1.20    3.20
   5  -3   9    2.10    1.80
   5  -3   9    2.30    1.60
  -6   3  -9    5.70    2.50
  -6   3  -9   11.40    3.90
  -6   3  -9    9.30    2.20
   6  -3   9    5.90    3.70
   6  -3   9    8.00    2.00
   6  -3   9   10.80    2.70
   6  -3   9    9.50    3.20
  -7   3  -9   14.60    4.50
  -7   3  -9   14.80    2.90
   7  -3   9   12.90    4.40
   7  -3   9   10.80    3.50
   9   2  -9    5.50    2.70
   9   2  -9   12.60    4.00
  -9  -2   9   10.20    2.20
  -9  -2   9   12.40    2.10
   8   2  -9   -2.20    2.90
   8   2  -9   -4.50    2.10
  -8  -2   9    3.60    1.50
  -8  -2   9    0.20    1.20
   7   2  -9   -1.20    4.60
   7   2  -9   11.20    2.60
   7   2  -9    5.80    2.20
   7   2  -9    7.80    3.30
  -7  -2   9   11.80    1.90
   6   2  -9   48.00    4.00
   6   2  -9   51.59    3.90
   6   2  -9   52.29    5.50
  -6  -2   9   57.79    3.70
  -6  -2   9   56.59    4.50
  -6  -2   9   53.79    3.50
   5   2  -9   11.10    4.40
   5   2  -9   11.60    2.70
   5   2  -9   17.20    2.20
   5   2  -9   20.10    2.50
  -5  -2   9   12.20    1.60
  -5  -2   9   14.20    2.20
  -5  -2   9   14.80    2.80
  -5  -2   9   13.70    1.80
   4   2  -9    2.00    2.70
   4   2  -9    2.50    1.30
  -4  -2   9    2.80    1.30
  -4  -2   9    2.70    0.90
  -4  -2   9    3.10    1.10
  -4  -2   9    5.70    2.40
   3   2  -9  143.09    7.70
   3   2  -9  144.09   11.20
   3   2  -9  147.59    6.80
  -3  -2   9  151.88    7.20
  -3  -2   9  136.69    6.50
  -3  -2   9  153.38    6.50
  -3  -2   9  144.89    8.00
   2   2  -9   46.80    3.60
   2   2  -9   47.60    6.10
  -2  -2   9   42.80    2.60
  -2  -2   9   42.60    3.20
  -2  -2   9   43.00    4.20
  -2  -2   9   48.00    2.40
   1   2  -9   31.70    4.90
   1   2  -9   31.30    2.90
  -1  -2   9   32.40    2.10
  -1  -2   9   32.90    3.00
  -1  -2   9   31.20    3.10
  -1  -2   9   35.70    1.80
  -1  -2   9   32.20    3.80
   0   2  -9   16.20    2.10
   0   2  -9   12.70    3.00
   0   2  -9   15.80    1.80
   0  -2   9   17.50    3.30
   0  -2   9   20.50    2.40
   0  -2   9   16.20    1.90
   0  -2   9   15.70    1.40
   0  -2   9   17.80    2.30
  -1   2  -9   29.80    2.70
  -1   2  -9   32.30    4.90
  -1   2  -9   33.00    2.70
  -1   2  -9   33.30    2.20
   1  -2   9   29.60    3.80
   1  -2   9   35.20    1.90
   1  -2   9   31.80    2.80
   1  -2   9   36.60    2.80
   1  -2   9   31.50    3.00
  -2   2  -9   43.50    3.10
  -2   2  -9   41.60    3.10
  -2   2  -9   40.50    5.30
  -2   2  -9   40.90    3.40
   2  -2   9   42.50    3.50
   2  -2   9   45.00    4.40
   2  -2   9   44.40    2.10
   2  -2   9   48.80    3.30
  -3   2  -9   21.70    4.20
  -3   2  -9   21.40    2.30
  -3   2  -9   18.70    2.50
  -3   2  -9   18.10    2.60
   3  -2   9   20.00    3.10
   3  -2   9   23.90    3.70
   3  -2   9   19.60    2.70
   3  -2   9   18.10    1.10
   3  -2   9   25.30    2.50
  -4   2  -9  722.83   33.40
  -4   2  -9  664.23   30.00
  -4   2  -9  697.33   28.80
  -4   2  -9  668.83   29.90
   4  -2   9  737.23   28.70
   4  -2   9  719.43   29.80
   4  -2   9  744.13   30.00
   4  -2   9  741.33   29.40
  -5   2  -9   59.39    5.40
  -5   2  -9   61.49    7.10
  -5   2  -9   55.79    4.20
  -5   2  -9   58.79    5.20
   5  -2   9   61.39    5.20
   5  -2   9   52.49    5.40
   5  -2   9   58.69    4.50
   5  -2   9   63.19    5.20
  -6   2  -9  225.28   15.10
  -6   2  -9  240.78   11.40
  -6   2  -9  224.88   12.60
  -6   2  -9  231.68   13.30
   6  -2   9  254.37   12.50
   6  -2   9  252.27   12.50
   6  -2   9  226.58   12.10
  -7   2  -9   31.60    5.90
  -7   2  -9   25.50    3.20
  -7   2  -9   24.70    5.50
   7  -2   9   28.90    4.30
   7  -2   9   23.40    4.30
   7  -2   9   21.30    4.10
  -8   2  -9    1.40    2.20
  -8   2  -9    4.10    2.00
   8  -2   9    9.20    3.70
   9   1  -9   92.29    7.80
   9   1  -9   93.29    6.30
  -9  -1   9   87.99    5.20
  -9  -1   9   94.59    6.10
   8   1  -9  130.39    7.90
   8   1  -9  146.99    9.30
  -8  -1   9  157.88    7.50
  -8  -1   9  164.98    8.10
   7   1  -9   56.09    4.60
   7   1  -9   51.49    5.60
  -7  -1   9   58.59    4.20
  -7  -1   9   59.69    3.80
   6   1  -9   -1.80    1.60
   6   1  -9    0.70    2.00
   6   1  -9   -3.40    3.20
   6   1  -9   -3.10    2.00
   5   1  -9    0.60    2.80
   5   1  -9    2.20    1.70
   5   1  -9    3.80    2.30
   5   1  -9    6.80    1.90
  -5  -1   9    5.80    2.10
  -5  -1   9    3.40    1.20
   4   1  -9   12.60    1.90
   4   1  -9   10.90    3.40
   4   1  -9   11.40    2.40
  -4  -1   9   13.20    1.80
  -4  -1   9   16.10    1.70
  -4  -1   9   14.20    2.80
  -4  -1   9   16.60    1.80
   3   1  -9  682.73   28.60
   3   1  -9  705.53   28.00
   3   1  -9  724.83   32.90
  -3  -1   9  692.13   29.10
  -3  -1   9  687.83   27.70
  -3  -1   9  729.13   27.80
  -3  -1   9  729.33   28.00
   2   1  -9  623.34   25.90
   2   1  -9  646.24   29.90
  -2  -1   9  615.34   26.70
  -2  -1   9  661.43   25.40
  -2  -1   9  631.94   25.20
  -2  -1   9  679.53   25.20
   1   1  -9    0.30    1.40
   1   1  -9    0.60    1.10
   1   1  -9    0.70    0.50
  -1  -1   9   -0.50    1.30
  -1  -1   9   -0.40    2.00
  -1  -1   9   -0.50    0.50
  -1  -1   9    0.10    0.70
  -1  -1   9   -1.00    0.90
   0   1  -9  189.48    8.40
   0   1  -9  190.98    7.80
   0   1  -9  194.28   11.90
   0   1  -9  175.68    8.30
   0  -1   9  198.48    8.30
   0  -1   9  183.68    8.70
   0  -1   9  183.28    9.50
   0  -1   9  188.78    8.60
   0  -1   9  193.98    7.80
  -1   1  -9    8.30    1.20
  -1   1  -9    7.90    1.50
  -1   1  -9    6.80    2.30
  -1   1  -9    7.40    1.30
   1  -1   9   10.10    2.60
   1  -1   9    8.40    1.90
   1  -1   9    7.60    0.90
   1  -1   9    7.00    1.90
   1  -1   9    7.50    1.50
  -2   1  -9  116.29    5.90
  -2   1  -9  110.39    6.10
  -2   1  -9  110.19    8.60
  -2   1  -9  106.99    5.50
   2  -1   9  118.99    6.90
   2  -1   9  109.29    4.70
   2  -1   9  108.19    5.50
   2  -1   9  118.89    6.90
   2  -1   9  114.19    6.10
  -3   1  -9   24.30    2.80
  -3   1  -9   23.30    2.20
  -3   1  -9   21.20    4.10
  -3   1  -9   23.00    2.70
   3  -1   9   24.00    1.20
   3  -1   9   24.20    3.20
   3  -1   9   22.80    2.40
   3  -1   9   23.20    3.00
   3  -1   9   21.70    3.30
  -4   1  -9   50.29    4.40
  -4   1  -9   47.00    4.20
  -4   1  -9   49.70    3.50
  -4   1  -9   52.09    6.40
   4  -1   9   48.10    4.40
   4  -1   9   51.39    4.70
   4  -1   9   51.19    4.70
  -5   1  -9    7.20    2.60
  -5   1  -9    5.30    1.60
  -5   1  -9    5.20    1.90
  -5   1  -9    3.90    2.30
   5  -1   9    3.80    2.40
   5  -1   9    9.00    2.70
   5  -1   9    8.10    2.80
  -6   1  -9   53.69    7.10
  -6   1  -9   54.99    5.80
  -6   1  -9   64.09    5.10
  -6   1  -9   56.49    4.20
   6  -1   9   52.29    5.40
   6  -1   9   60.49    5.50
   6  -1   9   59.59    5.10
  -7   1  -9  109.19    8.80
  -7   1  -9  101.39   10.10
  -7   1  -9  108.39    6.70
   7  -1   9  119.39    8.30
   7  -1   9  118.09    8.30
  -8   1  -9   12.60    2.70
  -8   1  -9    7.40    3.20
   8  -1   9   10.80    3.50
   8  -1   9   13.30    3.70
   9   0  -9    7.00    3.00
   9   0  -9    7.50    3.40
  -9   0   9    9.20    2.40
  -9   0   9   11.20    2.00
   8   0  -9  141.79    7.90
   8   0  -9  136.29    8.90
  -8   0   9  145.49    7.70
  -8   0   9  142.89    7.10
   7   0  -9    9.60    2.60
   7   0  -9    5.80    2.80
  -7   0   9    8.20    1.70
  -7   0   9    9.60    1.80
   6   0  -9   84.49    6.00
   6   0  -9   84.89    5.30
   6   0  -9   85.49    5.40
  -6   0   9   90.39    5.10
  -6   0   9   89.19    4.70
   5   0  -9  119.99    6.30
   5   0  -9  120.89    7.00
   5   0  -9  106.89    9.90
   5   0  -9  124.89    6.40
  -5   0   9  130.39    6.20
  -5   0   9  122.99    5.80
  -5   0   9  122.59    7.00
   4   0  -9   13.10    2.00
   4   0  -9   14.20    2.40
   4   0  -9   10.80    2.10
   4   0  -9   11.20    3.10
  -4   0   9   16.10    2.90
  -4   0   9   14.10    1.70
  -4   0   9   13.70    1.70
   3   0  -9   55.09    3.90
   3   0  -9   78.69    7.00
   3   0  -9   59.19    4.20
  -3   0   9   78.19    3.80
  -3   0   9   58.09    4.70
  -3   0   9   67.39    3.60
   2   0  -9  311.57   13.50
   2   0  -9  317.77   13.10
   2   0  -9  329.87   17.10
   2   0  -9  320.97   13.30
   2   0  -9  318.47   12.70
  -2   0   9  322.97   13.00
  -2   0   9  300.37   14.30
  -2   0   9  339.17   13.10
   1   0  -9   33.50    2.50
   1   0  -9   36.80    4.80
   1   0  -9   31.40    2.20
   1   0  -9   32.60    2.10
  -1   0   9   31.30    2.00
  -1   0   9   30.40    3.00
  -1   0   9   31.70    2.20
  -1   0   9   30.30    3.70
   0   0  -9  329.17   16.70
   0   0  -9  304.67   12.80
   0   0  -9  316.57   13.00
   0   0  -9  316.07   13.10
   0   0   9  309.37   13.50
   0   0   9  310.17   12.60
   0   0   9  316.27   12.50
   0   0   9  293.57   14.00
  -1   0  -9    1.60    0.60
  -1   0  -9    0.70    0.70
  -1   0  -9    0.60    1.30
  -1   0  -9    1.60    1.00
  -1   0  -9    1.60    1.00
   1   0   9   -0.80    2.00
   1   0   9    0.70    1.60
   1   0   9    0.90    0.50
  -2   0  -9  221.28    9.80
  -2   0  -9  224.28   10.50
  -2   0  -9  232.28   10.70
  -2   0  -9  226.68   13.60
   2   0   9  236.68   11.10
   2   0   9  234.08   11.50
   2   0   9  233.88   10.60
   2   0   9  230.58    9.20
  -3   0  -9   16.20    2.40
  -3   0  -9   17.30    1.80
  -3   0  -9   18.30    2.50
  -3   0  -9   19.80    4.00
   3   0   9   17.50    2.70
   3   0   9   17.50    3.00
   3   0   9   20.00    3.40
  -4   0  -9  154.78    8.70
  -4   0  -9  163.98    7.60
  -4   0  -9  160.98    9.00
   4   0   9  168.98    9.50
   4   0   9  160.48    8.50
   4   0   9  165.18    8.50
  -5   0  -9   18.50    2.40
  -5   0  -9   20.10    3.90
  -5   0  -9   23.80    3.10
   5   0   9   18.40    3.10
   5   0   9   16.10    3.00
   5   0   9   18.70    3.70
  -6   0  -9    6.90    3.10
  -6   0  -9    8.00    2.50
  -6   0  -9    5.10    1.70
   6   0   9    8.40    3.10
   6   0   9    8.30    2.50
   6   0   9    7.20    3.00
  -7   0  -9   91.69    6.00
  -7   0  -9   94.39    8.20
   7   0   9   99.39    8.20
   7   0   9   94.69    7.30
  -8   0  -9   14.90    2.70
   8   0   9    9.50    3.50
   8   0   9   17.00    4.10
   9  -1  -9   16.70    3.50
   9  -1  -9   12.30    3.40
  -9   1   9   14.70    2.70
  -9   1   9   20.10    2.60
   8  -1  -9    0.30    2.50
   8  -1  -9    1.00    2.30
  -8   1   9    0.50    1.20
  -8   1   9   -1.90    1.30
   7  -1  -9   -2.50    2.00
   7  -1  -9   -0.80    2.20
  -7   1   9    0.90    1.40
  -7   1   9   -0.10    1.20
   6  -1  -9   10.30    2.50
   6  -1  -9    7.80    2.40
   6  -1  -9    5.50    2.10
  -6   1   9    8.40    1.60
  -6   1   9    7.80    1.80
   5  -1  -9   -0.80    1.50
   5  -1  -9   -0.60    1.90
   5  -1  -9   -1.80    1.80
   5  -1  -9   -0.50    1.70
  -5   1   9    0.50    2.00
  -5   1   9    1.00    1.20
  -5   1   9   -1.10    0.80
   4  -1  -9   85.89    7.50
   4  -1  -9   88.69    4.80
   4  -1  -9   83.79    5.00
   4  -1  -9   83.59    4.80
  -4   1   9   87.49    4.40
  -4   1   9   83.69    5.60
  -4   1   9   85.19    4.70
  -4   1   9   82.29    5.10
   3  -1  -9  108.49    8.30
   3  -1  -9  106.79    4.80
   3  -1  -9  103.69    5.40
   3  -1  -9  105.29    5.40
  -3   1   9  100.29    5.00
  -3   1   9  100.99    6.40
  -3   1   9  114.79    5.40
   2  -1  -9   58.59    3.20
   2  -1  -9   63.29    3.80
   2  -1  -9   57.79    3.50
   2  -1  -9   63.99    6.00
  -2   1   9   56.89    4.50
  -2   1   9   61.19    3.50
  -2   1   9   55.99    3.10
   1  -1  -9   51.79    5.50
   1  -1  -9   51.79    3.00
   1  -1  -9   54.49    3.70
   1  -1  -9   51.29    3.20
  -1   1   9   51.89    4.00
  -1   1   9   52.49    3.10
  -1   1   9   52.29    4.20
  -1   1   9   51.49    2.80
   0  -1  -9   56.09    5.60
   0  -1  -9   52.29    3.40
   0  -1  -9   52.69    2.80
   0  -1  -9   52.99    3.70
   0   1   9   55.89    4.10
   0   1   9   53.29    4.40
   0   1   9   49.50    2.70
  -1  -1  -9  290.37   15.40
  -1  -1  -9  264.67   12.20
  -1  -1  -9  268.47   11.20
  -1  -1  -9  268.37   12.30
  -1  -1  -9  269.47   11.30
   1   1   9  280.37   13.20
   1   1   9  276.27   12.60
   1   1   9  286.77   12.30
   1   1   9  273.07   11.00
  -2  -1  -9    9.30    1.30
  -2  -1  -9    9.70    2.10
  -2  -1  -9   12.20    2.20
  -2  -1  -9   10.40    1.20
   2   1   9    8.80    2.40
   2   1   9   11.80    2.40
   2   1   9    8.70    2.10
   2   1   9   11.90    1.10
  -3  -1  -9    4.90    1.70
  -3  -1  -9    4.20    1.00
  -3  -1  -9    5.30    1.90
   3   1   9    4.00    2.10
   3   1   9    2.10    1.80
   3   1   9    4.90    2.00
  -4  -1  -9   51.49    4.30
  -4  -1  -9   51.49    4.70
  -4  -1  -9   52.89    3.30
   4   1   9   50.29    4.40
   4   1   9   54.09    4.30
   4   1   9   55.09    5.20
  -5  -1  -9   77.29    5.80
  -5  -1  -9   80.89    6.40
  -5  -1  -9   80.39    4.60
   5   1   9   74.09    5.70
   5   1   9   80.69    6.90
   5   1   9   77.39    5.10
  -6  -1  -9    2.60    2.30
  -6  -1  -9    0.00    1.00
   6   1   9    1.10    2.60
   6   1   9    3.00    2.70
  -7  -1  -9   90.39    5.70
  -7  -1  -9   93.19    8.10
   7   1   9   94.29    8.20
   7   1   9   84.39    6.80
  -8  -1  -9   55.79    4.50
   8   1   9   49.60    6.80
   8   1   9   48.00    5.70
   8  -2  -9    1.40    2.80
   8  -2  -9    1.00    2.20
  -8   2   9    0.40    1.60
  -8   2   9    1.40    1.40
   7  -2  -9   -1.40    1.80
   7  -2  -9   -3.30    2.20
  -7   2   9    0.20    1.40
  -7   2   9    2.00    1.40
   6  -2  -9   -0.30    1.60
   6  -2  -9    1.50    2.20
  -6   2   9   -1.50    1.20
  -6   2   9   -1.00    1.00
   5  -2  -9    0.50    1.40
   5  -2  -9    5.40    2.00
   5  -2  -9    0.80    1.70
  -5   2   9    0.70    1.80
  -5   2   9    0.80    1.30
  -5   2   9    2.20    1.20
   4  -2  -9    0.50    1.20
   4  -2  -9    0.50    1.50
   4  -2  -9    0.40    1.40
   4  -2  -9    2.20    1.80
  -4   2   9    0.80    1.70
  -4   2   9    2.00    1.00
  -4   2   9   -0.10    1.10
  -4   2   9   -0.40    1.80
   3  -2  -9  285.97   12.00
   3  -2  -9  266.17   12.00
   3  -2  -9  279.37   12.00
   3  -2  -9  277.67   11.60
   3  -2  -9  297.07   15.20
  -3   2   9  288.87   12.10
  -3   2   9  272.07   13.00
  -3   2   9  270.17   11.70
  -3   2   9  285.57   13.10
   2  -2  -9  604.04   26.70
   2  -2  -9  570.74   22.50
   2  -2  -9  562.54   23.40
   2  -2  -9  583.24   23.10
  -2   2   9  551.54   24.10
  -2   2   9  579.14   22.90
  -2   2   9  594.34   23.30
   1  -2  -9   64.89    2.80
   1  -2  -9   67.89    6.20
   1  -2  -9   66.19    4.10
   1  -2  -9   65.49    3.90
   1  -2  -9   62.89    2.90
  -1   2   9   65.29    3.40
  -1   2   9   66.39    4.40
  -1   2   9   63.39    4.60
  -1   2   9   62.79    3.80
   0  -2  -9  312.67   12.70
   0  -2  -9  334.27   12.70
   0  -2  -9  326.67   14.80
   0  -2  -9  322.17   14.30
   0  -2  -9  356.16   17.50
   0   2   9  329.67   14.60
   0   2   9  324.07   14.20
   0   2   9  323.67   13.20
  -1  -2  -9   49.20    4.20
  -1  -2  -9   50.19    3.20
  -1  -2  -9   54.09    2.50
  -1  -2  -9   52.39    3.90
   1   2   9   53.79    4.20
   1   2   9   54.29    4.10
   1   2   9   51.09    2.80
   1   2   9   58.89    4.80
  -2  -2  -9   17.00    3.00
  -2  -2  -9   13.80    1.80
  -2  -2  -9   16.60    1.30
  -2  -2  -9   17.40    2.50
   2   2   9   16.60    2.70
   2   2   9   15.40    3.10
   2   2   9   13.40    2.40
  -3  -2  -9    9.30    2.30
  -3  -2  -9    8.30    2.40
  -3  -2  -9    6.20    1.00
   3   2   9    6.50    2.10
   3   2   9    8.40    2.00
   3   2   9    9.50    2.80
  -4  -2  -9    3.40    1.60
  -4  -2  -9    2.80    1.90
  -4  -2  -9    1.90    0.80
   4   2   9    2.20    2.30
   4   2   9    2.50    1.50
   4   2   9    0.30    1.80
  -5  -2  -9    5.50    2.60
  -5  -2  -9    3.30    1.10
  -5  -2  -9    7.00    1.90
   5   2   9    3.10    2.20
   5   2   9    4.90    3.00
  -6  -2  -9   27.00    2.90
  -6  -2  -9   33.40    4.70
   6   2   9   26.00    3.90
   6   2   9   31.80    5.40
  -7  -2  -9   50.09    6.00
  -7  -2  -9   34.10    3.50
   7   2   9   41.40    6.60
   7   2   9   37.90    4.90
  -8  -2  -9   76.99    5.00
   8   2   9   59.69    6.40
   8   2   9   68.69    8.00
   8  -3  -9    4.70    2.90
   8  -3  -9    4.30    2.00
  -8   3   9    2.40    1.80
  -8   3   9    5.40    1.80
   7  -3  -9    0.30    2.50
   7  -3  -9    1.60    1.70
  -7   3   9    0.50    1.50
  -7   3   9    3.10    1.40
   6  -3  -9    0.90    1.50
   6  -3  -9   -0.80    2.50
  -6   3   9    0.20    1.50
  -6   3   9    1.80    1.20
   5  -3  -9    3.40    2.20
   5  -3  -9    5.50    1.50
   5  -3  -9    4.20    2.00
  -5   3   9    1.60    2.20
  -5   3   9    8.20    1.90
  -5   3   9    5.80    1.50
   4  -3  -9   -1.50    1.50
   4  -3  -9   -1.50    0.80
   4  -3  -9   -0.80    1.70
  -4   3   9    0.00    1.00
  -4   3   9   -0.80    1.10
  -4   3   9   -0.40    1.80
   3  -3  -9    4.10    1.80
   3  -3  -9    4.70    1.90
   3  -3  -9    4.90    1.60
   3  -3  -9    5.10    1.90
   3  -3  -9    6.10    0.90
  -3   3   9    4.20    1.40
  -3   3   9    5.30    1.20
  -3   3   9    3.80    2.20
   2  -3  -9   96.79    7.40
   2  -3  -9   90.39    5.60
   2  -3  -9   94.79    5.00
   2  -3  -9   92.79    5.10
  -2   3   9   94.99    5.90
  -2   3   9   96.19    5.20
  -2   3   9   92.79    4.70
  -2   3   9   92.89    6.70
   1  -3  -9   13.90    2.40
   1  -3  -9   13.00    1.90
   1  -3  -9   16.80    3.50
  -1   3   9   16.20    2.80
  -1   3   9   14.90    2.00
  -1   3   9   13.60    1.60
   0  -3  -9  119.69    5.60
   0  -3  -9  106.79    6.50
   0  -3  -9  127.79    9.00
   0  -3  -9  111.59    7.10
   0   3   9  114.49    6.30
   0   3   9  109.79    6.40
   0   3   9  111.99    5.30
   0   3   9  115.79    7.20
  -1  -3  -9  109.09    7.10
  -1  -3  -9  112.79    5.40
  -1  -3  -9  109.09    5.70
  -1  -3  -9  110.99    6.70
   1   3   9  115.79    6.40
   1   3   9  110.59    7.20
   1   3   9  116.79    6.30
  -2  -3  -9    0.00    1.20
  -2  -3  -9    1.70    1.50
  -2  -3  -9    0.70    0.40
  -2  -3  -9    1.20    1.80
   2   3   9    0.00    1.80
   2   3   9    0.00    1.70
   2   3   9    0.40    1.40
  -3  -3  -9    9.40    1.20
  -3  -3  -9   15.90    2.90
  -3  -3  -9   12.40    2.10
  -3  -3  -9   11.60    2.90
   3   3   9   10.40    3.20
   3   3   9    8.50    1.90
   3   3   9   12.30    2.60
  -4  -3  -9   86.39    6.20
  -4  -3  -9   86.29    4.40
  -4  -3  -9   86.49    6.80
   4   3   9   87.39    6.00
   4   3   9   98.09    7.50
   4   3   9   87.19    5.00
  -5  -3  -9    2.90    2.20
  -5  -3  -9    1.20    1.00
   5   3   9    1.10    2.20
   5   3   9   -1.00    2.40
  -6  -3  -9   39.80    5.20
  -6  -3  -9   27.10    2.70
   6   3   9   31.70    5.70
   6   3   9   27.10    3.90
  -7  -3  -9   19.20    2.40
   7   3   9   10.10    4.30
   7  -4  -9   21.20    3.70
   7  -4  -9   18.00    2.60
  -7   4   9   22.70    2.80
  -7   4   9   26.50    3.40
   6  -4  -9    1.10    1.30
   6  -4  -9   -4.00    2.50
  -6   4   9   -1.80    1.40
  -6   4   9   -0.10    1.20
   5  -4  -9  287.27   12.00
   5  -4  -9  285.07   12.70
  -5   4   9  280.57   12.30
  -5   4   9  277.57   14.30
  -5   4   9  284.37   13.00
   4  -4  -9    3.10    0.90
   4  -4  -9    4.60    2.10
   4  -4  -9    5.20    1.90
  -4   4   9    4.20    1.80
  -4   4   9    3.60    1.30
  -4   4   9    0.20    2.30
   3  -4  -9    8.00    1.90
   3  -4  -9    7.30    2.50
   3  -4  -9   10.40    2.10
  -3   4   9    7.40    1.80
  -3   4   9    4.10    2.60
  -3   4   9   11.50    1.80
   2  -4  -9    3.10    1.60
   2  -4  -9   -0.10    1.20
   2  -4  -9   -1.10    1.30
   2  -4  -9   -1.30    1.70
  -2   4   9    0.30    2.40
  -2   4   9    0.20    1.00
  -2   4   9   -1.00    1.10
   1  -4  -9   -0.90    1.30
   1  -4  -9    0.60    1.30
   1  -4  -9    0.80    1.50
   1  -4  -9   -1.20    1.60
  -1   4   9   -0.60    1.20
  -1   4   9    0.70    0.90
  -1   4   9   -0.60    2.50
   0  -4  -9    9.50    2.10
   0  -4  -9    7.80    3.10
   0  -4  -9    8.20    2.30
   0  -4  -9    9.10    1.60
   0   4   9    8.60    2.50
   0   4   9    9.60    2.30
   0   4   9   10.40    2.60
  -1  -4  -9   17.90    3.70
  -1  -4  -9   16.50    2.40
  -1  -4  -9   19.00    2.00
  -1  -4  -9   25.10    3.40
   1   4   9   21.60    3.70
   1   4   9   21.70    2.70
   1   4   9   16.00    2.60
   1   4   9   22.10    3.50
  -2  -4  -9   54.89    5.40
  -2  -4  -9   51.09    3.90
  -2  -4  -9   53.89    3.10
  -2  -4  -9   52.89    4.80
   2   4   9   54.39    3.80
   2   4   9   50.59    4.90
   2   4   9   58.69    5.50
   2   4   9   55.39    4.50
  -3  -4  -9   37.00    4.10
  -3  -4  -9   32.70    2.00
  -3  -4  -9   30.00    3.10
  -3  -4  -9   35.00    4.70
   3   4   9   36.70    4.90
   3   4   9   40.60    5.00
   3   4   9   31.80    3.70
  -4  -4  -9    2.70    2.10
  -4  -4  -9    1.00    0.70
   4   4   9    3.10    2.70
   4   4   9   -0.20    1.80
  -5  -4  -9    1.90    0.90
  -5  -4  -9    5.20    2.50
   5   4   9    1.30    3.00
   5   4   9    0.50    2.10
  -6  -4  -9   37.70    3.10
   6   4   9   40.80    6.20
   6   4   9   28.90    4.00
   7   4   9   -0.10    2.20
   7   4   9    3.00    3.80
   7  -5  -9    3.80    2.70
   7  -5  -9    3.30    1.50
  -7   5   9    3.80    1.50
  -7   5   9   -0.10    1.80
   6  -5  -9    8.10    1.60
   6  -5  -9    5.70    2.80
  -6   5   9    8.50    2.00
  -6   5   9    1.90    4.60
  -6   5   9    7.30    2.20
   5  -5  -9   -1.50    2.40
  -5   5   9    0.10    1.60
  -5   5   9    0.70    2.80
  -5   5   9    1.60    1.30
   4  -5  -9   85.69    5.50
   4  -5  -9   83.19    7.40
  -4   5   9   89.79    5.80
  -4   5   9   84.49    7.60
  -4   5   9   91.69    5.00
   3  -5  -9   -0.70    1.60
   3  -5  -9    1.70    1.90
  -3   5   9    1.40    1.20
  -3   5   9   -2.80    2.50
  -3   5   9   -2.10    1.40
   2  -5  -9    1.50    1.60
   2  -5  -9    3.00    1.70
   2  -5  -9    0.50    2.30
  -2   5   9    2.10    1.60
  -2   5   9   -0.30    2.80
   1  -5  -9   62.79    3.90
   1  -5  -9   59.19    4.40
   1  -5  -9   52.89    5.20
   1  -5  -9   55.39    3.90
   1  -5  -9   69.09    6.50
  -1   5   9   66.19    5.20
  -1   5   9   58.89    4.50
  -1   5   9   67.09    6.60
   0  -5  -9    3.50    2.30
   0  -5  -9    3.80    1.80
   0  -5  -9    0.50    2.90
   0  -5  -9    4.10    1.50
   0  -5  -9    0.80    1.30
   0   5   9    1.50    2.20
   0   5   9    1.80    2.30
  -1  -5  -9   65.99    6.50
  -1  -5  -9   71.09    5.80
  -1  -5  -9   67.69    3.80
  -1  -5  -9   63.49    4.70
   1   5   9   74.29    5.90
   1   5   9   74.29    6.20
   1   5   9   62.99    4.90
  -2  -5  -9  132.69    9.20
  -2  -5  -9  135.39    8.60
  -2  -5  -9  131.19    7.30
   2   5   9  136.19    9.00
   2   5   9  121.99    7.30
   2   5   9  141.89    8.60
  -3  -5  -9   55.99    4.40
  -3  -5  -9   56.89    5.90
   3   5   9   66.59    6.40
   3   5   9   58.69    6.10
   3   5   9   53.79    4.70
  -4  -5  -9   76.09    7.00
   4   5   9   84.89    6.80
   4   5   9   63.79    5.30
   4   5   9   82.39    7.50
  -5  -5  -9   54.59    3.30
  -5  -5  -9   60.89    6.30
   5   5   9   37.00    4.50
   5   5   9   54.49    5.90
   5   5   9   51.59    6.60
  -6  -5  -9   60.69    2.80
  -6  -5  -9   41.80    4.50
   6  -6  -9    5.80    2.90
  -6   6   9    3.20    2.00
  -6   6   9    0.70    3.20
   5  -6  -9    6.90    2.60
  -5   6   9    6.40    3.50
  -5   6   9    9.00    2.30
   4  -6  -9   -1.30    2.30
  -4   6   9   -0.70    2.70
  -4   6   9    0.10    1.50
   3  -6  -9   36.40    3.40
   3  -6  -9   46.80    3.90
  -3   6   9   41.20    5.70
  -3   6   9   42.70    4.20
   2  -6  -9   46.20    4.10
   2  -6  -9   31.50    4.90
   2  -6  -9   38.70    3.50
   2  -6  -9   38.60    3.40
  -2   6   9   41.50    4.00
  -2   6   9   51.29    4.70
  -2   6   9   31.00    5.20
   1  -6  -9    8.30    1.90
   1  -6  -9    6.40    3.00
   1  -6  -9    8.50    2.30
  -1   6   9    6.40    3.90
  -1   6   9   13.70    3.20
   0  -6  -9    1.90    1.90
   0  -6  -9   -0.20    2.00
   0  -6  -9   -3.40    3.00
   0   6   9    3.70    2.70
   0   6   9   -0.20    3.30
   0   6   9    3.50    2.40
  -1  -6  -9  109.89    6.80
  -1  -6  -9  102.49    8.50
   1   6   9  118.49    7.90
   1   6   9  119.39    8.10
  -2  -6  -9   15.00    4.30
  -2  -6  -9   12.70    2.90
   2   6   9   14.00    3.60
   2   6   9   15.10    3.80
   2   6   9    6.20    2.30
  -3  -6  -9    5.50    3.20
  -3  -6  -9    5.10    2.30
   3   6   9    5.60    3.20
   3   6   9    0.60    2.00
   3   6   9    2.40    2.60
  -4  -6  -9   25.50    5.00
   4   6   9   23.80    4.80
   4   6   9   23.90    4.80
   5   6   9    1.90    3.00
   5   6   9    0.30    3.00
   4  -7  -9   87.39    5.70
  -4   7   9   86.19    8.70
  -4   7   9   90.29    6.40
   3  -7  -9   49.70    4.80
   3  -7  -9   40.30    4.30
  -3   7   9   48.00    4.50
  -3   7   9   29.50    5.50
   2  -7  -9   14.80    3.20
  -2   7   9   13.10    4.50
  -2   7   9   20.10    3.70
   1  -7  -9   18.50    3.50
  -1   7   9   21.30    4.00
  -1   7   9   10.30    4.50
   0  -7  -9   13.80    5.00
   0  -7  -9   19.40    3.50
   0   7   9   17.10    3.80
   0   7   9   17.90    3.90
   0   7   9   13.00    4.70
  -1  -7  -9   16.20    4.90
  -1  -7  -9   21.60    3.70
   1   7   9   22.70    4.30
   1   7   9   22.60    4.60
  -2  -7  -9   27.40    4.20
  -2  -7  -9   25.10    5.40
   2   7   9   26.90    5.00
   2   7   9   34.70    5.30
  -3  -7  -9   73.39    7.40
  -3  -7  -9   59.09    6.70
   3   7   9   77.99    7.50
   3   7   9   62.79    6.90
  -2   8   9   45.80    7.20
  -2   8   9   63.59    6.70
   1  -8  -9   69.39    5.90
  -1   8   9   70.09    9.40
  -1   8   9   87.79    7.00
   0  -8  -9   -6.50    3.30
   0  -8  -9   -0.20    2.20
   0   8   9    2.60    2.90
   3   9 -10   19.40    5.10
  -3  -9  10   21.00    4.30
   2   9 -10   33.00    5.20
  -2  -9  10   38.70    5.50
  -2  -9  10   26.40    4.60
   1   9 -10    3.40    2.90
  -1  -9  10   -4.50    2.80
  -1  -9  10    0.40    3.60
   0  -9  10   45.20    5.80
   0  -9  10   49.70    6.90
  -1   9 -10   18.10    3.40
  -1   9 -10   -5.80    6.20
   1  -9  10    5.40    4.60
   1  -9  10    5.90    3.10
  -2   9 -10    8.00    2.30
   2  -9  10   -5.30    2.20
   3  -9  10   37.80    5.20
  -5  -8  10    1.20    2.00
   4   8 -10  -10.50    6.60
   4   8 -10   -1.20    3.50
  -4  -8  10    1.20    2.90
   3   8 -10   29.20    5.20
  -3  -8  10   39.20    5.10
  -3  -8  10   27.10    4.40
   2   8 -10   -4.10    5.40
   2   8 -10    2.20    2.80
  -2  -8  10    5.40    2.00
  -2  -8  10   -5.40    2.50
  -2  -8  10    1.70    3.20
   1   8 -10   26.30    4.20
   1   8 -10   10.30    6.20
  -1  -8  10   25.00    4.70
  -1  -8  10   11.90    3.40
   0   8 -10    6.50    2.60
   0   8 -10   -7.20    4.40
   0  -8  10    1.30    3.90
   0  -8  10   -2.00    2.40
  -1   8 -10    6.30    2.50
  -1   8 -10   -2.80    4.40
   1  -8  10   -3.00    4.00
   1  -8  10   -5.40    2.00
  -2   8 -10    2.70    3.30
  -2   8 -10   -3.80    3.40
  -2   8 -10    3.20    2.10
   2  -8  10   -3.00    4.30
   2  -8  10   -3.90    2.30
  -3   8 -10    5.90    2.30
   3  -8  10    1.30    2.70
  -4   8 -10   25.50    4.00
   4  -8  10   20.90    4.00
   6   7 -10    9.10    4.30
  -6  -7  10    7.40    2.10
  -6  -7  10   15.40    2.90
   5   7 -10   -3.10    6.10
  -5  -7  10    5.90    3.00
  -5  -7  10   16.90    3.30
  -5  -7  10    7.40    2.10
   4   7 -10   -2.30    3.00
   4   7 -10   -3.40    5.50
  -4  -7  10   -3.40    2.10
  -4  -7  10    5.30    2.70
  -4  -7  10    8.20    2.40
   3   7 -10   23.20    4.20
   3   7 -10    9.60    6.10
  -3  -7  10   14.30    3.30
  -3  -7  10   21.00    4.00
   2   7 -10    9.80    6.00
   2   7 -10   17.00    3.50
  -2  -7  10   10.60    3.10
  -2  -7  10   18.00    4.00
   1   7 -10   57.09   11.50
   1   7 -10   62.89    5.70
  -1  -7  10   72.49    6.70
  -1  -7  10   60.79    5.60
  -1  -7  10   70.99    4.60
   0   7 -10    8.60    4.80
   0   7 -10   21.50    3.60
   0  -7  10   13.00    3.30
   0  -7  10   22.30    4.90
  -1   7 -10   15.30    2.90
  -1   7 -10    9.10    4.50
   1  -7  10    9.60    2.80
   1  -7  10   13.60    4.70
  -2   7 -10   27.40    3.90
  -2   7 -10    9.80    4.40
   2  -7  10   20.70    5.30
   2  -7  10   16.40    3.20
  -3   7 -10    6.30    2.40
  -3   7 -10    3.50    3.30
   3  -7  10    3.00    2.30
  -4   7 -10    2.40    1.90
  -4   7 -10   -1.40    2.60
   4  -7  10    2.20    1.90
   4  -7  10   -0.20    2.30
  -5   7 -10   -0.90    2.70
   5  -7  10    1.50    2.40
   5  -7  10    2.30    2.20
   6  -7  10    3.40    2.30
   6  -7  10    0.30    2.20
   7   6 -10   56.09    7.60
  -7  -6  10   60.49    4.60
  -7  -6  10   77.39    6.50
   6   6 -10  168.28   11.10
  -6  -6  10  172.18    8.50
  -6  -6  10  183.68    9.80
   5   6 -10    5.40    1.70
   5   6 -10   -5.50    5.50
  -5  -6  10    2.20    1.60
  -5  -6  10    1.80    2.30
  -5  -6  10   -3.10    1.70
  -5  -6  10    4.00    2.10
   4   6 -10   -0.60    5.40
   4   6 -10    9.10    1.70
   4   6 -10    3.70    3.10
  -4  -6  10    4.80    1.70
  -4  -6  10    9.60    3.00
  -4  -6  10    2.10    2.30
  -4  -6  10   13.00    3.00
   3   6 -10   12.40    3.50
   3   6 -10    4.90    4.80
  -3  -6  10   10.60    2.70
  -3  -6  10   13.80    3.40
  -3  -6  10   15.20    2.70
   2   6 -10   38.30    4.60
  -2  -6  10   34.90    4.50
  -2  -6  10   44.10    3.60
  -2  -6  10   40.60    5.20
   1   6 -10   57.29    9.10
   1   6 -10   66.29    5.50
  -1  -6  10   63.59    4.00
  -1  -6  10   52.19    4.90
  -1  -6  10   59.09    6.10
   0   6 -10   81.49    5.90
   0   6 -10   78.29   10.20
   0  -6  10   83.49    4.60
   0  -6  10   82.09    7.20
   0  -6  10   79.89    6.00
  -1   6 -10   -0.40    2.50
  -1   6 -10    0.40    1.60
   1  -6  10   -0.60    3.50
   1  -6  10    0.30    1.30
   1  -6  10    1.90    2.20
  -2   6 -10   -0.10    2.30
  -2   6 -10    1.40    1.60
   2  -6  10    1.80    1.90
   2  -6  10   -1.00    3.70
   2  -6  10    0.10    1.40
  -3   6 -10   21.30    5.00
  -3   6 -10   25.20    3.50
   3  -6  10   22.40    3.50
   3  -6  10   25.40    3.10
   3  -6  10   25.10    5.20
  -4   6 -10    1.50    2.50
  -4   6 -10    7.60    2.40
   4  -6  10    5.50    2.50
   4  -6  10    4.80    2.10
   4  -6  10    0.60    4.10
  -5   6 -10   -0.80    2.20
  -5   6 -10    3.10    1.90
   5  -6  10    1.50    2.10
   5  -6  10   -1.50    2.20
  -6   6 -10    0.50    2.60
  -6   6 -10    4.90    2.00
   6  -6  10    2.50    2.40
   6  -6  10    1.00    2.50
   7   5 -10   -4.50    3.20
  -7  -5  10   -1.00    1.30
   6   5 -10    4.90    3.30
   6   5 -10    6.60    2.00
   6   5 -10   -4.40    5.00
  -6  -5  10    7.50    2.70
  -6  -5  10    5.50    3.20
  -6  -5  10    6.20    1.90
   5   5 -10   52.29    3.60
   5   5 -10   47.80    3.60
  -5  -5  10   46.30    3.60
  -5  -5  10   54.99    4.90
  -5  -5  10   41.40    4.50
  -5  -5  10   45.10    4.60
   4   5 -10   26.40    2.50
   4   5 -10   20.80    4.00
   4   5 -10   12.20    5.80
  -4  -5  10   26.10    3.70
  -4  -5  10   22.30    2.50
  -4  -5  10   26.10    3.30
  -4  -5  10   29.50    4.10
   3   5 -10    7.10    2.80
   3   5 -10    3.30    4.20
  -3  -5  10    7.40    1.50
  -3  -5  10    4.40    2.10
  -3  -5  10   11.50    2.40
  -3  -5  10   10.20    3.00
   2   5 -10   82.19   10.60
   2   5 -10   83.59    6.00
  -2  -5  10   89.59    6.60
  -2  -5  10   78.99    5.60
  -2  -5  10   88.39    5.10
  -2  -5  10   89.49    4.60
   1   5 -10    5.70    2.10
   1   5 -10    6.30    3.20
  -1  -5  10    7.30    1.70
  -1  -5  10   11.20    1.80
  -1  -5  10    8.30    3.40
  -1  -5  10    6.00    2.20
   0   5 -10    9.80    3.50
   0   5 -10   13.70    2.50
   0  -5  10   17.30    2.30
   0  -5  10   14.10    2.80
   0  -5  10   20.20    2.00
   0  -5  10   20.00    4.20
  -1   5 -10   10.40    3.60
  -1   5 -10   13.60    2.50
   1  -5  10   17.20    2.30
   1  -5  10   16.30    2.70
   1  -5  10   20.80    4.30
  -2   5 -10    2.30    1.50
  -2   5 -10    0.10    2.10
   2  -5  10    1.80    1.50
   2  -5  10   -1.30    2.90
   2  -5  10    1.00    0.80
   2  -5  10   -1.10    1.70
  -3   5 -10  233.98   11.80
  -3   5 -10  250.07   16.50
   3  -5  10  239.68   13.20
   3  -5  10  251.17   11.90
   3  -5  10  244.98   11.40
  -4   5 -10    7.20    2.20
  -4   5 -10    4.40    2.80
   4  -5  10    9.70    2.60
   4  -5  10    6.00    4.30
   4  -5  10    8.30    2.50
  -5   5 -10    2.00    1.90
  -5   5 -10    1.00    2.20
   5  -5  10   -6.00    3.90
   5  -5  10    0.80    1.80
   5  -5  10    0.10    2.30
  -6   5 -10  125.89    7.90
  -6   5 -10  115.89   11.20
   6  -5  10  107.79    9.60
   6  -5  10  128.99    8.30
  -7   5 -10   18.00    3.20
   7  -5  10    3.00    4.90
   7  -5  10    9.90    3.50
   8   4 -10    2.90    3.40
  -8  -4  10    7.90    2.00
  -8  -4  10    7.80    1.80
   7   4 -10   -0.10    3.20
   7   4 -10    0.50    2.00
  -7  -4  10    3.80    1.40
  -7  -4  10    4.30    1.60
   6   4 -10   29.40    4.80
   6   4 -10   41.70    3.60
   6   4 -10   31.70    3.20
  -6  -4  10   37.30    2.90
  -6  -4  10   32.40    3.10
  -6  -4  10   35.40    3.90
   5   4 -10    4.10    1.80
   5   4 -10    1.70    2.80
   5   4 -10    6.60    2.00
   5   4 -10   -0.70    4.00
  -5  -4  10    1.40    1.80
  -5  -4  10    5.30    1.50
  -5  -4  10    3.60    1.10
  -5  -4  10    8.30    2.60
   4   4 -10    7.50    2.90
   4   4 -10    8.80    1.70
   4   4 -10    4.00    3.90
  -4  -4  10    8.50    1.20
  -4  -4  10    6.50    2.00
  -4  -4  10    8.70    1.70
  -4  -4  10   11.50    2.90
   3   4 -10   50.49    4.70
   3   4 -10   56.49    9.00
  -3  -4  10   59.49    5.30
  -3  -4  10   49.60    4.30
  -3  -4  10   53.59    3.40
   2   4 -10   66.09    5.20
   2   4 -10   68.19    8.50
  -2  -4  10   73.99    5.10
  -2  -4  10   68.69    3.70
  -2  -4  10   68.19    5.60
   1   4 -10   16.60    2.60
   1   4 -10   14.30    3.80
  -1  -4  10   18.50    2.80
  -1  -4  10   17.50    2.30
  -1  -4  10   20.30    3.70
  -1  -4  10   21.30    1.90
   0   4 -10  391.46   22.20
   0   4 -10  382.86   17.30
   0  -4  10  398.46   18.30
   0  -4  10  409.86   16.10
   0  -4  10  414.96   17.40
   0  -4  10  411.26   16.80
  -1   4 -10   -0.40    1.30
  -1   4 -10    0.00    1.90
   1  -4  10    0.60    2.60
   1  -4  10    0.30    0.70
   1  -4  10   -0.40    1.40
   1  -4  10    2.10    1.50
  -2   4 -10    1.20    1.30
  -2   4 -10   -0.80    1.80
  -2   4 -10    1.30    1.50
   2  -4  10    1.40    1.40
   2  -4  10    0.50    2.80
   2  -4  10    2.30    0.80
   2  -4  10   -0.10    1.40
  -3   4 -10    1.10    1.90
  -3   4 -10    0.10    1.60
  -3   4 -10    2.20    1.50
   3  -4  10    1.30    1.50
   3  -4  10   -2.00    3.10
   3  -4  10    1.70    1.90
  -4   4 -10   22.40    3.30
  -4   4 -10   18.00    2.70
  -4   4 -10   11.10    3.50
   4  -4  10   14.60    4.10
   4  -4  10   16.70    3.00
   4  -4  10   15.20    2.60
  -5   4 -10    0.20    1.90
  -5   4 -10    0.90    1.80
  -5   4 -10    1.40    1.50
   5  -4  10   -1.90    3.30
   5  -4  10    0.20    2.30
   5  -4  10    1.70    2.30
  -6   4 -10   -0.40    1.80
  -6   4 -10    3.20    1.80
   6  -4  10    1.80    2.60
   6  -4  10   -4.10    3.50
  -7   4 -10   54.89    4.80
  -7   4 -10   38.90    7.00
   7  -4  10   44.10    6.40
   7  -4  10   49.80    5.80
   8   3 -10    9.80    2.70
   8   3 -10   12.80    4.00
  -8  -3  10   11.80    2.10
  -8  -3  10   13.50    2.20
   7   3 -10   13.60    4.10
   7   3 -10   12.60    2.70
  -7  -3  10   14.90    3.00
  -7  -3  10   13.70    2.10
  -7  -3  10   11.90    2.10
   6   3 -10   50.29    6.00
   6   3 -10   53.49    4.20
   6   3 -10   57.39    4.20
  -6  -3  10   56.29    3.70
  -6  -3  10   53.29    4.60
  -6  -3  10   49.40    3.60
   5   3 -10   28.10    6.70
   5   3 -10   46.80    3.60
   5   3 -10   44.80    4.80
   5   3 -10   45.80    3.70
  -5  -3  10   42.20    3.00
  -5  -3  10   44.90    4.20
  -5  -3  10   43.40    3.00
   4   3 -10  111.99    5.80
   4   3 -10  103.29   11.50
   4   3 -10  109.89    7.20
  -4  -3  10  115.99    5.70
  -4  -3  10  122.69    7.40
  -4  -3  10  122.19    5.50
  -4  -3  10  124.59    6.50
   3   3 -10  116.79   11.20
   3   3 -10  121.99    6.00
   3   3 -10  112.59    7.00
  -3  -3  10  126.19    7.60
  -3  -3  10  121.49    6.60
  -3  -3  10  127.19    5.50
  -3  -3  10  118.29    5.80
   2   3 -10    3.80    2.70
   2   3 -10    5.10    2.00
  -2  -3  10    6.30    1.30
  -2  -3  10    6.30    0.90
  -2  -3  10    5.20    2.60
  -2  -3  10    3.50    1.60
   1   3 -10   58.69    7.30
   1   3 -10   58.09    4.10
  -1  -3  10   62.09    3.30
  -1  -3  10   56.99    4.20
  -1  -3  10   59.69    4.10
  -1  -3  10   54.09    5.00
   0   3 -10   18.70    2.50
   0   3 -10   24.70    4.80
   0  -3  10   20.60    1.70
   0  -3  10   17.50    2.50
   0  -3  10   19.90    3.60
   0  -3  10   20.30    2.40
  -1   3 -10   32.00    2.90
  -1   3 -10   32.20    5.50
  -1   3 -10   31.70    3.00
   1  -3  10   28.40    3.20
   1  -3  10   31.40    3.10
   1  -3  10   41.80    2.80
   1  -3  10   31.20    4.30
   1  -3  10   35.00    2.10
  -2   3 -10    3.10    2.30
  -2   3 -10    5.80    1.70
  -2   3 -10    8.80    2.10
   2  -3  10    7.20    2.00
   2  -3  10    5.60    1.80
   2  -3  10    7.10    0.90
   2  -3  10   10.50    3.40
  -3   3 -10  425.66   22.70
  -3   3 -10  410.06   19.10
  -3   3 -10  392.16   18.40
  -3   3 -10  422.06   18.10
   3  -3  10  440.46   18.00
   3  -3  10  454.15   18.40
   3  -3  10  420.06   19.20
  -4   3 -10   34.80    3.90
  -4   3 -10   38.60    3.50
  -4   3 -10   42.40    6.30
  -4   3 -10   40.10    4.30
   4  -3  10   43.00    5.10
   4  -3  10   41.80    4.50
   4  -3  10   42.00    5.40
  -5   3 -10    2.00    2.10
  -5   3 -10    2.40    1.60
  -5   3 -10   -0.10    1.80
   5  -3  10   -2.70    3.00
   5  -3  10    3.10    2.50
  -6   3 -10   30.90    6.10
  -6   3 -10   31.60    3.70
  -6   3 -10   39.30    4.90
   6  -3  10   34.80    5.30
   6  -3  10   31.90    4.60
   6  -3  10   37.50    4.50
  -7   3 -10    0.70    1.50
  -7   3 -10    0.50    1.90
   7  -3  10    0.90    2.90
   7  -3  10   -0.80    3.10
  -8   3 -10    3.60    2.50
   8  -3  10    4.10    3.20
   8   2 -10    6.60    2.60
   8   2 -10    2.40    3.30
  -8  -2  10   11.00    2.10
  -8  -2  10   11.80    2.00
   7   2 -10   13.00    3.70
   7   2 -10   16.10    2.80
  -7  -2  10   12.20    2.00
  -7  -2  10   11.60    2.00
  -7  -2  10   15.00    2.90
   6   2 -10    4.00    2.30
   6   2 -10    2.00    1.90
   6   2 -10   -4.70    4.00
   6   2 -10    2.50    2.70
  -6  -2  10    2.30    1.20
  -6  -2  10    6.10    2.40
  -6  -2  10    3.40    1.40
   5   2 -10   52.39    5.20
   5   2 -10   51.39    3.90
   5   2 -10   50.59    4.00
   5   2 -10   38.40    8.60
  -5  -2  10   57.79    3.50
  -5  -2  10   53.39    4.80
  -5  -2  10   54.49    3.40
   4   2 -10   13.70    4.10
   4   2 -10   16.10    2.20
  -4  -2  10   18.40    3.30
  -4  -2  10   22.70    2.00
  -4  -2  10   23.20    2.20
   3   2 -10   71.19    4.20
   3   2 -10   68.19    5.00
   3   2 -10   70.99    8.30
  -3  -2  10   64.99    3.80
  -3  -2  10   69.39    5.50
  -3  -2  10   68.99    3.60
   2   2 -10    2.00    1.60
   2   2 -10    1.90    2.10
  -2  -2  10    3.80    2.60
  -2  -2  10    1.30    0.70
  -2  -2  10    0.60    0.90
  -2  -2  10   -0.10    1.20
   1   2 -10   81.69    8.00
   1   2 -10   78.29    4.80
  -1  -2  10   84.89    3.60
  -1  -2  10   81.49    4.00
  -1  -2  10   72.49    5.70
  -1  -2  10   83.29    4.90
  -1  -2  10   84.39    4.70
   0   2 -10    0.50    0.70
   0   2 -10    0.40    1.50
   0   2 -10   -0.10    1.00
   0  -2  10    0.50    1.40
   0  -2  10   -1.60    1.20
   0  -2  10   -0.60    0.60
   0  -2  10   -1.70    1.00
   0  -2  10    0.10    2.20
  -1   2 -10    6.20    1.40
  -1   2 -10    6.80    1.60
  -1   2 -10    4.90    2.30
   1  -2  10    8.60    1.80
   1  -2  10    8.20    1.00
   1  -2  10    5.40    2.60
   1  -2  10    7.60    1.70
   1  -2  10    8.60    2.10
  -2   2 -10    2.40    1.30
  -2   2 -10    0.90    1.80
  -2   2 -10    3.00    1.10
  -2   2 -10    2.10    1.20
   2  -2  10    1.50    1.40
   2  -2  10    3.10    1.70
   2  -2  10    1.10    2.50
   2  -2  10    1.40    0.60
  -3   2 -10    0.30    1.10
  -3   2 -10   -0.60    1.40
  -3   2 -10    2.10    1.40
  -3   2 -10    0.80    1.20
   3  -2  10    0.20    2.40
   3  -2  10   -0.50    1.70
  -4   2 -10  309.67   15.60
  -4   2 -10  332.17   19.10
  -4   2 -10  318.67   14.50
  -4   2 -10  320.17   15.50
   4  -2  10  347.57   15.90
   4  -2  10  333.47   15.60
   4  -2  10  342.37   15.10
  -5   2 -10    1.50    1.80
  -5   2 -10    1.70    1.40
  -5   2 -10    0.20    1.80
   5  -2  10   -0.10    2.60
   5  -2  10    0.20    1.90
   5  -2  10    0.30    2.20
  -6   2 -10   19.00    3.00
   6  -2  10   20.70    3.70
   6  -2  10   16.40    3.80
   6  -2  10   18.20    3.60
  -7   2 -10    0.40    1.90
  -7   2 -10    3.70    1.60
   7  -2  10    0.70    2.30
   7  -2  10    0.60    3.00
  -8   2 -10   34.20    3.80
   8  -2  10   21.80    4.60
   8   1 -10    0.00    2.40
   8   1 -10   -0.70    2.50
  -8  -1  10   -0.50    1.30
  -8  -1  10    3.40    1.50
   7   1 -10    3.20    2.80
   7   1 -10    3.60    2.30
  -7  -1  10    3.10    1.50
  -7  -1  10    4.90    1.60
   6   1 -10    1.00    2.50
   6   1 -10    2.40    1.80
   6   1 -10   -2.80    3.80
   6   1 -10    2.90    2.10
  -6  -1  10    6.80    1.50
  -6  -1  10    6.90    2.40
  -6  -1  10    6.40    1.60
   5   1 -10    2.10    1.70
   5   1 -10    2.50    2.30
   5   1 -10    3.10    1.90
   5   1 -10   -0.70    2.80
  -5  -1  10    3.00    2.10
  -5  -1  10    3.20    1.30
  -5  -1  10    2.60    1.20
   4   1 -10    3.30    2.10
   4   1 -10    7.10    1.80
   4   1 -10    2.60    2.50
  -4  -1  10    4.50    1.30
  -4  -1  10    5.20    2.60
  -4  -1  10    3.50    1.10
   3   1 -10   93.59    5.70
   3   1 -10   97.09    8.90
   3   1 -10   98.19    5.10
  -3  -1  10   89.89    6.10
  -3  -1  10   87.89    4.60
  -3  -1  10   97.49    4.70
   2   1 -10   62.99    4.20
   2   1 -10   64.39    7.00
  -2  -1  10   63.89    3.40
  -2  -1  10   66.39    3.40
  -2  -1  10   56.29    5.10
   1   1 -10   11.80    1.20
   1   1 -10   13.40    1.90
   1   1 -10    8.80    2.80
  -1  -1  10   10.30    2.00
  -1  -1  10   13.00    1.30
  -1  -1  10   11.60    1.40
  -1  -1  10   13.70    3.00
   0   1 -10   26.60    2.20
   0   1 -10   28.80    4.60
   0   1 -10   27.70    2.40
   0  -1  10   30.30    1.90
   0  -1  10   31.20    4.10
   0  -1  10   29.90    3.30
  -1   1 -10    4.80    1.20
  -1   1 -10    6.00    2.40
  -1   1 -10    5.50    1.40
  -1   1 -10    7.70    1.20
   1  -1  10    7.40    2.70
   1  -1  10    5.30    0.90
   1  -1  10    5.00    1.90
   1  -1  10    3.90    1.80
  -2   1 -10   48.40    3.40
  -2   1 -10   39.40    3.00
  -2   1 -10   47.00    3.60
  -2   1 -10   40.80    5.50
   2  -1  10   46.50    4.10
   2  -1  10   50.99    4.70
   2  -1  10   47.20    2.30
  -3   1 -10    0.10    0.90
  -3   1 -10   -0.30    1.60
  -3   1 -10    1.80    1.20
  -3   1 -10    1.20    1.20
   3  -1  10    1.10    1.80
   3  -1  10   -0.20    1.80
   3  -1  10    0.10    2.10
  -4   1 -10    1.00    1.10
  -4   1 -10    1.10    1.90
  -4   1 -10    2.60    1.70
  -4   1 -10    3.30    1.70
   4  -1  10    0.60    2.00
   4  -1  10    1.60    2.10
   4  -1  10    1.30    2.40
  -5   1 -10   29.40    5.50
  -5   1 -10   30.10    3.10
  -5   1 -10   41.90    3.80
  -5   1 -10   35.00    4.30
   5  -1  10   34.10    4.60
   5  -1  10   37.50    4.50
   5  -1  10   31.40    4.10
  -6   1 -10   70.09    6.60
  -6   1 -10   68.79    8.40
  -6   1 -10   67.79    4.90
   6  -1  10   75.19    6.60
   6  -1  10   61.19    6.00
   6  -1  10   70.59    5.70
  -7   1 -10    7.30    2.00
  -7   1 -10    5.20    2.80
   7  -1  10    7.50    3.00
   7  -1  10    5.80    3.10
  -8   1 -10    1.00    2.10
  -8   1 -10    3.30    1.70
   8  -1  10   -1.20    2.40
   8  -1  10    1.00    3.10
   8   0 -10  121.09    8.20
   8   0 -10  116.99    7.00
  -8   0  10  127.89    7.10
  -8   0  10  119.39    6.40
   7   0 -10    3.20    2.60
   7   0 -10    4.50    2.60
  -7   0  10    3.00    1.60
  -7   0  10    4.60    1.60
   6   0 -10   38.50    4.50
   6   0 -10   38.80    3.80
  -6   0  10   49.80    4.50
  -6   0  10   40.90    3.50
  -6   0  10   45.60    3.20
   5   0 -10   -0.30    1.90
   5   0 -10    0.10    2.40
   5   0 -10    1.40    1.70
   5   0 -10    5.20    2.10
  -5   0  10    1.30    2.00
  -5   0  10    0.30    1.10
  -5   0  10    1.80    1.20
   4   0 -10    8.80    2.20
   4   0 -10   11.30    2.30
   4   0 -10    6.80    2.70
   4   0 -10    7.70    2.00
  -4   0  10    8.90    1.50
  -4   0  10    6.60    1.40
  -4   0  10    7.70    2.50
   3   0 -10   74.89    7.50
   3   0 -10   70.69    4.70
   3   0 -10   79.29    4.40
  -3   0  10   73.59    5.40
  -3   0  10   76.09    4.10
  -3   0  10   70.09    3.90
   2   0 -10  178.98   11.80
   2   0 -10  176.38    7.90
   2   0 -10  171.88    8.10
  -2   0  10  161.78    9.10
  -2   0  10  177.08    7.60
  -2   0  10  178.58    7.70
   1   0 -10    1.10    0.60
   1   0 -10   -0.10    1.00
   1   0 -10   -0.70    1.30
  -1   0  10    0.00    1.80
  -1   0  10   -0.60    0.70
  -1   0  10   -0.10    1.60
  -1   0  10   -0.20    0.70
   0   0 -10   13.70    1.70
   0   0 -10   14.30    1.70
   0   0 -10   15.60    1.60
   0   0  10    8.00    2.60
  -1   0 -10  160.18   11.20
  -1   0 -10  166.28    7.70
  -1   0 -10  154.88    7.30
  -1   0 -10  162.98    7.90
   1   0  10  160.88    6.80
   1   0  10  170.38    8.30
   1   0  10  168.38    8.90
  -2   0 -10    2.70    1.20
  -2   0 -10    1.80    1.80
  -2   0 -10    2.40    1.20
  -2   0 -10    1.50    0.80
   2   0  10    1.60    0.60
   2   0  10    2.90    1.80
   2   0  10    0.20    2.20
   2   0  10    1.50    1.70
  -3   0 -10   38.30    2.80
  -3   0 -10   43.40    5.80
  -3   0 -10   39.80    3.60
  -3   0 -10   41.40    3.60
   3   0  10   40.30    4.30
   3   0  10   37.80    3.90
   3   0  10   40.00    4.30
  -4   0 -10   42.50    4.20
  -4   0 -10   40.90    6.10
  -4   0 -10   42.60    4.00
  -4   0 -10   42.40    3.10
   4   0  10   41.20    4.90
   4   0  10   39.90    4.20
   4   0  10   37.60    4.20
  -5   0 -10   12.10    3.10
  -5   0 -10    6.90    1.60
  -5   0 -10    4.20    2.70
   5   0  10    9.60    3.30
   5   0  10    8.40    2.60
   5   0  10    8.20    2.90
  -6   0 -10    2.80    1.40
  -6   0 -10    1.80    2.30
  -6   0 -10    5.30    2.70
   6   0  10    2.40    2.70
   6   0  10    2.50    2.60
  -7   0 -10    1.90    2.60
  -7   0 -10    2.20    1.60
   7   0  10    3.90    3.00
   7   0  10   -0.50    2.70
  -8   0 -10    0.70    2.40
   8   0  10   -4.80    2.70
   8   0  10    4.10    3.10
   8  -1 -10    3.00    2.50
   8  -1 -10    1.60    2.70
  -8   1  10    3.30    1.50
  -8   1  10    2.60    1.80
   7  -1 -10    0.30    2.40
   7  -1 -10   -0.60    2.10
  -7   1  10   -3.60    1.20
  -7   1  10    1.90    1.30
   6  -1 -10  112.89    7.00
   6  -1 -10  113.79    6.60
  -6   1  10  116.89    6.00
  -6   1  10  124.19    6.60
   5  -1 -10   40.60    7.10
   5  -1 -10   39.50    3.80
   5  -1 -10   48.30    4.10
   5  -1 -10   43.90    3.90
  -5   1  10   42.60    4.30
  -5   1  10   42.80    3.40
  -5   1  10   40.30    2.90
   4  -1 -10    2.70    2.10
   4  -1 -10    4.20    2.00
   4  -1 -10    3.10    1.70
   4  -1 -10    2.20    1.60
  -4   1  10    3.70    1.30
  -4   1  10    2.70    2.30
  -4   1  10    3.90    1.30
   3  -1 -10   23.30    2.60
   3  -1 -10   20.00    2.50
   3  -1 -10   21.80    4.40
  -3   1  10   19.20    2.10
  -3   1  10   21.80    3.50
  -3   1  10   18.40    2.00
   2  -1 -10    0.30    1.50
   2  -1 -10    1.40    1.50
   2  -1 -10    2.80    0.90
   2  -1 -10    0.50    1.20
  -2   1  10    0.60    0.90
  -2   1  10    2.70    2.10
  -2   1  10    0.10    0.80
   1  -1 -10    7.70    2.60
   1  -1 -10   10.10    1.40
   1  -1 -10   11.10    1.50
   1  -1 -10   11.70    2.10
   1  -1 -10   10.00    1.70
  -1   1  10    7.70    2.50
  -1   1  10    8.00    1.40
  -1   1  10    9.60    2.20
  -1   1  10    8.10    1.20
   0  -1 -10  267.07   11.00
   0  -1 -10  284.87   15.60
   0  -1 -10  260.17   11.80
   0  -1 -10  262.07   11.90
   0   1  10  263.47   12.60
   0   1  10  266.17   11.00
   0   1  10  274.47   12.20
  -1  -1 -10    7.00    1.70
  -1  -1 -10    5.90    1.00
  -1  -1 -10    6.20    1.20
  -1  -1 -10    3.40    2.00
  -1  -1 -10    6.80    1.80
   1   1  10    6.20    1.00
   1   1  10    4.10    1.90
   1   1  10    6.00    2.30
   1   1  10    6.10    2.20
  -2  -1 -10    6.00    1.10
  -2  -1 -10    5.70    2.40
  -2  -1 -10    9.00    1.90
  -2  -1 -10    9.90    2.10
   2   1  10    7.90    1.00
   2   1  10    9.60    2.40
   2   1  10    8.20    2.50
   2   1  10    7.00    2.50
  -3  -1 -10  139.59    7.80
  -3  -1 -10  130.09    6.40
  -3  -1 -10  136.69    7.90
  -3  -1 -10  151.18   11.20
   3   1  10  142.09    8.70
   3   1  10  139.09    7.70
   3   1  10  130.39    7.50
  -4  -1 -10   91.99    6.20
  -4  -1 -10   88.89    4.90
  -4  -1 -10   96.09    6.60
   4   1  10   90.29    6.10
   4   1  10   97.59    6.10
   4   1  10  102.49    7.50
  -5  -1 -10    5.90    1.50
  -5  -1 -10   10.10    3.10
   5   1  10    8.80    3.20
   5   1  10    5.50    2.70
   5   1  10    6.60    2.30
  -6  -1 -10   78.89    5.20
  -6  -1 -10   81.19    7.00
   6   1  10   81.49    7.30
   6   1  10   71.49    6.20
  -7  -1 -10    1.50    1.40
   7   1  10    3.60    2.70
   7   1  10    1.80    3.00
   8  -2 -10   78.39    5.90
   8  -2 -10   84.19    6.20
  -8   2  10   74.19    5.60
  -8   2  10   75.49    4.80
   7  -2 -10    4.00    2.80
   7  -2 -10    2.30    2.00
  -7   2  10    5.50    1.70
  -7   2  10    4.70    1.90
   6  -2 -10   -1.00    1.60
   6  -2 -10    1.60    2.30
  -6   2  10   -0.90    1.30
  -6   2  10   -1.70    1.10
   5  -2 -10   21.20    2.80
   5  -2 -10   18.30    2.90
  -5   2  10   23.00    2.70
  -5   2  10   20.70    2.30
   4  -2 -10   -2.20    1.40
   4  -2 -10    0.10    1.50
   4  -2 -10    0.00    1.20
   4  -2 -10    0.70    1.80
  -4   2  10   -1.20    1.80
  -4   2  10    1.00    1.00
  -4   2  10   -0.30    1.80
  -4   2  10   -0.40    1.10
   3  -2 -10  174.08    8.20
   3  -2 -10  181.48    8.30
   3  -2 -10  168.28    7.60
   3  -2 -10  178.28   11.40
  -3   2  10  176.88    9.30
  -3   2  10  173.18    7.90
  -3   2  10  182.58    8.30
   2  -2 -10    3.00    1.50
   2  -2 -10    3.50    1.90
   2  -2 -10    4.40    1.30
   2  -2 -10    4.00    0.90
  -2   2  10    2.60    1.10
  -2   2  10    2.10    2.00
  -2   2  10    5.10    1.40
   1  -2 -10   51.19    5.90
   1  -2 -10   47.80    4.20
   1  -2 -10   46.70    2.20
   1  -2 -10   49.90    3.50
   1  -2 -10   50.09    3.50
  -1   2  10   49.20    3.40
  -1   2  10   49.60    2.90
  -1   2  10   55.29    4.40
  -1   2  10   48.10    4.10
   0  -2 -10  256.57   14.70
   0  -2 -10  246.68   11.90
   0  -2 -10  243.98   11.40
   0   2  10  248.98   10.30
   0   2  10  249.88   11.50
   0   2  10  242.88   11.70
  -1  -2 -10  211.28   10.20
  -1  -2 -10  209.28   10.50
  -1  -2 -10  201.88    8.40
  -1  -2 -10  219.28   13.40
  -1  -2 -10  201.18    9.10
   1   2  10  209.88   10.30
   1   2  10  213.68   11.30
   1   2  10  203.28   10.10
   1   2  10  203.68    8.70
  -2  -2 -10   69.39    5.20
  -2  -2 -10   70.59    3.50
  -2  -2 -10   74.29    5.10
   2   2  10   70.39    5.00
   2   2  10   70.89    5.80
   2   2  10   66.99    5.00
  -3  -2 -10   78.39    5.80
  -3  -2 -10   75.49    3.90
  -3  -2 -10   84.49    5.70
   3   2  10   77.39    5.10
   3   2  10   73.79    5.60
   3   2  10   79.09    6.40
  -4  -2 -10   13.80    3.00
  -4  -2 -10    9.80    1.50
   4   2  10   10.10    3.40
   4   2  10    8.20    2.50
   4   2  10    9.40    2.20
  -5  -2 -10  101.39    5.50
  -5  -2 -10   98.79    7.50
   5   2  10  107.49    8.30
   5   2  10   96.59    6.70
  -6  -2 -10    8.20    1.90
   6   2  10    7.90    3.70
   6   2  10    2.10    2.60
  -7  -2 -10  447.36   19.80
  -7  -2 -10  493.85   23.10
   7   2  10  480.65   23.80
   7   2  10  433.16   20.90
   7  -3 -10   -0.60    2.90
   7  -3 -10    0.30    1.60
  -7   3  10   -1.00    1.60
  -7   3  10    0.00    1.20
   6  -3 -10  113.49    6.30
   6  -3 -10  116.29    7.10
  -6   3  10  121.79    6.90
  -6   3  10  120.19    6.20
   5  -3 -10  102.69    5.60
   5  -3 -10  114.49    6.40
  -5   3  10  112.79    6.50
  -5   3  10  114.49    5.80
   4  -3 -10   -1.70    1.60
   4  -3 -10   -0.90    1.90
   4  -3 -10   -1.10    0.90
  -4   3  10    0.40    1.30
  -4   3  10    0.00    1.10
  -4   3  10   -1.50    2.00
   3  -3 -10    5.00    2.00
   3  -3 -10    6.90    2.20
   3  -3 -10    4.40    1.80
  -3   3  10    5.80    1.30
  -3   3  10    4.30    1.60
  -3   3  10    2.20    2.30
   2  -3 -10   20.40    2.70
   2  -3 -10   22.70    4.00
   2  -3 -10   21.90    2.40
   2  -3 -10   21.60    2.60
  -2   3  10   23.00    2.20
  -2   3  10   24.50    3.50
  -2   3  10   18.50    2.40
   1  -3 -10   38.30    3.10
   1  -3 -10   38.50    5.20
   1  -3 -10   39.70    3.50
   1  -3 -10   29.80    4.20
  -1   3  10   39.30    3.80
  -1   3  10   35.40    2.50
  -1   3  10   40.30    3.30
   0  -3 -10  154.68    8.40
   0  -3 -10  162.68    7.40
   0  -3 -10  174.48   11.40
   0  -3 -10  154.38    9.10
   0  -3 -10  156.38    7.80
   0   3  10  166.28    7.20
   0   3  10  153.08    8.20
   0   3  10  162.58    8.50
  -1  -3 -10  238.08   12.50
  -1  -3 -10  242.48   11.00
  -1  -3 -10  257.27   10.70
  -1  -3 -10  245.48   12.10
   1   3  10  245.48   11.70
   1   3  10  265.17   13.10
   1   3  10  249.58   11.70
  -2  -3 -10  141.59    8.30
  -2  -3 -10  144.29    8.70
   2   3  10  143.59    7.90
   2   3  10  151.28    7.70
   2   3  10  153.48    9.30
  -3  -3 -10   24.40    3.10
  -3  -3 -10   15.60    1.40
  -3  -3 -10   15.60    3.40
   3   3  10   15.60    2.50
   3   3  10   12.70    2.90
   3   3  10   14.20    3.70
  -4  -3 -10    1.50    0.80
  -4  -3 -10    3.10    2.10
   4   3  10    2.10    2.70
   4   3  10    0.10    2.00
  -5  -3 -10    9.40    1.60
   5   3  10    6.60    2.70
   5   3  10    6.00    3.30
   6   3  10    1.70    2.50
   6   3  10    1.90    3.10
   7  -4 -10    9.60    3.10
   7  -4 -10   10.10    2.00
  -7   4  10   10.60    2.10
  -7   4  10   13.90    2.90
   6  -4 -10    3.00    1.30
   6  -4 -10    2.00    2.80
  -6   4  10    2.20    1.70
  -6   4  10    3.20    1.70
   5  -4 -10  103.69    6.80
  -5   4  10  120.99    6.90
  -5   4  10  119.09    6.20
   4  -4 -10    4.10    2.20
  -4   4  10    0.80    1.70
  -4   4  10   -1.60    2.50
  -4   4  10    3.20    1.50
   3  -4 -10   22.30    2.90
   3  -4 -10   19.90    2.60
  -3   4  10   22.90    2.80
  -3   4  10   24.50    2.30
  -3   4  10   18.40    3.70
   2  -4 -10   26.90    2.80
   2  -4 -10   20.20    4.00
   2  -4 -10   21.70    3.20
   2  -4 -10   18.60    2.40
  -2   4  10   21.40    2.10
  -2   4  10   17.60    2.50
  -2   4  10   14.90    3.60
   1  -4 -10    0.80    1.50
   1  -4 -10    1.30    1.70
   1  -4 -10   -0.20    1.40
   1  -4 -10    3.40    1.90
  -1   4  10    2.20    1.20
  -1   4  10    0.00    1.50
   0  -4 -10   -1.30    1.40
   0  -4 -10   -4.00    2.10
   0  -4 -10    3.00    1.80
   0  -4 -10    0.30    1.40
   0  -4 -10   -0.80    1.30
   0   4  10   -0.70    1.90
  -1  -4 -10   99.49    6.60
  -1  -4 -10   97.29    7.30
  -1  -4 -10   95.59    5.70
  -1  -4 -10   95.09    5.10
   1   4  10   96.29    6.10
   1   4  10  103.19    6.10
   1   4  10  108.39    7.50
  -2  -4 -10    5.40    2.70
  -2  -4 -10    8.00    2.10
  -2  -4 -10    4.80    2.00
   2   4  10    3.60    2.10
   2   4  10    8.60    2.10
   2   4  10    3.40    2.50
  -3  -4 -10   27.10    4.30
  -3  -4 -10   39.20    5.50
   3   4  10   26.80    4.70
   3   4  10   29.20    3.70
  -4  -4 -10    2.00    2.20
   4   4  10    0.10    1.90
   4   4  10    0.10    2.50
  -5  -4 -10   54.19    5.40
  -5  -4 -10   40.90    2.90
   5   4  10   45.80    6.20
   5   4  10   30.20    4.00
   6  -5 -10    4.20    3.00
  -6   5  10    4.40    2.10
  -6   5  10    9.50    2.00
   5  -5 -10   11.20    3.10
  -5   5  10    6.90    3.40
  -5   5  10    9.40    2.00
  -5   5  10    9.20    2.30
   4  -5 -10   12.30    2.80
  -4   5  10    4.10    3.20
  -4   5  10    9.30    2.30
  -4   5  10   13.50    2.10
   3  -5 -10    0.70    2.00
  -3   5  10   -2.10    1.40
  -3   5  10   -1.20    2.80
  -3   5  10    1.80    1.30
   2  -5 -10   17.40    2.60
   2  -5 -10   11.70    2.20
  -2   5  10   14.70    4.00
  -2   5  10   17.70    2.70
   1  -5 -10    1.00    1.60
   1  -5 -10    1.80    1.80
   1  -5 -10    0.50    1.90
   1  -5 -10    1.90    1.70
   1  -5 -10   -1.60    1.40
   0  -5 -10    5.50    1.70
   0  -5 -10    7.90    2.40
   0  -5 -10    3.70    3.30
   0  -5 -10    7.50    2.30
  -1  -5 -10    2.60    2.80
  -1  -5 -10   -0.70    1.60
  -1  -5 -10    5.70    1.90
   1   5  10   -0.10    2.00
   1   5  10   -0.30    1.90
  -2  -5 -10    3.80    2.90
  -2  -5 -10    2.40    2.10
   2   5  10    1.20    2.10
   2   5  10    2.80    2.60
   2   5  10    5.30    2.80
  -3  -5 -10   23.40    4.70
   3   5  10   24.80    4.80
   3   5  10   17.70    3.00
  -4  -5 -10   90.19    7.50
   4   5  10   69.89    5.80
   4   5  10   93.79    8.40
   5   5  10    8.80    3.60
   5   5  10    7.20    2.50
   5  -6 -10   -2.20    2.40
  -5   6  10   -0.30    3.10
  -5   6  10   -0.40    1.90
   4  -6 -10   11.60    2.90
  -4   6  10   15.50    2.90
  -4   6  10    3.60    3.40
   3  -6 -10   23.50    3.10
  -3   6  10   19.10    4.50
  -3   6  10   21.00    3.00
   2  -6 -10    1.60    2.00
   2  -6 -10    1.10    2.00
  -2   6  10   -0.60    1.90
  -2   6  10    0.30    3.20
   1  -6 -10    4.90    2.30
   1  -6 -10   -4.00    3.20
  -1   6  10   -0.50    3.60
   0  -6 -10   37.50    4.00
   0  -6 -10   37.50    6.10
   0   6  10   44.80    5.00
  -1  -6 -10   13.70    4.30
  -1  -6 -10   14.30    3.00
   1   6  10   24.10    4.40
   1   6  10   14.40    3.80
  -2  -6 -10    4.50    3.20
  -2  -6 -10    6.10    4.00
   2   6  10    5.10    2.80
   2   6  10    3.50    2.40
   2   6  10    5.90    3.40
  -3  -6 -10   10.30    3.60
   3   6  10    7.20    3.40
   3   6  10   10.00    3.60
   3   6  10    1.20    3.30
   4   6  10   -0.60    2.70
   3  -7 -10   13.50    3.30
  -3   7  10    7.60    4.10
  -3   7  10    7.50    2.70
   2  -7 -10   24.50    4.00
  -2   7  10   10.70    4.40
   1  -7 -10   -5.40    3.50
   1  -7 -10    2.10    2.00
  -1   7  10   -4.10    3.80
  -1   7  10    4.00    2.80
   0  -7 -10   -0.20    1.90
   0  -7 -10   -4.60    3.20
   0   7  10    4.00    2.80
  -1  -7 -10    1.40    3.60
  -1  -7 -10    0.90    2.20
   1   7  10    2.70    2.70
   1   7  10    3.60    2.90
  -2  -7 -10   41.20    5.80
   2   7  10   48.60    5.70
   2   7  10   45.30    6.00
   2   9 -11    3.40    3.20
  -2  -9  11    3.30    3.30
   1   9 -11   11.70    3.30
  -1  -9  11    2.30    3.10
  -1  -9  11    9.90    4.00
   0  -9  11    3.60    4.50
   0  -9  11   -2.30    3.20
   1  -9  11   -6.00    3.60
   1  -9  11   -6.30    2.40
   2  -9  11   60.89    8.40
   2  -9  11   47.90    5.90
   4   8 -11   -9.20    3.50
  -4  -8  11   -0.60    2.40
   3   8 -11    5.20    3.50
  -3  -8  11    5.70    3.20
  -3  -8  11    9.70    3.40
   2   8 -11   -5.30    6.20
   2   8 -11    9.10    3.70
  -2  -8  11    4.50    3.10
  -2  -8  11   12.10    3.70
   1   8 -11   61.29   14.20
   1   8 -11   99.39    7.60
  -1  -8  11   88.49    7.80
  -1  -8  11   78.69    6.90
   0   8 -11   12.60    3.20
   0   8 -11   -1.20    5.00
   0  -8  11    1.00    4.00
   0  -8  11    4.20    3.00
  -1   8 -11    5.20    2.50
  -1   8 -11   -5.70    4.00
   1  -8  11   -2.20    2.40
   1  -8  11   -5.70    3.90
  -2   8 -11   -0.80    4.10
  -2   8 -11    7.50    2.70
   2  -8  11    0.50    4.20
   2  -8  11   -1.30    2.40
  -3   8 -11    5.50    4.70
  -3   8 -11   18.70    3.30
   3  -8  11   10.80    5.20
   3  -8  11    8.60    3.20
  -4   8 -11   -3.60    3.40
  -4   8 -11    8.10    2.30
   4  -8  11   -6.60    4.80
   4  -8  11    0.00    2.50
  -5  -7  11   12.00    2.30
   4   7 -11   -7.20    3.20
  -4  -7  11   -0.60    1.50
  -4  -7  11   -4.60    2.10
  -4  -7  11    7.10    2.80
   3   7 -11   -4.10    2.80
   3   7 -11   -7.20    5.10
  -3  -7  11    6.10    2.00
  -3  -7  11    3.40    3.00
   2   7 -11   -3.10    4.50
   2   7 -11    2.00    2.60
  -2  -7  11   -5.50    2.00
  -2  -7  11    0.90    3.10
   1   7 -11  102.39    7.30
   1   7 -11   87.29   13.60
  -1  -7  11  104.99    7.80
  -1  -7  11   91.59    7.20
   0   7 -11   17.60    5.70
   0  -7  11   39.30    5.90
   0  -7  11   25.40    4.00
  -1   7 -11    3.00    2.20
  -1   7 -11   -1.60    3.40
   1  -7  11   -2.90    3.40
   1  -7  11   -3.20    2.30
  -2   7 -11   -0.40    3.10
  -2   7 -11    4.80    2.20
   2  -7  11   -2.20    2.10
   2  -7  11   -4.60    3.60
  -3   7 -11   13.50    2.90
  -3   7 -11    9.80    4.30
   3  -7  11    9.50    4.70
   3  -7  11    9.50    2.90
  -4   7 -11    1.80    1.80
  -4   7 -11   -2.50    2.50
   4  -7  11   -2.50    4.50
   4  -7  11   -2.80    2.20
  -5   7 -11   -2.60    2.50
   5  -7  11   -4.90    4.30
   6   6 -11   -3.50    2.90
  -6  -6  11    1.20    1.50
  -5  -6  11    0.40    1.40
  -5  -6  11    1.20    2.10
  -5  -6  11    1.70    2.00
   4   6 -11    0.70    5.20
   4   6 -11    4.80    3.30
   4   6 -11    8.70    1.90
  -4  -6  11    5.40    2.50
  -4  -6  11    9.80    3.10
  -4  -6  11   13.30    3.00
  -4  -6  11    7.60    1.90
   3   6 -11   18.80    3.90
   3   6 -11   11.00    6.00
  -3  -6  11   18.50    2.40
  -3  -6  11   13.70    3.10
  -3  -6  11   24.40    3.10
  -3  -6  11   18.00    3.90
   2   6 -11   24.80    6.80
   2   6 -11   35.80    4.70
  -2  -6  11   41.50    5.50
  -2  -6  11   41.30    3.40
  -2  -6  11   30.10    4.30
  -2  -6  11   39.20    3.10
   1   6 -11   10.40    4.50
   1   6 -11   21.40    3.70
  -1  -6  11   14.10    3.30
  -1  -6  11   16.40    4.00
   0   6 -11   20.40    5.60
   0   6 -11   37.40    4.50
   0  -6  11   22.80    3.70
   0  -6  11   26.50    3.00
   0  -6  11   32.70    5.40
  -1   6 -11   17.00    3.00
  -1   6 -11   11.20    4.20
   1  -6  11   24.50    4.90
   1  -6  11   15.80    3.20
   1  -6  11   18.90    2.40
  -2   6 -11    0.50    1.60
  -2   6 -11    0.30    2.60
   2  -6  11   -2.10    2.10
   2  -6  11    0.10    3.60
   2  -6  11    0.40    0.90
   2  -6  11    0.30    1.60
  -3   6 -11    5.40    3.20
  -3   6 -11   11.10    2.70
   3  -6  11    6.10    2.40
   3  -6  11   10.00    4.50
   3  -6  11    7.40    2.20
  -4   6 -11    9.00    2.50
  -4   6 -11    2.60    2.90
   4  -6  11    6.90    3.10
   4  -6  11    8.20    2.40
   4  -6  11   10.60    4.90
  -5   6 -11   -0.80    2.50
  -5   6 -11    6.20    2.10
   5  -6  11   -0.10    2.30
   5  -6  11   -3.60    3.80
  -6   6 -11    9.50    4.00
   6  -6  11   15.40    3.40
   6  -6  11   14.00    5.70
   7   5 -11   -6.70    3.10
  -7  -5  11    1.10    1.50
   6   5 -11   14.40    2.50
   6   5 -11   13.80    4.00
  -6  -5  11   17.20    2.60
   5   5 -11   -4.40    4.70
   5   5 -11    7.50    1.90
   5   5 -11    3.40    1.70
  -5  -5  11    2.20    2.30
  -5  -5  11    2.70    1.40
   4   5 -11   29.00    4.80
   4   5 -11   32.90    3.10
  -4  -5  11   33.70    3.00
  -4  -5  11   36.10    4.80
   3   5 -11   14.50    3.30
   3   5 -11   10.20    4.80
  -3  -5  11   18.40    2.60
  -3  -5  11   16.80    3.70
  -3  -5  11   10.80    2.70
  -3  -5  11   16.30    2.10
   2   5 -11    9.00    2.70
   2   5 -11    6.00    4.00
  -2  -5  11    8.30    1.50
  -2  -5  11   12.50    3.70
  -2  -5  11    5.40    2.40
   1   5 -11   16.60    4.60
   1   5 -11   32.30    3.90
  -1  -5  11   25.00    3.60
  -1  -5  11   25.60    2.90
  -1  -5  11   22.70    4.40
  -1  -5  11   27.30    2.30
   0   5 -11    6.20    3.40
   0   5 -11    8.50    2.30
   0  -5  11    5.20    2.40
   0  -5  11    4.90    1.20
   0  -5  11   10.90    3.80
   0  -5  11    6.30    1.80
  -1   5 -11   62.49    8.70
  -1   5 -11   65.79    4.90
   1  -5  11   68.69    3.60
   1  -5  11   65.29    4.50
   1  -5  11   60.89    5.10
   1  -5  11   65.29    6.20
  -2   5 -11    1.20    1.70
  -2   5 -11    0.30    2.40
   2  -5  11   -0.70    3.10
   2  -5  11   -0.60    1.50
   2  -5  11   -0.20    0.70
   2  -5  11   -0.60    1.90
  -3   5 -11   17.60    2.90
  -3   5 -11   11.80    3.90
   3  -5  11   17.70    3.10
   3  -5  11   18.70    4.90
   3  -5  11   18.50    2.90
  -4   5 -11   14.30    2.70
  -4   5 -11    8.00    3.60
   4  -5  11   17.40    3.10
   4  -5  11   12.10    4.50
  -5   5 -11   18.70    4.60
  -5   5 -11   34.40    4.20
   5  -5  11   32.80    6.10
   5  -5  11   28.90    3.90
  -6   5 -11    1.10    2.40
   6  -5  11    1.90    2.60
   6  -5  11   -0.50    4.40
   7   4 -11    8.00    2.50
   7   4 -11    6.10    3.90
  -7  -4  11   14.70    2.30
   6   4 -11    1.80    3.10
   6   4 -11    0.80    2.00
   6   4 -11   -7.80    5.30
  -6  -4  11    7.50    2.50
  -6  -4  11    5.20    1.70
   5   4 -11    5.90    2.00
   5   4 -11   -4.90    4.40
   5   4 -11   -0.60    2.80
   5   4 -11    1.30    1.70
  -5  -4  11    2.20    1.40
  -5  -4  11    3.80    2.40
   4   4 -11   10.40    1.90
   4   4 -11    6.90    2.90
   4   4 -11    3.60    4.40
  -4  -4  11   11.80    3.10
  -4  -4  11    9.10    1.70
   3   4 -11   15.70    3.10
   3   4 -11   11.80    4.50
  -3  -4  11   15.90    3.60
  -3  -4  11   19.00    2.20
   2   4 -11   18.00    4.70
   2   4 -11   26.20    3.60
  -2  -4  11   23.20    3.40
  -2  -4  11   27.70    4.20
  -2  -4  11   25.60    2.30
   1   4 -11   90.49    5.90
   1   4 -11   85.59    9.80
  -1  -4  11   88.79    6.70
  -1  -4  11   87.49    5.70
  -1  -4  11   87.59    5.20
  -1  -4  11   93.19    4.60
   0   4 -11    1.40    2.40
   0   4 -11    2.10    1.50
   0  -4  11   -0.90    1.80
   0  -4  11    2.00    1.60
   0  -4  11    1.60    0.90
   0  -4  11    0.70    2.60
  -1   4 -11    7.90    3.20
  -1   4 -11   10.40    2.10
   1  -4  11    8.70    3.50
   1  -4  11   11.40    2.10
   1  -4  11    7.80    2.20
   1  -4  11   11.60    1.40
  -2   4 -11   10.70    3.50
  -2   4 -11   22.40    2.80
  -2   4 -11   18.50    2.80
   2  -4  11   16.60    2.60
   2  -4  11   18.80    1.50
   2  -4  11   20.00    4.20
   2  -4  11   16.50    4.10
  -3   4 -11    6.00    2.00
  -3   4 -11    3.80    2.60
   3  -4  11    4.20    2.10
   3  -4  11    6.20    3.40
  -4   4 -11    3.10    1.80
  -4   4 -11    0.10    2.20
   4  -4  11    1.90    2.00
   4  -4  11    2.10    3.60
  -5   4 -11   70.49    8.80
  -5   4 -11   78.19    5.80
   5  -4  11   76.09    7.10
   5  -4  11   78.19    6.30
  -6   4 -11  106.09    7.00
  -6   4 -11   90.09   10.10
   6  -4  11  106.29    7.60
   6  -4  11   91.79    8.20
  -7   4 -11   47.40    4.70
  -7   4 -11   33.40    6.90
   7  -4  11   33.30    4.90
   7  -4  11   35.20    6.00
   7   3 -11    4.30    3.50
   7   3 -11    4.50    2.40
  -7  -3  11    8.30    1.80
  -7  -3  11   11.40    2.80
  -7  -3  11   10.50    2.00
   6   3 -11   49.40    4.20
   6   3 -11   42.80    5.50
  -6  -3  11   47.70    3.60
  -6  -3  11   48.40    3.50
  -6  -3  11   54.49    4.80
   5   3 -11   10.50    2.20
   5   3 -11   16.60    2.50
   5   3 -11    7.00    4.80
   5   3 -11   10.80    3.50
  -5  -3  11   13.70    2.00
  -5  -3  11   16.30    3.30
  -5  -3  11   14.40    1.80
   4   3 -11  112.69   12.50
   4   3 -11  122.99    7.90
   4   3 -11  117.99    6.10
  -4  -3  11  121.09    7.70
  -4  -3  11  123.89    6.00
   3   3 -11  146.09   12.90
   3   3 -11  144.19    6.80
   3   3 -11  128.49    7.90
  -3  -3  11  140.29    8.60
  -3  -3  11  144.39    6.70
   2   3 -11    5.10    2.80
   2   3 -11    6.40    2.10
  -2  -3  11    5.80    1.30
  -2  -3  11    7.90    3.20
   1   3 -11    4.10    1.60
   1   3 -11    4.10    2.70
  -1  -3  11    5.10    1.90
  -1  -3  11    4.00    2.70
  -1  -3  11    6.50    1.30
   0   3 -11   31.10    5.70
   0   3 -11   28.60    3.10
   0  -3  11   29.10    4.30
   0  -3  11   23.80    2.80
   0  -3  11   29.90    2.10
  -1   3 -11   65.89    4.60
  -1   3 -11   72.59    8.20
  -1   3 -11   71.99    4.70
   1  -3  11   72.69    3.50
   1  -3  11   69.99    5.90
   1  -3  11   73.59    4.90
  -2   3 -11   55.39    4.40
  -2   3 -11   58.59    7.50
  -2   3 -11   47.70    3.80
   2  -3  11   52.19    4.40
   2  -3  11   55.69    2.80
   2  -3  11   56.69    5.40
  -3   3 -11  380.86   21.70
  -3   3 -11  367.46   17.50
  -3   3 -11  370.86   16.60
   3  -3  11  389.96   16.80
   3  -3  11  386.66   17.90
  -4   3 -11    6.60    2.90
  -4   3 -11   14.30    2.50
   4  -3  11   12.70    2.80
   4  -3  11    9.50    3.60
  -5   3 -11    3.90    1.90
  -5   3 -11    1.40    2.20
   5  -3  11    4.40    2.80
   5  -3  11    5.70    3.50
  -6   3 -11   51.19    4.60
  -6   3 -11   37.30    6.80
   6  -3  11   44.00    5.70
   6  -3  11   43.20    5.10
  -7   3 -11   15.30    4.30
   7  -3  11   26.70    4.30
   7  -3  11   22.00    4.50
   8   2 -11   12.20    4.00
   8   2 -11   15.30    3.20
  -8  -2  11   20.60    2.50
  -8  -2  11   21.60    2.90
   7   2 -11   -1.90    2.80
   7   2 -11    0.30    2.30
  -7  -2  11    2.60    2.00
  -7  -2  11    1.70    1.40
  -7  -2  11    2.70    1.50
   6   2 -11   -5.70    4.30
   6   2 -11   -1.00    2.60
   6   2 -11    2.30    2.30
  -6  -2  11    1.60    1.30
  -6  -2  11    1.50    1.20
  -6  -2  11    2.90    2.30
   5   2 -11  100.29    5.80
   5   2 -11   87.69   11.80
   5   2 -11  107.29    6.00
   5   2 -11   99.89    7.10
  -5  -2  11  103.29    5.30
  -5  -2  11  104.49    5.30
  -5  -2  11  105.79    7.00
   4   2 -11  123.29    6.40
   4   2 -11  117.79   11.80
  -4  -2  11  135.29    6.10
  -4  -2  11  124.29    6.10
  -4  -2  11  132.99    8.00
   3   2 -11  336.57   15.30
   3   2 -11  340.87   20.30
   3   2 -11  334.87   14.20
  -3  -2  11  328.37   13.90
  -3  -2  11  351.86   13.80
  -3  -2  11  322.97   15.70
   2   2 -11   79.59    8.70
   2   2 -11   78.19    5.10
  -2  -2  11   74.19    6.10
  -2  -2  11   71.39    4.00
   1   2 -11   75.29    4.80
   1   2 -11   74.79    7.90
  -1  -2  11   70.89    4.90
  -1  -2  11   71.39    6.10
  -1  -2  11   76.49    3.90
   0   2 -11  103.69    9.30
   0   2 -11  104.39    5.80
   0   2 -11   99.39    7.00
   0  -2  11  106.89    4.80
   0  -2  11  112.69    6.10
   0  -2  11   99.99    6.90
  -1   2 -11    1.10    1.00
  -1   2 -11   -0.60    1.60
  -1   2 -11    0.20    1.10
   1  -2  11    0.80    0.70
   1  -2  11    0.90    1.80
   1  -2  11   -2.20    2.40
  -2   2 -11   79.19    4.80
  -2   2 -11   80.19    8.20
  -2   2 -11   77.09    5.20
   2  -2  11   85.49    6.40
   2  -2  11   91.29    5.50
   2  -2  11   79.29    3.70
  -3   2 -11   77.09    4.90
  -3   2 -11   79.19    8.40
  -3   2 -11   83.99    5.70
   3  -2  11   82.29    6.40
   3  -2  11   82.99    5.60
  -4   2 -11  143.79   11.80
  -4   2 -11  145.39    8.30
  -4   2 -11  133.79    7.40
   4  -2  11  145.39    8.10
   4  -2  11  127.79    8.30
  -5   2 -11   14.80    2.60
  -5   2 -11    8.70    3.20
   5  -2  11   14.40    3.20
   5  -2  11   20.90    4.10
   5  -2  11   13.60    3.30
  -6   2 -11   28.30    6.40
  -6   2 -11   30.70    3.60
   6  -2  11   33.60    4.80
   6  -2  11   32.80    4.80
   6  -2  11   26.30    4.30
  -7   2 -11    0.60    2.20
  -7   2 -11    4.70    1.80
   7  -2  11    4.50    3.00
   7  -2  11    4.20    2.70
   8   1 -11    4.70    2.90
   8   1 -11    8.90    3.60
  -8  -1  11   10.40    2.00
  -8  -1  11    7.80    2.00
   7   1 -11    8.00    2.70
   7   1 -11    6.50    3.20
  -7  -1  11    8.40    1.80
  -7  -1  11    6.20    1.80
   6   1 -11    5.60    2.30
   6   1 -11    0.60    2.50
  -6  -1  11    3.20    1.40
  -6  -1  11    6.90    2.70
  -6  -1  11    4.60    1.40
   5   1 -11    5.60    3.70
   5   1 -11   11.20    2.80
   5   1 -11   11.10    2.90
   5   1 -11   16.10    2.70
  -5  -1  11   14.10    3.10
  -5  -1  11   13.90    1.90
  -5  -1  11   14.10    1.90
   4   1 -11   -0.60    1.40
   4   1 -11   -1.50    1.80
   4   1 -11   -0.70    2.20
  -4  -1  11    0.40    2.10
  -4  -1  11   -1.00    1.00
  -4  -1  11   -1.10    0.80
   3   1 -11    4.80    2.70
   3   1 -11    7.20    1.70
  -3  -1  11    5.90    1.20
  -3  -1  11   10.00    3.10
  -3  -1  11    5.00    1.30
   2   1 -11   40.60    3.60
   2   1 -11   42.80    6.40
  -2  -1  11   40.30    2.60
  -2  -1  11   37.70    2.60
  -2  -1  11   42.70    4.50
   1   1 -11    2.00    1.30
   1   1 -11    1.80    2.10
  -1  -1  11    1.70    0.90
  -1  -1  11    2.40    1.80
  -1  -1  11    2.40    0.90
  -1  -1  11    4.10    2.70
   0   1 -11    3.20    1.00
   0   1 -11    1.40    2.00
   0   1 -11    2.40    1.20
   0  -1  11    4.20    2.70
   0  -1  11    1.40    1.70
   0  -1  11    3.10    0.90
  -1   1 -11   21.30    2.30
  -1   1 -11   21.00    4.80
  -1   1 -11   21.30    2.30
   1  -1  11   19.30    3.50
   1  -1  11   18.60    1.60
   1  -1  11   19.60    2.90
  -2   1 -11    0.20    1.80
  -2   1 -11    1.30    1.10
  -2   1 -11    0.40    0.90
   2  -1  11    0.20    1.80
   2  -1  11    4.20    2.50
   2  -1  11    0.60    0.60
  -3   1 -11    3.40    1.20
  -3   1 -11    1.80    2.10
  -3   1 -11    2.40    1.40
  -3   1 -11    4.40    1.60
   3  -1  11    4.10    2.50
   3  -1  11    0.60    2.00
  -4   1 -11   82.19    5.50
  -4   1 -11   68.39    5.30
  -4   1 -11   66.29    4.50
  -4   1 -11   65.79    7.90
   4  -1  11   73.99    5.90
   4  -1  11   68.79    5.50
   4  -1  11   71.69    6.00
  -5   1 -11    8.60    2.50
  -5   1 -11    5.30    1.60
  -5   1 -11    2.70    2.50
   5  -1  11    3.60    2.60
   5  -1  11    3.50    2.50
   5  -1  11    5.50    2.90
  -6   1 -11  294.37   14.00
  -6   1 -11  293.27   19.40
  -6   1 -11  325.77   16.00
   6  -1  11  303.77   14.60
   6  -1  11  290.17   14.80
   6  -1  11  308.37   16.00
   8   0 -11   -0.70    2.50
   8   0 -11   -2.20    2.60
  -8   0  11    1.90    1.60
  -8   0  11    3.20    1.60
   7   0 -11    2.80    2.60
   7   0 -11    3.90    2.70
  -7   0  11    5.80    1.70
  -7   0  11    1.90    1.60
   6   0 -11    6.90    2.60
   6   0 -11    6.10    2.60
  -6   0  11   11.50    2.10
  -6   0  11    8.40    1.70
  -6   0  11   14.50    3.30
   5   0 -11   -1.10    2.60
   5   0 -11    1.10    2.00
   5   0 -11    0.10    2.00
  -5   0  11    0.10    1.10
  -5   0  11    0.80    1.10
  -5   0  11    4.90    2.50
   4   0 -11    1.50    1.70
   4   0 -11    0.20    1.90
   4   0 -11    4.90    2.00
   4   0 -11    0.60    2.30
  -4   0  11    2.20    1.20
  -4   0  11    2.50    1.20
  -4   0  11    3.40    2.40
   3   0 -11    3.80    1.70
   3   0 -11    3.70    1.80
   3   0 -11    2.20    2.10
  -3   0  11    5.00    2.50
  -3   0  11    3.10    1.10
  -3   0  11    2.80    1.10
   2   0 -11   -0.70    1.30
   2   0 -11   -0.10    1.60
   2   0 -11   -0.30    1.30
  -2   0  11   -0.80    2.00
  -2   0  11    0.80    0.90
  -2   0  11   -0.50    0.80
   1   0 -11   89.79    4.90
   1   0 -11   88.19    8.40
  -1   0  11   97.09    5.70
  -1   0  11   90.09    4.50
  -1   0  11   83.59    6.10
  -1   0  11   96.09    4.60
   0   0 -11   23.00    2.20
   0   0 -11   24.60    2.20
   0   0 -11   27.40    5.10
   0   0  11   20.30    2.80
   0   0  11   18.60    3.40
   0   0  11   22.60    1.80
  -1   0 -11    5.20    1.20
  -1   0 -11    3.50    2.20
  -1   0 -11    5.70    1.40
   1   0  11    7.90    2.70
   1   0  11    4.90    2.00
   1   0  11    4.20    0.90
  -2   0 -11    1.20    0.90
  -2   0 -11    1.90    1.00
  -2   0 -11    2.10    1.10
  -2   0 -11    1.30    1.80
   2   0  11    0.90    2.30
   2   0  11    0.00    0.60
   2   0  11   -1.30    1.70
  -3   0 -11   58.09    7.30
  -3   0 -11   65.29    4.70
  -3   0 -11   62.99    3.90
  -3   0 -11   64.29    4.70
   3   0  11   65.79    5.40
   3   0  11   64.99    5.70
   3   0  11   64.99    5.00
  -4   0 -11   15.90    4.00
  -4   0 -11   23.20    2.40
  -4   0 -11   24.20    3.20
   4   0  11   23.40    4.30
   4   0  11   26.50    3.90
   4   0  11   17.20    3.30
  -5   0 -11   68.69    8.50
  -5   0 -11   75.99    4.80
  -5   0 -11   81.29    6.40
   5   0  11   72.79    6.90
   5   0  11   73.59    6.00
   5   0  11   73.09    5.70
   6   0  11    0.10    2.70
   6   0  11    3.40    2.80
  -7   0 -11   67.89    9.20
  -7   0 -11   74.89    4.90
   7   0  11   62.89    7.00
   7   0  11   58.69    6.50
   7  -1 -11   -1.30    2.40
   7  -1 -11    1.30    2.20
  -7   1  11   -1.30    1.40
  -7   1  11    4.60    1.60
   6  -1 -11   -1.20    2.20
   6  -1 -11   -2.40    1.80
  -6   1  11   -1.40    1.30
  -6   1  11    1.30    1.30
   5  -1 -11    3.10    1.90
   5  -1 -11    2.30    2.20
  -5   1  11    1.30    1.20
  -5   1  11    3.90    2.60
  -5   1  11    0.70    1.30
   4  -1 -11    9.90    2.20
   4  -1 -11    8.60    3.00
   4  -1 -11   10.10    2.10
   4  -1 -11   13.80    2.60
  -4   1  11   11.10    1.80
  -4   1  11   12.60    3.20
  -4   1  11    8.90    1.80
   3  -1 -11    9.10    1.80
   3  -1 -11    8.50    2.90
   3  -1 -11   12.90    2.20
  -3   1  11   12.80    3.00
  -3   1  11   10.30    1.80
  -3   1  11   10.20    1.60
   2  -1 -11   77.09    7.60
   2  -1 -11   84.09    4.70
   2  -1 -11   73.79    4.30
  -2   1  11   77.29    4.10
  -2   1  11   71.29    5.60
  -2   1  11   77.39    4.40
   1  -1 -11   40.30    3.00
   1  -1 -11   38.90    5.60
   1  -1 -11   31.30    2.70
  -1   1  11   38.60    2.90
  -1   1  11   40.50    2.60
  -1   1  11   37.40    3.80
  -1   1  11   35.30    4.10
   0  -1 -11  162.78   11.40
   0  -1 -11  153.28    7.50
   0  -1 -11  145.59    6.70
   0   1  11  142.49    8.50
   0   1  11  155.38    8.20
   0   1  11  156.88    6.70
  -1  -1 -11   46.10    2.70
  -1  -1 -11   46.30    3.60
  -1  -1 -11   47.50    3.50
  -1  -1 -11   46.60    6.30
   1   1  11   44.90    2.60
   1   1  11   45.70    4.60
   1   1  11   43.10    4.10
  -2  -1 -11   19.50    2.40
  -2  -1 -11   17.20    1.70
  -2  -1 -11   19.30    2.50
  -2  -1 -11   11.90    3.40
   2   1  11   13.30    3.10
   2   1  11   15.80    1.40
   2   1  11   13.50    2.80
   2   1  11   14.30    3.20
  -3  -1 -11    2.70    0.90
  -3  -1 -11    0.40    1.70
  -3  -1 -11    2.80    1.50
   3   1  11   -1.60    2.00
   3   1  11   -0.90    1.90
   3   1  11    0.20    2.10
  -4  -1 -11    5.70    1.80
   4   1  11    0.70    2.50
   4   1  11    2.70    2.20
   4   1  11    1.60    2.10
  -5  -1 -11   65.79    4.20
  -5  -1 -11   60.49    8.20
   5   1  11   60.19    5.80
   5   1  11   62.59    6.50
  -6  -1 -11   68.39    4.70
  -6  -1 -11   67.99    9.30
   6   1  11   65.29    7.30
   6   1  11   66.69    6.00
  -7  -1 -11   43.90    3.20
   7  -2 -11   -1.90    2.70
   7  -2 -11    0.30    1.90
  -7   2  11    1.20    1.80
  -7   2  11    1.30    1.50
   6  -2 -11    3.00    1.90
   6  -2 -11    5.50    2.60
  -6   2  11    5.20    1.80
  -6   2  11    5.60    1.90
   5  -2 -11   -0.30    2.40
   5  -2 -11    1.90    1.60
  -5   2  11    5.10    1.50
  -5   2  11    2.10    1.60
   4  -2 -11   12.60    2.60
   4  -2 -11   12.90    1.90
  -4   2  11   13.60    3.20
  -4   2  11   10.30    2.00
  -4   2  11   15.40    2.10
   3  -2 -11    4.70    1.80
   3  -2 -11    5.90    2.10
   3  -2 -11    5.50    1.20
   3  -2 -11    3.20    2.10
  -3   2  11    4.30    1.30
  -3   2  11    5.00    1.50
  -3   2  11    5.20    2.50
   2  -2 -11   41.50    5.70
   2  -2 -11   47.90    3.60
  -2   2  11   41.90    2.80
  -2   2  11   41.40    3.30
  -2   2  11   39.80    4.20
   1  -2 -11   -0.90    1.70
   1  -2 -11    1.40    1.40
   1  -2 -11    0.30    1.50
  -1   2  11    2.00    2.00
  -1   2  11   -0.50    1.10
  -1   2  11   -1.00    0.80
  -1   2  11   -1.50    1.70
   0  -2 -11   10.80    2.40
   0  -2 -11    8.30    2.80
   0  -2 -11   10.60    1.80
   0   2  11    9.40    1.30
   0   2  11    8.50    2.30
   0   2  11    9.10    2.50
  -1  -2 -11   -0.20    1.60
  -1  -2 -11    1.80    1.60
   1   2  11    1.30    1.90
   1   2  11    0.30    0.80
   1   2  11    1.30    1.90
  -2  -2 -11   18.00    1.50
  -2  -2 -11   21.70    2.60
  -2  -2 -11   18.20    2.90
  -2  -2 -11   12.20    3.40
   2   2  11   15.60    2.90
   2   2  11   14.80    3.40
   2   2  11   16.90    3.10
  -3  -2 -11    2.30    2.40
  -3  -2 -11    4.40    0.90
  -3  -2 -11    5.40    1.90
   3   2  11    2.00    2.20
   3   2  11    4.70    2.10
   3   2  11    0.60    2.20
  -4  -2 -11   21.90    2.10
   4   2  11   23.70    4.50
   4   2  11   20.10    3.50
   4   2  11   25.50    3.30
  -5  -2 -11   13.20    2.00
   5   2  11   16.80    4.40
   5   2  11   12.50    3.10
  -6  -2 -11   47.30    3.30
   6   2  11   35.20    4.70
   6   2  11   37.10    6.30
   7  -3 -11   -1.10    2.80
   7  -3 -11   -0.60    1.50
  -7   3  11   -1.20    1.60
  -7   3  11   -0.90    1.40
   6  -3 -11  200.48    9.70
   6  -3 -11  209.18   10.60
  -6   3  11  210.08    9.80
  -6   3  11  226.18   10.70
   5  -3 -11    1.20    2.50
  -5   3  11    0.90    1.30
  -5   3  11   -0.20    1.60
   4  -3 -11    3.90    2.40
  -4   3  11    0.60    1.20
  -4   3  11   -2.40    1.40
   3  -3 -11   -2.40    1.80
   3  -3 -11    0.00    1.70
   3  -3 -11   -0.50    1.60
  -3   3  11   -0.10    1.40
  -3   3  11    0.00    1.00
   2  -3 -11    8.60    2.10
   2  -3 -11    6.50    1.90
   2  -3 -11    5.00    2.30
  -2   3  11    7.20    1.60
  -2   3  11    6.60    1.70
  -2   3  11    7.90    2.60
   1  -3 -11    2.50    1.70
   1  -3 -11   -1.40    2.10
   1  -3 -11    2.30    1.90
  -1   3  11    1.50    1.50
  -1   3  11    6.60    2.30
  -1   3  11    2.90    1.10
   0  -3 -11    9.30    2.00
   0  -3 -11    6.90    2.60
   0  -3 -11   11.20    3.00
   0  -3 -11    7.00    1.80
   0   3  11    9.70    2.60
   0   3  11    9.40    1.50
   0   3  11    7.90    2.60
  -1  -3 -11  503.25   25.00
  -1  -3 -11  464.45   19.10
  -1  -3 -11  442.26   20.40
  -1  -3 -11  442.76   21.00
   1   3  11  495.05   22.10
   1   3  11  480.75   20.30
   1   3  11  455.75   20.20
  -2  -3 -11    2.00    1.90
  -2  -3 -11   -0.10    1.70
   2   3  11    0.90    2.40
   2   3  11    2.50    1.90
   2   3  11   -0.50    2.10
  -3  -3 -11   23.10    3.60
   3   3  11   23.60    4.50
   3   3  11   23.70    3.20
   3   3  11   18.60    3.30
   4   3  11    0.10    2.60
   4   3  11    1.40    2.40
  -5  -3 -11   22.90    2.10
   5   3  11   15.00    3.10
   5   3  11   14.60    4.40
  -6  -3 -11   91.49    4.70
  -6  -3 -11  106.69    6.40
   6  -4 -11   49.80    4.90
  -6   4  11   52.39    4.10
  -6   4  11   44.20    4.60
   5  -4 -11  208.18   10.50
  -5   4  11  226.88   10.30
  -5   4  11  221.68   11.00
   4  -4 -11   22.50    3.30
  -4   4  11   26.50    2.80
  -4   4  11   21.40    3.00
  -4   4  11   18.60    5.00
   3  -4 -11  136.89    7.40
  -3   4  11  142.39    7.60
  -3   4  11  134.29    9.50
  -3   4  11  137.99    6.80
   2  -4 -11   27.80    4.80
   2  -4 -11   23.00    2.90
   2  -4 -11   19.00    2.60
  -2   4  11   16.70    2.60
  -2   4  11   22.00    2.40
   1  -4 -11   74.19    7.50
   1  -4 -11   79.39    4.80
   1  -4 -11   65.19    6.30
   1  -4 -11   78.49    4.70
   0  -4 -11   10.70    3.10
   0  -4 -11   13.50    2.10
   0  -4 -11   12.10    3.50
   0  -4 -11   17.90    2.80
  -1  -4 -11   19.80    4.10
  -1  -4 -11   18.40    2.80
   1   4  11   21.50    3.20
   1   4  11   13.70    3.00
   1   4  11   22.40    4.30
  -2  -4 -11   95.99    7.40
  -2  -4 -11  127.09    9.70
   2   4  11   86.09    6.50
   2   4  11  101.39    6.10
   2   4  11  101.59    7.90
  -3  -4 -11   49.20    5.20
   3   4  11   43.40    4.80
   3   4  11   50.79    5.90
  -4  -4 -11   44.20    4.90
   4   4  11   37.10    5.60
   4   4  11   25.50    3.80
   5   4  11    1.40    2.30
   5   4  11    1.40    2.80
   5  -5 -11   68.29    5.60
  -5   5  11   77.79    4.80
  -5   5  11   75.99    5.80
   4  -5 -11    1.70    2.50
  -4   5  11   -5.20    2.60
  -4   5  11    0.40    1.30
  -4   5  11   -2.70    1.60
   3  -5 -11    5.90    2.50
  -3   5  11    6.90    2.30
  -3   5  11    1.20    3.30
   2  -5 -11   43.80    3.90
  -2   5  11   38.30    4.10
   1  -5 -11   66.79    4.90
   1  -5 -11   51.19    6.40
   1  -5 -11   65.89    4.30
   1  -5 -11   65.79    7.20
   0  -5 -11   -4.00    2.40
   0  -5 -11    3.70    1.80
   0  -5 -11   -0.20    1.60
   0  -5 -11   -0.20    1.60
  -1  -5 -11    3.80    3.00
   1   5  11    3.20    2.80
   1   5  11   -1.20    2.20
  -2  -5 -11    6.20    2.90
   2   5  11   -0.70    2.20
   2   5  11    1.20    2.40
  -3  -5 -11   79.59    6.80
   3   5  11   78.49    7.70
   3   5  11   61.59    5.60
   4   5  11   11.10    4.00
   4   5  11    4.10    2.50
   3  -6 -11   -1.60    2.20
  -3   6  11   -0.10    3.30
  -3   6  11   -1.40    1.90
   2  -6 -11    8.10    2.50
   2  -6 -11    3.80    2.70
   1  -6 -11   -5.30    3.00
   1  -6 -11    1.50    1.90
   0  -6 -11   12.90    2.90
   0  -6 -11    7.00    3.90
   0  -6 -11    9.10    4.30
  -1  -6 -11   17.50    4.70
   1   6  11   21.50    4.50
  -2  -6 -11   69.99    6.90
   2   6  11   64.79    7.00
   3   8 -12    2.30    3.80
  -3  -8  12   14.40    3.60
  -3  -8  12    5.30    2.00
   2   8 -12    9.80    3.80
  -2  -8  12   12.10    4.00
   1   8 -12   85.59   16.30
   1   8 -12  129.79    9.00
  -1  -8  12  130.59    9.20
  -1  -8  12  115.19    9.80
   0   8 -12    5.20    5.80
   0   8 -12   28.40    4.30
   0  -8  12   17.60    4.70
   0  -8  12    4.70    3.90
  -1   8 -12    6.00    2.40
  -1   8 -12   -5.30    4.00
   1  -8  12   -3.10    4.00
   1  -8  12   -9.60    3.90
  -2   8 -12   -3.10    3.90
  -2   8 -12    9.20    2.50
   2  -8  12   -0.30    4.10
  -4  -7  12    2.40    2.60
  -4  -7  12   -1.20    1.40
   3   7 -12   -8.30    5.50
   3   7 -12   -3.20    3.10
  -3  -7  12    3.10    3.20
  -3  -7  12   -1.10    1.50
   2   7 -12   19.80    4.10
  -2  -7  12   29.20    5.10
  -2  -7  12   25.10    2.70
   1   7 -12   17.70    3.70
   1   7 -12    4.80    5.30
  -1  -7  12   15.90    4.60
  -1  -7  12   12.90    2.00
   0   7 -12  128.39   14.70
   0   7 -12  150.78    9.10
   0  -7  12  149.99    7.10
   0  -7  12  147.49   10.30
  -1   7 -12   -0.90    3.40
  -1   7 -12    4.70    2.40
   1  -7  12   -2.70    1.00
   1  -7  12   -3.00    3.40
  -2   7 -12   45.60    9.50
  -2   7 -12   48.00    5.00
   2  -7  12   43.90    6.80
  -3   7 -12    5.00    2.00
  -3   7 -12   -1.50    2.90
   3  -7  12   -0.50    4.20
  -4   7 -12    0.80    3.30
  -4   7 -12    8.50    2.40
   4  -7  12   -1.40    4.30
   5   6 -12   19.40    2.50
  -5  -6  12    8.20    3.00
  -5  -6  12    5.70    1.80
   4   6 -12   24.20    4.90
  -4  -6  12   31.10    4.50
  -4  -6  12   24.30    2.90
   3   6 -12   -1.30    5.00
   3   6 -12   -1.40    2.60
  -3  -6  12    2.70    1.50
  -3  -6  12    4.70    3.20
   2   6 -12    6.80    5.00
   2   6 -12   16.20    3.40
  -2  -6  12   16.00    2.20
  -2  -6  12   15.90    4.10
   1   6 -12    0.00    3.50
   1   6 -12    2.60    2.20
  -1  -6  12    1.90    3.30
  -1  -6  12    0.50    1.20
   0   6 -12   14.90    5.10
   0  -6  12   21.40    2.70
   0  -6  12   19.50    2.10
   0  -6  12   24.80    5.10
  -1   6 -12   12.00    2.70
  -1   6 -12   10.60    4.70
   1  -6  12   15.90    4.50
   1  -6  12   11.20    1.60
   1  -6  12   10.40    2.20
  -2   6 -12   52.99    9.20
  -2   6 -12   51.29    4.90
   2  -6  12   59.39    7.10
   2  -6  12   50.89    4.40
  -3   6 -12   -1.10    2.40
  -3   6 -12    5.40    2.10
   3  -6  12   -1.90    3.90
   3  -6  12    0.80    1.90
  -4   6 -12    7.60    3.80
  -4   6 -12   18.40    3.30
   4  -6  12   12.20    2.80
   4  -6  12   14.80    5.10
  -5   6 -12   85.79    6.20
  -5   6 -12   62.79    9.90
   5  -6  12   68.79    8.30
   5  -6  12   77.29    6.10
   6   5 -12   12.40    4.40
   6   5 -12   18.20    2.70
  -6  -5  12   13.50    2.30
  -5  -5  12   16.90    2.40
  -5  -5  12   19.80    3.70
   4   5 -12   20.20    4.60
   4   5 -12   14.20    6.60
  -4  -5  12   30.20    4.70
  -4  -5  12   27.90    2.80
   3   5 -12   -3.10    3.30
   3   5 -12   -2.50    2.20
  -3  -5  12   -0.20    1.10
  -3  -5  12    1.10    2.70
   2   5 -12   40.90    9.30
   2   5 -12   50.29    5.30
  -2  -5  12   52.69    5.90
  -2  -5  12   47.60    3.30
   1   5 -12   10.90    2.60
   1   5 -12    6.90    3.90
  -1  -5  12   11.00    1.70
  -1  -5  12   12.30    4.00
   0   5 -12    3.20    3.20
   0   5 -12    4.10    2.10
   0  -5  12    0.90    3.30
   0  -5  12    1.00    1.80
   0  -5  12    1.40    1.10
  -1   5 -12    2.40    1.90
  -1   5 -12   -0.30    2.60
   1  -5  12    0.40    0.90
   1  -5  12    3.50    3.40
   1  -5  12   -0.30    1.70
  -2   5 -12    2.10    2.80
  -2   5 -12    6.40    2.20
   2  -5  12    6.80    2.20
   2  -5  12    3.00    3.50
  -3   5 -12   23.50    3.50
  -3   5 -12   16.10    4.60
   3  -5  12   23.60    3.30
   3  -5  12   23.60    5.00
  -4   5 -12    3.40    3.00
  -4   5 -12    4.70    2.00
   4  -5  12    1.50    4.10
   4  -5  12    5.00    2.40
  -5   5 -12   17.10    4.70
   5  -5  12   28.40    3.90
   5  -5  12   26.10    5.50
  -6   5 -12   66.49    9.40
   6  -5  12   59.79    7.60
   6  -5  12   72.09    6.50
   6   4 -12   -1.20    3.20
   6   4 -12    5.90    2.20
  -6  -4  12    3.10    2.20
  -6  -4  12    0.90    1.30
   5   4 -12   14.10    2.40
   5   4 -12   14.00    4.00
  -5  -4  12   16.50    3.70
  -5  -4  12   11.70    2.10
   4   4 -12   -3.50    3.80
   4   4 -12   -2.50    2.50
  -4  -4  12    0.80    1.20
  -4  -4  12    0.30    2.60
   3   4 -12    0.60    2.50
   3   4 -12    5.30    1.60
   3   4 -12    0.20    3.40
  -3  -4  12    2.70    3.00
  -3  -4  12    3.50    1.30
   2   4 -12   12.30    2.70
   2   4 -12   10.90    4.40
  -2  -4  12   11.40    1.70
  -2  -4  12   17.30    4.00
   1   4 -12    6.00    3.40
   1   4 -12   10.00    2.50
  -1  -4  12   11.40    2.30
  -1  -4  12    9.00    1.50
  -1  -4  12   10.40    3.40
   0   4 -12   -0.50    2.40
   0   4 -12    3.10    1.90
   0  -4  12   -1.50    1.70
   0  -4  12    1.00    0.90
   0  -4  12   -1.00    2.70
  -1   4 -12    1.50    1.50
  -1   4 -12   -1.60    1.90
   1  -4  12    1.00    0.80
   1  -4  12    0.30    3.00
   1  -4  12    1.80    1.70
  -2   4 -12   10.40    3.80
  -2   4 -12   17.60    2.80
   2  -4  12   17.40    4.30
   2  -4  12   17.20    2.80
  -3   4 -12   10.50    2.40
  -3   4 -12    5.60    3.10
   3  -4  12    8.20    4.00
   3  -4  12    8.80    2.60
  -4   4 -12    3.90    3.00
  -4   4 -12   10.80    2.40
   4  -4  12    4.50    2.40
   4  -4  12    8.10    3.90
  -5   4 -12   24.30    3.60
  -5   4 -12   15.80    4.50
   5  -4  12   24.10    5.10
   5  -4  12   22.60    3.90
  -6   4 -12    6.10    3.50
   6  -4  12    9.90    4.10
   6  -4  12    6.60    3.00
   7   3 -12   33.70    5.20
   7   3 -12   40.90    4.00
  -7  -3  12   37.70    3.30
  -7  -3  12   51.39    6.00
   6   3 -12    1.80    2.00
   6   3 -12   -0.50    3.00
  -6  -3  12    3.50    1.50
  -6  -3  12    5.90    2.60
   5   3 -12    7.10    2.30
   5   3 -12    1.60    3.00
  -5  -3  12    5.90    1.60
  -5  -3  12    8.90    3.00
   4   3 -12    1.30    3.40
  -4  -3  12    2.30    1.20
  -4  -3  12    1.80    2.70
   3   3 -12    3.70    2.50
   3   3 -12    3.50    3.20
   3   3 -12    7.20    1.70
  -3  -3  12    9.90    3.40
  -3  -3  12    7.80    1.50
   2   3 -12    0.40    1.90
   2   3 -12    0.10    2.30
  -2  -3  12    1.90    2.80
  -2  -3  12    0.30    1.00
   1   3 -12   27.40    3.40
   1   3 -12   27.50    6.10
  -1  -3  12   24.40    3.00
  -1  -3  12   28.10    4.70
  -1  -3  12   28.20    2.20
   0   3 -12    9.00    2.00
   0   3 -12    5.10    2.90
   0  -3  12   10.40    2.40
   0  -3  12    8.60    1.30
   0  -3  12   10.00    3.30
  -1   3 -12    9.90    3.60
  -1   3 -12   17.10    2.50
   1  -3  12   13.10    1.40
   1  -3  12   17.80    3.90
   1  -3  12   12.50    2.50
  -2   3 -12    1.70    1.50
  -2   3 -12   -0.90    1.90
   2  -3  12   -0.70    1.70
   2  -3  12    1.60    2.90
  -3   3 -12    5.50    3.00
  -3   3 -12   11.50    2.20
   3  -3  12    8.90    2.60
   3  -3  12    8.00    3.30
  -5   3 -12   13.70    2.70
  -5   3 -12    7.50    3.30
   5  -3  12   14.80    3.40
   5  -3  12   11.80    3.80
  -6   3 -12    2.70    2.60
  -6   3 -12    7.50    2.20
   6  -3  12    2.20    2.70
   6  -3  12    6.90    3.50
   7   2 -12   -1.60    2.80
   7   2 -12   -3.20    2.20
  -7  -2  12    2.30    1.50
  -7  -2  12    2.60    2.00
   6   2 -12   -1.10    2.70
   6   2 -12    3.50    2.20
  -6  -2  12    5.20    2.50
  -6  -2  12    4.90    1.50
   5   2 -12    4.90    2.20
   5   2 -12    2.90    2.80
   5   2 -12   -1.50    3.60
  -5  -2  12    1.80    1.20
  -5  -2  12    3.40    2.60
   4   2 -12   50.29    5.10
   4   2 -12   47.40    8.70
  -4  -2  12   57.89    5.60
  -4  -2  12   54.59    3.40
   3   2 -12  317.77   19.90
   3   2 -12  304.57   14.30
   3   2 -12  291.47   13.00
  -3  -2  12  303.17   12.80
  -3  -2  12  294.77   14.80
   2   2 -12    2.70    1.90
   2   2 -12    3.80    2.60
  -2  -2  12    4.60    2.80
  -2  -2  12    4.70    1.20
   1   2 -12  186.28    9.40
   1   2 -12  205.68   14.60
  -1  -2  12  180.78   10.60
  -1  -2  12  200.78    8.50
  -1  -2  12  196.88    9.50
   0   2 -12   69.69    8.40
   0   2 -12   72.89    4.80
   0  -2  12   66.79    5.10
   0  -2  12   72.79    3.70
   0  -2  12   66.59    6.10
  -1   2 -12    0.70    1.20
  -1   2 -12   -0.20    1.80
   1  -2  12   -0.90    1.90
   1  -2  12    0.70    0.70
   1  -2  12   -0.60    2.40
  -2   2 -12    1.60    2.10
  -2   2 -12    3.10    1.40
   2  -2  12    1.90    2.10
   2  -2  12    1.30    2.80
  -3   2 -12  177.98    9.10
  -3   2 -12  209.68   10.00
  -3   2 -12  173.78   13.70
   3  -2  12  173.58   10.40
   3  -2  12  186.48    9.70
  -4   2 -12   13.00    2.40
  -4   2 -12    4.70    2.70
   4  -2  12    8.00    3.30
   4  -2  12    5.40    2.60
  -5   2 -12   -0.80    2.10
  -5   2 -12    0.10    1.50
   5  -2  12   -2.40    2.40
   5  -2  12   -0.60    2.60
  -6   2 -12   -1.30    1.80
  -6   2 -12    1.80    1.40
   6  -2  12    1.30    2.70
   6  -2  12    1.10    2.50
   7   1 -12    5.20    2.70
   7   1 -12    5.70    3.10
  -7  -1  12    7.10    1.90
  -7  -1  12    7.30    1.80
   6   1 -12    2.10    2.60
   6   1 -12    3.70    2.50
  -6  -1  12    8.10    2.90
  -6  -1  12    4.70    1.60
  -6  -1  12    6.30    1.60
   5   1 -12   -0.10    3.40
   5   1 -12    0.60    2.10
   5   1 -12    0.40    2.40
  -5  -1  12    1.40    1.20
  -5  -1  12    3.00    2.60
  -5  -1  12    2.30    1.20
   4   1 -12   16.00    3.10
   4   1 -12   14.80    4.50
  -4  -1  12   13.70    1.90
  -4  -1  12   16.80    2.10
  -4  -1  12   21.40    3.90
   3   1 -12  156.38    7.60
   3   1 -12  157.78   12.80
  -3  -1  12  143.29    9.00
  -3  -1  12  148.69    7.20
  -3  -1  12  176.48    8.60
   2   1 -12  153.08    8.00
   2   1 -12  163.28    7.60
   2   1 -12  161.08   12.60
  -2  -1  12  146.49    9.00
  -2  -1  12  150.38    7.10
   1   1 -12   57.49    4.20
   1   1 -12   59.69    7.40
  -1  -1  12   68.69    4.90
  -1  -1  12   65.09    5.60
  -1  -1  12   68.69    3.60
   0   1 -12  116.79    6.10
   0   1 -12  113.19   10.30
   0  -1  12  109.09    7.40
   0  -1  12  117.49    6.70
   0  -1  12  114.09    5.30
  -1   1 -12   35.00    6.20
  -1   1 -12   33.70    2.90
   1  -1  12   35.10    3.90
   1  -1  12   35.60    4.50
   1  -1  12   33.70    2.10
  -2   1 -12   12.20    1.90
  -2   1 -12    7.70    3.00
   2  -1  12   15.60    3.80
   2  -1  12   12.40    2.90
  -3   1 -12    1.40    1.10
  -3   1 -12    0.20    1.90
   3  -1  12    1.30    2.70
   3  -1  12    0.30    2.20
  -4   1 -12    3.50    1.40
  -4   1 -12    2.10    2.40
   4  -1  12    4.90    2.50
   4  -1  12    8.30    3.10
  -5   1 -12   13.70    2.40
  -5   1 -12    9.70    3.80
   5  -1  12   12.70    3.60
   5  -1  12   13.30    3.20
   5  -1  12   15.10    3.60
  -6   1 -12    6.40    3.30
   6  -1  12    9.10    3.30
   6  -1  12    9.10    3.30
   7   0 -12   38.40    5.10
   7   0 -12   43.20    4.50
  -7   0  12   52.99    3.90
  -7   0  12   42.70    4.10
   6   0 -12    9.90    2.80
   6   0 -12    6.00    2.70
  -6   0  12    8.70    2.00
  -6   0  12   11.50    2.00
  -6   0  12   17.30    3.60
   5   0 -12   31.70    4.20
   5   0 -12   19.50    5.40
   5   0 -12   36.80    3.80
  -5   0  12   35.70    4.50
  -5   0  12   28.50    3.00
  -5   0  12   32.80    2.70
   4   0 -12   21.20    3.00
   4   0 -12   10.20    3.70
   4   0 -12   12.00    2.60
  -4   0  12   13.30    2.00
  -4   0  12   15.00    2.00
  -4   0  12   13.00    3.30
   3   0 -12    2.30    2.30
   3   0 -12    2.40    1.90
   3   0 -12    1.90    1.60
  -3   0  12    2.30    1.20
  -3   0  12    1.20    2.50
  -3   0  12    3.60    1.30
   2   0 -12    1.10    2.00
   2   0 -12    2.10    1.50
  -2   0  12    0.40    1.00
  -2   0  12    2.90    2.50
  -2   0  12    1.40    1.10
   1   0 -12    0.30    1.90
   1   0 -12   -1.00    1.20
  -1   0  12    2.00    2.40
  -1   0  12   -0.10    0.80
  -1   0  12    0.30    2.00
   0   0 -12   58.29    3.80
   0   0 -12   71.49    7.90
   0   0  12   67.29    3.50
   0   0  12   63.09    5.10
   0   0  12   58.69    5.60
  -1   0 -12    8.70    1.50
  -1   0 -12    6.00    2.70
   1   0  12    7.80    3.00
   1   0  12    5.50    2.20
   1   0  12    8.80    1.20
  -2   0 -12   34.20    6.00
  -2   0 -12   37.10    2.90
   2   0  12   37.50    4.10
   2   0  12   43.50    4.90
  -3   0 -12   73.99    8.70
  -3   0 -12   77.39    4.50
   3   0  12   71.99    5.90
   3   0  12   78.39    6.10
  -4   0 -12    4.20    3.00
  -4   0 -12   11.00    1.90
   4   0  12   10.20    3.00
   4   0  12    6.60    2.60
   4   0  12    6.50    3.00
  -5   0 -12    2.80    2.60
  -5   0 -12    5.00    1.50
   5   0  12    8.40    2.80
   5   0  12    5.30    2.80
   5   0  12    5.50    3.20
  -6   0 -12   35.00    7.40
   6   0  12   34.00    4.70
   6   0  12   29.20    5.20
   7  -1 -12    0.30    2.20
   7  -1 -12    4.70    2.80
  -7   1  12    4.60    1.60
  -7   1  12    3.30    1.90
   6  -1 -12    8.30    2.50
   6  -1 -12   13.00    3.30
  -6   1  12    9.90    1.90
  -6   1  12   10.30    2.20
   5  -1 -12    3.50    2.50
   5  -1 -12   -0.50    1.80
  -5   1  12    5.50    2.80
  -5   1  12    4.10    1.70
  -5   1  12    6.10    1.60
   4  -1 -12   -0.80    1.50
   4  -1 -12    0.80    2.20
   4  -1 -12    3.70    2.20
  -4   1  12    0.40    1.10
  -4   1  12    1.40    1.30
  -4   1  12    0.10    2.30
   3  -1 -12   83.19    4.90
   3  -1 -12   92.19    8.90
  -3   1  12   78.19    6.30
  -3   1  12   91.89    4.80
  -3   1  12   89.79    5.10
   2  -1 -12  174.98    8.20
   2  -1 -12  162.38    7.80
   2  -1 -12  168.08   12.40
  -2   1  12  182.18    8.10
  -2   1  12  161.38    9.50
  -2   1  12  179.38    7.80
   1  -1 -12   53.19    7.00
   1  -1 -12   61.99    4.10
  -1   1  12   53.79    5.00
  -1   1  12   55.99    3.30
  -1   1  12   51.19    4.60
   0  -1 -12    9.00    1.40
   0  -1 -12    9.30    3.30
   0   1  12   10.40    3.00
   0   1  12   10.10    2.70
   0   1  12   10.40    1.40
  -1  -1 -12   44.20    6.60
  -1  -1 -12   42.50    2.70
   1   1  12   40.80    4.70
   1   1  12   39.60    4.50
   1   1  12   43.80    2.60
  -2  -1 -12   26.60    2.20
   2   1  12   26.60    3.90
   2   1  12   22.30    3.50
  -3  -1 -12   -0.30    1.90
  -3  -1 -12    1.90    0.90
   3   1  12    1.90    2.30
   3   1  12    1.20    2.10
   3   1  12    1.20    2.50
  -4  -1 -12  182.18   14.50
  -4  -1 -12  179.98    8.60
   4   1  12  192.38   11.70
   4   1  12  177.08    9.90
   4   1  12  176.28    9.70
  -5  -1 -12   50.89    8.30
  -5  -1 -12   48.80    3.70
   5   1  12   51.19    5.60
   5   1  12   52.09    6.20
  -6  -1 -12  121.39    6.30
  -6  -1 -12   98.09   11.30
   6   1  12  104.79    7.60
   6   1  12  109.89    9.40
   6  -2 -12   -4.60    2.50
   6  -2 -12   -0.60    1.60
  -6   2  12   -0.80    1.60
  -6   2  12   -0.40    1.40
   5  -2 -12   -2.10    2.20
   5  -2 -12   -1.20    1.50
  -5   2  12   -1.20    1.40
  -5   2  12    0.50    1.20
   4  -2 -12    0.50    2.20
  -4   2  12    1.70    1.50
  -4   2  12    1.50    1.30
  -4   2  12    3.30    2.70
   3  -2 -12    4.90    2.50
   3  -2 -12    6.50    2.50
  -3   2  12    5.80    1.60
  -3   2  12    9.90    3.20
  -3   2  12    7.70    1.90
   2  -2 -12    8.10    2.80
   2  -2 -12    7.60    2.00
  -2   2  12   14.70    3.30
  -2   2  12    9.00    1.80
  -2   2  12   10.00    1.70
   1  -2 -12   11.00    2.10
   1  -2 -12    8.50    3.10
  -1   2  12   12.70    3.00
  -1   2  12   10.70    1.60
   0  -2 -12   33.30    5.90
   0  -2 -12   43.80    3.40
   0   2  12   33.40    2.50
   0   2  12   33.20    3.90
   0   2  12   37.30    4.50
  -1  -2 -12   45.10    6.70
   1   2  12   47.00    2.90
   1   2  12   45.60    4.60
   1   2  12   51.99    4.90
  -2  -2 -12   -0.30    1.90
   2   2  12    0.30    2.40
   2   2  12   -0.80    2.00
   2   2  12    1.00    2.00
  -3  -2 -12   16.10    4.20
   3   2  12   28.50    3.80
   3   2  12   21.60    3.40
   3   2  12   21.80    4.40
  -4  -2 -12    4.10    3.00
  -4  -2 -12    9.30    1.80
   4   2  12    1.30    2.30
   4   2  12    4.40    3.10
  -5  -2 -12    0.70    2.60
   5   2  12   -0.10    2.40
   5   2  12    2.00    3.10
   6  -3 -12    1.30    2.60
  -6   3  12    3.30    1.70
  -6   3  12   -0.60    1.70
   5  -3 -12    3.20    2.60
  -5   3  12    7.00    1.90
  -5   3  12    2.90    1.80
   4  -3 -12    1.00    2.30
  -4   3  12    1.60    1.30
  -4   3  12   -1.00    1.50
   3  -3 -12    6.30    2.40
  -3   3  12    4.40    1.80
  -3   3  12    5.00    1.60
   2  -3 -12   24.50    3.10
   2  -3 -12   23.40    5.10
  -2   3  12   25.80    3.00
  -2   3  12   22.90    2.40
  -2   3  12   21.60    3.90
   1  -3 -12   21.80    2.90
   1  -3 -12   23.50    5.00
  -1   3  12   21.40    2.30
  -1   3  12   26.10    4.00
   0  -3 -12   11.70    2.10
   0  -3 -12    8.60    3.00
   0   3  12    8.90    1.50
   0   3  12   11.40    3.00
   0   3  12   10.20    2.90
  -1  -3 -12    5.10    1.60
  -1  -3 -12    0.20    2.00
   1   3  12    2.50    2.40
   1   3  12    3.50    2.20
  -2  -3 -12   19.10    2.90
  -2  -3 -12   15.10    2.10
   2   3  12   10.10    2.60
   2   3  12    7.30    2.90
   2   3  12    8.20    3.20
  -3  -3 -12    7.60    2.00
  -3  -3 -12   -0.90    2.20
   3   3  12    0.60    2.20
   3   3  12    2.60    1.90
   3   3  12    2.60    2.90
   4   3  12    1.50    2.30
   4   3  12    1.20    2.80
   5  -4 -12   60.19    5.20
  -5   4  12   53.29    4.10
  -5   4  12   46.20    4.70
   4  -4 -12    3.30    2.50
  -4   4  12    4.30    1.60
  -4   4  12    2.90    2.10
   3  -4 -12    2.30    2.30
  -3   4  12    0.90    1.80
  -3   4  12   -0.20    1.20
   2  -4 -12    2.70    2.20
  -2   4  12    0.70    1.30
  -2   4  12   -1.40    1.70
   1  -4 -12    2.40    1.70
   1  -4 -12    4.60    2.00
   1  -4 -12    0.90    1.80
   0  -4 -12    1.80    1.80
   0  -4 -12   -0.40    1.60
  -1  -4 -12    4.00    2.40
  -1  -4 -12    2.10    2.30
   1   4  12    1.80    2.40
  -2  -4 -12    7.10    2.10
  -2  -4 -12    1.00    2.20
   2   4  12    0.40    2.60
   2   4  12    0.10    2.30
   3   4  12   -2.10    2.10
   3   4  12    3.00    2.80
   4  -5 -12    8.70    2.90
  -4   5  12   10.80    2.10
  -4   5  12   12.90    2.90
   3  -5 -12   44.30    4.30
  -3   5  12   48.90    4.70
   2  -5 -12   26.50    3.50
   2  -5 -12   21.80    3.20
   1  -5 -12    7.30    2.20
   1  -5 -12    5.80    2.40
   0  -5 -12    4.30    2.30
  -1  -5 -12   15.50    4.10
  -2  -5 -12   -2.20    1.90
   2   5  12   -2.10    2.30
   2   5  12    0.30    2.30
   3   7 -13   -5.80    3.00
  -3  -7  13   -1.00    1.40
  -3  -7  13    4.20    3.00
   2   7 -13    1.40    2.60
  -2  -7  13    7.00    3.50
  -2  -7  13    0.00    1.40
   1   7 -13   99.79   15.10
   1   7 -13  120.59    8.30
  -1  -7  13  113.39    6.00
  -1  -7  13  128.49    9.00
   0   7 -13   10.70    2.90
   0   7 -13    2.00    4.70
   0  -7  13    6.90    3.90
   0  -7  13    7.40    1.70
  -1   7 -13   43.30    5.00
  -1   7 -13   21.50    6.70
   1  -7  13   34.50    6.10
  -2   7 -13   -1.90    3.10
   2  -7  13   -1.00    3.90
  -3   7 -13    0.30    3.50
   3  -7  13    0.40    4.40
   4   6 -13   -3.40    3.20
  -4  -6  13    6.80    3.00
  -4  -6  13    4.70    1.80
   3   6 -13   13.10    4.00
  -3  -6  13   26.10    4.70
  -3  -6  13   22.20    2.50
   2   6 -13    0.00    2.70
   2   6 -13   -4.20    3.90
  -2  -6  13    2.70    3.30
  -2  -6  13   -0.20    1.30
   1   6 -13    4.70    2.50
   1   6 -13   -1.40    3.50
  -1  -6  13    1.00    1.30
  -1  -6  13    1.20    3.30
   0   6 -13   -2.80    2.90
   0   6 -13    3.90    2.10
   0  -6  13   -0.40    3.30
   0  -6  13    1.30    1.20
  -1   6 -13   15.70    5.50
  -1   6 -13   21.00    3.40
   1  -6  13   17.60    4.70
   1  -6  13   16.30    2.80
  -2   6 -13   98.99    7.00
  -2   6 -13   89.49   11.80
   2  -6  13   93.89    8.60
   2  -6  13   82.59    5.80
  -3   6 -13    3.40    2.00
  -3   6 -13    0.00    2.80
   3  -6  13    1.10    4.10
   3  -6  13   -1.90    1.70
  -4   6 -13    7.20    4.10
   4  -6  13   14.20    4.90
   4  -6  13   11.80    2.80
   5   5 -13    4.00    3.60
  -5  -5  13    4.40    1.70
  -5  -5  13    9.40    3.00
   4   5 -13    6.70    3.90
  -4  -5  13   17.40    3.90
  -4  -5  13   13.70    2.10
   3   5 -13    4.60    5.10
   3   5 -13    3.70    3.20
  -3  -5  13    5.60    1.50
  -3  -5  13   13.20    3.80
   2   5 -13    0.00    2.30
   2   5 -13   -1.40    3.50
  -2  -5  13    1.70    3.40
  -2  -5  13    0.20    1.20
   1   5 -13  178.58   10.10
   1   5 -13  189.98   16.70
  -1  -5  13  187.48    8.40
  -1  -5  13  178.78   11.00
   0   5 -13    6.30    4.10
   0   5 -13   13.70    2.90
   0  -5  13   11.20    1.70
   0  -5  13   10.90    3.90
   0  -5  13   12.40    2.60
  -1   5 -13   10.50    2.60
  -1   5 -13    4.10    3.80
   1  -5  13    9.50    3.80
   1  -5  13    9.40    2.40
  -2   5 -13   38.70    8.40
  -2   5 -13   44.30    4.30
   2  -5  13   27.90    5.30
   2  -5  13   33.40    3.80
  -3   5 -13    6.40    2.20
  -3   5 -13    1.40    2.70
   3  -5  13    0.20    2.10
   3  -5  13    1.90    3.70
  -4   5 -13    6.50    2.00
  -4   5 -13    1.30    2.70
   4  -5  13    2.10    2.30
   4  -5  13    6.10    4.00
  -5   5 -13   74.09    5.70
  -5   5 -13   51.09    8.80
   5  -5  13   56.39    7.10
   5  -5  13   50.69    5.60
   6   4 -13    5.00    3.70
   6   4 -13   12.30    2.80
  -6  -4  13   11.00    3.10
  -6  -4  13    7.10    1.80
   5   4 -13   15.80    2.60
   5   4 -13    9.50    3.80
  -5  -4  13   10.30    1.90
  -5  -4  13   12.50    3.40
   4   4 -13   10.40    5.50
   4   4 -13   16.30    4.30
  -4  -4  13   19.50    2.40
  -4  -4  13   25.00    4.50
   3   4 -13   -3.70    2.30
   3   4 -13   -0.50    3.30
  -3  -4  13    1.00    2.80
  -3  -4  13   -0.40    1.10
   2   4 -13    5.70    2.50
   2   4 -13    6.70    4.10
  -2  -4  13    4.60    3.30
  -2  -4  13    7.20    1.60
   1   4 -13   -0.50    2.80
   1   4 -13    2.30    1.90
  -1  -4  13    2.60    1.10
  -1  -4  13   -0.50    1.90
  -1  -4  13    3.10    3.20
   0   4 -13  113.39   11.90
   0   4 -13  113.59    7.10
   0  -4  13  116.99    5.60
   0  -4  13  116.19    6.90
   0  -4  13  117.19    8.60
  -1   4 -13    7.40    2.20
  -1   4 -13    4.60    3.20
   1  -4  13    5.60    3.50
   1  -4  13    6.20    2.40
   1  -4  13    5.80    1.10
  -2   4 -13  268.77   13.20
  -2   4 -13  278.87   19.40
   2  -4  13  270.07   13.00
   2  -4  13  290.47   14.90
  -3   4 -13   19.40    3.20
   3  -4  13   15.30    3.20
   3  -4  13   15.40    4.30
  -4   4 -13    4.90    3.20
  -4   4 -13   11.10    2.50
   4  -4  13   12.30    4.30
   4  -4  13    7.50    2.60
  -5   4 -13   -0.20    2.30
  -5   4 -13    6.50    2.00
   5  -4  13    2.70    2.70
   5  -4  13    1.80    3.20
   6   3 -13   14.10    2.80
   6   3 -13    8.40    3.70
  -6  -3  13   12.80    3.30
  -6  -3  13   10.30    2.10
   5   3 -13   13.10    3.80
   5   3 -13   16.80    2.70
  -5  -3  13   11.90    2.00
  -5  -3  13   17.30    3.70
   4   3 -13    7.20    4.80
  -4  -3  13   16.10    2.10
  -4  -3  13   14.50    3.60
   3   3 -13    1.70    2.50
   3   3 -13    2.60    3.30
  -3  -3  13    5.20    3.30
  -3  -3  13    7.20    1.50
   2   3 -13   15.00    3.00
   2   3 -13   10.60    4.00
  -2  -3  13   15.20    1.90
  -2  -3  13   11.80    3.80
   1   3 -13    0.30    1.70
   1   3 -13    0.40    2.50
  -1  -3  13   -1.10    1.80
  -1  -3  13    0.50    3.10
  -1  -3  13    0.90    1.00
   0   3 -13    6.40    3.30
   0   3 -13   13.30    2.40
   0  -3  13   12.00    2.60
   0  -3  13   13.00    1.60
   0  -3  13   12.10    4.00
  -1   3 -13    2.50    2.80
  -1   3 -13    6.80    1.90
   1  -3  13    2.70    2.10
   1  -3  13    7.90    3.60
   1  -3  13    4.80    1.00
  -2   3 -13    9.40    3.80
  -2   3 -13   12.40    2.50
   2  -3  13   19.10    4.20
   2  -3  13   11.70    2.80
  -3   3 -13  251.07   18.10
  -3   3 -13  256.47   12.30
   3  -3  13  262.87   12.60
   3  -3  13  238.88   13.30
  -4   3 -13    1.70    2.90
  -4   3 -13    4.40    1.80
   4  -3  13    4.40    3.20
   4  -3  13    0.80    2.20
  -5   3 -13   20.70    3.20
   5  -3  13   17.30    4.30
   5  -3  13   16.60    3.50
   6   2 -13    4.80    2.40
   6   2 -13    0.00    2.90
  -6  -2  13    1.70    1.50
  -6  -2  13    6.90    2.90
   5   2 -13   -2.60    2.60
   5   2 -13    3.50    2.40
  -5  -2  13    2.10    1.30
  -5  -2  13    2.30    2.70
   4   2 -13   12.90    4.80
   4   2 -13   20.00    3.50
  -4  -2  13   25.20    4.30
  -4  -2  13   24.90    2.50
   3   2 -13    1.90    2.50
   3   2 -13    3.20    3.00
  -3  -2  13    6.20    3.10
  -3  -2  13    3.80    1.30
   2   2 -13   -0.40    1.90
   2   2 -13   -0.50    2.50
  -2  -2  13   -0.10    1.00
  -2  -2  13    0.60    2.70
   1   2 -13   68.69    5.00
   1   2 -13   75.19    9.30
  -1  -2  13   82.79    4.20
  -1  -2  13   78.19    5.70
  -1  -2  13   73.19    6.40
   0   2 -13    0.30    2.20
   0   2 -13    2.70    1.50
   0  -2  13    0.00    2.10
   0  -2  13    3.20    3.00
   0  -2  13    0.60    0.90
  -1   2 -13    8.30    1.90
  -1   2 -13    5.90    3.20
   1  -2  13    8.80    2.70
   1  -2  13    9.30    1.20
   1  -2  13    7.90    3.50
  -2   2 -13    7.40    1.90
  -2   2 -13    4.20    2.80
   2  -2  13    6.30    2.60
   2  -2  13    7.60    3.40
  -3   2 -13  156.38    8.30
  -3   2 -13  158.98   13.70
   3  -2  13  158.78    9.90
   3  -2  13  167.98    9.10
  -4   2 -13   18.00    4.70
   4  -2  13   23.20    3.70
   4  -2  13   35.00    4.90
  -5   2 -13   -0.60    2.00
   5  -2  13    5.40    3.00
   5  -2  13   -0.80    2.60
   6   1 -13   -2.00    2.40
   6   1 -13   -0.60    2.50
  -6  -1  13    5.00    2.60
  -6  -1  13    2.90    1.50
   5   1 -13    2.60    2.50
   5   1 -13   -3.00    3.10
   5   1 -13    1.20    2.60
  -5  -1  13    2.60    2.80
  -5  -1  13    2.00    1.30
   4   1 -13   -0.80    2.70
   4   1 -13   -2.70    2.10
  -4  -1  13    0.50    1.20
  -4  -1  13    0.50    2.40
   3   1 -13    0.50    2.50
  -3  -1  13    3.30    3.00
  -3  -1  13    1.50    1.20
   2   1 -13   -0.90    1.80
   2   1 -13    0.60    2.50
  -2  -1  13    0.60    1.10
  -2  -1  13    1.20    2.70
   1   1 -13    8.40    2.00
   1   1 -13    3.80    2.90
  -1  -1  13    6.90    2.40
  -1  -1  13   10.10    3.30
  -1  -1  13    7.60    1.40
   0   1 -13    4.50    1.50
   0   1 -13    2.10    2.50
   0  -1  13    2.50    2.30
   0  -1  13    3.30    2.80
   0  -1  13    4.60    1.10
  -1   1 -13   11.40    3.90
  -1   1 -13   22.60    2.60
   1  -1  13   16.40    1.60
   1  -1  13   18.40    3.10
   1  -1  13   15.70    3.80
  -2   1 -13   14.10    2.10
  -2   1 -13    9.70    3.60
   2  -1  13   13.40    3.00
   2  -1  13   16.20    3.90
  -3   1 -13   32.20    7.10
  -3   1 -13   44.50    3.50
   3  -1  13   33.70    4.30
   3  -1  13   44.60    5.30
  -4   1 -13   29.50    3.10
  -4   1 -13   18.80    5.00
   4  -1  13   29.70    4.70
   4  -1  13   21.10    3.70
  -5   1 -13    0.40    2.50
   5  -1  13    5.30    2.90
   5  -1  13    0.10    2.40
   6   0 -13   23.50    3.70
   6   0 -13   33.20    4.00
  -6   0  13   37.70    4.60
  -6   0  13   28.00    3.00
   5   0 -13    1.00    2.30
   5   0 -13   -2.10    2.00
  -5   0  13    0.60    1.30
  -5   0  13    1.30    2.60
   4   0 -13   17.00    2.90
   4   0 -13   10.50    2.60
  -4   0  13   13.10    2.10
  -4   0  13   14.50    3.60
   3   0 -13   21.00    2.90
   3   0 -13   15.80    4.30
  -3   0  13   27.10    4.60
  -3   0  13   23.70    2.40
   2   0 -13    7.80    3.40
  -2   0  13   15.70    3.80
  -2   0  13   11.30    1.70
   1   0 -13   83.69    9.30
   1   0 -13   84.19    5.20
  -1   0  13   92.99    6.80
  -1   0  13   95.09    6.20
  -1   0  13   89.99    4.60
   0   0 -13   57.89    7.60
   0   0 -13   52.19    3.70
   0   0  13   56.59    3.20
   0   0  13   53.79    5.70
   0   0  13   54.59    5.20
  -1   0 -13   25.80    2.40
  -1   0 -13   18.00    4.60
   1   0  13   22.50    1.90
   1   0  13   22.00    3.40
   1   0  13   24.90    4.30
  -2   0 -13   44.40    7.10
  -2   0 -13   49.60    3.40
   2   0  13   53.49    5.30
   2   0  13   49.40    5.40
  -3   0 -13    4.00    1.20
  -3   0 -13    2.90    2.80
   3   0  13    4.40    2.60
   3   0  13    2.30    2.40
  -4   0 -13    0.60    2.50
   4   0  13   -1.40    2.20
   4   0  13    3.40    2.70
  -5   0 -13   -0.30    2.30
   5   0  13   -1.30    2.50
   5   0  13    2.60    2.50
   6  -1 -13    3.70    3.00
   6  -1 -13    0.30    1.90
  -6   1  13    4.70    1.60
  -6   1  13    2.30    1.80
   5  -1 -13    3.30    2.00
   5  -1 -13    5.10    2.60
  -5   1  13    6.70    2.90
  -5   1  13    4.70    1.60
  -5   1  13    3.40    1.80
   4  -1 -13   47.90    4.50
   4  -1 -13   37.20    4.40
  -4   1  13   43.80    3.30
  -4   1  13   41.80    3.80
  -4   1  13   44.30    5.10
   3  -1 -13   11.10    3.60
  -3   1  13   17.90    3.90
  -3   1  13   14.00    2.20
  -3   1  13   14.90    2.10
   2  -1 -13    0.30    2.10
  -2   1  13   -0.20    2.40
  -2   1  13    1.10    1.10
   1  -1 -13   17.20    4.30
  -1   1  13   28.90    4.40
  -1   1  13   25.50    2.30
   0  -1 -13    4.10    2.60
   0   1  13    6.00    1.30
   0   1  13    5.40    2.60
   0   1  13    7.80    2.90
  -1  -1 -13    6.00    3.00
   1   1  13   10.70    1.50
   1   1  13   11.70    3.20
   1   1  13    9.30    2.80
  -2  -1 -13    7.60    3.40
   2   1  13   11.90    3.30
   2   1  13    5.00    2.60
  -3  -1 -13   91.79    5.90
  -3  -1 -13   90.99   10.30
   3   1  13   81.89    6.40
   3   1  13   93.19    6.70
  -4  -1 -13    1.60    2.70
   4   1  13    2.20    2.80
   4   1  13    0.40    2.60
   4   1  13    6.50    2.60
  -5  -1 -13    0.60    2.40
   5   1  13    1.00    2.60
   5   1  13    0.50    2.70
   5  -2 -13   -1.30    2.50
  -5   2  13    1.70    1.40
  -5   2  13   -1.10    1.60
   4  -2 -13    4.50    2.50
  -4   2  13    4.70    1.80
  -4   2  13    5.70    1.70
  -4   2  13    9.00    3.20
   3  -2 -13    6.00    4.00
   3  -2 -13   10.30    2.60
  -3   2  13    6.60    1.90
  -3   2  13    9.10    1.90
  -3   2  13   10.60    3.20
   2  -2 -13  107.59   10.10
  -2   2  13  111.79    5.70
  -2   2  13  103.99    7.40
  -2   2  13  108.49    6.20
   1  -2 -13  128.29   11.10
  -1   2  13  124.39    8.00
  -1   2  13  126.29    6.20
   0  -2 -13  452.95   24.90
   0   2  13  461.25   20.10
   0   2  13  445.16   18.40
   0   2  13  453.75   20.50
  -1  -2 -13   -0.30    2.00
   1   2  13   -1.00    2.40
   1   2  13    2.30    2.30
  -2  -2 -13    1.50    2.30
   2   2  13    3.40    2.30
   2   2  13    2.00    2.60
  -3  -2 -13    3.30    2.80
   3   2  13    2.00    2.40
   3   2  13    7.70    2.60
   3   2  13    4.60    3.20
  -4  -2 -13   10.90    4.00
   4   2  13   10.70    3.20
   4   2  13   12.60    4.20
   5  -3 -13   25.20    3.70
  -5   3  13   18.20    3.00
  -5   3  13   30.70    3.00
   4  -3 -13   11.50    3.10
  -4   3  13   12.80    2.30
  -4   3  13    7.60    2.30
   3  -3 -13    5.40    2.50
  -3   3  13    1.00    1.30
  -3   3  13   -0.30    1.60
   2  -3 -13    7.40    2.30
  -2   3  13    6.70    2.80
  -2   3  13    4.40    1.60
  -2   3  13    0.30    1.80
   1  -3 -13   13.30    3.60
  -1   3  13   16.60    2.10
  -1   3  13   25.10    4.00
   0  -3 -13  157.58   12.60
   0   3  13  151.48    9.00
   0   3  13  155.88    9.10
  -1  -3 -13  210.28   15.10
   1   3  13  207.98   10.80
   1   3  13  189.08   10.60
  -2  -3 -13   19.50    4.80
   2   3  13   27.90    3.60
   2   3  13   19.90    3.50
  -3  -3 -13   -1.40    1.90
   3   3  13    1.50    2.70
   3   3  13   -2.00    2.20
  -4  -3 -13   11.70    4.40
   4   3  13   13.70    4.20
   4   3  13    8.70    2.90
   3  -4 -13    2.40    2.30
  -3   4  13   -1.60    1.70
  -3   4  13    1.60    1.50
   2  -4 -13    1.20    2.20
  -2   4  13    1.70    1.30
   1  -4 -13    1.60    2.00
   1  -4 -13    0.20    1.70
   0  -4 -13    5.30    1.90
   0  -4 -13    1.80    2.20
  -1  -4 -13    1.60    2.30
   1   4  13   -0.80    2.50
  -2  -4 -13    0.10    2.10
   2   4  13   -2.80    2.10
   3   6 -14    8.70    4.00
  -3  -6  14   14.10    2.20
  -3  -6  14   17.70    4.10
   2   6 -14   -4.10    4.00
   2   6 -14    1.50    2.40
  -2  -6  14    0.30    1.30
  -2  -6  14    3.40    3.20
   1   6 -14    1.60    4.40
   1   6 -14   11.50    3.10
  -1  -6  14    6.80    3.90
  -1  -6  14    3.80    1.50
   0   6 -14   -2.20    3.10
   0   6 -14    6.90    2.40
   0  -6  14    1.90    1.20
   0  -6  14    1.80    3.30
  -1   6 -14   26.10    6.70
   1  -6  14   41.30    6.20
  -2   6 -14   84.89    6.10
  -2   6 -14   60.19   10.20
   2  -6  14   60.19    7.60
   2  -6  14   69.09    5.50
   4   5 -14    4.00    4.20
  -4  -5  14   14.40    2.20
  -4  -5  14   21.20    4.20
   3   5 -14   -3.50    2.80
   3   5 -14   -3.50    4.10
  -3  -5  14   -1.10    1.10
  -3  -5  14    2.30    3.00
   2   5 -14   34.00    4.80
   2   5 -14   27.40    7.30
  -2  -5  14   49.99    3.30
  -2  -5  14   51.59    6.30
   1   5 -14   27.30    4.00
  -1  -5  14   31.90    5.30
  -1  -5  14   27.00    2.60
   0   5 -14    1.20    3.50
   0   5 -14    3.40    2.10
   0  -5  14   -0.90    2.00
   0  -5  14    1.60    1.00
   0  -5  14    2.40    3.60
  -1   5 -14    2.30    3.50
  -1   5 -14    6.50    2.30
   1  -5  14    1.70    2.10
   1  -5  14    4.00    3.80
  -2   5 -14    4.30    1.80
  -2   5 -14   -0.70    3.00
   2  -5  14   -1.50    1.90
   2  -5  14    2.10    3.50
  -3   5 -14   -0.50    2.50
   3  -5  14   -3.70    1.90
   3  -5  14   -1.10    3.30
   4   4 -14    0.60    4.80
  -4  -4  14    8.00    1.90
  -4  -4  14   11.70    3.80
   3   4 -14    9.10    3.50
   3   4 -14    6.10    4.60
  -3  -4  14   14.70    2.10
  -3  -4  14   17.20    4.30
   2   4 -14    1.10    3.40
   2   4 -14    0.30    2.20
  -2  -4  14    0.10    1.00
  -2  -4  14    0.30    3.20
   1   4 -14  101.19    7.00
   1   4 -14  103.19   12.10
  -1  -4  14   97.79    5.20
  -1  -4  14  106.59    8.40
   0   4 -14   13.00    2.70
   0   4 -14    9.40    4.40
   0  -4  14   11.60    2.70
   0  -4  14   19.60    4.50
   0  -4  14   15.20    1.80
  -1   4 -14  120.09    7.40
  -1   4 -14  110.29   12.30
   1  -4  14  114.59    7.20
   1  -4  14  114.59    8.60
  -2   4 -14    4.60    3.30
  -2   4 -14    6.50    2.10
   2  -4  14    4.80    2.30
   2  -4  14    7.20    3.90
  -3   4 -14   20.20    5.70
   3  -4  14   22.40    3.50
   3  -4  14   33.10    5.40
  -4   4 -14    0.10    2.80
   4  -4  14    6.70    3.70
   4  -4  14    2.80    2.40
   5   3 -14   35.30    3.80
   5   3 -14   22.10    4.40
  -5  -3  14   34.40    5.10
  -5  -3  14   27.80    2.80
   4   3 -14  175.88   17.40
  -4  -3  14  196.38    9.00
  -4  -3  14  199.08   11.20
   3   3 -14    0.10    3.40
   3   3 -14   -3.80    2.40
  -3  -3  14    2.20    2.80
  -3  -3  14    0.40    1.10
   2   3 -14    9.40    2.80
   2   3 -14    8.60    4.30
  -2  -3  14   14.60    4.00
  -2  -3  14   12.80    1.90
   1   3 -14    2.70    2.00
   1   3 -14   -0.60    2.70
  -1  -3  14    0.50    1.10
  -1  -3  14    3.20    3.20
  -1  -3  14    0.00    2.30
   0   3 -14   53.09    4.50
   0   3 -14   52.89    8.60
   0  -3  14   42.90    4.50
   0  -3  14   52.29    3.10
   0  -3  14   46.40    5.70
  -1   3 -14    4.20    1.80
  -1   3 -14    1.00    2.70
   1  -3  14    0.50    2.10
   1  -3  14    0.20    3.00
  -2   3 -14  357.76   23.50
  -2   3 -14  360.66   16.70
   2  -3  14  379.66   18.40
   2  -3  14  393.56   17.10
  -3   3 -14   34.30    7.80
  -3   3 -14   44.70    4.20
   3  -3  14   41.70    5.50
   3  -3  14   37.50    4.40
  -4   3 -14    1.10    3.00
   4  -3  14    4.70    3.20
   4  -3  14   -0.90    2.30
   5   2 -14    7.40    3.30
   5   2 -14   16.20    3.00
  -5  -2  14   10.20    1.90
  -5  -2  14   14.70    3.70
   4   2 -14   32.80    4.40
   4   2 -14   25.30    6.30
  -4  -2  14   41.20    3.20
  -4  -2  14   47.40    5.70
   3   2 -14  171.48   15.30
  -3  -2  14  156.48    9.90
  -3  -2  14  153.98    7.60
   2   2 -14    4.20    2.40
   2   2 -14    3.40    3.40
  -2  -2  14    8.50    3.70
  -2  -2  14    7.40    1.60
   1   2 -14    2.00    1.80
   1   2 -14    1.10    2.60
  -1  -2  14   -2.30    2.30
  -1  -2  14    1.50    3.00
  -1  -2  14    0.60    1.10
   0   2 -14    1.40    1.50
   0   2 -14   -1.00    2.30
   0  -2  14    4.50    3.30
   0  -2  14    0.10    0.90
   0  -2  14   -3.00    1.90
  -1   2 -14    5.50    1.70
  -1   2 -14    1.30    2.80
   1  -2  14    1.10    2.20
   1  -2  14    2.90    3.40
  -2   2 -14   39.60    7.60
  -2   2 -14   44.20    3.80
   2  -2  14   49.99    6.10
   2  -2  14   36.00    4.40
  -3   2 -14   15.90    5.00
   3  -2  14   19.90    3.70
   3  -2  14   24.20    4.50
  -4   2 -14   11.60    4.50
   4  -2  14   21.80    3.90
   4  -2  14   20.60    4.20
   5   1 -14    4.80    2.50
   5   1 -14   -3.40    2.40
  -5  -1  14    1.10    1.40
  -5  -1  14    2.70    3.10
   4   1 -14   -2.10    2.30
   4   1 -14    0.20    3.10
  -4  -1  14    3.40    3.00
  -4  -1  14    2.20    1.40
   3   1 -14    3.60    2.40
   3   1 -14    3.60    3.20
  -3  -1  14    4.90    1.50
  -3  -1  14    5.20    3.10
   2   1 -14   12.30    4.40
   2   1 -14   10.10    2.80
  -2  -1  14   22.00    4.40
  -2  -1  14   19.90    2.10
   1   1 -14   23.60    3.10
   1   1 -14   18.50    4.70
  -1  -1  14   34.50    5.20
  -1  -1  14   23.40    3.60
  -1  -1  14   26.90    2.40
   0   1 -14    0.20    2.20
   0   1 -14    0.90    1.40
   0  -1  14    1.20    0.90
   0  -1  14    5.50    3.30
   0  -1  14   -1.90    2.20
  -1   1 -14   10.20    3.80
  -1   1 -14   16.10    2.30
   1  -1  14   13.80    3.80
   1  -1  14   13.20    3.10
  -2   1 -14  106.49   11.40
  -2   1 -14   99.79    5.90
   2  -1  14  110.79    7.20
   2  -1  14  109.29    7.80
  -3   1 -14   14.60    4.50
   3  -1  14   29.30    4.70
   3  -1  14   15.70    3.60
  -4   1 -14    1.10    2.60
   4  -1  14    0.00    2.60
   4  -1  14    5.70    2.80
   5   0 -14   -2.00    2.00
   5   0 -14   -2.20    2.30
  -5   0  14   -0.10    1.10
  -5   0  14   -0.60    2.60
   4   0 -14   -3.40    2.40
   4   0 -14   -2.60    1.80
   4   0 -14    4.90    2.50
  -4   0  14    1.30    2.60
  -4   0  14    0.10    1.20
   3   0 -14    3.10    2.10
   3   0 -14    5.30    3.20
  -3   0  14    8.70    1.70
  -3   0  14    8.90    3.30
   2   0 -14   52.89    8.30
   2   0 -14   51.09    5.80
  -2   0  14   55.39    3.60
  -2   0  14   54.89    5.70
   1   0 -14  115.39   11.40
  -1   0  14  113.19    5.70
  -1   0  14  110.89    7.90
   0   0 -14   33.90    7.00
   0   0  14   35.20    2.50
   0   0  14   26.90    4.50
   0   0  14   27.90    3.90
  -1   0 -14   16.20    4.50
  -1   0 -14   29.40    3.50
   1   0  14   20.20    3.70
   1   0  14   29.90    4.60
  -2   0 -14    4.80    3.10
   2   0  14    4.10    2.80
   2   0  14    5.10    2.80
  -3   0 -14   58.09    3.60
  -3   0 -14   38.20    7.80
   3   0  14   51.49    5.50
   3   0  14   38.90    4.70
  -4   0 -14    2.00    2.90
   4   0  14    5.30    2.80
   4   0  14    1.00    2.70
   5  -1 -14   -0.40    2.40
  -5   1  14    0.40    1.30
  -5   1  14    1.40    2.40
   4  -1 -14    3.80    2.50
  -4   1  14   -1.10    1.20
  -4   1  14    1.20    2.70
   3  -1 -14    8.80    3.70
  -3   1  14   15.40    3.70
  -3   1  14   11.60    2.00
   2  -1 -14   -0.70    2.00
  -2   1  14    1.80    2.80
  -2   1  14    0.50    1.30
  -1   1  14   13.20    3.70
  -1   1  14   11.60    1.80
   0  -1 -14    7.90    3.40
   0   1  14    9.60    1.60
   0   1  14    7.20    2.90
   0   1  14    8.50    3.10
  -1  -1 -14   97.09   10.50
   1   1  14   89.69    7.00
  -2  -1 -14    7.70    3.70
   2   1  14   15.60    3.50
   2   1  14   13.80    3.40
  -3  -1 -14    1.90    2.90
   3   1  14    8.10    3.00
   3   1  14    5.80    2.60
  -4  -1 -14    5.80    3.50
   4   1  14    3.80    2.70
   4  -2 -14   10.60    3.00
  -4   2  14    7.60    1.90
   3  -2 -14   23.30    3.40
  -3   2  14   17.50    3.90
  -3   2  14   16.90    2.40
   2  -2 -14    2.10    2.30
  -2   2  14    1.80    1.30
  -2   2  14    5.40    2.80
   1  -2 -14    2.90    2.70
  -1   2  14    7.80    3.10
  -1   2  14    5.50    1.50
   0  -2 -14   13.00    3.90
   0   2  14   22.40    4.20
   0   2  14   18.30    2.10
   0   2  14   17.20    3.50
  -1  -2 -14   -0.70    1.90
   1   2  14   -1.90    2.20
   1   2  14    3.30    2.50
  -2  -2 -14    2.30    2.70
   2   2  14    0.30    2.70
   2   2  14    8.20    2.60
  -3  -2 -14   -0.80    2.10
   3   2  14    0.10    2.50
   3   2  14    4.10    2.30
   3  -3 -14    1.50    2.40
  -3   3  14    0.00    1.30
   2  -3 -14    5.60    2.20
  -2   3  14   -0.50    1.20
  -2   3  14    4.10    2.60
   1  -3 -14   41.40    7.10
  -1   3  14   40.20    3.20
  -1   3  14   45.10    5.10
   0  -3 -14   90.79   10.00
   0   3  14   97.59    6.90
  -1  -3 -14    2.60    2.70
   1   3  14    6.50    2.50
   1   3  14   -0.40    2.40
  -2  -3 -14    0.30    2.20
   2   3  14   -3.90    2.20
   2   3  14    2.70    2.10
   2   5 -15   19.90    4.00
   2   5 -15   14.90    6.20
  -2  -5  15   22.30    2.50
  -2  -5  15   21.30    4.70
   1   5 -15    5.70    2.50
   1   5 -15   -1.20    4.00
  -1  -5  15    2.00    1.20
  -1  -5  15    7.00    3.80
   0   5 -15   -1.90    3.50
   0   5 -15    6.30    2.20
   0  -5  15   -4.30    2.00
   0  -5  15    7.30    3.70
  -1   5 -15   63.89    5.30
  -1   5 -15   48.70   10.30
   1  -5  15   45.30    5.00
   3   4 -15   16.10    4.20
   3   4 -15   21.00    7.10
  -3  -4  15   28.40    5.10
  -3  -4  15   30.70    2.70
   2   4 -15   -1.30    3.50
   2   4 -15   -1.80    2.30
  -2  -4  15    0.70    3.20
  -2  -4  15    0.80    1.20
   1   4 -15   -1.50    3.00
   1   4 -15    1.90    2.10
  -1  -4  15    0.30    3.30
  -1  -4  15    1.00    1.10
   0   4 -15   38.90    4.20
   0   4 -15   26.60    6.70
   0  -4  15   37.70    5.60
   0  -4  15   27.90    3.80
  -1   4 -15   79.59    5.80
  -1   4 -15   74.79   11.40
   1  -4  15   89.49    7.90
   1  -4  15   68.09    6.00
  -2   4 -15    0.70    3.20
  -2   4 -15    6.70    2.00
   2  -4  15   10.90    4.00
   2  -4  15    1.20    2.30
   3   3 -15   -0.20    3.40
  -3  -3  15    0.50    1.20
  -3  -3  15    2.70    3.10
   2   3 -15    4.90    2.90
   2   3 -15    4.90    4.10
  -2  -3  15   12.00    1.90
  -2  -3  15    5.30    3.50
   1   3 -15    3.30    2.20
   1   3 -15    1.20    3.40
  -1  -3  15    3.30    1.30
  -1  -3  15    5.20    3.40
   0   3 -15    0.50    3.10
   0   3 -15    5.10    1.90
   0  -3  15    0.80    3.10
   0  -3  15   -1.00    2.30
  -1   3 -15   62.39    4.90
  -1   3 -15   56.09    9.90
   1  -3  15   58.89    6.80
   1  -3  15   51.69    5.20
  -2   3 -15   14.60    5.10
   2  -3  15   12.00    3.30
   2  -3  15   22.70    4.60
  -3   3 -15   20.40    5.60
   3  -3  15   25.80    4.10
   3  -3  15   35.80    5.50
   4   2 -15  165.28   10.00
   4   2 -15  160.28   16.50
  -4  -2  15  175.08    8.30
  -4  -2  15  182.78   10.90
   3   2 -15    4.30    4.00
  -3  -2  15    4.90    1.50
  -3  -2  15   10.80    3.60
   2   2 -15    4.80    3.70
   2   2 -15    0.00    2.50
  -2  -2  15    7.80    1.60
  -2  -2  15   10.30    3.70
   1   2 -15   19.40    3.20
   1   2 -15   16.90    5.30
  -1  -2  15   26.50    2.50
  -1  -2  15   21.60    4.60
   0   2 -15   10.20    4.30
   0   2 -15   18.40    2.90
   0  -2  15   20.00    3.60
   0  -2  15   18.60    4.40
  -1   2 -15   13.10    4.70
  -1   2 -15   28.00    3.20
   1  -2  15   19.50    3.60
   1  -2  15   23.60    4.70
  -2   2 -15   20.30    5.50
   2  -2  15   33.60    5.20
   2  -2  15   26.00    3.90
   3  -2  15   13.30    3.90
   3  -2  15    2.70    2.60
   4   1 -15   -3.40    2.20
   4   1 -15   -2.10    2.90
   4   1 -15    3.70    2.30
  -4  -1  15    6.80    3.10
  -4  -1  15    1.60    1.40
   3   1 -15   63.99   10.00
   3   1 -15   60.99    5.30
  -3  -1  15   68.79    6.40
  -3  -1  15   62.29    4.00
   2   1 -15    2.40    3.30
  -2  -1  15    7.60    3.30
  -2  -1  15    6.10    1.50
   1   1 -15   29.20    4.00
   1   1 -15   39.30    8.00
  -1  -1  15   42.70    3.00
  -1  -1  15   41.20    5.70
   0   1 -15   -1.50    2.20
   0   1 -15   -0.10    1.50
   0  -1  15   -0.30    2.40
   0  -1  15    0.00    2.70
  -1   1 -15  167.98   15.00
  -1   1 -15  166.78    8.50
   1  -1  15  171.08    9.90
   1  -1  15  182.08   10.60
  -2   1 -15   12.80    4.50
   2  -1  15   14.00    3.70
   2  -1  15   11.10    3.10
   3  -1  15   13.00    3.50
   3  -1  15    5.80    2.80
   3   0 -15    0.90    2.90
  -3   0  15    1.30    1.30
  -3   0  15    6.70    3.40
   2   0 -15    1.20    2.60
  -2   0  15    4.00    1.40
  -2   0  15    4.20    3.00
   1   0 -15   -1.40    2.30
  -1   0  15   -0.70    1.10
  -1   0  15    2.20    2.80
   0   0 -15    1.80    2.70
   0   0  15    4.70    3.20
   0   0  15    2.70    2.60
  -1   0 -15    0.70    2.60
   1   0  15    2.50    3.00
   1   0  15   -1.30    2.30
  -2   0 -15   62.79    9.50
   2   0  15   56.79    6.10
   2   0  15   68.69    6.10
   3  -1 -15  137.69    7.30
  -3   1  15  113.59    6.40
  -3   1  15  124.09    8.80
   2  -1 -15    9.20    3.80
  -2   1  15   16.90    3.80
  -2   1  15   11.90    1.90
   1  -1 -15   36.10    7.30
  -1   1  15   42.90    5.40
  -1   1  15   33.40    2.90
   0  -1 -15   15.40    4.60
   0   1  15   26.70    4.30
   0   1  15   16.80    3.80
  -1  -1 -15   83.69   10.30
   1   1  15   84.39    6.90
   1   1  15   75.49    6.50
  -2  -1 -15   10.10    4.10
   2   1  15   14.80    3.40
   2   1  15   12.90    3.60
  -1   2  15   10.50    1.90
  -1   2  15   11.00    3.20
   0  -2 -15   18.20    4.70
   0   2  15   27.80    4.30
   0  -2  16   12.80    3.80

_computing_structure_solution     'SHELXT 2014/4 (Sheldrick, 2014)'
;
_shelx_hkl_checksum              14554
loop_
_space_group_symop_operation_xyz
'x, y, z'
'-x, -y, -z'
loop_
_atom_site_label
_atom_site_type_symbol
_atom_site_fract_x
_atom_site_fract_y
_atom_site_fract_z
_atom_site_U_iso_or_equiv
_atom_site_adp_type
_atom_site_occupancy
_atom_site_site_symmetry_order
_atom_site_calc_flag
_atom_site_refinement_flags_posn
_atom_site_refinement_flags_adp
C1 C 1.06457(14) 0.22442(13) 0.41330(9) 0.01962(18) Uani 1 1 d . .
C2 C 0.86676(13) 0.20866(13) 0.35834(9) 0.01667(16) Uani 1 1 d . .
C3 C 0.81600(12) 0.18605(12) 0.21371(8) 0.01416(15) Uani 1 1 d . .
H3 H 0.9297 0.2271 0.1694 0.017 Uiso 1 1 calc R U
C4 C 0.65246(11) 0.30829(12) 0.18749(8) 0.01240(15) Uani 1 1 d . .
C5 C 0.67697(13) 0.50100(12) 0.22448(9) 0.01608(16) Uani 1 1 d . .
H5 H 0.7950 0.5523 0.2644 0.019 Uiso 1 1 calc R U
C6 C 0.53130(13) 0.61837(12) 0.20363(9) 0.01689(17) Uani 1 1 d . .
H6 H 0.5484 0.7494 0.2293 0.020 Uiso 1 1 calc R U
C7 C 0.35847(12) 0.54069(12) 0.14408(8) 0.01486(16) Uani 1 1 d . .
C8 C 0.33319(12) 0.34877(13) 0.10511(9) 0.01558(16) Uani 1 1 d . .
H8 H 0.2161 0.2976 0.0635 0.019 Uiso 1 1 calc R U
C9 C 0.48042(12) 0.23259(12) 0.12746(8) 0.01436(16) Uani 1 1 d . .
H9 H 0.4636 0.1016 0.1018 0.017 Uiso 1 1 calc R U
C10 C 0.20551(14) 0.66136(14) 0.12373(9) 0.01978(18) Uani 1 1 d . .
F1 F 1.17433(9) 0.09523(10) 0.34913(7) 0.02952(16) Uani 1 1 d . .
F2 F 1.07373(10) 0.20583(10) 0.53976(6) 0.02941(16) Uani 1 1 d . .
F3 F 1.15285(10) 0.38962(10) 0.40588(7) 0.02997(16) Uani 1 1 d . .
N1 N 0.73021(13) 0.20963(13) 0.43984(8) 0.02185(17) Uani 1 1 d . .
N2 N 0.60546(16) 0.21087(19) 0.50511(10) 0.0374(3) Uani 1 1 d . .
N3 N 0.08279(13) 0.75812(14) 0.10928(10) 0.0279(2) Uani 1 1 d . .
O1 O 0.76632(10) -0.00048(10) 0.15736(7) 0.02125(15) Uani 1 1 d . .
H1 H 0.861(3) -0.062(3) 0.1500(18) 0.048(5) Uiso 1 1 d . .
loop_
_atom_site_aniso_label
_atom_site_aniso_U_11
_atom_site_aniso_U_22
_atom_site_aniso_U_33
_atom_site_aniso_U_23
_atom_site_aniso_U_13
_atom_site_aniso_U_12
C1 0.0201(4) 0.0191(4) 0.0191(4) 0.0034(3) -0.0066(3) 0.0007(3)
C2 0.0157(4) 0.0203(4) 0.0143(4) 0.0040(3) -0.0025(3) 0.0028(3)
C3 0.0133(3) 0.0151(4) 0.0136(3) 0.0012(3) -0.0015(3) 0.0029(3)
C4 0.0124(3) 0.0139(3) 0.0107(3) 0.0013(3) -0.0006(2) 0.0022(3)
C5 0.0152(3) 0.0144(4) 0.0176(4) 0.0010(3) -0.0040(3) 0.0002(3)
C6 0.0189(4) 0.0133(4) 0.0180(4) 0.0016(3) -0.0016(3) 0.0024(3)
C7 0.0143(3) 0.0177(4) 0.0129(3) 0.0026(3) 0.0014(3) 0.0061(3)
C8 0.0115(3) 0.0183(4) 0.0160(4) 0.0001(3) -0.0006(3) 0.0024(3)
C9 0.0125(3) 0.0148(4) 0.0147(3) -0.0004(3) -0.0010(3) 0.0017(3)
C10 0.0192(4) 0.0212(4) 0.0187(4) 0.0012(3) 0.0012(3) 0.0062(3)
F1 0.0200(3) 0.0318(3) 0.0348(4) 0.0002(3) -0.0070(2) 0.0097(2)
F2 0.0338(3) 0.0353(4) 0.0189(3) 0.0079(3) -0.0128(2) -0.0043(3)
F3 0.0291(3) 0.0254(3) 0.0348(4) 0.0065(3) -0.0053(3) -0.0092(3)
N1 0.0235(4) 0.0266(4) 0.0158(3) 0.0052(3) -0.0012(3) 0.0015(3)
N2 0.0318(5) 0.0581(7) 0.0233(5) 0.0087(4) 0.0068(4) 0.0007(5)
N3 0.0230(4) 0.0282(5) 0.0315(5) 0.0004(4) -0.0014(3) 0.0117(3)
O1 0.0188(3) 0.0149(3) 0.0274(4) -0.0040(3) -0.0049(3) 0.0065(2)
loop_
_atom_type_symbol
_atom_type_description
_atom_type_scat_dispersion_real
_atom_type_scat_dispersion_imag
_atom_type_scat_source
C C 0.0033 0.0016 'International Tables Vol C Tables 4.2.6.8 and 6.1.1.4'
H H 0.0000 0.0000 'International Tables Vol C Tables 4.2.6.8 and 6.1.1.4'
N N 0.0061 0.0033 'International Tables Vol C Tables 4.2.6.8 and 6.1.1.4'
O O 0.0106 0.0060 'International Tables Vol C Tables 4.2.6.8 and 6.1.1.4'
F F 0.0171 0.0103 'International Tables Vol C Tables 4.2.6.8 and 6.1.1.4'
loop_
_geom_angle_atom_site_label_1
_geom_angle_atom_site_label_2
_geom_angle_atom_site_label_3
_geom_angle
F2 C1 F1 107.70(8)
F2 C1 F3 106.50(8)
F1 C1 F3 105.13(8)
F2 C1 C2 112.04(8)
F1 C1 C2 111.89(8)
F3 C1 C2 113.14(8)
N1 C2 C1 117.45(8)
N1 C2 C3 119.09(8)
C1 C2 C3 123.43(8)
O1 C3 C2 112.96(8)
O1 C3 C4 108.79(7)
C2 C3 C4 110.75(7)
O1 C3 H3 108.1
C2 C3 H3 108.1
C4 C3 H3 108.1
C9 C4 C5 119.82(8)
C9 C4 C3 121.53(7)
C5 C4 C3 118.66(7)
C6 C5 C4 120.82(8)
C6 C5 H5 119.6
C4 C5 H5 119.6
C5 C6 C7 118.88(8)
C5 C6 H6 120.6
C7 C6 H6 120.6
C8 C7 C6 120.82(8)
C8 C7 C10 119.93(8)
C6 C7 C10 119.25(8)
C9 C8 C7 119.62(8)
C9 C8 H8 120.2
C7 C8 H8 120.2
C8 C9 C4 120.03(8)
C8 C9 H9 120.0
C4 C9 H9 120.0
N3 C10 C7 179.05(10)
N2 N1 C2 176.42(10)
C3 O1 H1 110.5(13)
loop_
_geom_bond_atom_site_label_1
_geom_bond_atom_site_label_2
_geom_bond_distance
C1 F2 1.3422(11)
C1 F1 1.3436(12)
C1 F3 1.3509(12)
C1 C2 1.4748(13)
C2 N1 1.3046(12)
C2 C3 1.5122(12)
C3 O1 1.4158(11)
C3 C4 1.5168(11)
C3 H3 1.0000
C4 C9 1.3930(11)
C4 C5 1.3963(12)
C5 C6 1.3852(12)
C5 H5 0.9500
C6 C7 1.4002(12)
C6 H6 0.9500
C7 C8 1.3937(13)
C7 C10 1.4385(12)
C8 C9 1.3913(12)
C8 H8 0.9500
C9 H9 0.9500
C10 N3 1.1499(13)
N1 N2 1.1291(13)
O1 H1 0.81(2)
loop_
_geom_hbond_atom_site_label_D
_geom_hbond_atom_site_label_H
_geom_hbond_atom_site_label_A
_geom_hbond_distance_DH
_geom_hbond_distance_HA
_geom_hbond_distance_DA
_geom_hbond_angle_DHA
_geom_hbond_site_symmetry_A
O1 H1 N3 0.81(2) 2.08(2) 2.8844(11) 172.2(19) 1_645
loop_
_geom_torsion_atom_site_label_1
_geom_torsion_atom_site_label_2
_geom_torsion_atom_site_label_3
_geom_torsion_atom_site_label_4
_geom_torsion
F2 C1 C2 N1 10.61(13)
F1 C1 C2 N1 131.68(10)
F3 C1 C2 N1 -109.80(10)
F2 C1 C2 C3 -167.55(8)
F1 C1 C2 C3 -46.48(12)
F3 C1 C2 C3 72.05(12)
N1 C2 C3 O1 -77.70(10)
C1 C2 C3 O1 100.42(10)
N1 C2 C3 C4 44.62(11)
C1 C2 C3 C4 -137.26(9)
O1 C3 C4 C9 5.35(11)
C2 C3 C4 C9 -119.37(9)
O1 C3 C4 C5 -174.44(8)
C2 C3 C4 C5 60.83(10)
C9 C4 C5 C6 0.75(13)
C3 C4 C5 C6 -179.45(8)
C4 C5 C6 C7 -0.29(13)
C5 C6 C7 C8 -0.60(13)
C5 C6 C7 C10 179.13(8)
C6 C7 C8 C9 1.01(13)
C10 C7 C8 C9 -178.72(8)
C7 C8 C9 C4 -0.53(13)
C5 C4 C9 C8 -0.34(13)
C3 C4 C9 C8 179.87(8)
