#------------------------------------------------------------------------------
#$Date: 2016-03-04 14:07:47 +0200 (Fri, 04 Mar 2016) $
#$Revision: 177540 $
#$URL: svn://www.crystallography.net/cod/cif/1/54/24/1542491.cif $
#------------------------------------------------------------------------------
#
# This file is available in the Crystallography Open Database (COD),
# http://www.crystallography.net/
#
# All data on this site have been placed in the public domain by the
# contributors.
#
data_1542491
loop_
_publ_author_name
'McAdam, C. John'
'Simpson, Jim'
_publ_section_title
;
 2-Chloro-1-ferrocenylethanone
;
_journal_coeditor_code           WM4003
_journal_issue                   1
_journal_name_full               IUCrData
_journal_page_first              x152177
_journal_paper_doi               10.1107/S241431461502177X
_journal_volume                  1
_journal_year                    2016
_chemical_formula_iupac          '[Fe (C5 H5) (C7 H6 Cl O)]'
_chemical_formula_moiety         'C12 H11 Cl Fe O'
_chemical_formula_sum            'C12 H11 Cl Fe O'
_chemical_formula_weight         262.51
_chemical_name_systematic
;
2-Chloro-1-ferrocenylethanone
;
_space_group_crystal_system      monoclinic
_space_group_IT_number           4
_space_group_name_Hall           'P 2yb'
_space_group_name_H-M_alt        'P 1 21 1'
_symmetry_space_group_name_Hall  'P 2yb'
_symmetry_space_group_name_H-M   'P 1 21 1'
_atom_sites_solution_hydrogens   geom
_audit_creation_method           SHELXL-2014/7
_cell_angle_alpha                90
_cell_angle_beta                 99.728(2)
_cell_angle_gamma                90
_cell_formula_units_Z            2
_cell_length_a                   7.4235(4)
_cell_length_b                   9.6339(4)
_cell_length_c                   7.5209(3)
_cell_measurement_reflns_used    8073
_cell_measurement_temperature    92(2)
_cell_measurement_theta_max      33.32
_cell_measurement_theta_min      2.75
_cell_volume                     530.14(4)
_computing_cell_refinement
;
APEX2 and SAINT (Bruker, 2011)
;
_computing_data_collection
;
APEX2 (Bruker, 2011)
;
_computing_data_reduction
;
SAINT (Bruker, 2011)
;
_computing_molecular_graphics
;
Mercury (Macrae <i>et al.</i>, 2008)
;
_computing_publication_material
;
SHELXL-2014 (Sheldrick, 2015<i>b</i>), enCIFer (Allen <i>et al.</i>,
2004), PLATON (Spek, 2009), publCIF (Westrip, 2010)
;
_computing_structure_refinement
;
SHELXL2014 (Sheldrick, 2015<i>b</i>) and <i>TITAN2000</i> (Hunter &
Simpson,
1999)
;
_computing_structure_solution
;
<i>SHELXT</i> (Sheldrick, 2015<i>a</i>)
;
_diffrn_ambient_temperature      92(2)
_diffrn_measured_fraction_theta_full 0.996
_diffrn_measured_fraction_theta_max 0.922
_diffrn_measurement_device_type  'Bruker APEXII CCD area detector'
_diffrn_measurement_method       '\w scans'
_diffrn_radiation_type           MoK\a
_diffrn_radiation_wavelength     0.71073
_diffrn_reflns_av_R_equivalents  0.0190
_diffrn_reflns_limit_h_max       7
_diffrn_reflns_limit_h_min       -11
_diffrn_reflns_limit_k_max       14
_diffrn_reflns_limit_k_min       -14
_diffrn_reflns_limit_l_max       11
_diffrn_reflns_limit_l_min       -11
_diffrn_reflns_number            9868
_diffrn_reflns_theta_full        25.242
_diffrn_reflns_theta_max         33.325
_diffrn_reflns_theta_min         3.468
_diffrn_standards_number         0
_exptl_absorpt_coefficient_mu    1.639
_exptl_absorpt_correction_T_max  1.0000
_exptl_absorpt_correction_T_min  0.778102
_exptl_absorpt_correction_type   multi-scan
_exptl_absorpt_process_details
;
(<i>SADABS</i>; Bruker, 2011)
;
_exptl_crystal_colour            orange
_exptl_crystal_density_diffrn    1.644
_exptl_crystal_density_method    'not measured'
_exptl_crystal_description       block
_exptl_crystal_F_000             268
_exptl_crystal_size_max          0.320
_exptl_crystal_size_mid          0.290
_exptl_crystal_size_min          0.110
_refine_diff_density_max         1.007
_refine_diff_density_min         -0.429
_refine_ls_abs_structure_details
;
 Refined as an inversion twin
;
_refine_ls_abs_structure_Flack   0.309(12)
_refine_ls_extinction_method     none
_refine_ls_goodness_of_fit_ref   1.061
_refine_ls_hydrogen_treatment    constr
_refine_ls_matrix_type           full
_refine_ls_number_parameters     137
_refine_ls_number_reflns         3658
_refine_ls_number_restraints     1
_refine_ls_restrained_S_all      1.061
_refine_ls_R_factor_all          0.0210
_refine_ls_R_factor_gt           0.0206
_refine_ls_shift/su_max          0.000
_refine_ls_shift/su_mean         0.000
_refine_ls_structure_factor_coef Fsqd
_refine_ls_weighting_details
'w=1/[\s^2^(Fo^2^)+(0.0301P)^2^+0.0787P] where P=(Fo^2^+2Fc^2^)/3'
_refine_ls_weighting_scheme      calc
_refine_ls_wR_factor_gt          0.0524
_refine_ls_wR_factor_ref         0.0527
_reflns_number_gt                3612
_reflns_number_total             3658
_reflns_threshold_expression     'I > 2\s(I)'
_iucr_refine_instructions_details
;
TITL trevor in P2(1)
REM TITL shelxt_b.res in P2(1)
REM SHELXT solution in P2(1)
REM R1 0.061,  Rweak 0.027,  Alpha 0.039,  Orientation as input
REM Flack x =  0.334 ( 0.005 ) from Parsons' quotients
REM Formula found by SHELXT:  C11 O2 Cl Fe
CELL  0.71073   7.4235   9.6339   7.5209   90.000   99.728   90.000
ZERR    2.000   0.0004   0.0004   0.0003    0.000    0.002    0.000
LATT -1
SYMM -X, 1/2+Y, -Z
SFAC C H O Cl Fe
UNIT 24 22 2 2 2
TEMP -181
SIZE 0.11 0.29 0.32
L.S. 12
BOND $H
FMAP 2
PLAN 10
conf
acta
twin
mpla c1l c1 c1 o2
mpla 5 c3 c4 c5 c6 c7 Fe1
mpla 5 c8 c9 c10 c11 c12 Fe1
mpla cl1 c1 c2 o1 c3 c4 c5 c6 c7
eqiv $1 -1+x,y,-1+z
eqiv $2 1-x,-1/2+y,1-z
htab c11 Cl1_$1
htab c1 o1_$2
htab c9 Cl1_$2
htab c9 o1_$2
WGHT    0.030100    0.078700
BASF   0.30936
FVAR       0.83631
CL1   4    0.774442    0.459894    0.706172    11.00000    0.04030    0.02316 =
         0.01616    0.00289   -0.00591   -0.00609
C1    1    0.657037    0.416019    0.487999    11.00000    0.01589    0.01502 =
         0.01578   -0.00030    0.00004   -0.00184
AFIX  23
H1A   2    0.742060    0.367144    0.421148    11.00000   -1.20000
H1B   2    0.555850    0.351606    0.499914    11.00000   -1.20000
AFIX   0
C2    1    0.580032    0.542336    0.380908    11.00000    0.00795    0.01493 =
         0.01757   -0.00103    0.00258   -0.00051
O1    3    0.607451    0.660556    0.437174    11.00000    0.01797    0.01474 =
         0.02656   -0.00437   -0.00273    0.00062
C3    1    0.473745    0.512841    0.201453    11.00000    0.00949    0.01167 =
         0.01464   -0.00052    0.00262   -0.00032
C4    1    0.432693    0.379176    0.119069    11.00000    0.01328    0.01346 =
         0.01613   -0.00213    0.00360    0.00213
AFIX  43
H4    2    0.475970    0.291966    0.167560    11.00000   -1.20000
AFIX   0
C5    1    0.314638    0.401998   -0.049373    11.00000    0.01927    0.01707 =
         0.01460   -0.00335    0.00536    0.00036
AFIX  43
H5    2    0.267020    0.332324   -0.133761    11.00000   -1.20000
AFIX   0
C6    1    0.280638    0.547824   -0.068850    11.00000    0.01787    0.01783 =
         0.01293    0.00195    0.00386    0.00088
AFIX  43
H6    2    0.205662    0.591323   -0.168132    11.00000   -1.20000
AFIX   0
C7    1    0.377776    0.616773    0.085162    11.00000    0.01335    0.01272 =
         0.01637    0.00219    0.00373   -0.00053
AFIX  43
H7    2    0.379016    0.713896    0.107193    11.00000   -1.20000
AFIX   0
FE1   5    0.200891    0.476110    0.164008    11.00000    0.00899    0.01107 =
         0.01090   -0.00057    0.00159   -0.00018
C8    1    0.124757    0.463088    0.412923    11.00000    0.01303    0.03465 =
         0.01222   -0.00018    0.00353   -0.00078
AFIX  43
H8    2    0.204069    0.467740    0.525982    11.00000   -1.20000
AFIX   0
C9    1    0.073721    0.340007    0.312068    11.00000    0.01368    0.02183 =
         0.01874    0.00706    0.00362   -0.00112
AFIX  43
H9    2    0.112254    0.248335    0.346082    11.00000   -1.20000
AFIX   0
C10   1   -0.045656    0.379073    0.150788    11.00000    0.01223    0.01524 =
         0.02058    0.00163    0.00125   -0.00310
AFIX  43
H10   2   -0.100149    0.317731    0.058208    11.00000   -1.20000
AFIX   0
C11   1   -0.069206    0.525952    0.152296    11.00000    0.00922    0.01754 =
         0.01877    0.00122    0.00071    0.00157
AFIX  43
H11   2   -0.142125    0.579463    0.061239    11.00000   -1.20000
AFIX   0
C12   1    0.036371    0.578459    0.315144    11.00000    0.01562    0.02181 =
         0.02336   -0.00710    0.00905   -0.00031
AFIX  43
H12   2    0.046016    0.672932    0.351718    11.00000   -1.20000
AFIX   0
HKLF 4
REM  trevor in P2(1)
REM R1 =  0.0206 for    3612 Fo > 4sig(Fo)  and  0.0210 for all    3658 data
REM    137 parameters refined using      1 restraints
END
WGHT      0.0302      0.0794
REM Highest difference peak  1.007,  deepest hole -0.429,  1-sigma level  0.058
Q1    1   0.6838  0.4751  0.7208  11.00000  0.05    1.01
Q2    1   0.2457  0.4626  0.2567  11.00000  0.05    0.48
Q3    1   0.1513  0.4961  0.0795  11.00000  0.05    0.44
Q4    1   0.2982  0.4772 -0.0608  11.00000  0.05    0.43
Q5    1   0.1996  0.4015  0.1646  11.00000  0.05    0.42
Q6    1   0.6110  0.4793  0.4342  11.00000  0.05    0.40
Q7    1   0.2113  0.5461  0.1781  11.00000  0.05    0.38
Q8    1   0.2805  0.4752  0.1257  11.00000  0.05    0.36
Q9    1   0.0984  0.4020  0.3581  11.00000  0.05    0.34
Q10   1   0.3667  0.3880  0.0406  11.00000  0.05    0.32
;
_cod_data_source_file            wm4003sup1.cif
_cod_data_source_block           I
_cod_depositor_comments          'Adding full bibliography for 1542491.cif.'
_cod_database_code               1542491
_cod_database_fobs_code          1542491
_shelx_space_group_comment
;
The symmetry employed for this shelxl refinement is uniquely defined
by the following loop, which should always be used as a source of
symmetry information in preference to the above space-group names.
They are only intended as comments.
;
_shelx_estimated_absorpt_t_min   0.622
_shelx_estimated_absorpt_t_max   0.840
_shelx_hkl_file
;
   2   0   0  735.19   16.99
   2   0   0  720.78   16.03
  -2   0   0  733.38   16.72
  -2   0   0  705.61   16.66
  -2   0   0  739.44   16.56
  -2   0   0  725.14   15.65
  -2   0   0  723.88   16.13
   2   0   0  730.78   16.47
   2   0   0  732.08   15.59
   2   0   0  734.86   16.63
   2   0   0  736.54   16.62
  -2   0   0  734.60   17.14
  -3   0   0  224.02    5.59
  -3   0   0  216.94    5.79
  -3   0   0  217.26    5.80
  -3   0   0  227.37    5.96
  -3   0   0  220.60    5.54
   3   0   0  220.68    5.79
  -3   0   0  219.74    5.81
   3   0   0  220.60    5.78
   3   0   0  223.90    5.55
  -4   0   0   84.69    2.99
  -4   0   0   85.55    3.00
  -4   0   0   81.08    2.86
  -4   0   0   85.87    3.03
  -4   0   0   87.07    3.07
  -5   0   0  910.63   22.27
  -5   0   0  912.50   20.58
  -5   0   0  918.73   21.81
  -5   0   0  932.09   21.89
  -6   0   0   60.30    2.80
  -6   0   0   61.51    2.82
  -6   0   0   60.78    2.86
  -6   0   0   64.54    2.87
  -7   0   0  451.71   12.41
  -7   0   0  444.41   11.78
  -7   0   0  444.96   12.34
  -7   0   0  456.03   12.30
  -8   0   0  211.14    7.39
  -8   0   0  215.60    7.15
  -8   0   0  229.15    7.44
  -9   0   0   15.74    1.89
   2  -1   0  378.56    8.92
   2   1   0  372.92    8.55
  -2  -1   0  360.64    8.24
   2   1   0  373.91    8.52
  -2  -1   0  354.65    8.90
  -2   1   0  373.78    8.70
   2   1   0  367.96    8.60
  -2   1   0  370.60    8.34
   2   1   0  372.84    9.30
   2   1   0  366.42    8.80
   2  -1   0  370.62    8.28
   2  -1   0  361.97    8.88
  -2  -1   0  363.40    8.83
  -2  -1   0  358.54    8.54
   2  -1   0  373.03    8.24
   2  -1   0  354.97    8.90
   2   1   0  362.95    8.78
   2  -1   0  369.63    8.82
  -3   1   0  232.36    5.59
  -3  -1   0  224.50    6.06
  -3   1   0  227.44    5.70
  -3   1   0  226.57    5.89
   3  -1   0  229.47    5.53
  -3  -1   0  226.00    5.67
  -3  -1   0  219.40    5.78
  -3  -1   0  226.23    6.05
   3   1   0  232.76    5.81
   3  -1   0  221.71    6.00
   3   1   0  240.22    5.86
  -3   1   0  226.86    6.12
  -3  -1   0  226.03    5.85
  -4   1   0  404.71    9.87
  -4  -1   0  425.21    9.91
  -4   1   0  407.16   10.58
  -4  -1   0  423.25   10.27
  -4  -1   0  432.41   10.70
  -4   1   0  407.52    9.84
  -4   1   0  411.43   10.55
  -4   1   0  400.35   10.29
  -5   1   0   25.66    1.59
  -5  -1   0   24.61    1.46
  -5   1   0   25.61    1.70
  -5  -1   0   23.59    1.51
  -5  -1   0   25.44    1.64
  -5  -1   0   24.99    1.58
  -5   1   0   28.86    1.73
  -5   1   0   28.51    1.63
  -6   1   0   29.51    1.80
  -6  -1   0   21.91    1.56
  -6  -1   0   23.09    1.64
  -6  -1   0   23.56    1.72
  -6   1   0   26.84    1.82
  -7  -1   0  217.19    7.12
  -7   1   0  219.56    7.01
  -7  -1   0  215.51    6.80
  -7  -1   0  211.04    7.13
  -7   1   0  228.77    7.30
  -8  -1   0   28.66    2.07
  -8  -1   0   27.57    1.99
  -8   1   0   22.77    1.91
  -8  -1   0   25.01    2.07
  -8   1   0   27.16    2.05
  -9   1   0  106.55    4.91
  -9  -1   0  119.99    5.04
  -9   1   0  119.14    5.19
   0  -2   0 9998.40  235.84
   1   2   0  456.38   11.07
  -1  -2   0  446.62   10.68
   1  -2   0  443.85   10.77
   1  -2   0  467.87   12.13
   1   2   0  447.45   11.13
  -1   2   0  437.00   10.69
  -1   2   0  431.67   10.41
  -1  -2   0  448.45   11.11
   1  -2   0  444.61   10.41
   1   2   0  434.96   10.09
  -2  -2   0 1946.86   48.49
   2  -2   0 1968.15   46.83
   2   2   0 2084.88   45.86
   2  -2   0 2120.11   51.89
  -2  -2   0 2054.28   47.87
  -2   2   0 2007.00   45.19
   2   2   0 2083.52   47.54
   2   2   0 2025.01   43.78
  -2   2   0 1973.82   44.87
  -2   2   0 2049.24   47.32
  -3   2   0 1054.83   24.57
   3  -2   0 1076.35   23.04
   3  -2   0 1037.34   24.70
  -3  -2   0 1039.62   24.85
  -3  -2   0 1076.92   22.85
   3   2   0 1077.19   23.93
  -3   2   0 1047.49   24.28
  -3   2   0 1063.01   23.18
  -3  -2   0 1064.89   24.47
  -3   2   0 1069.96   24.14
   3   2   0 1057.20   23.67
   4   2   0  553.62   13.15
   4  -2   0  553.88   12.58
  -4  -2   0  564.83   13.80
  -4   2   0  533.51   13.82
  -4   2   0  550.76   13.39
  -4   2   0  562.33   12.72
  -4   2   0  567.29   13.83
  -4  -2   0  558.87   13.86
  -4  -2   0  556.71   12.82
  -5   2   0  476.85   12.09
  -5  -2   0  480.44   12.56
  -5  -2   0  475.50   12.48
  -5   2   0  493.41   12.62
  -5  -2   0  470.22   11.60
  -5   2   0  487.62   12.68
  -6  -2   0    7.49    1.06
  -6  -2   0    6.16    1.06
  -6  -2   0    7.38    1.07
  -6   2   0    7.55    1.21
  -6   2   0    6.10    1.04
  -6   2   0    7.16    0.99
  -7  -2   0  328.37    9.88
  -7   2   0  321.89    9.43
  -7   2   0  331.47    9.98
  -7  -2   0  334.67    9.30
  -8   2   0  213.47    7.75
  -8   2   0  219.90    7.38
  -8  -2   0  229.15    7.72
  -8  -2   0  233.23    7.44
  -9  -2   0  136.08    5.66
  -9   2   0  135.82    5.54
  -9   2   0  139.37    5.94
  -9  -2   0  136.21    5.58
 -10   2   0   87.61    4.79
 -10  -2   0   82.99    4.47
 -10   2   0   85.78    4.33
   0  -3   0    0.25    0.27
   0  -3   0   -0.36    0.23
   0   3   0    1.11    0.39
   0   3   0   -0.49    0.17
  -1   3   0  363.14   10.33
   1  -3   0  373.34   10.33
  -1   3   0  361.96    8.82
  -1  -3   0  348.90    9.41
   1   3   0  360.09    9.02
   1   3   0  357.50    8.49
   1   3   0  376.46    9.09
  -1   3   0  375.24    9.08
  -1  -3   0  357.87    9.07
   1   3   0  385.20    9.53
   1  -3   0  346.94    8.76
   1   3   0  381.88    9.96
  -2  -3   0  165.74    4.69
  -2   3   0  166.44    4.72
   2  -3   0  165.97    4.15
  -2  -3   0  171.07    5.01
  -2   3   0  169.47    4.47
   2  -3   0  161.60    4.54
  -2   3   0  166.84    4.86
   3   3   0  158.68    4.08
  -3   3   0  153.80    4.82
  -3   3   0  153.76    4.87
  -3  -3   0  154.38    4.62
   3  -3   0  154.39    3.94
  -3   3   0  159.98    4.32
  -3   3   0  162.51    3.83
   3   3   0  161.97    4.16
   4  -3   0  684.65   15.45
  -4  -3   0  687.02   16.52
   4   3   0  675.14   15.49
  -4   3   0  664.36   16.57
  -4   3   0  591.60   15.66
  -4   3   0  684.09   16.43
  -4  -3   0  680.48   15.26
  -5  -3   0   85.74    3.36
  -5  -3   0   85.35    3.22
  -5   3   0   81.30    3.57
  -5   3   0   79.59    3.03
  -5   3   0   80.36    3.56
  -6   3   0  111.51    4.58
  -6   3   0  110.84    3.97
  -6  -3   0  106.66    4.27
  -6  -3   0  100.42    3.94
  -6   3   0  116.89    4.64
  -7   3   0  110.99    4.92
  -7  -3   0  120.64    4.84
  -7  -3   0  113.17    4.47
  -7   3   0  120.40    4.46
  -8  -3   0   11.53    1.57
  -8   3   0   11.84    1.70
  -8  -3   0   11.61    1.60
  -8   3   0   11.56    1.43
  -9  -3   0  163.28    6.39
  -9   3   0  143.68    6.32
  -9  -3   0  157.69    6.09
  -9   3   0  145.90    5.80
 -10   3   0    4.82    1.44
 -10  -3   0    7.88    1.60
   0   4   0 1027.86   23.03
   0  -4   0 1014.08   24.58
   0   4   0 1030.54   23.69
   0  -4   0 1087.63   25.19
   0  -4   0 1143.10   27.64
   0   4   0 1052.34   27.64
  -1  -4   0  172.81    5.31
   1   4   0  176.10    4.62
  -1   4   0  179.18    5.82
  -1  -4   0  176.60    4.69
  -1   4   0  180.19    5.07
  -1   4   0  174.05    4.86
   1   4   0  185.33    5.42
   1   4   0  177.93    4.71
  -1  -4   0  179.32    5.11
  -2   4   0 2007.37   46.89
   2   4   0 2071.75   50.04
   2   4   0 2157.44   53.82
  -2   4   0 2102.53   48.50
  -2   4   0 2119.06   47.70
  -2  -4   0 2151.53   48.21
  -2  -4   0 2187.30   50.02
  -3  -4   0 1563.93   36.49
  -3   4   0 1617.63   36.42
  -3   4   0 1581.42   35.87
   3  -4   0 1537.26   36.05
  -3   4   0 1582.54   36.58
  -3  -4   0 1594.91   38.01
  -4  -4   0  316.85    8.79
   4  -4   0  313.90    7.60
   4   4   0  325.00    7.87
  -4   4   0  322.38    8.19
   4   4   0  310.79    7.72
  -4   4   0  328.22    8.98
  -4  -4   0  310.24    8.19
  -4   4   0  315.74    9.03
  -5   4   0  501.82   13.70
  -5   4   0  511.82   13.58
  -5   4   0  501.22   12.69
   5  -4   0  510.73   12.07
  -5  -4   0  516.12   12.53
  -5  -4   0  520.58   13.46
  -6  -4   0   40.48    2.36
  -6   4   0   35.13    2.44
  -6   4   0   36.07    1.97
  -6  -4   0   39.04    2.22
  -6   4   0   36.77    2.50
  -7  -4   0  271.20    8.19
  -7  -4   0  273.80    8.79
  -7   4   0  270.75    9.03
  -7   4   0  270.71    8.07
  -7   4   0  273.85    9.05
  -8  -4   0   27.09    2.08
  -8  -4   0   27.50    2.22
  -8   4   0   32.44    2.53
  -8   4   0   33.58    2.12
  -9  -4   0  121.47    5.31
  -9   4   0  135.91    5.29
  -9  -4   0  126.12    5.68
  -9   4   0  127.74    5.99
 -10   4   0  136.90    6.65
 -10  -4   0  138.95    6.10
   0  -5   0    0.22    0.33
   0   5   0   -0.44    0.13
   0   5   0    0.20    0.35
   0   5   0   -0.13    0.21
   0  -5   0   -0.10    0.22
  -1   5   0  123.14    3.04
  -1   5   0  128.03    4.62
   1   5   0  123.00    3.28
  -1  -5   0  114.62    3.44
   1   5   0  120.43    4.11
  -1  -5   0  116.45    3.96
  -1   5   0  122.00    3.74
  -1  -5   0  113.52    4.12
  -2   5   0  604.90   15.00
  -2   5   0  599.56   15.31
  -2   5   0  620.49   14.99
   2   5   0  641.09   16.63
  -2  -5   0  642.36   15.45
  -2  -5   0  627.88   16.11
   2   5   0  607.91   14.96
  -3   5   0  147.75    4.86
   3   5   0  141.82    3.91
  -3   5   0  142.98    4.26
  -3  -5   0  136.33    5.01
  -3   5   0  148.03    5.02
   3   5   0  147.33    4.57
  -3  -5   0  138.38    4.67
   4   5   0  304.44    7.43
  -4  -5   0  296.05    8.42
  -4   5   0  300.71    7.75
  -4  -5   0  296.35    8.99
  -4   5   0  288.85    8.58
   4   5   0  291.49    7.17
  -4   5   0  298.63    8.80
  -5   5   0   54.24    3.03
  -5  -5   0   62.64    2.94
  -5  -5   0   57.11    2.72
  -5   5   0   52.55    3.02
  -5   5   0   61.06    2.46
  -6   5   0   92.33    4.41
  -6   5   0   87.55    4.29
  -6   5   0   94.30    3.55
  -6  -5   0   92.96    3.86
  -6  -5   0   98.37    4.16
  -7   5   0  123.96    5.60
  -7   5   0  137.16    5.85
  -7  -5   0  126.24    5.01
  -7  -5   0  132.87    5.43
  -7   5   0  139.72    4.81
  -8  -5   0   82.17    4.01
  -8  -5   0   87.12    4.39
  -8   5   0   83.19    4.57
  -8   5   0   86.38    3.74
  -9  -5   0   62.74    3.65
  -9   5   0   63.22    4.25
  -9  -5   0   65.58    3.85
 -10   5   0    3.95    1.23
 -10  -5   0    3.62    1.13
   0   6   0  686.06   15.32
   0   6   0  693.15   15.89
   0  -6   0  671.34   16.83
   0   6   0  672.47   18.75
   1  -6   0   81.04    3.17
  -1  -6   0   78.88    3.21
  -1  -6   0   83.25    2.69
  -1   6   0   80.37    3.65
  -1   6   0   82.79    2.31
   1   6   0   80.40    3.27
  -1  -6   0   81.50    3.42
  -1   6   0   80.52    2.94
   1   6   0   78.80    2.51
  -2   6   0 1141.89   26.41
  -2   6   0 1119.59   26.89
  -2   6   0 1101.29   26.96
  -2  -6   0 1166.76   28.36
   2   6   0 1161.34   29.84
  -2  -6   0 1155.73   27.27
  -3  -6   0  838.44   21.62
  -3   6   0  823.20   20.13
   3   6   0  873.54   22.21
  -3   6   0  848.57   20.81
   3   6   0  821.90   20.00
  -3   6   0  831.76   20.30
  -3  -6   0  832.22   20.64
  -4   6   0   38.88    2.48
   4   6   0   42.77    1.90
  -4  -6   0   38.33    2.25
  -4  -6   0   38.68    2.45
  -4   6   0   38.49    2.38
   4   6   0   39.36    1.40
   4   6   0   36.77    1.43
  -4   6   0   37.73    1.82
  -5   6   0  581.44   14.13
  -5   6   0  564.66   15.63
  -5  -6   0  582.04   15.36
  -5   6   0  544.56   15.23
   5   6   0  583.96   15.55
  -5  -6   0  573.66   14.24
   5   6   0  568.29   14.13
  -6   6   0   42.70    2.92
  -6   6   0   42.86    2.16
  -6  -6   0   42.51    2.50
  -6  -6   0   43.59    2.65
  -6   6   0   42.45    2.92
  -7   6   0  301.19   10.69
  -7   6   0  344.05    9.43
  -7   6   0  332.84   10.80
  -7  -6   0  326.45    9.68
  -7  -6   0  338.93   10.49
  -8   6   0   26.72    2.42
  -8  -6   0   19.49    1.93
  -8  -6   0   24.01    1.93
  -9  -6   0   53.63    3.47
  -9   6   0   55.95    4.08
  -9  -6   0   54.30    3.57
 -10  -6   0  149.28    6.51
   0  -7   0    0.34    0.40
   0   7   0    0.37    0.36
   0  -7   0   -0.28    0.37
   0   7   0   -0.12    0.19
  -1   7   0  287.86    7.78
  -1   7   0  286.64    9.45
   1  -7   0  284.25    8.25
  -1   7   0  299.04    6.84
   1   7   0  284.46    8.85
  -1  -7   0  281.43    8.73
   1   7   0  287.94    7.20
  -1  -7   0  271.36    8.26
   2  -7   0  133.59    4.72
  -2   7   0  132.50    4.57
  -2  -7   0  127.24    4.76
  -2   7   0  131.12    4.26
   2   7   0  132.49    4.71
   2   7   0  132.13    3.60
  -2  -7   0  132.13    5.09
  -2   7   0  134.76    4.91
  -2   7   0  137.96    3.16
   3   7   0  158.58    5.15
  -3   7   0  153.22    4.74
  -3  -7   0  151.13    5.39
  -3  -7   0  148.54    5.73
  -3   7   0  158.33    5.42
  -3   7   0  148.58    5.58
  -4  -7   0  259.29    8.17
  -4   7   0  263.90    8.29
  -4   7   0  263.23    8.59
  -4  -7   0  262.21    8.76
   4   7   0  273.71    7.94
  -4   7   0  273.34    7.50
  -5   7   0   25.39    1.48
  -5   7   0   21.63    1.97
  -5   7   0   21.68    2.06
  -6   7   0  315.04    8.76
  -6  -7   0  334.50   10.16
  -6  -7   0  322.58    9.41
  -6   7   0  302.41   10.35
  -6   7   0  304.49   10.18
  -7  -7   0   30.43    2.39
  -7  -7   0   25.36    2.01
  -7   7   0   30.57    2.64
  -7   7   0   29.22    2.55
  -8   7   0  105.48    5.64
  -8  -7   0   93.81    4.55
  -8  -7   0   97.84    4.97
  -9  -7   0   97.38    5.32
  -9   7   0   89.44    5.49
  -9  -7   0   96.99    4.89
   0   8   0  352.35   11.00
   0   8   0  354.79    9.03
   0  -8   0  332.35    9.90
   0  -8   0  350.12   10.64
   1  -8   0  312.45    9.11
  -1  -8   0  301.28    9.61
  -1   8   0  313.34    8.47
  -1   8   0  308.29    9.14
   1   8   0  313.28    9.78
   1   8   0  311.23    7.86
  -1  -8   0  309.46    9.20
  -2   8   0  475.45   12.39
   2   8   0  490.98   11.22
  -2  -8   0  474.95   13.09
  -2   8   0  477.72   13.07
   2   8   0  483.86   13.74
  -2  -8   0  477.03   13.73
  -2   8   0  458.19   12.41
   2  -8   0  476.59   12.93
  -3   8   0  418.87   12.22
   3   8   0  437.60   12.31
  -3  -8   0  427.26   12.75
  -3   8   0  423.11   11.19
  -3   8   0  426.19   11.77
  -3  -8   0  433.20   12.13
  -4  -8   0  121.60    5.30
   4   8   0  118.54    4.20
  -4  -8   0  115.26    4.82
  -4   8   0  125.82    4.14
  -4   8   0  112.39    4.83
  -4   8   0  117.58    5.16
  -5  -8   0  299.46   10.23
  -5   8   0  320.25    8.48
  -5   8   0  303.91    9.82
  -5   8   0  306.91   10.22
  -5  -8   0  306.27    9.63
  -6  -8   0    3.77    0.85
  -6   8   0    7.85    1.55
  -6  -8   0    7.99    1.39
  -6   8   0    3.67    1.02
  -7   8   0  170.01    7.56
  -7   8   0  185.70    7.52
  -7  -8   0  171.90    6.53
  -7  -8   0  172.80    6.96
  -8  -8   0   22.92    2.34
  -8   8   0   25.61    3.08
  -8  -8   0   23.55    2.20
  -9  -8   0   38.70    3.00
   0  -9   0    0.92    0.54
   0  -9   0    0.97    0.47
  -1   9   0  303.67    9.04
  -1   9   0  311.26    9.23
   1   9   0  315.47    9.85
   1  -9   0  278.21    9.93
   1   9   0  319.30    7.82
  -1   9   0  312.88    8.49
  -1  -9   0  282.83    9.14
   1  -9   0  279.67    9.08
  -1  -9   0  287.35    9.69
  -2   9   0  146.52    5.60
   2  -9   0  146.62    5.50
   2   9   0  141.98    5.40
  -2  -9   0  138.16    5.84
  -2   9   0  142.15    5.15
  -2   9   0  150.78    4.96
  -2  -9   0  147.11    5.62
  -3   9   0   14.71    1.13
   3  -9   0   11.57    1.52
  -3  -9   0   13.10    1.69
   3   9   0   14.56    1.19
  -3  -9   0   10.90    1.63
  -3   9   0   13.99    1.61
  -3   9   0   13.91    1.79
  -4  -9   0  305.80   10.41
  -4   9   0  321.35    8.72
  -4   9   0  305.98   10.08
  -4  -9   0  299.25    9.72
  -4   9   0  308.26    9.69
  -5  -9   0    3.10    0.79
  -5   9   0    5.13    1.16
  -5  -9   0    4.38    1.04
  -5   9   0    5.20    1.21
  -6  -9   0  160.94    6.58
  -6   9   0  155.64    6.70
  -6  -9   0  156.20    6.08
  -6   9   0  156.70    6.99
  -7  -9   0   33.08    2.59
  -7  -9   0   35.10    2.81
  -7   9   0   35.90    3.25
  -7   9   0   36.13    3.33
  -8   9   0   21.23    3.02
  -8  -9   0   23.07    2.55
  -8  -9   0   27.48    2.70
   0  10   0  423.19   11.44
   0 -10   0  402.48   11.99
   0  10   0  395.63   10.48
   0 -10   0  392.47   12.54
  -1  10   0   67.60    3.09
   1 -10   0   74.63    3.77
   1 -10   0   70.85    4.12
  -1 -10   0   68.64    3.68
  -1  10   0   78.44    3.74
  -1 -10   0   70.85    3.99
  -1  10   0   69.99    3.56
   2  10   0  210.65    7.53
   2 -10   0  221.42    7.63
  -2 -10   0  217.20    7.72
  -2  10   0  225.18    7.11
  -2  10   0  214.91    7.62
  -2  10   0  225.73    6.90
  -2 -10   0  215.86    8.13
  -3  10   0  158.69    6.40
  -3 -10   0  163.45    6.34
  -3  10   0  157.06    5.93
   3 -10   0  157.60    6.10
  -3 -10   0  155.60    6.65
  -3  10   0  159.09    5.28
  -4  10   0   80.14    4.07
   4 -10   0   72.68    3.84
  -4 -10   0   80.38    4.46
  -4  10   0   81.10    4.37
  -4 -10   0   72.73    4.00
  -5  10   0  291.14    9.96
  -5 -10   0  303.25   10.01
  -5  10   0  296.98   10.54
   5 -10   0  296.78    9.66
  -5 -10   0  293.22   10.58
  -6 -10   0   61.83    3.87
  -6  10   0   56.96    4.16
  -6 -10   0   54.63    3.46
  -6  10   0   63.22    4.03
  -7  10   0   25.13    3.01
  -7  10   0   26.00    3.27
  -7 -10   0   23.35    2.72
  -7 -10   0   22.61    2.52
  -8 -10   0   43.71    3.60
   0 -11   0    0.15    0.35
   0  11   0   -0.03    0.23
   0 -11   0    0.12    0.36
  -1  11   0  118.93    4.45
   1  11   0  121.04    4.62
   1 -11   0  114.58    5.70
  -1  11   0  122.98    5.03
  -1 -11   0  112.75    5.55
  -1  11   0  113.25    4.96
  -1 -11   0  120.01    5.35
   1 -11   0  115.54    5.26
   2 -11   0   75.40    4.73
  -2  11   0   82.56    4.22
  -2  11   0   85.78    3.82
  -2 -11   0   79.36    4.56
  -2 -11   0   83.41    4.36
   2 -11   0   86.64    4.34
  -3 -11   0   54.57    3.70
  -3  11   0   61.16    3.34
   3 -11   0   55.76    3.43
  -3  11   0   60.94    3.69
  -3 -11   0   58.97    3.60
  -4  11   0   91.96    4.91
  -4 -11   0   86.93    4.65
  -4  11   0   90.05    4.51
   4 -11   0   93.40    4.59
  -4 -11   0   90.16    5.02
  -5  11   0   39.89    3.02
  -5  11   0   41.31    3.51
   5 -11   0   40.00    2.81
  -5 -11   0   39.47    3.32
  -5 -11   0   42.43    3.27
   6 -11   0   40.96    3.01
  -6  11   0   44.73    3.58
  -6  11   0   48.85    3.95
  -6 -11   0   44.78    3.50
  -6 -11   0   37.59    2.95
  -7 -11   0   60.28    3.83
  -7 -11   0   62.81    4.32
   0  12   0  249.29    8.36
   0 -12   0  261.18    9.87
   0 -12   0  257.03    9.17
  -1 -12   0   10.02    1.77
   1 -12   0    7.44    1.48
  -1  12   0    8.80    1.38
  -1 -12   0   11.09    1.91
   1 -12   0    9.91    1.78
   2 -12   0  203.76    7.81
   2 -12   0  199.47    8.65
  -2  12   0  198.02    7.61
  -2 -12   0  209.11    7.98
  -2 -12   0  191.67    8.34
  -3  12   0   65.51    3.56
   3 -12   0   65.12    3.91
  -3 -12   0   62.80    4.36
  -3 -12   0   67.66    4.17
  -3  12   0   63.73    3.94
  -4 -12   0   30.74    3.06
  -4  12   0   32.90    3.13
  -4  12   0   30.35    2.46
   4 -12   0   32.02    2.75
  -4 -12   0   33.01    2.97
  -5 -12   0  140.60    6.49
   5 -12   0  133.84    6.13
  -5  12   0  124.60    6.11
  -5  12   0  130.99    6.78
  -5 -12   0  135.34    6.85
  -6  12   0   30.93    3.05
   6 -12   0   29.74    2.78
   0 -13   0    0.32    0.95
   0 -13   0    0.38    0.88
  -1 -13   0  148.53    7.37
  -1 -13   0  146.80    6.83
   1 -13   0  153.66    6.90
  -1  13   0  159.45    6.36
   1 -13   0  152.19    7.44
  -2 -13   0   74.60    4.94
  -2 -13   0   76.39    4.66
   2 -13   0   70.30    4.89
   2 -13   0   75.80    4.63
  -2  13   0   72.52    4.29
  -3 -13   0   32.68    3.08
  -3 -13   0   32.86    3.22
  -3  13   0   38.07    3.27
   3 -13   0   32.91    3.51
   3 -13   0   35.63    3.15
  -4 -13   0   33.12    3.11
  -4 -13   0   33.37    3.28
   4 -13   0   32.50    2.96
  -4  13   0   29.22    3.04
  -5  13   0   58.27    3.97
   5 -13   0   52.83    3.83
   0 -14   0  185.73    8.11
  -1 -14   0    3.05    1.31
   1 -14   0    3.63    1.30
   2 -14   0  158.66    7.31
  -3  14   0   22.51    2.82
  -7   0   1    2.66    0.69
  -7   0   1    3.82    0.75
  -6   0   1  645.79   15.46
  -6   0   1  674.07   16.08
  -6   0   1  676.73   16.50
  -6   0   1  660.47   17.15
  -6   0   1  664.59   16.75
  -6   0   1  657.87   16.48
  -5   0   1  140.97    4.87
  -5   0   1  142.49    4.31
  -5   0   1  144.78    4.67
  -5   0   1  140.39    4.73
  -5   0   1  146.67    4.59
  -5   0   1  151.12    4.55
  -4   0   1  418.89   10.27
  -4   0   1  394.69   10.69
  -4   0   1  416.02    9.99
  -4   0   1  411.61   10.20
  -4   0   1  416.65    9.61
  -4   0   1  408.91   10.43
   3   0  -1  891.76   20.79
   3   0  -1  922.12   21.06
   3   0  -1  946.86   20.24
  -3   0   1  881.38   21.08
   3   0  -1  913.23   20.68
  -3   0   1  907.36   20.90
  -3   0   1  926.14   20.36
   3   0  -1  923.01   19.47
  -3   0   1  931.24   19.55
  -3   0   1  912.12   20.77
  -3   0   1  895.06   21.69
  -2   0   1  207.98    5.40
   2   0  -1  212.40    4.97
  -2   0   1  206.48    5.74
   2   0  -1  203.75    5.53
  -2   0   1  202.85    5.54
   2   0  -1  214.99    5.25
  -2   0   1  211.20    5.28
  -2   0   1  212.64    4.98
   2   0  -1  219.73    5.74
   2   0  -1  202.41    5.30
   1   0  -1 3449.01   77.77
  -1   0   1 3350.43   79.93
   1   0  -1 3391.03   78.01
  -1   0   1 3363.38   81.72
  -1   0  -1 2510.01   66.95
   1   0   1 2388.51   52.73
   1   0   1 2490.92   64.98
   1   0   1 2606.61   65.21
  -1   0  -1 2507.07   66.07
  -1   0  -1 2462.56   57.42
  -2   0  -1 1909.60   43.57
   2   0   1 1931.48   49.31
  -2   0  -1 1858.97   40.44
  -2   0  -1 1849.41   44.13
   3   0   1  210.19    5.49
  -3   0  -1  221.31    5.69
  -3   0  -1  220.98    5.93
  -3   0  -1  218.62    5.67
   3   0   1  214.40    5.49
   3   0   1  221.86    6.50
  -3   0  -1  217.99    5.72
  -4   0  -1 2043.13   47.55
  -4   0  -1 2172.04   47.37
  -4   0  -1 2101.47   48.32
  -5   0  -1   30.48    1.67
  -5   0  -1   29.51    1.81
  -5   0  -1   28.74    1.76
  -5   0  -1   29.74    1.57
  -6   0  -1  207.02    6.67
  -6   0  -1  205.73    6.25
  -6   0  -1  217.89    6.49
  -6   0  -1  207.43    6.50
  -7   0  -1  155.77    5.77
  -7   0  -1  152.48    5.39
  -7   0  -1  153.28    5.57
  -8   0  -1   37.32    2.30
  -8   0  -1   35.87    2.48
  -8   0  -1   34.55    2.50
  -9   0  -1   12.57    1.82
 -10   0  -1    6.40    1.61
  -8  -1   1   74.77    3.45
  -8  -1   1   71.36    3.73
  -8   1   1   78.36    3.90
  -7   1   1  252.61    7.97
  -7  -1   1  251.83    8.16
  -7   1   1  253.80    7.63
  -7   1   1  253.06    8.08
  -7  -1   1  249.73    7.33
  -6  -1   1   36.31    2.10
  -6   1   1   34.28    2.18
  -6   1   1   41.49    2.34
  -6  -1   1   40.38    2.06
  -6  -1   1   40.69    2.35
  -6   1   1   41.67    2.11
  -6   1   1   40.71    2.04
  -5   1   1  279.27    7.77
  -5  -1   1  270.20    7.93
  -5  -1   1  268.80    7.44
  -5   1   1  271.60    7.86
  -5   1   1  281.18    7.23
  -5  -1   1  267.79    7.35
  -5   1   1  274.71    7.37
  -5  -1   1  264.28    7.01
  -4   1   1  261.82    7.24
  -4  -1   1  271.86    6.61
  -4  -1   1  266.42    7.47
  -4  -1   1  272.44    6.94
  -4   1   1  269.75    6.75
  -4   1   1  266.15    6.90
  -4   1   1  260.99    7.38
  -4  -1   1  262.44    7.01
  -3   1   1   44.76    1.58
  -3  -1   1   40.42    1.83
  -3   1   1   46.11    1.88
   3   1  -1   45.83    1.79
   3  -1  -1   41.88    1.54
  -3  -1   1   40.39    1.52
   3  -1  -1   42.90    1.56
  -3  -1   1   42.02    1.60
  -3   1   1   46.15    1.63
   3   1  -1   43.76    1.60
   3  -1  -1   45.31    1.61
  -2  -1   1 3343.29   73.84
  -2   1   1 3440.43   79.00
   2  -1  -1 3349.28   81.33
   2   1  -1 3644.73   81.78
  -2   1   1 3298.18   78.59
  -2  -1   1 3474.96   77.22
   2   1  -1 3441.52   74.06
   2  -1  -1 3394.59   72.64
   2  -1  -1 3464.16   78.35
   2  -1  -1 3609.34   79.36
   2  -1  -1 3458.12   78.65
  -2  -1   1 3486.28   81.76
  -2   1   1 3469.87   76.22
  -2  -1   1 3370.27   77.55
   2   1  -1 3531.45   82.44
  -1  -1   1 1460.07   35.99
   1   1  -1 1340.88   35.29
  -1  -1   1 1362.94   34.02
   1  -1  -1 1553.36   34.09
   1   1  -1 1530.97   31.60
  -1  -1   1 1444.42   35.53
   1  -1  -1 1374.07   39.03
   1  -1  -1 1331.66   32.37
   1   1  -1 1502.02   35.28
   0   1  -1 3252.44   79.87
   0  -1  -1 3716.77   78.79
   0   1   1 3316.72   81.43
   0  -1   1 3113.38   78.61
   0   1   1 3466.78   80.97
   0   1  -1 3450.57   78.20
   0  -1  -1 3377.93   78.71
   1   1   1 3696.62   80.93
  -1   1  -1 3435.13   82.55
  -1  -1  -1 3582.67   81.64
   1  -1   1 3553.38   74.64
   1  -1   1 3525.77   91.31
  -1   1  -1 3406.34   92.01
  -1  -1  -1 3410.64   80.42
   1   1   1 3467.32   83.32
  -2  -1  -1  100.60    2.62
   2  -1   1   94.02    2.97
   2  -1   1   96.82    2.82
   2  -1   1   98.85    3.40
   2   1   1  101.72    2.97
   2   1   1  101.60    2.98
  -2  -1  -1  100.42    3.00
  -2   1  -1   98.12    3.42
   2  -1   1   97.28    2.65
   2   1   1   99.11    2.71
  -2   1  -1   96.92    2.87
  -3  -1  -1 1230.15   27.98
  -3  -1  -1 1234.69   27.28
  -3  -1  -1 1220.67   27.70
  -3  -1  -1 1213.55   25.95
   3  -1   1 1215.24   27.77
  -3   1  -1 1216.52   27.64
  -3   1  -1 1177.02   25.96
   3  -1   1 1216.00   26.33
  -3   1  -1 1173.52   27.56
   3   1   1 1170.22   27.47
   3   1   1 1214.69   30.99
  -4  -1  -1  655.95   15.72
  -4   1  -1  646.18   14.94
  -4  -1  -1  635.42   14.85
   4   1   1  652.95   17.33
  -4  -1  -1  655.57   15.27
  -4   1  -1  652.46   15.71
  -4   1  -1  635.91   15.65
  -4  -1  -1  641.52   15.80
  -5   1  -1  205.64    6.23
  -5   1  -1  209.81    6.30
  -5  -1  -1  202.68    5.83
  -5   1  -1  207.54    6.15
  -5  -1  -1  202.25    6.04
  -5  -1  -1  205.69    6.37
  -5  -1  -1  211.67    6.10
  -6   1  -1  198.91    6.32
  -6  -1  -1  192.01    6.02
  -6   1  -1  196.89    6.21
  -6  -1  -1  192.38    6.12
  -6   1  -1  191.61    6.22
  -6  -1  -1  190.39    6.40
  -6  -1  -1  189.54    5.81
  -7   1  -1   61.24    3.09
  -7  -1  -1   58.44    3.19
  -7  -1  -1   58.01    3.08
  -7  -1  -1   57.56    2.81
  -7  -1  -1   59.79    2.79
  -7   1  -1   62.35    3.15
  -8   1  -1  372.21   11.29
  -8  -1  -1  376.66   10.99
  -8  -1  -1  383.00   10.87
  -8   1  -1  370.86   11.15
  -8  -1  -1  378.80   11.48
  -9  -1  -1   87.66    4.43
  -9  -1  -1   89.79    4.65
  -9   1  -1   85.96    4.41
  -9   1  -1   91.29    4.34
 -10   1  -1   54.70    3.71
 -10  -2   1   91.80    4.40
  -9  -2   1  107.18    4.57
  -9  -2   1  107.80    5.06
  -9   2   1  105.00    5.06
  -8   2   1  561.09   14.77
  -8  -2   1  559.55   14.21
  -8  -2   1  562.64   15.76
  -8   2   1  553.11   15.45
  -8   2   1  548.98   15.59
  -7  -2   1    0.13    0.22
  -7   2   1    0.31    0.33
  -7  -2   1    0.25    0.29
  -7   2   1   -0.25    0.25
  -7   2   1    0.16    0.22
  -6   2   1  478.87   12.58
  -6   2   1  465.99   11.83
  -6  -2   1  455.51   12.68
  -6  -2   1  451.02   12.02
  -6   2   1  468.39   11.43
  -6  -2   1  455.57   11.35
  -6   2   1  450.36   12.59
  -5   2   1  278.71    8.26
  -5   2   1  293.95    7.73
  -5   2   1  279.07    8.38
  -5  -2   1  299.59    8.08
  -5  -2   1  301.06    7.55
  -5  -2   1  300.78    8.51
  -5   2   1  292.05    7.49
  -4   2   1  868.42   20.20
  -4   2   1  907.37   19.66
  -4   2   1  865.97   20.69
  -4   2   1  875.20   20.97
  -4  -2   1  880.76   21.26
  -4  -2   1  874.35   19.17
   4   2  -1  856.26   19.85
  -4  -2   1  890.95   20.20
  -3  -2   1 1322.77   28.00
   3  -2  -1 1295.04   30.42
  -3   2   1 1318.80   30.35
  -3   2   1 1348.23   28.83
   3   2  -1 1354.17   29.88
  -3   2   1 1313.83   29.97
  -3  -2   1 1337.48   29.39
   3   2  -1 1305.85   29.22
   3  -2  -1 1335.02   29.95
  -3  -2   1 1320.88   29.26
  -3  -2   1 1282.32   30.83
  -3   2   1 1322.92   29.75
   3   2  -1 1344.05   31.40
  -2  -2   1  332.13    8.07
   2   2  -1  342.48    8.03
   2  -2  -1  324.39    8.06
  -2   2   1  334.43    7.92
  -2   2   1  322.79    8.35
   2  -2  -1  351.86    8.51
   2   2  -1  330.18    8.33
  -2  -2   1  333.05    8.49
  -2   2   1  343.61    8.52
  -2  -2   1  341.64    8.61
   2  -2  -1  351.24    8.11
  -2   2   1  334.38    8.07
  -2  -2   1  345.49    7.94
   2   2  -1  343.94    8.54
   1  -2  -1 2498.19   59.58
   1   2  -1 2547.85   54.77
  -1  -2   1 2480.76   60.35
  -1   2   1 2482.70   58.32
   1   2  -1 2592.60   58.73
   1  -2  -1 2627.81   57.74
  -1   2   1 2526.16   71.22
  -1   2   1 2379.08   59.75
  -1   2   1 2467.65   56.74
  -1  -2   1 2507.08   57.99
  -1  -2   1 2519.51   56.57
   0   2   1  404.55    9.54
   0  -2  -1  409.52   10.09
   0   2  -1  399.34    9.67
   0   2   1  398.88    9.42
   0  -2   1  436.04   11.14
   0  -2   1  399.55    9.35
   0   2   1  400.40   10.12
   0  -2   1  397.04    9.67
   0  -2   1  396.58    9.16
   0  -2  -1  429.46    9.53
   0   2  -1  402.80    9.49
   0   2   1  422.44   10.24
   1  -2   1 2261.12   60.38
   1   2   1 2414.77   55.16
   1   2   1 2446.66   52.87
  -1  -2  -1 2414.07   56.02
  -1   2  -1 2319.54   56.58
   1  -2   1 2358.98   57.26
  -1  -2  -1 2432.49   58.65
   1  -2   1 2301.55   52.16
   1   2   1 2411.74   56.98
  -1   2  -1 2446.70   63.30
   1  -2   1 2439.54   55.18
  -1  -2  -1 2379.59   54.70
  -2   2  -1  878.66   21.17
   2  -2   1  906.43   23.69
  -2   2  -1  896.08   23.79
   2   2   1  913.42   24.54
  -2  -2  -1  901.05   20.78
   2  -2   1  879.93   21.14
   2   2   1  913.21   20.71
  -3  -2  -1  518.20   12.65
   3  -2   1  502.51   12.34
  -3  -2  -1  514.30   11.86
  -3   2  -1  507.97   12.44
  -3   2  -1  507.84   12.71
  -3  -2  -1  528.84   12.56
   3  -2   1  524.07   11.55
  -4  -2  -1 1707.58   38.98
  -4  -2  -1 1731.26   39.41
  -4  -2  -1 1648.23   36.35
  -4   2  -1 1650.08   38.88
  -4   2  -1 1727.03   38.74
   4  -2   1 1741.80   36.85
  -5   2  -1   15.34    1.34
  -5  -2  -1   17.92    1.36
  -5  -2  -1   19.70    1.31
  -5  -2  -1   19.29    1.51
  -5   2  -1   20.17    1.41
  -6   2  -1  288.82    8.59
  -6  -2  -1  275.72    8.03
  -6  -2  -1  284.74    8.24
  -6   2  -1  277.16    8.26
  -6  -2  -1  282.66    8.58
  -7  -2  -1  237.88    7.48
  -7   2  -1  241.55    7.77
  -7  -2  -1  228.31    7.40
  -7   2  -1  246.39    7.65
  -7  -2  -1  221.70    7.73
  -8  -2  -1   23.62    1.76
  -8  -2  -1   20.29    1.82
  -8  -2  -1   20.46    1.98
  -8   2  -1   22.03    1.88
  -8   2  -1   26.74    2.08
  -9  -2  -1   58.42    3.49
  -9   2  -1   53.14    3.27
  -9   2  -1   57.65    3.37
 -10   2  -1   11.73    1.96
 -10  -2  -1   12.51    2.02
 -10   2  -1   11.27    1.88
 -11   2  -1   71.39    4.49
 -10  -3   1   60.71    3.81
 -10   3   1   67.20    4.34
 -10  -3   1   64.90    3.70
  -9  -3   1   89.03    4.10
  -9  -3   1   90.88    4.65
  -9   3   1   93.58    4.80
  -9   3   1   89.65    3.97
  -8  -3   1   17.82    1.53
  -8  -3   1   17.65    1.77
  -8   3   1   19.55    1.87
  -8   3   1   17.41    2.09
  -8   3   1   18.45    1.49
  -7   3   1  276.84    7.94
  -7   3   1  269.10    8.93
  -7  -3   1  278.70    8.90
  -7   3   1  267.14    8.82
  -7  -3   1  280.39    7.93
  -6  -3   1   14.06    1.38
  -6   3   1   11.66    1.51
  -6  -3   1   11.41    1.06
  -6   3   1   12.58    1.56
  -6   3   1   12.77    0.95
  -6   3   1   12.51    1.00
  -5  -3   1   19.00    1.27
  -5  -3   1   18.63    1.44
  -5   3   1   16.10    1.06
  -5   3   1   17.71    1.05
  -5   3   1   15.92    1.44
  -5   3   1   15.61    1.42
  -5  -3   1   20.29    1.50
  -4  -3   1  125.95    4.25
  -4   3   1  136.04    3.80
  -4   3   1  139.13    4.69
   4   3  -1  131.81    3.59
  -4  -3   1  121.98    4.32
  -4   3   1  139.09    4.61
   4  -3  -1  133.07    3.77
  -4  -3   1  129.72    3.93
  -4   3   1  136.54    3.67
   3  -3  -1   13.20    0.76
  -3   3   1   11.90    1.03
   3  -3  -1    9.53    0.64
   3   3  -1    9.02    0.51
  -3   3   1    9.53    0.95
  -3   3   1   10.13    0.60
  -3  -3   1    9.43    0.85
  -3  -3   1    8.32    0.82
  -3   3   1   10.32    0.61
   2  -3  -1  669.11   15.76
  -2  -3   1  665.86   16.10
  -2  -3   1  665.48   15.40
  -2   3   1  678.88   15.89
  -2   3   1  677.97   15.61
  -2  -3   1  677.24   16.61
  -2   3   1  683.08   15.92
   2   3  -1  690.61   16.52
   1  -3  -1  138.15    4.12
  -1  -3   1  135.89    4.01
  -1   3   1  130.16    4.09
  -1  -3   1  137.79    3.92
  -1  -3   1  134.94    3.62
  -1   3   1  133.34    3.85
   1   3  -1  132.90    4.38
   1   3  -1  136.20    3.58
   0   3   1  114.19    2.98
   0  -3   1  104.02    3.23
   0  -3  -1  115.37    3.56
   0  -3  -1  104.11    3.48
   0   3  -1  122.96    3.34
   0  -3   1  105.70    2.84
   0   3  -1  116.08    2.83
   0   3  -1  118.45    3.02
   0   3   1  113.63    3.08
   0  -3   1  108.34    3.00
   0   3  -1  118.06    3.92
   0  -3  -1  109.20    3.35
   0   3   1  119.58    3.44
  -1  -3  -1  403.06   10.20
  -1   3  -1  381.90    9.53
  -1   3  -1  380.80   10.88
  -1   3  -1  363.85    9.14
   1   3   1  373.23    9.59
   1  -3   1  381.40    9.13
   1   3   1  375.62    8.94
  -1  -3  -1  398.47   10.01
  -1   3  -1  366.06    9.54
   1  -3   1  377.71    9.24
  -1  -3  -1  389.55    9.46
   1   3   1  371.88    9.11
   1  -3   1  400.44    9.22
  -2  -3  -1  120.53    4.10
  -2   3  -1  127.57    4.60
  -2  -3  -1  126.25    3.78
  -2   3  -1  124.52    3.85
  -2   3  -1  123.31    3.79
  -2  -3  -1  124.86    3.74
  -3   3  -1 1817.08   42.30
   3  -3   1 1891.07   40.12
  -3  -3  -1 1860.20   39.50
   3   3   1 1892.03   41.78
  -3  -3  -1 1858.93   42.49
  -3   3  -1 1853.90   43.16
  -3  -3  -1 1869.29   42.22
  -3   3  -1 1851.56   41.81
  -4   3  -1   54.88    2.66
  -4  -3  -1   56.47    2.46
   4  -3   1   59.10    1.82
  -4  -3  -1   60.99    2.44
  -4   3  -1   55.06    2.66
  -4  -3  -1   55.66    2.59
   4   3   1   56.90    1.83
  -4   3  -1   57.00    2.40
  -5  -3  -1  216.63    6.91
  -5   3  -1  220.87    7.02
  -5  -3  -1  225.99    6.65
  -5   3  -1  231.62    6.66
  -5  -3  -1  219.83    6.50
  -6  -3  -1  347.99    9.64
  -6   3  -1  357.20    9.91
  -6  -3  -1  357.03   10.36
  -6   3  -1  344.34   10.31
  -6  -3  -1  361.30   10.04
  -7  -3  -1   53.11    3.14
  -7   3  -1   55.24    3.17
  -7  -3  -1   54.82    2.87
  -7  -3  -1   50.67    2.87
  -7   3  -1   53.05    2.84
  -8   3  -1  296.20    9.95
  -8  -3  -1  311.59    9.55
  -8  -3  -1  310.97    9.64
  -8   3  -1  303.94    9.52
  -9  -3  -1   15.88    2.06
  -9   3  -1   12.29    1.67
  -9   3  -1   14.30    1.92
 -10   3  -1   95.99    4.92
 -10  -3  -1   86.19    4.79
 -10   3  -1   90.64    5.04
 -10  -4   1   89.38    4.47
 -10  -4   1   77.60    4.66
 -10   4   1   72.37    4.70
  -9  -4   1   42.44    2.63
  -9   4   1   39.49    3.05
  -9  -4   1   43.75    3.12
  -8  -4   1  386.35   12.12
  -8  -4   1  398.30   10.89
  -8   4   1  395.52   10.81
  -8   4   1  388.46   12.11
  -8   4   1  376.14   12.15
  -7  -4   1    3.75    0.94
  -7  -4   1    5.96    1.00
  -7   4   1    4.19    0.73
  -7   4   1    5.49    1.25
  -7   4   1    5.41    1.15
  -6   4   1  365.41    8.85
  -6  -4   1  355.58    9.35
  -6  -4   1  367.89   10.54
  -6   4   1  331.43   10.42
  -6   4   1  362.95    9.33
  -6   4   1  342.03   10.41
   5   4  -1  168.50    4.60
  -5   4   1  176.13    6.10
  -5  -4   1  169.38    5.19
  -5   4   1  180.91    4.71
  -5   4   1  176.23    4.97
  -5  -4   1  177.38    5.86
  -5   4   1  171.88    5.99
   4   4  -1  416.91    9.88
  -4  -4   1  428.59   11.02
  -4   4   1  420.12   11.38
  -4  -4   1  431.28   11.48
  -4   4   1  442.17   10.40
   4  -4  -1  443.55   10.43
  -4   4   1  418.88   11.55
  -4   4   1  446.09    9.97
  -3  -4   1 1745.02   37.35
   3  -4  -1 1655.28   38.17
  -3   4   1 1687.52   37.71
  -3  -4   1 1696.90   38.94
  -3   4   1 1706.89   36.47
  -3   4   1 1616.87   38.14
   3  -4  -1 1674.03   38.84
  -3  -4   1 1722.79   40.32
  -3   4   1 1680.34   38.69
  -2   4   1  271.07    7.20
  -2  -4   1  260.39    7.16
  -2  -4   1  265.59    7.40
  -2   4   1  257.16    7.18
  -2   4   1  265.20    6.54
  -2  -4   1  270.91    6.84
  -2   4   1  267.61    6.51
  -1  -4   1 2274.79   50.29
   1   4  -1 2362.91   59.56
   1   4  -1 2364.79   50.13
   1   4  -1 2293.81   52.48
  -1   4   1 2288.94   52.08
  -1   4   1 2247.16   51.45
  -1  -4   1 2339.29   54.76
  -1  -4   1 2381.40   55.50
  -1  -4   1 2442.15   54.16
   0   4  -1  135.37    4.55
   0   4   1  128.45    3.58
   0   4  -1  133.75    3.25
   0  -4   1  116.25    3.76
   0  -4   1  124.63    3.45
   0  -4  -1  120.72    4.09
   0  -4  -1  127.39    4.11
   0   4  -1  129.84    3.45
   0  -4  -1  124.78    3.84
   0  -4   1  120.62    3.24
   0   4   1  128.40    3.90
   1  -4   1 1262.90   29.46
  -1   4  -1 1252.48   30.09
  -1  -4  -1 1260.96   29.67
   1   4   1 1241.94   30.38
  -1   4  -1 1271.61   28.74
  -1  -4  -1 1379.92   32.86
  -1  -4  -1 1302.87   30.90
  -1   4  -1 1290.11   29.81
  -1   4  -1 1273.56   33.64
   2   4   1  625.67   15.07
   2   4   1  609.87   16.11
  -2  -4  -1  604.96   14.88
  -2   4  -1  606.19   17.19
  -2   4  -1  616.13   14.65
  -2   4  -1  612.12   14.98
  -2  -4  -1  600.07   15.68
   3   4   1  405.32    9.08
  -3  -4  -1  373.93   10.78
  -3   4  -1  388.01   10.13
  -3  -4  -1  390.05   10.10
  -3   4  -1  380.83   10.41
  -3   4  -1  398.60   10.26
  -4  -4  -1 1155.10   26.97
   4  -4   1 1149.07   25.79
  -4   4  -1 1133.80   26.53
  -4   4  -1 1119.43   27.25
  -4  -4  -1 1131.60   25.29
   4   4   1 1151.65   25.57
  -4   4  -1 1145.20   26.89
  -5  -4  -1   21.65    1.51
  -5   4  -1   20.36    1.71
  -5  -4  -1   21.54    1.59
  -5   4  -1   22.45    1.51
  -6   4  -1  137.40    4.89
  -6  -4  -1  144.05    5.08
  -6  -4  -1  137.80    4.99
  -6   4  -1  132.68    5.41
  -7   4  -1  242.49    7.48
  -7  -4  -1  209.79    7.26
  -7   4  -1  228.99    8.08
  -7  -4  -1  234.04    7.62
  -8  -4  -1   23.94    1.99
  -8  -4  -1   21.40    1.80
  -8   4  -1   26.77    2.23
  -8   4  -1   24.21    1.91
  -9   4  -1   74.73    4.34
  -9  -4  -1   74.84    4.20
  -9   4  -1   72.74    3.82
 -10  -4  -1    4.12    1.21
 -10   4  -1    6.76    1.48
 -10  -5   1  158.31    6.48
 -10  -5   1  164.24    7.45
 -10   5   1  166.31    7.70
  -9   5   1   28.93    2.89
  -9  -5   1   30.43    2.61
  -9  -5   1   30.28    2.16
  -8   5   1   75.03    4.22
  -8  -5   1   62.10    3.78
  -8  -5   1   67.26    3.37
  -8   5   1   74.31    4.24
  -7   5   1  144.21    6.03
  -7   5   1  147.87    4.75
  -7   5   1  141.26    6.03
  -7  -5   1  138.03    5.73
  -7  -5   1  132.63    5.00
  -6   5   1   58.34    3.35
  -6   5   1   59.46    2.45
  -6   5   1   62.35    2.17
  -6  -5   1   57.37    2.78
  -6  -5   1   63.42    3.26
  -6   5   1   60.53    3.39
  -5   5   1   50.79    1.80
  -5  -5   1   56.94    2.83
  -5   5   1   51.30    2.05
  -5   5   1   50.98    2.93
  -5  -5   1   54.81    2.50
  -4   5   1  189.89    6.27
  -4  -5   1  183.71    6.11
  -4   5   1  195.50    6.41
  -4   5   1  210.85    4.84
  -4  -5   1  176.89    6.21
  -4   5   1  202.32    5.18
  -3   5   1  129.92    4.57
  -3  -5   1  133.21    4.67
  -3   5   1  133.55    4.68
  -3  -5   1  128.86    4.45
  -3   5   1  136.36    3.72
  -2   5   1  751.79   17.14
  -2  -5   1  746.02   18.69
  -2   5   1  735.98   17.86
  -2   5   1  735.53   17.42
  -2  -5   1  752.97   18.06
  -2   5   1  732.27   17.64
   2   5  -1  724.90   19.91
  -1  -5   1  246.71    6.02
  -1  -5   1  229.63    6.61
  -1   5   1  237.01    6.43
   1   5  -1  227.91    7.34
  -1  -5   1  232.57    6.91
   1   5  -1  235.43    5.64
  -1   5   1  238.26    6.49
   0   5   1  289.70    7.23
   0   5   1  280.76    7.67
   0  -5   1  262.70    7.50
   0  -5   1  273.46    6.92
   0   5  -1  290.26    6.64
   0  -5  -1  279.98    8.25
   0   5  -1  287.16    6.95
   0  -5  -1  271.24    8.01
   0   5  -1  289.21    8.71
  -1   5  -1  105.17    2.70
  -1   5  -1  102.76    4.27
  -1  -5  -1  113.33    4.02
   1   5   1  105.39    3.41
  -1  -5  -1  105.68    3.68
  -1  -5  -1  116.70    3.60
  -1   5  -1  101.83    3.72
  -1   5  -1  100.17    3.35
   1  -5   1  111.72    3.58
  -2   5  -1   78.47    3.00
   2   5   1   79.48    2.59
   2   5   1   76.19    2.70
  -2  -5  -1   83.35    3.11
  -2  -5  -1   88.72    3.50
  -2   5  -1   82.46    3.79
  -2   5  -1   74.98    2.88
   3   5   1  674.77   17.53
  -3   5  -1  651.75   16.53
   3   5   1  685.69   15.22
   3   5   1  675.54   16.58
  -3  -5  -1  654.21   16.58
  -3  -5  -1  669.92   17.61
  -3   5  -1  672.47   16.48
  -4   5  -1  197.30    6.42
  -4  -5  -1  201.87    6.18
  -4   5  -1  202.15    6.07
   4   5   1  194.58    4.75
  -4   5  -1  200.12    6.64
  -5  -5  -1  142.57    5.03
  -5   5  -1  134.11    5.43
  -5  -5  -1  143.89    5.09
  -5   5  -1  146.83    5.50
  -5   5  -1  150.73    4.89
  -6   5  -1  790.28   20.95
  -6  -5  -1  811.03   20.54
  -6   5  -1  796.58   19.85
  -6  -5  -1  815.37   19.37
  -7   5  -1   39.59    2.84
  -7   5  -1   34.14    2.22
  -7  -5  -1   35.28    2.36
  -7  -5  -1   36.18    2.44
  -8  -5  -1   75.72    3.97
  -8   5  -1   81.05    4.47
  -8   5  -1   85.80    3.93
  -8  -5  -1   82.86    4.14
  -9  -5  -1    5.60    1.35
  -9   5  -1    5.45    0.90
  -9   5  -1    5.45    1.46
 -10   5  -1   83.26    5.12
 -10  -6   1   52.37    4.02
 -10  -6   1   52.17    3.39
  -9  -6   1   49.61    3.52
  -9   6   1   47.31    3.83
  -9  -6   1   44.81    2.85
  -9   6   1   41.60    3.56
  -8   6   1  192.65    7.77
  -8   6   1  180.53    7.63
  -8  -6   1  191.28    6.59
  -8  -6   1  180.50    7.37
  -7  -6   1   14.82    1.64
  -7   6   1   16.16    2.07
  -7   6   1   16.68    2.17
  -7  -6   1   16.24    1.96
  -6   6   1  466.25   13.84
  -6  -6   1  465.83   12.25
  -6   6   1  496.68   11.99
  -6  -6   1  486.19   13.63
  -6   6   1  467.30   13.63
  -5   6   1  330.67    8.33
  -5  -6   1  336.10    9.78
  -5   6   1  337.67    7.58
  -5  -6   1  312.01    8.80
  -5   6   1  303.13    9.73
  -4  -6   1  224.86    7.29
  -4   6   1  209.29    7.13
  -4   6   1  226.48    5.80
  -4   6   1  212.45    7.03
  -4   6   1  225.81    5.24
  -3  -6   1  757.91   19.03
  -3  -6   1  764.99   19.75
  -3   6   1  755.88   18.75
  -3   6   1  766.66   19.07
  -3   6   1  783.01   17.59
   3   6  -1  761.22   20.75
  -3   6   1  765.20   18.12
  -2  -6   1  124.05    4.58
   2   6  -1  127.60    4.67
  -2   6   1  129.80    3.59
  -2   6   1  130.14    3.72
  -2   6   1  125.38    4.37
  -2  -6   1  127.91    4.46
  -2   6   1  123.09    4.40
  -1  -6   1 1450.61   35.16
  -1  -6   1 1473.28   34.04
  -1   6   1 1414.77   33.22
  -1   6   1 1436.66   32.84
  -1  -6   1 1454.02   33.90
   1   6  -1 1479.62   32.09
   1   6  -1 1427.83   37.97
   0   6  -1    9.05    0.70
   0  -6  -1    6.58    1.01
   0   6   1    9.75    0.84
   0   6  -1   12.37    1.24
   0  -6   1    6.14    0.90
   0   6  -1    8.62    0.65
   0  -6  -1    6.63    0.94
   0   6   1    9.61    0.83
  -1  -6  -1 1180.42   28.98
  -1  -6  -1 1143.37   27.79
   1  -6   1 1177.15   27.63
  -1  -6  -1 1287.85   30.54
  -1   6  -1 1153.43   31.52
  -1   6  -1 1137.05   26.65
  -1   6  -1 1160.94   28.23
   1   6   1 1132.52   28.14
  -2   6  -1  484.53   14.54
  -2   6  -1  476.41   12.31
   2   6   1  477.95   12.14
  -2  -6  -1  488.08   12.56
   2   6   1  484.03   12.88
   2  -6   1  476.19   12.23
  -2   6  -1  464.52   12.05
  -2  -6  -1  476.32   13.23
  -3   6  -1   87.68    3.58
  -3   6  -1   89.30    3.87
  -3   6  -1   84.02    3.26
   3   6   1   85.59    2.74
  -3  -6  -1   83.23    3.47
   3   6   1   88.11    3.00
  -3  -6  -1   90.40    3.98
  -4   6  -1  343.78   10.39
  -4   6  -1  357.35    9.72
   4   6   1  359.61    9.43
  -4  -6  -1  360.00    9.99
  -4   6  -1  348.82   10.07
  -4  -6  -1  344.31   10.70
  -5   6  -1   26.38    1.66
  -5  -6  -1   25.85    1.88
  -5   6  -1   26.00    2.09
  -5   6  -1   23.17    2.03
  -6  -6  -1  196.24    6.67
  -6   6  -1  175.90    7.06
  -6  -6  -1  188.57    6.48
  -6   6  -1  189.16    6.14
  -7   6  -1  161.13    5.69
  -7   6  -1  154.67    6.62
  -7  -6  -1  161.05    6.15
  -7  -6  -1  153.05    5.94
  -8  -6  -1   31.79    2.42
  -8  -6  -1   29.94    2.33
  -8   6  -1   30.04    2.11
  -8   6  -1   33.83    2.88
  -9  -6  -1  113.17    5.51
  -9   6  -1  126.09    6.36
 -10  -7   1  124.86    6.60
  -9   7   1   12.19    2.36
  -9  -7   1   11.10    2.14
  -9   7   1   12.95    2.40
  -9  -7   1   11.85    1.83
  -8   7   1   33.68    3.11
  -8  -7   1   26.61    2.01
  -8  -7   1   28.59    2.54
  -8   7   1   29.68    3.60
  -7  -7   1  104.68    4.98
  -7   7   1  102.95    5.22
  -7  -7   1  101.75    4.36
  -7   7   1  103.89    5.23
  -6   7   1   41.04    2.94
  -6   7   1   42.34    3.03
  -6  -7   1   40.90    2.43
  -6  -7   1   39.29    2.67
  -5  -7   1   40.33    2.63
  -5   7   1   46.93    1.88
   5   7  -1   45.58    2.40
  -5  -7   1   39.61    2.63
  -5   7   1   42.59    2.82
  -5   7   1   43.56    2.91
  -4   7   1  191.39    6.71
  -4   7   1  185.58    6.50
  -4  -7   1  180.14    6.63
  -4   7   1  199.78    5.16
  -4  -7   1  175.04    6.31
   4   7  -1  192.71    6.46
  -3   7   1  106.80    4.26
  -3   7   1  113.58    2.92
  -3   7   1  109.89    4.40
   3   7  -1  106.47    4.23
  -3   7   1  105.71    3.30
  -3  -7   1   94.49    4.24
  -2  -7   1  537.92   14.21
   2   7  -1  553.82   15.57
  -2   7   1  543.51   13.36
  -2  -7   1  539.94   14.76
  -2   7   1  528.61   13.79
  -2   7   1  558.00   12.97
  -2   7   1  538.27   14.05
  -1  -7   1   12.57    1.28
   1  -7  -1   14.32    1.54
   1   7  -1   14.83    1.38
  -1  -7   1   13.27    1.26
   1  -7  -1   13.66    1.27
  -1   7   1   14.63    1.19
  -1  -7   1   11.78    0.80
  -1   7   1   16.00    1.26
   1   7  -1   16.00    0.81
   0   7  -1  351.97    8.43
   0  -7   1  307.08    9.19
   0   7  -1  338.14   10.59
   0  -7  -1  328.17    9.86
   0   7   1  340.53    8.71
   0  -7  -1  317.41    9.36
   0   7   1  345.26    8.84
  -1  -7  -1  117.86    4.47
   1  -7   1  120.78    4.35
  -1   7  -1  125.28    5.26
   1   7   1  116.25    3.74
  -1   7  -1  118.07    4.54
  -1  -7  -1  128.68    4.86
  -1   7  -1  117.39    3.96
  -1   7  -1  128.50    3.12
  -2  -7  -1   37.53    2.21
  -2   7  -1   35.78    2.02
   2  -7   1   34.76    2.01
  -2   7  -1   38.65    2.02
  -2  -7  -1   37.81    2.43
  -2   7  -1   35.93    2.64
   2   7   1   40.10    1.78
  -3  -7  -1  314.84    9.76
  -3   7  -1  301.52    8.61
  -3  -7  -1  311.47    9.06
  -3   7  -1  295.58    8.80
   3  -7   1  306.53    8.71
  -3   7  -1  309.69    9.38
   3   7   1  307.85    8.24
   4   7   1  150.36    4.62
  -4  -7  -1  152.20    6.06
  -4  -7  -1  148.22    5.44
  -4   7  -1  152.92    5.62
  -4   7  -1  156.40    5.14
  -4   7  -1  150.53    5.92
  -5   7  -1   90.05    3.57
  -5   7  -1   92.65    4.54
  -5   7  -1   88.96    4.27
  -5  -7  -1   91.02    4.03
  -5  -7  -1   90.76    4.01
  -6   7  -1  463.09   14.10
  -6  -7  -1  473.74   13.44
  -6  -7  -1  473.34   12.85
  -6   7  -1  459.68   12.50
  -7   7  -1   72.80    3.33
  -7  -7  -1   63.86    3.54
  -7  -7  -1   60.65    3.52
  -7   7  -1   68.82    4.17
  -8   7  -1  105.14    5.82
  -8  -7  -1  113.52    5.27
  -8  -7  -1  107.04    5.18
  -9   7  -1    1.99    1.12
  -9  -7  -1    2.65    0.91
  -9  -8   1   65.45    3.83
  -9  -8   1   67.93    4.62
  -8  -8   1   71.51    3.76
  -8  -8   1   69.70    4.42
  -8   8   1   78.24    4.94
  -8   8   1   68.66    4.70
  -7  -8   1   13.81    1.34
  -7   8   1   12.88    2.13
  -7  -8   1   15.26    2.07
  -7   8   1   14.71    2.20
  -6   8   1  329.29   11.32
  -6  -8   1  356.47   11.11
  -6   8   1  348.35   11.23
  -6  -8   1  350.11   10.07
  -5   8   1  429.04   12.91
  -5  -8   1  445.18   12.71
  -5   8   1  398.56   12.45
  -5  -8   1  431.89   13.02
  -4   8   1  279.39    9.20
  -4  -8   1  295.51    9.29
  -4   8   1  301.83    9.58
  -4  -8   1  302.81    9.78
   4   8  -1  314.83    9.50
  -3   8   1  148.76    5.57
  -3   8   1  154.14    4.59
  -3  -8   1  158.04    6.02
  -3   8   1  163.54    5.88
   3   8  -1  154.78    5.74
  -3  -8   1  156.84    5.70
  -2   8   1   67.01    2.32
   2   8  -1   69.54    3.38
  -2   8   1   68.55    2.61
  -2  -8   1   71.61    3.38
  -2   8   1   67.72    3.16
  -2  -8   1   70.34    3.50
  -2   8   1   66.56    3.22
   1  -8  -1  551.69   15.60
  -1   8   1  559.02   14.02
   1  -8  -1  542.09   14.71
   1   8  -1  546.80   12.91
   1   8  -1  557.54   16.30
  -1  -8   1  567.37   15.41
  -1  -8   1  557.32   14.71
  -1   8   1  558.55   14.26
   0  -8   1  204.78    6.79
   0   8  -1  220.88    5.93
   0  -8  -1  208.57    7.29
   0  -8   1  213.64    7.54
   0  -8  -1  208.01    6.96
   0   8  -1  213.39    7.75
   0   8   1  223.76    6.32
   0   8   1  217.21    6.38
  -1  -8  -1 1146.24   27.87
  -1   8  -1 1135.53   28.07
  -1  -8  -1 1136.62   28.94
   1   8   1 1142.41   26.06
  -1   8  -1 1177.93   31.58
  -1   8  -1 1116.99   26.28
   1  -8   1 1106.02   27.47
   1   8   1 1141.44   26.39
  -2  -8  -1  297.70    9.54
  -2   8  -1  289.75    8.46
  -2  -8  -1  299.49    8.96
  -2   8  -1  274.26    8.25
   2  -8   1  306.33    8.71
   2   8   1  290.72    7.56
  -2   8  -1  294.01   10.44
   3  -8   1   19.40    1.59
   3   8   1   20.38    1.18
  -3  -8  -1   21.61    1.78
  -3  -8  -1   18.20    1.79
  -3   8  -1   26.14    2.10
  -3   8  -1   20.66    1.47
   3   8   1   20.49    1.00
  -3   8  -1   20.63    1.71
  -4  -8  -1   75.78    3.72
  -4   8  -1   85.61    3.46
  -4   8  -1   78.40    3.83
  -4   8  -1   85.53    4.31
   4  -8   1   81.12    3.59
  -4  -8  -1   79.33    4.20
  -5   8  -1  119.68    5.22
  -5  -8  -1  116.82    4.98
  -6   8  -1  194.90    6.44
  -6   8  -1  191.95    7.88
  -6  -8  -1  208.61    7.44
  -6  -8  -1  203.44    7.13
  -7   8  -1   58.93    4.16
  -7  -8  -1   60.65    3.56
  -7  -8  -1   56.38    3.42
  -8  -8  -1   12.37    1.93
  -8   8  -1   14.27    2.49
  -8  -8  -1   15.34    2.15
  -8   9   1   13.98    2.53
  -8  -9   1   14.67    2.38
  -8  -9   1   19.25    2.26
  -8   9   1   16.47    2.69
  -7   9   1   79.47    4.83
  -7  -9   1   69.79    3.68
  -7  -9   1   70.93    4.30
  -7   9   1   75.11    4.81
  -6  -9   1    2.98    0.95
  -6   9   1    3.08    0.98
  -6  -9   1    2.09    0.44
  -6   9   1    2.69    0.83
  -5  -9   1   80.44    4.23
  -5   9   1   90.81    4.54
  -5  -9   1   86.85    4.48
  -5   9   1   87.10    4.61
  -4  -9   1  151.95    6.07
  -4  -9   1  153.69    6.37
  -4   9   1  163.92    6.43
   4   9  -1  161.44    5.92
  -4   9   1  161.01    6.21
  -3   9   1   49.42    2.97
  -3   9   1   52.90    2.93
  -3  -9   1   43.29    2.90
   3   9  -1   46.97    2.66
  -3  -9   1   40.93    2.70
  -3   9   1   46.16    1.99
  -2   9   1  275.70    7.62
  -2   9   1  273.26    8.46
  -2   9   1  268.15    8.23
  -2  -9   1  255.80    8.95
   2   9  -1  283.83    9.24
  -2  -9   1  269.05    8.63
   2  -9  -1  272.35    8.68
   1  -9  -1   14.91    1.56
  -1   9   1   17.13    1.41
  -1  -9   1   16.08    1.59
  -1  -9   1   17.28    1.68
   1   9  -1   16.47    0.92
   1   9  -1   15.81    1.60
  -1   9   1   16.26    1.42
   1  -9  -1   16.08    1.74
   0  -9  -1  154.41    6.27
   0  -9   1  165.16    5.94
   0  -9   1  158.83    6.40
   0  -9  -1  155.69    5.96
   0   9   1  165.40    5.41
   0   9   1  171.61    5.30
   0   9  -1  173.02    6.79
   0   9  -1  165.66    4.90
   1   9   1  139.14    4.52
  -1   9  -1  139.62    5.38
  -1  -9  -1  141.05    5.79
  -1   9  -1  135.56    4.61
   1   9   1  133.94    4.39
  -1  -9  -1  143.33    5.52
   1  -9   1  136.07    5.24
  -1   9  -1  136.39    6.14
   2   9   1   32.32    1.57
   2  -9   1   30.73    2.16
  -2   9  -1   35.04    2.11
  -2  -9  -1   25.10    2.07
   2   9   1   31.58    1.57
  -2   9  -1   36.91    2.13
  -2  -9  -1   29.65    2.39
  -3  -9  -1  210.30    7.28
   3  -9   1  196.50    6.87
  -3  -9  -1  210.30    7.86
  -3   9  -1  214.05    6.68
  -3   9  -1  202.95    6.88
  -3   9  -1  206.98    7.60
  -4  -9  -1  122.19    5.65
  -4   9  -1  110.88    4.90
  -4  -9  -1  122.19    5.13
  -4   9  -1  117.68    4.47
   4  -9   1  121.58    4.83
  -4   9  -1  119.87    5.52
  -5  -9  -1  145.51    6.55
  -5   9  -1  147.73    6.57
  -5   9  -1  148.41    6.16
   5  -9   1  154.62    5.71
  -5  -9  -1  156.29    6.15
  -5   9  -1  149.42    5.35
  -6  -9  -1  137.10    5.75
  -6   9  -1  139.27    6.68
  -6  -9  -1  138.18    5.97
   6  -9   1  144.15    5.49
  -7   9  -1    5.52    1.54
  -7  -9  -1    4.63    1.08
  -7  -9  -1    6.44    1.50
  -8  -9  -1  137.65    6.25
  -8  -9  -1  143.01    6.57
  -8 -10   1  124.69    5.67
  -8 -10   1  139.78    6.80
  -7  10   1   -0.34    0.98
  -7 -10   1    2.41    1.16
  -7 -10   1    0.56    0.60
  -7  10   1    1.23    1.10
  -6  10   1  164.85    7.53
  -6 -10   1  170.53    7.10
  -6  10   1  160.59    7.12
  -5  10   1  101.05    4.98
  -5  10   1   92.22    4.99
  -5 -10   1   94.84    4.93
  -4  10   1   95.91    4.58
  -4  10   1   88.86    4.60
  -4 -10   1   85.14    4.56
  -4 -10   1   87.37    4.43
  -3  10   1  233.76    8.00
  -3 -10   1  241.45    8.79
  -3 -10   1  240.76    8.31
  -3  10   1  245.60    8.41
   3  10  -1  240.13    8.37
   3 -10  -1  249.76    8.41
   2 -10  -1   34.20    2.51
  -2  10   1   36.44    2.44
  -2 -10   1   36.10    2.70
   2 -10  -1   35.76    2.90
  -2 -10   1   37.69    2.63
  -2  10   1   38.24    2.39
   2  10  -1   36.09    2.49
   1 -10  -1  352.54   11.52
  -1 -10   1  352.89   10.81
   1  10  -1  346.18   11.73
  -1  10   1  349.05    9.95
  -1  10   1  347.81   10.26
   1 -10  -1  353.63   10.95
  -1 -10   1  357.86   11.48
  -1  10   1  373.44   10.52
   0 -10  -1   86.13    4.54
   0  10   1   99.64    3.73
   0  10  -1   98.03    4.88
   0  10   1   95.29    3.82
   0  10  -1   93.00    3.30
   0 -10   1   86.79    4.58
   0 -10   1   89.88    4.24
   0 -10  -1   88.95    4.35
  -1 -10  -1  238.10    8.62
   1  10   1  230.96    6.88
   1  10   1  240.64    6.75
  -1  10  -1  227.41    6.90
   1 -10   1  224.24    7.80
  -1 -10  -1  223.79    7.98
  -1  10  -1  245.51    7.99
   2 -10   1  230.99    7.82
  -2 -10  -1  235.59    8.70
  -2  10  -1  240.19    8.25
  -2  10  -1  221.70    7.21
  -2 -10  -1  240.05    8.20
  -2  10  -1  232.20    7.47
   3 -10   1   57.22    3.22
  -3  10  -1   55.35    3.51
  -3  10  -1   58.09    3.12
  -3 -10  -1   57.05    3.41
  -3 -10  -1   58.72    3.72
  -3  10  -1   58.08    2.89
  -4  10  -1  201.45    6.75
  -4 -10  -1  203.61    8.27
   4 -10   1  221.34    7.44
  -4  10  -1  202.38    8.04
  -4 -10  -1  219.36    7.77
  -4  10  -1  201.85    7.37
  -5 -10  -1   20.97    2.18
  -5 -10  -1   20.96    2.03
   5 -10   1   17.75    1.67
  -5  10  -1   24.73    2.49
   6 -10   1   46.88    2.85
  -6  10  -1   45.24    3.83
  -6 -10  -1   48.27    3.35
  -6 -10  -1   45.51    3.26
  -7 -10  -1   36.29    3.09
  -7  10  -1   47.43    3.89
  -7 -10  -1   37.55    2.98
  -8 -10  -1   16.20    2.43
  -7 -11   1   48.23    3.75
  -7 -11   1   40.22    3.03
  -7  11   1   62.04    4.44
  -6  11   1    0.93    0.93
  -6  11   1    0.02    0.96
  -6 -11   1   -0.75    0.59
  -5  11   1  113.24    5.51
  -5  11   1  116.86    5.99
   5 -11  -1  110.59    5.31
  -5 -11   1  102.59    5.52
  -4 -11   1   70.84    4.19
   4 -11  -1   64.88    3.87
  -4  11   1   69.05    4.09
  -4 -11   1   70.14    4.07
  -4  11   1   68.85    3.90
  -3 -11   1   19.97    2.02
  -3 -11   1   23.71    2.19
   3 -11  -1   26.37    2.29
  -3  11   1   25.15    2.17
  -3  11   1   24.53    2.04
   2 -11  -1  109.25    5.16
  -2  11   1  112.94    4.74
   2  11  -1  118.88    5.31
   2 -11  -1  112.49    5.69
  -2 -11   1  113.30    5.52
  -2  11   1  116.01    5.03
  -2 -11   1  108.24    5.12
  -1  11   1   19.83    1.55
  -1 -11   1   15.71    1.96
   1 -11  -1   19.06    1.95
  -1  11   1   15.49    1.47
  -1 -11   1   17.80    1.89
   1  11  -1   16.30    1.72
   1 -11  -1   15.89    2.12
   0 -11   1   78.29    4.08
   0  11  -1   84.55    4.55
   0 -11  -1   73.00    4.10
   0  11   1   73.48    3.41
   0  11   1   83.24    3.40
   0  11  -1   76.81    4.44
   0 -11   1   68.09    4.16
  -1 -11  -1  129.68    5.79
   1 -11   1  132.98    5.64
  -1  11  -1  138.55    5.56
  -1  11  -1  135.19    5.69
  -1 -11  -1  136.87    6.27
   1 -11   1  133.46    6.35
  -2  11  -1   39.99    2.38
   2 -11   1   35.79    2.65
  -2  11  -1   39.84    2.88
  -2 -11  -1   39.76    2.91
  -2 -11  -1   34.84    2.89
  -2  11  -1   40.91    2.45
  -3  11  -1  113.83    5.54
  -3 -11  -1  107.86    5.64
   3 -11   1  117.87    5.13
  -3  11  -1  110.72    4.78
  -3 -11  -1  116.66    5.40
  -4 -11  -1  110.60    5.89
  -4 -11  -1  116.47    5.45
   4 -11   1  113.69    5.11
  -4  11  -1  113.01    5.81
  -5  11  -1  200.40    8.59
   5 -11   1  205.23    7.46
  -5 -11  -1  208.55    8.80
  -5 -11  -1  194.33    7.90
  -6  11  -1   54.03    4.31
  -6 -11  -1   57.89    3.77
  -6 -11  -1   58.22    3.95
  -7 -11  -1    3.61    1.36
  -6  12   1  111.85    5.99
   6 -12  -1  101.90    5.43
  -5  12   1   15.26    2.53
   5 -12  -1   14.97    2.27
  -5  12   1   14.45    2.35
  -5 -12   1   15.63    2.43
  -4  12   1   96.11    4.86
  -4 -12   1  102.23    5.64
  -4 -12   1   99.89    5.35
   4 -12  -1   98.68    5.24
  -4  12   1  100.97    5.44
  -3  12   1  109.30    5.25
   3 -12  -1  106.09    5.31
  -3 -12   1  103.09    5.60
  -3 -12   1  112.53    5.51
  -3  12   1  101.84    4.79
   3 -12  -1  106.15    6.03
  -2 -12   1    1.96    0.62
  -2 -12   1    0.71    0.65
   2 -12  -1   -0.04    0.80
  -2  12   1    0.65    0.37
   2 -12  -1    0.38    0.49
  -2  12   1    1.10    0.42
  -1  12   1  151.13    5.85
   1  12  -1  151.26    6.76
  -1 -12   1  151.75    6.91
   1 -12  -1  150.51    6.56
  -1 -12   1  147.26    6.36
   1 -12  -1  144.64    6.87
   0  12  -1   63.60    3.56
   0 -12  -1   70.81    4.40
   0  12  -1   55.13    3.76
   0 -12   1   66.91    4.26
   0 -12   1   68.06    3.94
   0 -12  -1   70.11    4.13
   1 -12   1  117.36    6.05
  -1 -12  -1  108.64    5.79
   1 -12   1  117.06    5.36
  -1 -12  -1  111.08    5.47
  -1  12  -1  101.51    5.04
  -1  12  -1  116.87    5.06
  -2  12  -1  196.92    7.63
   2 -12   1  182.67    8.51
  -2 -12  -1  180.73    8.08
   2 -12   1  187.07    7.31
  -2 -12  -1  183.00    7.55
  -3 -12  -1  126.15    6.07
  -3  12  -1  127.66    6.24
   3 -12   1  128.51    5.76
  -3 -12  -1  126.92    6.58
  -4 -12  -1  133.16    6.83
   4 -12   1  135.26    5.88
  -4  12  -1  119.31    6.36
  -4 -12  -1  136.86    6.36
  -5 -12  -1   19.63    2.83
  -5  12  -1   18.44    2.87
  -5 -12  -1   21.90    2.72
   5 -12   1   23.93    2.39
  -5  13   1   77.49    4.75
   5 -13  -1   78.48    4.78
  -4  13   1    4.38    1.35
  -4 -13   1    2.74    0.91
  -4 -13   1    2.66    1.29
   4 -13  -1    1.10    1.03
  -4  13   1    2.90    1.21
  -3  13   1    9.67    1.80
  -3 -13   1    9.65    2.05
   3 -13  -1   11.54    2.16
   3 -13  -1    9.11    2.09
  -3 -13   1    9.08    1.99
  -2 -13   1  111.45    5.75
  -2 -13   1  114.03    6.27
  -2  13   1  119.97    5.41
   2 -13  -1  115.42    5.92
   2 -13  -1  106.46    6.12
  -1 -13   1   24.42    3.03
   1 -13  -1   27.95    2.82
  -1 -13   1   28.50    2.79
   1 -13  -1   24.77    3.03
   0 -13  -1   29.21    3.08
   0 -13   1   27.20    2.91
   0 -13  -1   29.21    2.90
   0  13  -1   30.22    2.66
   0 -13   1   31.48    2.89
   0  13  -1   29.39    2.26
   1 -13   1  120.68    5.86
   1 -13   1  115.11    6.35
  -1 -13  -1  113.08    6.30
  -1  13  -1  122.31    5.69
  -1 -13  -1  116.29    5.99
   2 -13   1   46.14    4.02
  -2 -13  -1   49.18    3.76
   2 -13   1   42.96    3.40
  -2 -13  -1   42.40    3.70
  -2  13  -1   43.52    3.48
  -3 -13  -1  125.88    6.76
  -3  13  -1  131.79    6.54
   3 -13   1  123.18    5.98
   3 -13   1  113.74    7.02
  -3 -13  -1  129.70    6.36
  -4 -13  -1   55.12    4.12
   4 -13   1   56.91    3.85
  -3  14   1   35.95    3.15
   1 -14  -1   75.12    4.86
  -1 -14   1   78.57    4.84
   0 -14   1   39.15    3.38
   0 -14  -1   32.60    3.22
  -1  14  -1   60.07    3.98
   1 -14   1   58.85    4.15
   2 -14   1  159.98    7.25
  -2  14  -1  168.56    7.49
   3 -14   1   60.12    4.10
  -8   0   2    0.80    0.36
  -8   0   2    1.02    0.43
  -7   0   2  412.80   11.21
  -7   0   2  401.67   10.90
  -7   0   2  391.37   11.76
  -6   0   2  321.57    8.69
  -6   0   2  307.13    9.40
  -6   0   2  317.86    8.85
  -5   0   2  545.38   13.13
  -5   0   2  507.51   13.81
  -5   0   2  516.57   12.75
  -4   0   2 5956.41  131.17
  -4   0   2 5865.26  133.36
  -4   0   2 5733.75  126.83
   4   0  -2 5744.52  120.91
  -3   0   2  699.12   16.88
  -3   0   2  683.65   15.65
   3   0  -2  676.00   15.85
   3   0  -2  688.19   14.69
  -3   0   2  696.85   16.01
   2   0  -2  574.07   14.13
   2   0  -2  581.48   13.64
  -2   0   2  576.06   14.06
   2   0  -2  593.96   12.44
  -2   0   2  564.36   14.22
   1   0  -2  347.79    8.68
   1   0  -2  339.35    8.46
  -1   0   2  349.12    8.51
  -1   0   2  339.53    8.39
   1   0  -2  347.24    8.38
  -1   0   2  339.43    8.71
   0   0  -2  495.64   10.85
   0   0   2  516.73   12.08
   0   0  -2  503.35   11.87
   0   0  -2  502.54   12.08
   0   0   2  501.63   12.05
   0   0   2  500.21   10.82
  -1   0  -2 1641.83   41.69
  -1   0  -2 1783.68   46.01
  -1   0  -2 1689.78   37.03
   1   0   2 1780.48   36.32
   1   0   2 1815.34   40.05
  -2   0  -2 1075.90   26.22
   2   0   2 1128.57   28.08
  -2   0  -2 1086.62   28.16
  -2   0  -2 1068.22   24.89
   2   0   2 1072.36   25.64
  -3   0  -2  855.38   19.07
   3   0   2  902.61   22.67
  -3   0  -2  859.80   20.04
   3   0   2  841.69   19.63
  -3   0  -2  865.34   19.90
  -3   0  -2  838.05   20.23
  -4   0  -2  330.03    8.40
  -4   0  -2  315.11    8.36
   4   0   2  303.75    7.77
  -4   0  -2  339.49    8.11
  -4   0  -2  322.37    8.81
  -5   0  -2   41.23    2.01
  -5   0  -2   41.73    1.72
  -5   0  -2   37.32    2.20
  -5   0  -2   40.19    2.23
  -6   0  -2   89.11    3.92
  -6   0  -2   91.55    3.88
  -6   0  -2   88.19    3.50
  -7   0  -2  101.31    4.10
  -7   0  -2  106.15    4.65
  -7   0  -2  109.14    4.62
  -8   0  -2  147.79    5.39
  -8   0  -2  137.85    5.90
  -8   0  -2  142.87    5.84
  -9   0  -2   52.05    3.47
 -10   0  -2    9.81    2.03
  -8  -1   2  271.57    9.23
  -8  -1   2  280.05    7.93
  -8   1   2  279.50    8.37
  -8   1   2  270.25    8.81
  -8  -1   2  276.64    8.63
  -7  -1   2  176.37    6.56
  -7   1   2  184.10    6.33
  -7  -1   2  179.21    5.88
  -7  -1   2  177.19    5.47
  -7   1   2  184.78    5.86
  -7  -1   2  176.84    6.06
  -6   1   2  132.34    5.00
  -6   1   2  136.08    4.50
  -6  -1   2  129.12    5.03
  -6  -1   2  132.10    4.49
  -6   1   2  131.44    4.82
  -6  -1   2  134.35    4.70
  -6  -1   2  133.87    4.17
  -5  -1   2  541.23   14.44
  -5  -1   2  574.06   13.47
  -5   1   2  556.95   13.24
  -5  -1   2  552.49   13.49
  -5   1   2  530.69   13.74
  -5   1   2  525.02   14.07
  -5  -1   2  560.51   12.53
  -4  -1   2   98.38    3.73
  -4   1   2  100.85    3.70
  -4   1   2  102.63    3.57
  -4   1   2  105.30    3.27
  -4  -1   2   98.48    3.38
  -4  -1   2  100.84    3.24
   4   1  -2   99.69    3.27
  -4  -1   2   98.83    2.89
  -3  -1   2  322.66    8.67
  -3  -1   2  338.36    7.33
   3  -1  -2  313.27    7.76
  -3   1   2  334.07    7.93
  -3   1   2  325.74    8.54
  -3   1   2  322.43    8.31
  -3  -1   2  328.84    7.97
  -3  -1   2  322.45    8.06
   3  -1  -2  329.73    7.41
   3   1  -2  331.86    8.21
   3   1  -2  326.64    8.39
  -2  -1   2  496.08   12.28
   2  -1  -2  519.03   11.96
  -2  -1   2  486.69   12.26
   2  -1  -2  480.52   11.97
  -2  -1   2  520.81   10.91
   2   1  -2  514.07   12.12
  -2   1   2  494.32   11.93
  -2   1   2  492.39   12.62
   2   1  -2  503.73   12.18
  -2  -1   2  481.91   11.46
   2   1  -2  522.26   11.99
   2  -1  -2  487.16   12.50
   1  -1  -2   57.42    2.02
  -1   1   2   67.89    2.15
  -1  -1   2   70.05    2.08
   1   1  -2   68.77    2.06
   1  -1  -2   62.20    1.78
   1  -1  -2   59.84    2.18
   1  -1  -2   63.09    2.24
  -1  -1   2   60.62    2.01
  -1  -1   2   55.49    1.98
   1  -1  -2   56.90    1.82
  -1   1   2   65.40    2.25
   0   1   2 1389.45   33.15
   0  -1  -2 1397.85   33.68
   0  -1   2 1503.57   32.86
   0  -1   2 1412.71   33.59
   0  -1   2 1449.49   30.14
   0   1   2 1507.03   33.98
   0   1  -2 1512.57   32.80
   0   1  -2 1437.27   33.46
   0  -1  -2 1398.46   34.49
   0  -1   2 1452.18   33.88
   1   1   2  207.62    5.39
   1  -1   2  207.19    5.38
  -1   1  -2  203.60    4.97
  -1   1  -2  205.88    5.56
   1  -1   2  202.76    5.48
  -1  -1  -2  194.56    5.00
   1   1   2  211.88    5.68
  -1   1  -2  199.87    6.10
   1  -1   2  203.63    5.53
   1  -1   2  204.43    4.90
  -1  -1  -2  202.45    5.25
  -2   1  -2  433.02   10.91
  -2   1  -2  418.22    9.95
   2  -1   2  444.26   11.96
  -2  -1  -2  427.38   10.14
  -2  -1  -2  431.21   11.50
  -2   1  -2  436.64   12.02
  -2  -1  -2  432.41   10.55
  -2  -1  -2  418.89    9.89
  -3  -1  -2 1487.66   32.35
   3   1   2 1498.02   36.76
  -3  -1  -2 1411.76   32.88
  -3   1  -2 1407.87   30.88
  -3  -1  -2 1447.29   33.03
  -3   1  -2 1457.18   37.44
  -3  -1  -2 1429.81   30.81
   3  -1   2 1382.15   32.85
   3   1   2 1438.66   32.54
  -3   1  -2 1408.74   32.87
  -4  -1  -2  598.97   14.26
  -4  -1  -2  610.94   15.17
  -4   1  -2  597.53   15.05
  -4   1  -2  615.88   14.92
  -4   1  -2  598.06   14.35
   4   1   2  629.25   16.34
   4   1   2  598.29   14.29
   4  -1   2  584.08   14.19
  -4  -1  -2  620.67   14.40
  -4  -1  -2  619.51   14.66
  -5  -1  -2  868.27   19.94
  -5   1  -2  866.55   20.81
  -5   1  -2  837.64   19.96
  -5  -1  -2  847.79   21.12
  -5  -1  -2  889.62   20.27
  -5  -1  -2  879.71   20.67
  -5   1  -2  843.41   21.04
  -6   1  -2   15.46    1.67
  -6  -1  -2   12.12    0.97
  -6  -1  -2   15.01    1.12
  -6   1  -2   14.18    1.41
  -6  -1  -2   15.51    1.52
  -6   1  -2   12.87    1.21
  -6  -1  -2   13.95    1.59
  -7   1  -2  830.60   21.54
  -7   1  -2  845.35   20.62
  -7  -1  -2  876.70   20.61
  -7  -1  -2  849.65   20.79
  -7   1  -2  850.83   21.18
  -7  -1  -2  820.31   20.49
  -7  -1  -2  833.75   21.69
  -8   1  -2   51.83    3.19
  -8   1  -2   49.76    2.79
  -8  -1  -2   48.70    3.20
  -8  -1  -2   46.11    3.02
  -9   1  -2   45.15    3.19
  -9  -1  -2   48.38    3.39
  -9  -1  -2   43.61    3.23
 -10  -1  -2   83.20    5.00
 -10  -1  -2   81.68    4.74
 -10   1  -2   79.57    4.79
 -10  -2   2   29.33    2.58
  -9  -2   2  175.46    7.24
  -9  -2   2  181.85    6.14
  -9   2   2  189.21    7.25
  -8  -2   2   21.75    1.55
  -8  -2   2   22.14    2.01
  -8  -2   2   20.86    1.81
  -8   2   2   17.53    1.79
  -8   2   2   18.53    1.48
  -8   2   2   18.14    1.82
  -7  -2   2  649.96   15.24
  -7  -2   2  637.93   17.44
  -7  -2   2  645.20   16.41
  -7   2   2  628.87   17.14
  -7   2   2  643.73   15.76
  -7   2   2  646.22   16.90
  -6  -2   2  231.72    7.17
  -6  -2   2  239.78    7.75
  -6   2   2  237.97    7.69
  -6   2   2  233.94    7.48
  -6  -2   2  240.81    6.74
  -6  -2   2  248.81    6.54
  -6   2   2  239.42    6.77
  -5  -2   2  433.91   11.25
  -5   2   2  439.50   10.77
  -5  -2   2  443.65   10.82
  -5   2   2  431.20   11.62
  -5  -2   2  439.36   12.00
  -5   2   2  437.76   11.83
  -5  -2   2  452.65   10.35
  -4  -2   2 1924.93   42.50
  -4  -2   2 2001.54   42.79
  -4  -2   2 1875.49   45.02
  -4   2   2 1956.17   44.14
  -4   2   2 1890.10   43.48
  -4  -2   2 1996.28   40.51
   4  -2  -2 1885.80   42.97
  -4   2   2 1960.32   42.08
   4   2  -2 1905.45   45.28
   3  -2  -2  116.30    3.10
  -3  -2   2  123.36    3.29
  -3  -2   2  120.69    3.95
  -3   2   2  122.48    4.01
   3   2  -2  117.59    3.41
   3   2  -2  124.52    3.55
  -3  -2   2  125.33    3.19
  -3   2   2  120.13    3.92
  -3  -2   2  118.78    3.71
  -2   2   2  575.48   14.96
  -2   2   2  595.26   14.17
  -2  -2   2  581.35   14.36
  -2  -2   2  610.38   14.39
   2  -2  -2  627.90   14.17
  -2   2   2  584.71   14.03
  -2  -2   2  577.59   13.55
  -2  -2   2  597.70   14.37
   2   2  -2  592.64   14.29
   1  -2  -2  103.06    2.69
  -1  -2   2  101.59    2.94
   1  -2  -2  104.70    3.12
   1   2  -2  117.81    3.14
   1  -2  -2  103.20    3.18
  -1   2   2  116.27    3.20
   1   2  -2  112.80    3.16
  -1  -2   2   99.38    3.08
   0  -2   2 1027.53   23.81
   0   2   2 1084.12   24.14
   0   2  -2 1031.86   27.33
   0  -2   2 1011.25   23.84
   0  -2  -2 1051.56   23.49
   0   2   2 1111.54   24.94
   0   2  -2 1035.23   23.83
   0  -2  -2 1045.80   23.58
   0   2  -2 1075.95   23.78
   0   2   2 1011.17   25.07
   0   2  -2 1007.14   24.66
   1  -2   2  190.63    4.78
  -1  -2  -2  195.12    4.72
  -1   2  -2  209.15    6.26
  -1  -2  -2  190.94    5.10
  -1   2  -2  197.43    5.49
   1   2   2  215.43    5.76
   1  -2   2  190.03    4.81
   1   2   2  203.23    5.12
  -1  -2  -2  193.32    5.57
  -1  -2  -2  184.54    5.04
   1  -2   2  197.28    6.14
   1  -2   2  192.88    4.99
  -2   2  -2   51.61    2.46
  -2  -2  -2   49.91    2.03
  -2  -2  -2   54.20    2.04
  -2   2  -2   48.82    2.13
  -2  -2  -2   50.45    1.80
   2  -2   2   57.87    1.56
  -3  -2  -2 1015.35   22.55
  -3  -2  -2 1054.57   23.34
   3   2   2 1029.95   23.69
   3   2   2 1055.22   26.46
   3  -2   2 1020.44   23.70
  -3  -2  -2 1016.92   24.05
  -3  -2  -2 1062.34   23.82
  -3   2  -2 1015.87   27.52
  -3   2  -2  991.97   24.66
   4   2   2  142.89    4.30
   4  -2   2  137.91    3.79
  -4  -2  -2  145.21    3.81
  -4   2  -2  138.28    4.69
  -4   2  -2  139.22    4.64
  -4  -2  -2  141.91    4.16
  -4  -2  -2  135.07    4.43
  -4  -2  -2  131.51    4.64
  -5   2  -2  352.50   10.02
   5   2   2  364.34   10.22
  -5  -2  -2  357.86    9.64
  -5  -2  -2  373.81    9.63
  -5  -2  -2  357.32   10.18
  -5   2  -2  361.33   10.08
  -5  -2  -2  377.60    9.07
  -6   2  -2  183.22    6.09
  -6   2  -2  178.21    6.05
  -6  -2  -2  170.27    5.43
  -6  -2  -2  163.69    5.75
  -6  -2  -2  164.02    4.99
  -7  -2  -2    5.72    0.88
  -7  -2  -2    5.21    1.08
  -7   2  -2    4.58    1.01
  -7   2  -2    5.49    1.03
  -7  -2  -2    5.03    1.13
  -8  -2  -2   94.70    4.56
  -8   2  -2   97.80    4.63
  -8  -2  -2   97.55    4.82
  -8   2  -2  101.01    4.57
  -9  -2  -2   77.66    4.57
  -9   2  -2   68.19    4.00
  -9   2  -2   76.09    4.00
  -9  -2  -2   76.51    4.39
 -10  -2  -2   39.42    3.24
 -10   2  -2   32.60    2.94
 -10  -3   2   78.43    4.71
  -9  -3   2    0.19    0.30
  -9   3   2    0.22    0.37
  -9  -3   2    0.21    0.36
  -9   3   2   -0.17    0.39
  -8   3   2  266.82    7.63
  -8   3   2  255.80    8.94
  -8  -3   2  264.37    7.62
  -8   3   2  250.75    8.76
  -8  -3   2  234.90    8.75
  -7   3   2   97.52    4.58
  -7  -3   2   98.94    4.59
  -7  -3   2   99.67    4.33
  -7  -3   2  100.29    3.75
  -7   3   2  102.50    4.60
  -7   3   2  104.93    3.77
  -6   3   2   36.55    2.40
  -6  -3   2   32.92    2.19
  -6  -3   2   37.66    1.90
  -6   3   2   38.03    2.48
  -6  -3   2   37.27    2.41
  -6   3   2   44.38    2.00
  -5  -3   2  247.14    7.26
  -5   3   2  252.26    6.60
  -5  -3   2  248.18    6.47
  -5   3   2  247.40    7.61
  -5   3   2  249.83    6.44
  -5  -3   2  251.98    7.68
  -4   3   2  161.42    4.16
  -4   3   2  160.80    5.27
  -4  -3   2  161.11    4.16
  -4  -3   2  169.79    4.42
  -4  -3   2  156.83    5.17
   4  -3  -2  155.70    4.25
   4   3  -2  156.27    4.36
  -4   3   2  165.15    4.45
  -4  -3   2  159.30    4.98
   3  -3  -2  618.71   14.77
   3   3  -2  633.02   15.43
  -3  -3   2  641.13   14.31
   3   3  -2  631.15   15.07
  -3  -3   2  631.76   14.78
  -3   3   2  639.29   14.92
  -3  -3   2  623.25   15.55
  -3   3   2  635.13   15.48
  -3   3   2  632.35   15.33
  -3  -3   2  606.56   15.51
  -2   3   2  731.26   16.97
   2  -3  -2  737.33   17.24
  -2   3   2  706.52   18.12
  -2  -3   2  723.83   17.80
  -2  -3   2  721.04   17.39
  -2   3   2  716.66   17.13
  -2  -3   2  721.94   16.43
  -2  -3   2  720.07   17.52
  -1  -3   2   37.76    1.47
  -1   3   2   39.60    1.62
  -1  -3   2   37.41    1.58
   1   3  -2   41.36    1.56
   1  -3  -2   39.76    1.66
  -1   3   2   39.57    1.78
   1  -3  -2   39.25    1.74
  -1   3   2   39.41    1.85
   0  -3   2 1655.43   36.37
   0   3  -2 1711.16   38.19
   0  -3  -2 1681.19   37.64
   0  -3   2 1691.06   38.22
   0   3  -2 1567.19   39.26
   0  -3   2 1655.82   37.05
   0   3   2 1676.05   37.63
   0  -3  -2 1774.82   37.57
   0   3  -2 1729.55   37.87
   0   3   2 1793.65   37.54
   0   3  -2 1581.21   43.42
   0  -3  -2 1686.30   39.79
   0   3   2 1684.57   39.91
   1   3   2  387.10   10.11
  -1  -3  -2  386.34    9.57
   1  -3   2  386.81    9.29
  -1  -3  -2  394.80    9.40
  -1   3  -2  385.75   11.25
  -1  -3  -2  385.29   10.20
  -1   3  -2  373.84    9.89
   1  -3   2  380.07    9.09
  -2  -3  -2  592.86   15.41
  -2  -3  -2  611.60   14.48
  -2  -3  -2  608.26   14.47
   2  -3   2  604.39   14.01
   2  -3   2  590.04   14.06
  -2   3  -2  607.85   16.91
  -2   3  -2  602.65   14.99
  -3   3  -2  330.26   10.21
  -3  -3  -2  321.28    8.67
  -3  -3  -2  320.67    8.22
  -3  -3  -2  328.76    8.37
  -3   3  -2  320.02    8.87
   4   3   2  539.94   13.57
  -4  -3  -2  518.27   12.93
   4  -3   2  519.33   11.76
  -4   3  -2  522.82   13.44
  -4  -3  -2  512.33   12.54
  -4   3  -2  501.57   13.10
   4  -3   2  501.51   12.45
  -5   3  -2  817.34   20.89
  -5   3  -2  835.16   20.66
  -5  -3  -2  861.36   20.99
  -5  -3  -2  832.28   19.61
  -5  -3  -2  871.45   20.59
  -6  -3  -2   19.28    1.38
  -6  -3  -2   18.80    1.73
  -6   3  -2   18.69    1.61
  -6  -3  -2   21.11    1.71
  -6   3  -2   18.34    1.63
  -7  -3  -2  753.62   20.18
  -7  -3  -2  743.16   18.93
  -7   3  -2  766.47   20.12
  -7  -3  -2  803.97   19.65
  -7   3  -2  764.64   19.81
  -8   3  -2   60.71    3.50
  -8  -3  -2   69.02    3.99
  -8  -3  -2   71.18    3.81
  -8   3  -2   62.72    3.60
  -9   3  -2   29.28    2.38
  -9  -3  -2   35.97    2.92
  -9   3  -2   32.39    2.53
 -10   3  -2  122.08    5.96
 -11  -4   2   36.17    3.35
 -10  -4   2   92.98    5.37
  -9   4   2  182.06    7.50
  -9  -4   2  180.94    7.50
  -9  -4   2  178.59    6.19
  -9   4   2  175.06    7.51
  -8  -4   2    8.36    1.14
  -8   4   2    9.19    1.07
  -8   4   2    7.85    1.44
  -8   4   2    7.95    1.53
  -8  -4   2    7.25    1.39
  -7   4   2  580.21   16.25
  -7  -4   2  593.95   15.78
  -7   4   2  582.19   16.50
  -7  -4   2  603.50   14.50
  -7  -4   2  586.82   16.57
  -7   4   2  623.77   14.54
  -6  -4   2  291.34    9.08
  -6   4   2  290.84    7.53
  -6   4   2  275.84    9.09
  -6   4   2  294.69    7.62
  -6  -4   2  286.98    8.66
  -6   4   2  288.55    9.07
  -6  -4   2  291.35    7.75
  -5  -4   2  119.61    4.57
   5   4  -2  116.16    3.41
  -5  -4   2  121.28    3.86
  -5   4   2  117.43    3.42
  -5   4   2  116.08    4.69
  -5   4   2  127.79    4.83
  -5  -4   2  121.07    4.45
  -5   4   2  120.19    3.65
  -4   4   2  401.31   11.06
  -4   4   2  405.76    9.61
  -4   4   2  406.18    9.47
  -4  -4   2  398.56   10.92
  -4   4   2  410.59   10.98
  -4  -4   2  407.72   10.50
   4  -4  -2  401.33    9.74
  -3  -4   2  166.40    5.03
  -3   4   2  167.34    4.66
  -3  -4   2  171.25    5.18
  -3  -4   2  170.62    5.30
  -2   4   2 1845.02   42.22
  -2  -4   2 1878.87   40.70
  -2  -4   2 1853.57   43.94
  -2   4   2 1845.15   42.17
  -2  -4   2 1895.87   42.70
   1  -4  -2  548.91   14.14
   1   4  -2  565.74   15.54
   1   4  -2  577.75   12.65
  -1   4   2  547.19   13.24
  -1  -4   2  567.11   12.57
  -1  -4   2  537.10   13.44
  -1  -4   2  536.67   12.68
  -1   4   2  564.08   12.65
  -1   4   2  538.70   14.21
   0  -4   2  896.91   21.45
   0   4  -2  937.67   24.73
   0   4   2  922.51   20.95
   0   4   2  903.55   22.48
   0  -4  -2  905.39   22.52
   0  -4   2  902.34   20.69
   0  -4   2  872.37   20.15
   0   4  -2  925.16   20.97
   0  -4  -2  977.20   24.01
   0   4   2  945.42   20.82
  -1  -4  -2  249.13    6.17
  -1   4  -2  229.12    5.78
  -1   4  -2  212.90    6.56
   1   4   2  222.15    5.59
   1   4   2  214.40    6.57
  -1  -4  -2  257.57    6.49
   1  -4   2  238.90    6.18
   1  -4   2  240.11    5.46
  -1  -4  -2  247.59    6.99
  -1  -4  -2  237.39    6.45
  -1   4  -2  226.46    7.64
   2   4   2  171.62    5.24
  -2   4  -2  167.60    5.22
  -2   4  -2  165.28    6.10
  -2  -4  -2  171.13    4.98
   2  -4   2  163.27    4.62
  -2  -4  -2  167.17    5.55
  -2  -4  -2  175.37    5.06
   3  -4   2  623.78   13.50
  -3   4  -2  606.66   17.76
  -3   4  -2  607.74   15.51
  -3  -4  -2  610.24   15.15
  -3  -4  -2  623.29   15.09
   3  -4   2  603.33   14.19
  -4   4  -2  148.18    4.94
   4  -4   2  134.01    3.46
  -4  -4  -2  139.76    4.53
  -4   4  -2  142.70    5.12
  -4  -4  -2  136.40    4.85
  -4  -4  -2  138.44    4.69
  -5  -4  -2  257.91    7.97
  -5  -4  -2  247.61    7.46
  -5   4  -2  245.84    8.05
  -5   4  -2  256.97    7.69
  -5  -4  -2  263.45    7.48
  -6  -4  -2  196.18    6.57
  -6   4  -2  210.23    6.76
  -6   4  -2  200.55    7.05
  -6  -4  -2  180.44    6.79
  -6  -4  -2  202.37    6.41
  -7   4  -2   22.15    1.87
  -7  -4  -2   18.79    1.77
  -7  -4  -2   24.17    2.14
  -7  -4  -2   24.24    1.73
  -7   4  -2   24.11    2.08
  -8  -4  -2   52.40    3.25
  -8   4  -2   52.33    3.14
  -8   4  -2   51.43    3.32
  -9  -4  -2   15.94    2.28
  -9   4  -2   14.83    1.90
  -9   4  -2   17.68    2.38
 -10   4  -2   27.52    2.70
 -10   4  -2   27.08    2.71
 -10  -5   2   48.56    3.87
 -10   5   2   48.42    3.88
 -10   5   2   47.28    3.89
  -9  -5   2    4.20    1.05
  -9   5   2    2.45    1.12
  -9  -5   2    4.07    0.73
  -9   5   2    5.03    1.51
  -8   5   2  124.94    5.82
  -8  -5   2  121.62    4.63
  -8  -5   2  119.49    5.65
  -8   5   2  123.34    5.81
  -7  -5   2   76.66    3.28
  -7   5   2   76.74    4.17
  -7  -5   2   74.45    3.98
  -7   5   2   74.74    4.09
  -6   5   2   88.85    4.30
  -6   5   2   92.08    2.92
  -6  -5   2   87.94    4.13
  -6  -5   2   86.70    3.40
  -6   5   2   91.80    3.06
  -6  -5   2   85.27    3.97
  -6   5   2   89.88    4.33
  -5  -5   2  139.65    5.11
  -5  -5   2  130.35    4.86
  -5   5   2  137.32    3.91
  -5   5   2  127.61    5.15
  -5   5   2  131.46    5.23
  -5   5   2  130.71    3.64
  -5  -5   2  132.58    4.28
  -4  -5   2  127.02    4.56
  -4   5   2  129.44    4.85
  -4  -5   2  125.53    4.48
  -4   5   2  130.79    3.30
  -4   5   2  130.99    3.65
  -4   5   2  124.09    4.75
  -3   5   2  273.02    6.93
  -3   5   2  269.03    7.83
  -3   5   2  262.68    7.81
  -3  -5   2  264.68    7.76
  -3  -5   2  271.12    7.37
  -2  -5   2 1215.32   28.26
  -2   5   2 1192.68   27.93
  -2   5   2 1226.50   28.34
  -2   5   2 1206.33   27.20
  -2   5   2 1186.61   27.66
  -2  -5   2 1201.75   29.08
  -2  -5   2 1223.39   26.88
   2   5  -2 1196.43   31.87
  -2   5   2 1148.81   27.68
  -1   5   2  249.39    6.69
  -1  -5   2  236.24    6.81
  -1   5   2  250.77    7.34
   1   5  -2  252.22    8.04
  -1   5   2  248.85    5.94
  -1  -5   2  247.50    6.28
  -1  -5   2  243.96    5.92
   1  -5  -2  240.90    7.30
   0   5  -2  662.46   18.80
   0  -5   2  684.02   15.50
   0   5  -2  680.66   15.57
   0   5   2  654.62   16.94
   0  -5  -2  724.21   18.03
   0   5   2  661.83   15.66
   0   5   2  662.88   15.47
   0  -5   2  653.24   15.00
   0  -5   2  659.30   16.22
   0  -5  -2  661.87   17.15
   1   5   2   24.65    1.01
  -1  -5  -2   23.97    1.66
  -1  -5  -2   25.23    1.22
  -1   5  -2   24.73    1.64
   1   5   2   32.39    1.65
  -1   5  -2   24.40    1.88
   1  -5   2   25.00    0.90
   1  -5   2   26.48    1.41
  -1   5  -2   26.40    0.99
  -1  -5  -2   21.84    1.44
  -2  -5  -2  559.64   15.00
  -2   5  -2  562.95   16.51
   2  -5   2  564.43   13.68
  -2   5  -2  556.88   14.32
   2   5   2  554.55   14.40
  -2  -5  -2  565.83   14.14
  -3  -5  -2  334.00    9.94
   3   5   2  330.15    9.26
   3  -5   2  329.90    8.59
  -3   5  -2  330.15    9.27
  -3  -5  -2  336.96    9.11
  -4  -5  -2  489.18   12.55
  -4   5  -2  474.88   13.15
  -4  -5  -2  473.34   12.14
  -4   5  -2  478.17   12.85
  -5   5  -2  402.78   12.00
  -5   5  -2  405.47   11.30
  -5  -5  -2  442.75   11.49
  -5  -5  -2  409.82   11.07
  -6  -5  -2   16.45    1.39
  -6   5  -2   12.95    1.33
  -6  -5  -2   17.20    1.60
  -6   5  -2   14.71    1.84
  -7  -5  -2  288.41    9.32
  -7   5  -2  309.90   10.23
  -7   5  -2  300.61    9.41
  -7  -5  -2  312.59    9.43
  -8   5  -2   89.12    4.75
  -8  -5  -2   83.63    4.42
  -8   5  -2   86.11    4.22
  -9  -5  -2  104.11    5.32
  -9   5  -2  107.57    5.02
  -9   5  -2   97.80    5.43
 -10  -6   2  119.88    6.52
  -9  -6   2  148.86    6.98
  -9   6   2  150.16    7.16
  -9   6   2  141.01    6.95
  -8   6   2    9.76    1.80
  -8  -6   2   11.07    1.40
  -8   6   2   10.44    1.84
  -8  -6   2   12.53    1.96
  -7  -6   2  311.65   10.48
  -7   6   2  336.15   10.76
  -7   6   2  329.47   10.79
  -7  -6   2  310.92    8.97
  -6  -6   2  275.83    7.66
  -6   6   2  256.67    8.94
  -6   6   2  266.18    8.94
  -6  -6   2  258.68    8.70
  -5   6   2  110.95    3.28
  -5   6   2   97.40    4.52
  -5   6   2  112.87    3.08
  -5  -6   2  114.49    4.61
  -5   6   2  104.36    4.69
  -5  -6   2  114.52    4.51
  -4   6   2  321.49    9.51
  -4  -6   2  306.22    9.33
  -4  -6   2  312.01    8.90
  -4   6   2  332.26    7.74
  -4  -6   2  302.82    9.34
  -4   6   2  326.07    9.53
  -4   6   2  325.73    7.51
  -3   6   2   22.32    1.68
  -3   6   2   22.40    1.72
  -3  -6   2   23.13    1.54
  -3  -6   2   21.44    1.57
   3   6  -2   22.62    1.74
  -3   6   2   21.67    1.14
  -3  -6   2   21.51    1.62
  -2  -6   2 1158.94   25.44
  -2   6   2 1116.42   25.15
   2   6  -2 1111.41   30.22
  -2  -6   2 1119.60   26.83
  -2  -6   2 1151.65   27.75
  -2   6   2 1065.76   26.23
  -2   6   2 1142.47   26.07
  -2   6   2 1146.25   26.53
  -2   6   2 1103.50   26.08
  -1  -6   2  329.29    8.25
   1   6  -2  332.16   10.43
  -1  -6   2  348.48    8.43
  -1   6   2  343.59    8.00
  -1  -6   2  326.23    9.05
  -1   6   2  328.69    8.76
  -1  -6   2  323.41    9.51
   1  -6  -2  329.95    9.66
  -1   6   2  329.95    9.51
   0   6  -2  438.09   10.03
   0  -6  -2  408.97   11.54
   0  -6   2  412.84   10.80
   0  -6  -2  399.16   11.01
   0   6   2  410.19   10.22
   0  -6   2  421.87    9.69
   0   6  -2  407.24   12.64
   0   6   2  408.75   11.21
  -1   6  -2  352.24    8.20
   1   6   2  343.24    9.52
  -1  -6  -2  372.53    9.71
  -1   6  -2  348.04    9.73
   1   6   2  338.09    8.37
  -1   6  -2  342.45   11.10
   1  -6   2  342.52    9.21
  -1  -6  -2  331.18   10.03
  -1  -6  -2  337.48    9.49
   2  -6   2  163.00    5.07
  -2   6  -2  166.63    6.61
  -2   6  -2  171.91    5.47
  -2  -6  -2  165.74    5.95
   2   6   2  171.15    5.31
  -2  -6  -2  158.34    5.38
  -3   6  -2  298.58    8.72
   3  -6   2  307.63    8.21
  -3  -6  -2  309.92    8.73
  -3  -6  -2  303.65    9.50
   3   6   2  299.48    8.58
  -3   6  -2  294.23   10.46
  -4   6  -2  224.13    7.57
  -4   6  -2  225.45    7.03
   4  -6   2  218.44    6.40
  -4  -6  -2  212.14    6.83
   4   6   2  227.60    6.87
  -5   6  -2   54.50    2.82
  -5   6  -2   58.28    3.41
  -5  -6  -2   59.31    3.09
  -5  -6  -2   62.09    2.96
  -6  -6  -2  277.14    8.68
  -6   6  -2  276.80    9.50
  -6  -6  -2  283.18    8.79
  -6   6  -2  278.77    8.58
  -7  -6  -2    6.25    1.21
  -7  -6  -2    6.86    1.19
  -7   6  -2    6.88    1.37
  -7   6  -2    6.34    1.11
  -8  -6  -2   72.90    4.18
  -8   6  -2   68.44    4.46
  -8   6  -2   68.11    3.64
  -9   6  -2   -0.13    0.56
  -9  -6  -2    1.31    0.75
  -9  -7   2   25.21    3.02
  -9   7   2   21.67    3.07
  -9   7   2   24.80    3.11
  -8   7   2   77.97    4.88
  -8   7   2   88.06    5.06
  -8  -7   2   73.84    3.55
  -8  -7   2   72.37    4.40
  -7  -7   2    6.10    1.07
  -7   7   2    5.35    1.26
  -7   7   2    6.81    1.48
  -7  -7   2    4.15    1.09
  -6  -7   2   24.75    1.74
  -6  -7   2   23.93    2.12
  -6   7   2   24.85    2.25
  -6   7   2   24.15    2.29
  -5   7   2  418.40   12.30
  -5   7   2  417.92   12.35
  -5  -7   2  430.41   12.33
  -5  -7   2  407.59   12.22
  -4  -7   2   65.69    3.28
  -4  -7   2   61.84    3.19
  -4   7   2   66.78    2.14
  -4   7   2   60.22    3.31
   4   7  -2   63.46    3.29
  -4   7   2   61.33    3.30
  -3   7   2  156.38    3.98
  -3   7   2  148.54    5.47
   3   7  -2  151.98    5.91
  -3   7   2  145.36    5.41
  -3  -7   2  159.04    5.52
  -3  -7   2  152.30    5.54
  -3   7   2  158.66    4.43
  -2   7   2  307.49    7.47
  -2   7   2  314.35    8.25
  -2   7   2  315.32    7.80
  -2  -7   2  331.11    9.12
  -2   7   2  316.80    8.97
  -2  -7   2  311.27    9.32
  -2   7   2  304.77    8.82
   2   7  -2  300.15    9.99
  -1   7   2  120.66    4.06
  -1  -7   2  103.61    4.13
   1   7  -2  127.88    5.12
   1  -7  -2  113.95    4.64
  -1  -7   2  109.45    4.48
  -1   7   2  121.90    4.25
  -1  -7   2  114.05    3.44
   0   7   2  667.77   16.29
   0  -7  -2  704.89   18.24
   0   7  -2  703.26   19.83
   0  -7  -2  665.88   17.36
   0   7   2  675.80   17.66
   0  -7   2  684.44   17.12
  -1   7  -2   34.94    2.24
   1   7   2   32.40    1.91
  -1   7  -2   38.26    2.69
   1   7   2   36.35    1.53
   1  -7   2   33.36    1.94
  -1   7  -2   35.70    1.26
  -1  -7  -2   39.13    1.90
  -1  -7  -2   43.30    2.55
  -1  -7  -2   33.98    2.15
  -2  -7  -2  879.29   22.05
   2   7   2  885.67   22.14
   2   7   2  873.09   20.08
  -2   7  -2  892.46   25.48
   2  -7   2  908.92   21.59
  -2  -7  -2  901.85   23.26
  -2   7  -2  877.73   22.07
   3   7   2   85.08    3.34
   3  -7   2   86.16    3.35
  -3   7  -2   81.83    3.53
  -3  -7  -2   85.95    3.71
  -3  -7  -2   85.24    4.16
  -4  -7  -2  142.15    5.95
   4  -7   2  136.30    4.77
   4   7   2  153.19    5.01
  -4   7  -2  145.64    5.24
  -4   7  -2  155.65    6.02
  -4  -7  -2  137.53    5.23
   5  -7   2  331.30    9.09
  -5  -7  -2  340.07    9.83
   5   7   2  315.35    9.33
  -5   7  -2  313.20   10.47
  -5  -7  -2  313.11    9.52
  -6  -7  -2    2.06    0.63
  -6   7  -2    2.43    0.71
  -6  -7  -2    1.76    0.59
  -6   7  -2    1.71    0.40
  -7  -7  -2  186.72    7.05
  -7   7  -2  187.15    7.84
  -7  -7  -2  195.20    7.04
  -7   7  -2  183.21    6.68
  -8   7  -2   25.39    3.02
  -8  -7  -2   22.98    2.65
  -9  -8   2  119.68    6.48
  -8  -8   2    3.48    0.51
  -8  -8   2    5.33    1.57
  -8   8   2    3.86    1.39
  -8   8   2    2.52    1.43
  -7   8   2  206.41    8.29
  -7  -8   2  201.83    7.99
  -7  -8   2  218.07    7.04
  -7   8   2  203.48    8.36
  -6   8   2   86.00    4.62
  -6   8   2   94.61    4.85
  -6  -8   2   87.08    4.43
  -6  -8   2   84.60    3.77
  -5   8   2  141.24    5.98
  -5  -8   2  149.69    5.91
   5   8  -2  143.30    5.81
  -5   8   2  147.20    6.09
  -5  -8   2  154.76    6.02
  -4  -8   2  179.24    6.64
  -4   8   2  182.89    6.75
   4   8  -2  188.60    6.92
  -4   8   2  182.92    6.68
  -3   8   2  101.57    4.38
  -3   8   2  101.45    4.42
  -3   8   2  109.14    3.32
   3   8  -2  102.90    4.64
  -3  -8   2  105.56    4.54
  -3  -8   2  103.56    4.39
   2  -8  -2  556.53   16.00
  -2  -8   2  539.08   14.92
  -2   8   2  576.00   14.01
  -2  -8   2  564.76   15.61
  -2   8   2  574.51   14.78
  -2   8   2  548.82   14.64
   2   8  -2  568.50   16.82
  -2   8   2  589.04   13.75
   1  -8  -2  183.53    6.46
  -1   8   2  199.27    6.15
  -1   8   2  187.96    5.89
  -1  -8   2  185.48    6.65
  -1  -8   2  189.31    6.30
   1   8  -2  191.70    7.25
   1  -8  -2  181.58    6.70
   0   8  -2  486.70   15.18
   0  -8  -2  478.02   13.95
   0   8   2  483.11   12.25
   0  -8   2  504.28   13.14
   0  -8  -2  492.81   13.42
   0   8   2  482.88   12.52
   1  -8   2  199.02    6.38
  -1  -8  -2  190.40    7.02
  -1   8  -2  197.92    7.77
  -1   8  -2  207.06    6.82
   1   8   2  199.32    5.46
  -1  -8  -2  187.96    6.57
   1   8   2  192.54    6.29
   2   8   2   49.99    2.44
   2  -8   2   51.85    2.62
   2   8   2   48.42    1.71
  -2   8  -2   56.41    3.65
  -2  -8  -2   48.38    3.04
  -2  -8  -2   51.84    2.87
  -2   8  -2   49.56    2.64
   3   8   2  180.62    5.67
   3  -8   2  177.38    5.83
  -3  -8  -2  171.28    6.80
  -3   8  -2  170.62    5.94
  -3  -8  -2  171.02    6.18
  -3   8  -2  168.00    7.57
   4   8   2   62.76    2.70
  -4  -8  -2   53.25    3.03
  -4   8  -2   65.92    3.14
  -4  -8  -2   56.31    3.54
  -4   8  -2   62.30    3.68
   4  -8   2   55.14    2.76
  -5   8  -2   49.18    2.77
  -5   8  -2   40.63    3.11
  -5  -8  -2   53.61    3.11
  -5  -8  -2   51.63    2.99
   5  -8   2   50.82    2.56
  -6   8  -2   83.37    3.81
  -6  -8  -2   81.59    4.08
  -6  -8  -2   83.61    4.22
  -6   8  -2   79.62    4.63
  -7   8  -2    1.50    0.55
  -7   8  -2    1.89    1.20
  -7  -8  -2    1.08    0.78
  -7  -8  -2    1.73    0.48
  -8  -8  -2   87.72    4.83
  -8   8  -2   89.65    5.50
  -8   9   2   72.87    4.96
  -8  -9   2   68.70    4.60
  -8   9   2   71.60    4.91
  -7  -9   2    4.79    1.44
  -7  -9   2    3.76    0.74
  -7   9   2    2.71    1.41
  -7   9   2    3.92    1.50
  -6  -9   2   49.14    2.76
  -6  -9   2   47.94    3.25
  -6   9   2   40.58    3.14
  -6   9   2   45.92    3.35
  -5   9   2  263.24    9.32
  -5  -9   2  270.53    9.28
  -5  -9   2  255.57    9.17
  -5   9   2  294.40    9.58
  -4   9   2   94.93    4.59
   4   9  -2   99.42    4.56
  -4   9   2   95.45    4.60
  -4  -9   2   93.01    4.41
  -4  -9   2   90.50    4.44
  -3  -9   2  178.16    6.48
  -3   9   2  177.55    6.46
   3   9  -2  175.32    6.88
  -3  -9   2  164.60    6.57
  -3   9   2  186.58    6.58
  -2   9   2  206.54    5.92
   2   9  -2  196.59    7.61
  -2  -9   2  211.97    7.39
   2  -9  -2  199.32    7.12
  -2  -9   2  199.86    6.94
  -2   9   2  195.97    6.66
   2  -9  -2  201.26    7.53
  -2   9   2  195.84    6.73
  -1   9   2    1.53    0.56
   1  -9  -2    1.11    0.57
   1  -9  -2    3.38    0.92
  -1   9   2    2.17    0.54
  -1  -9   2    1.32    0.55
   1   9  -2    1.47    0.56
  -1  -9   2    0.47    0.40
   0   9   2  466.11   11.90
   0   9  -2  470.56   14.86
   0  -9  -2  443.11   13.64
   0   9  -2  458.92   13.70
   0   9   2  476.69   12.21
   0  -9   2  456.52   13.97
   0  -9   2  457.11   12.80
   1   9   2   42.16    1.89
  -1  -9  -2   41.69    2.71
   1  -9   2   40.31    2.47
  -1  -9  -2   45.59    2.98
  -1   9  -2   41.30    3.12
  -1   9  -2   44.29    2.78
   2   9   2  448.66   12.35
  -2  -9  -2  460.82   13.05
   2  -9   2  466.14   12.59
  -2   9  -2  446.98   12.64
  -2   9  -2  449.34   15.14
  -2  -9  -2  438.41   13.68
  -3  -9  -2  157.08    6.57
  -3   9  -2  142.54    5.44
   3  -9   2  156.91    5.52
  -3  -9  -2  151.63    5.92
   3   9   2  146.25    5.04
  -4   9  -2   64.16    3.24
  -4  -9  -2   67.76    3.60
  -4  -9  -2   64.46    3.97
   4  -9   2   64.01    3.18
  -4   9  -2   69.11    4.08
  -5   9  -2  221.96    7.54
  -5   9  -2  224.61    8.75
   5  -9   2  227.38    7.28
  -5  -9  -2  223.74    7.90
  -6  -9  -2   16.21    2.21
  -6   9  -2   18.04    2.62
  -6  -9  -2   15.55    1.91
  -6   9  -2   14.61    1.40
  -7  -9  -2   83.49    4.61
  -7   9  -2   81.90    5.22
  -7  -9  -2   80.23    4.36
  -7 -10   2   95.95    5.39
  -7  10   2  100.79    5.79
  -7 -10   2   95.22    4.55
  -7  10   2   88.64    5.44
  -6 -10   2   18.61    2.46
  -6  10   2   22.48    2.80
  -6  10   2   25.07    2.83
  -5  10   2   66.19    4.02
  -5  10   2   70.01    4.14
  -5 -10   2   73.88    4.18
  -5 -10   2   71.15    3.99
  -4  10   2  210.15    7.85
  -4 -10   2  224.37    8.24
  -4 -10   2  212.39    7.84
  -4  10   2  225.06    8.12
   4  10  -2  223.56    8.20
  -3  10   2   22.98    1.97
  -3  10   2   19.36    1.86
  -3 -10   2   24.64    2.12
   3 -10  -2   24.89    2.43
   3  10  -2   26.42    2.15
  -3 -10   2   23.26    2.08
   3 -10  -2   20.63    2.00
   2 -10  -2  264.56    9.08
  -2 -10   2  290.93    9.09
  -2  10   2  262.19    8.55
   2  10  -2  266.15    9.76
  -2  10   2  269.61    8.58
   2 -10  -2  273.03    9.62
  -2 -10   2  274.97    9.38
   1 -10  -2   90.31    4.63
  -1  10   2   92.15    3.95
  -1  10   2   88.73    3.78
   1 -10  -2   82.70    4.29
   1  10  -2   93.65    4.81
  -1 -10   2   84.43    4.13
  -1  10   2   97.28    3.85
  -1 -10   2   87.24    4.46
   0 -10   2  127.91    5.79
   0 -10   2  121.05    5.09
   0  10   2  124.79    4.42
   0  10  -2  124.15    5.71
   0 -10  -2  125.81    5.67
   0  10  -2  128.03    6.07
   0 -10  -2  122.06    5.38
   0  10   2  129.53    4.74
  -1 -10  -2  174.10    6.70
   1  10   2  169.14    5.56
  -1  10  -2  170.44    7.64
  -1  10  -2  177.30    6.53
   1 -10   2  171.88    6.28
  -2  10  -2  120.37    6.14
  -2 -10  -2  104.63    4.88
   2 -10   2  106.30    4.59
  -2  10  -2  102.28    4.49
  -3  10  -2   78.23    3.67
   3 -10   2   74.71    3.68
  -3  10  -2   72.39    4.20
  -3 -10  -2   72.99    4.34
  -3 -10  -2   75.16    4.02
  -4 -10  -2   42.57    3.26
   4 -10   2   39.72    2.51
  -4 -10  -2   44.33    2.98
  -4  10  -2   40.75    3.19
  -4  10  -2   46.04    2.67
  -5  10  -2   66.38    4.51
  -5 -10  -2   65.71    3.78
  -6 -10  -2   69.33    4.11
  -6 -10  -2   70.80    4.18
  -6  10  -2   74.77    4.88
  -7 -10  -2   10.25    1.91
  -6  11   2   65.42    4.41
  -6 -11   2   58.57    4.12
  -6  11   2   64.23    4.48
  -5 -11   2   54.69    3.57
  -5 -11   2   49.69    3.67
  -5  11   2   63.57    4.17
  -5  11   2   56.16    3.82
  -4  11   2    7.65    1.37
  -4  11   2    9.65    1.65
   4 -11  -2    7.77    1.55
  -4 -11   2    6.45    1.26
  -4 -11   2    7.41    1.51
   3 -11  -2  129.62    5.84
  -3  11   2  128.07    5.54
   3  11  -2  132.16    5.89
  -3 -11   2  117.38    5.73
  -3 -11   2  124.39    5.61
   3 -11  -2  125.92    6.16
  -3  11   2  132.84    5.57
   2 -11  -2   62.77    3.76
  -2 -11   2   62.74    3.62
   2  11  -2   58.91    3.69
  -2  11   2   59.09    3.26
  -2 -11   2   57.63    3.67
   2 -11  -2   63.47    3.95
  -2  11   2   60.58    3.30
  -1  11   2   69.04    3.36
   1 -11  -2   69.38    4.03
  -1 -11   2   73.23    3.91
  -1 -11   2   69.95    4.12
   1  11  -2   71.41    4.29
  -1  11   2   78.18    3.62
   1 -11  -2   67.88    4.15
   0 -11   2  102.21    4.79
   0 -11  -2  100.13    5.25
   0  11  -2  101.40    5.55
   0 -11  -2  106.40    5.12
   0  11   2  107.97    4.28
   0  11  -2  112.65    5.42
   0 -11   2  111.21    5.50
  -1 -11  -2   82.60    4.42
  -1  11  -2   81.60    4.12
  -1  11  -2   81.74    4.98
   1 -11   2   80.14    4.85
  -1 -11  -2   74.85    4.49
   1 -11   2   80.42    4.05
  -2  11  -2  123.87    5.17
  -2 -11  -2  131.14    5.80
  -2 -11  -2  119.66    5.98
   2 -11   2  125.37    5.31
   3 -11   2   84.81    4.12
  -3  11  -2   80.20    3.87
  -3  11  -2   79.02    4.62
  -3 -11  -2   77.93    4.33
  -3 -11  -2   81.96    4.87
  -4 -11  -2  143.99    7.08
   4 -11   2  149.73    5.91
  -4 -11  -2  145.50    6.36
  -4  11  -2  150.63    7.10
  -5  11  -2  158.19    7.68
  -5 -11  -2  167.01    7.81
  -5 -11  -2  167.67    7.05
   6 -12  -2   61.41    4.23
  -6  12   2   60.58    4.40
  -5  12   2   55.27    3.94
   5 -12  -2   52.22    3.83
  -5  12   2   50.32    3.82
  -5 -12   2   47.98    3.67
  -5 -12   2   50.59    3.84
   4 -12  -2  125.74    6.64
   4 -12  -2  121.98    6.03
  -4 -12   2  114.70    6.03
  -4 -12   2  128.90    6.08
  -4  12   2  124.58    5.84
  -4  12   2  126.35    6.05
  -3  12   2   16.75    1.70
  -3  12   2   14.30    1.87
   3 -12  -2   17.02    2.39
  -3 -12   2   15.86    2.26
   3 -12  -2   15.68    2.51
  -3 -12   2   14.58    2.13
   2  12  -2  162.08    7.15
   2 -12  -2  157.83    7.33
  -2 -12   2  163.62    6.77
  -2  12   2  155.50    6.16
  -2 -12   2  166.96    7.25
   2 -12  -2  162.14    7.01
  -2  12   2  160.10    6.26
  -1 -12   2   32.10    2.75
  -1 -12   2   27.72    2.45
   1  12  -2   28.43    2.56
   1 -12  -2   26.49    2.52
  -1  12   2   29.14    2.07
   1 -12  -2   25.58    2.73
   0 -12  -2   33.29    2.86
   0 -12  -2   34.97    3.15
   0  12  -2   34.23    2.86
   0  12  -2   28.54    2.67
   0 -12   2   32.84    2.82
   0 -12   2   31.95    2.56
   1 -12   2  122.65    6.45
  -1  12  -2  134.67    5.69
   1 -12   2  127.31    5.67
  -1 -12  -2  136.42    6.22
  -1 -12  -2  122.39    6.41
  -2  12  -2   85.22    4.85
  -2 -12  -2   79.29    4.69
  -2  12  -2   84.91    4.13
   2 -12   2   78.88    4.20
  -2 -12  -2   75.87    4.94
  -3 -12  -2   63.70    4.14
  -3 -12  -2   57.85    4.30
  -3  12  -2   67.05    4.46
   3 -12   2   57.67    3.47
  -4 -12  -2   54.55    4.23
  -4 -12  -2   58.77    3.94
  -4  12  -2   53.33    4.15
   4 -12   2   51.22    3.22
  -5 -12  -2   60.85    4.18
  -5  13   2   86.48    5.11
  -5 -13   2   82.44    5.14
  -4 -13   2    7.81    1.79
  -4  13   2    6.12    1.59
   4 -13  -2    5.97    1.65
  -4  13   2    8.13    1.73
   3 -13  -2   79.82    4.87
  -3 -13   2   71.64    4.54
  -3  13   2   72.83    4.27
  -3  13   2   72.90    4.19
   3 -13  -2   69.13    4.82
  -3 -13   2   71.10    4.70
   2 -13  -2    6.43    1.74
  -2 -13   2    6.09    1.61
   2 -13  -2    7.96    1.92
  -2 -13   2    9.20    1.96
   1  13  -2   41.13    3.26
   1 -13  -2   39.05    3.46
  -1 -13   2   38.76    3.45
  -1 -13   2   40.77    3.29
   1 -13  -2   38.65    3.54
   1  13  -2   43.05    3.66
   0  13  -2   91.78    5.04
   0 -13  -2  104.08    5.97
   0 -13  -2  101.87    5.60
   0 -13   2  106.23    5.34
   0 -13   2   92.34    5.62
   1 -13   2   74.62    5.04
  -1  13  -2   79.70    4.70
  -1 -13  -2   79.11    5.16
  -1 -13  -2   78.75    4.87
   1 -13   2   69.13    4.31
  -1  13  -2   73.48    4.03
  -2 -13  -2  153.30    7.75
   2 -13   2  165.87    8.27
  -2  13  -2  163.11    7.50
  -2 -13  -2  168.25    7.57
   2 -13   2  167.42    7.03
  -3  13  -2   18.61    2.78
   3 -13   2   16.23    2.22
  -3 -13  -2   19.51    2.74
   1  14  -2   19.17    2.98
  -1 -14   2   19.40    2.87
  -1 -14   2   23.13    2.80
   0 -14   2   14.61    2.32
   0  14  -2    8.13    1.81
  -1  14  -2   78.75    4.85
   1 -14   2   80.46    4.78
   2 -14   2   45.84    3.53
  -9   0   3    0.06    0.26
  -9   0   3    0.72    0.34
  -8   0   3  141.20    5.44
  -8   0   3  139.51    5.35
  -7   0   3  178.19    6.76
  -7   0   3  182.31    6.13
  -7   0   3  189.70    6.25
  -6   0   3  176.66    6.31
  -6   0   3  172.82    5.68
  -6   0   3  177.05    5.68
  -5   0   3 1018.79   24.04
  -5   0   3 1031.28   25.43
  -5   0   3 1032.09   23.61
  -4   0   3   28.68    1.62
   4   0  -3   29.95    1.18
  -4   0   3   28.33    1.61
  -4   0   3   29.17    1.89
  -3   0   3  906.32   21.83
   3   0  -3  906.34   18.95
  -3   0   3  903.01   22.11
  -3   0   3  884.67   20.35
  -2   0   3  230.57    6.20
  -2   0   3  227.04    6.31
  -2   0   3  222.30    6.37
   1   0  -3  407.33    9.93
  -1   0   3  381.88   10.34
  -1   0   3  410.25    9.78
   1   0  -3  409.17    9.94
   1   0  -3  391.90    8.71
   0   0  -3  879.32   19.03
   0   0  -3  899.18   21.23
   0   0   3  893.48   21.09
   0   0   3  909.68   21.37
   0   0  -3  904.97   20.83
  -1   0  -3  777.35   17.64
  -1   0  -3  744.49   19.99
  -1   0  -3  742.71   18.15
  -1   0  -3  737.72   16.35
   1   0   3  763.34   16.34
  -2   0  -3    1.84    0.42
  -2   0  -3    2.04    0.46
  -2   0  -3    5.34    0.74
  -3   0  -3  105.17    3.78
  -3   0  -3   98.21    3.43
  -3   0  -3   93.90    3.55
   4   0   3    5.22    0.39
  -4   0  -3    4.57    0.70
  -4   0  -3    6.21    1.00
  -4   0  -3    4.68    0.91
  -5   0  -3   32.55    1.76
  -5   0  -3   30.54    2.01
  -5   0  -3   31.06    2.10
  -6   0  -3   26.46    2.03
  -6   0  -3   31.24    1.84
  -6   0  -3   28.29    2.15
  -7   0  -3  174.86    5.79
  -7   0  -3  169.89    6.58
  -7   0  -3  164.55    6.29
  -8   0  -3  110.85    5.18
  -8   0  -3  113.19    5.35
  -9   0  -3    9.35    1.97
 -10   0  -3   44.03    3.70
  -9  -1   3   67.92    3.72
  -9   1   3   74.73    3.69
  -9   1   3   71.61    3.87
  -8  -1   3  114.18    4.81
  -8   1   3  116.06    4.95
  -8   1   3  113.41    4.59
  -8  -1   3  113.65    5.29
  -8  -1   3  111.91    4.51
  -7   1   3    6.05    0.98
  -7  -1   3    4.50    1.08
  -7  -1   3    5.01    0.97
  -7   1   3    5.27    1.01
  -7  -1   3    5.03    0.89
  -6  -1   3   61.41    2.72
  -6  -1   3   62.81    3.27
  -6   1   3   56.72    2.68
  -6   1   3   58.26    2.93
  -6  -1   3   66.28    2.99
  -5  -1   3  335.62    9.88
  -5  -1   3  341.10    8.94
  -5   1   3  342.06    8.92
  -5  -1   3  338.76    9.10
  -5   1   3  343.68    9.39
  -5  -1   3  344.78    7.96
  -4  -1   3 3513.34   74.29
  -4  -1   3 3303.19   73.02
   4  -1  -3 3390.67   70.13
  -4  -1   3 3394.07   71.07
  -4   1   3 3245.20   74.07
  -4   1   3 3446.35   74.61
  -4  -1   3 3420.13   77.68
   4   1  -3 3329.53   78.93
  -3  -1   3 1695.14   40.54
  -3  -1   3 1727.72   38.13
   3  -1  -3 1809.74   36.16
  -3  -1   3 1764.61   41.20
  -3   1   3 1705.90   41.54
  -3   1   3 1712.23   39.71
   3   1  -3 1758.53   41.15
  -2  -1   3  124.20    3.79
   2  -1  -3  122.14    3.28
  -2   1   3  122.53    3.80
  -2  -1   3  116.72    3.71
  -2  -1   3  120.08    3.84
  -2   1   3  119.72    4.03
   1   1  -3 1216.06   29.16
   1  -1  -3 1254.58   28.73
  -1   1   3 1205.45   29.78
  -1  -1   3 1224.76   28.49
  -1  -1   3 1239.47   26.34
   1   1  -3 1242.87   28.65
  -1   1   3 1287.77   29.24
  -1  -1   3 1217.95   29.58
  -1  -1   3 1268.37   28.80
   1  -1  -3 1235.85   29.25
   0   1   3  665.81   16.48
   0  -1  -3  653.87   16.16
   0   1   3  689.92   16.17
   0   1  -3  678.03   16.44
   0  -1   3  682.96   14.52
   0   1  -3  705.05   16.38
   0   1  -3  671.56   14.59
   0  -1   3  659.74   16.10
   0   1  -3  732.35   15.92
   0  -1   3  678.73   15.97
   0  -1  -3  663.87   14.63
   0   1   3  668.20   16.49
  -1   1  -3 1088.02   26.78
  -1  -1  -3 1169.44   26.38
  -1   1  -3 1171.52   24.63
  -1  -1  -3 1143.44   24.58
  -1   1  -3 1151.41   27.30
   1  -1   3 1142.59   26.80
   1  -1   3 1188.49   24.50
  -1   1  -3 1176.60   30.28
  -2   1  -3  335.68    8.34
  -2  -1  -3  340.11    8.28
  -2   1  -3  345.32   10.10
  -2   1  -3  339.82    9.23
  -2  -1  -3  349.95    9.55
  -2  -1  -3  345.83    8.18
  -2  -1  -3  341.32    8.86
  -3  -1  -3  485.96   11.79
  -3  -1  -3  519.06   13.59
  -3   1  -3  484.01   12.61
  -3  -1  -3  498.06   11.77
  -3   1  -3  496.81   11.93
  -3   1  -3  489.64   14.12
  -3  -1  -3  502.82   12.64
   4   1   3 1572.89   35.94
  -4  -1  -3 1578.94   36.94
  -4  -1  -3 1583.53   34.59
  -4  -1  -3 1646.73   36.59
  -4   1  -3 1563.22   36.90
  -4  -1  -3 1654.31   36.00
  -4   1  -3 1531.66   34.62
  -5  -1  -3   83.81    2.94
  -5  -1  -3   81.09    2.63
  -5   1  -3   78.67    3.50
  -5  -1  -3   79.95    3.47
  -5   1  -3   72.66    3.47
  -5   1  -3   80.97    3.32
  -5  -1  -3   75.95    3.55
  -6   1  -3  453.43   12.92
  -6  -1  -3  442.10   12.22
  -6  -1  -3  480.91   11.83
  -6   1  -3  478.10   12.53
  -6   1  -3  436.38   12.30
  -6  -1  -3  475.30   11.55
  -6  -1  -3  450.31   12.96
  -7   1  -3   51.48    2.79
  -7  -1  -3   45.69    3.02
  -7   1  -3   46.12    2.94
  -7  -1  -3   45.62    2.89
  -7   1  -3   48.74    3.07
  -8  -1  -3  186.54    7.21
  -8  -1  -3  187.09    7.51
  -8   1  -3  201.95    6.95
  -8   1  -3  189.13    7.42
  -9   1  -3  187.42    7.74
  -9  -1  -3  182.72    7.50
  -9  -1  -3  175.51    7.66
 -10   1  -3   14.17    2.45
 -10   2   3   81.48    4.57
 -10  -2   3   79.42    4.88
  -9   2   3    5.28    0.93
  -9  -2   3    3.33    0.91
  -9  -2   3    7.49    1.33
  -9   2   3    5.76    1.23
  -8  -2   3  289.97    9.03
  -8  -2   3  279.18    7.65
  -8   2   3  269.28    9.06
  -8   2   3  271.06    8.34
  -8  -2   3  277.54    9.60
  -7   2   3  230.05    7.53
  -7  -2   3  230.41    6.16
  -7  -2   3  221.79    6.62
  -7  -2   3  201.30    7.03
  -7  -2   3  207.16    7.63
  -7   2   3  217.15    6.69
  -6   2   3  169.08    6.08
  -6  -2   3  181.72    5.41
  -6  -2   3  179.23    6.46
  -6  -2   3  184.46    6.02
  -6   2   3  175.21    5.52
  -6  -2   3  182.11    4.94
  -5   2   3  496.95   12.31
  -5  -2   3  505.07   12.25
  -5  -2   3  503.51   12.77
  -5  -2   3  502.02   13.66
  -5  -2   3  518.09   11.38
  -5   2   3  498.23   13.15
  -4  -2   3  116.70    2.97
   4  -2  -3  108.52    3.05
  -4  -2   3  112.04    4.14
   4   2  -3  110.28    3.31
  -4   2   3  107.67    3.98
  -4   2   3  105.77    3.51
  -4  -2   3  106.88    3.77
  -4  -2   3  113.27    3.38
  -3  -2   3 1012.16   23.14
  -3   2   3  999.30   25.37
  -3   2   3 1034.04   24.00
   3   2  -3 1023.10   24.41
  -3  -2   3 1029.87   24.62
  -3  -2   3 1066.57   21.67
  -3  -2   3 1035.55   24.60
   3  -2  -3 1001.96   23.00
  -2  -2   3  267.40    7.22
   2  -2  -3  266.73    7.19
  -2  -2   3  274.70    7.43
  -2   2   3  293.20    7.45
  -2  -2   3  279.81    7.05
   2  -2  -3  265.73    6.71
  -2   2   3  294.16    8.00
  -2  -2   3  277.67    6.92
  -1  -2   3  632.68   14.71
  -1   2   3  610.25   15.55
  -1  -2   3  625.60   14.64
   1  -2  -3  616.48   14.42
  -1   2   3  597.27   14.85
   1  -2  -3  594.14   14.41
  -1   2   3  619.41   14.50
   1  -2  -3  593.93   14.90
   0   2  -3  721.31   16.20
   0  -2   3  663.20   15.92
   0  -2   3  668.44   16.01
   0  -2   3  672.82   14.53
   0   2   3  642.53   17.04
   0  -2  -3  671.73   16.63
   0   2  -3  674.35   16.61
   0   2  -3  672.04   15.78
   0  -2  -3  693.37   15.68
   0   2   3  686.48   16.07
   0   2   3  715.22   16.78
   0  -2  -3  665.54   15.65
  -1   2  -3    8.02    0.46
   1  -2   3    6.71    0.63
  -1   2  -3    7.64    0.90
   1  -2   3    6.21    0.39
  -1  -2  -3    9.35    0.74
  -1   2  -3    8.04    0.81
  -2  -2  -3   14.98    1.05
  -2  -2  -3   16.01    0.83
   2  -2   3   16.20    1.12
  -2  -2  -3   16.14    1.13
  -2   2  -3   15.22    1.33
  -2   2  -3   16.10    1.22
  -2  -2  -3   16.40    0.86
  -3  -2  -3  152.05    3.86
  -3  -2  -3  139.44    4.04
  -3  -2  -3  136.48    4.69
  -3   2  -3  153.63    5.07
  -3   2  -3  154.46    5.57
  -3  -2  -3  149.93    4.57
  -4  -2  -3   19.46    1.55
  -4  -2  -3   20.74    0.98
  -4   2  -3   24.14    1.87
  -4   2  -3   21.76    1.62
  -4  -2  -3   19.68    1.49
  -4  -2  -3   21.26    1.08
  -5   2  -3   69.20    3.37
  -5  -2  -3   75.28    3.36
  -5  -2  -3   75.25    3.52
  -5   2  -3   60.75    3.08
  -5  -2  -3   80.37    2.56
  -5  -2  -3   82.72    2.77
  -6  -2  -3   40.67    2.54
  -6   2  -3   41.45    2.47
  -6   2  -3   41.76    2.65
  -6  -2  -3   43.86    2.74
  -6  -2  -3   43.22    1.97
  -7  -2  -3  207.20    7.31
  -7   2  -3  220.57    7.69
  -7  -2  -3  208.63    7.74
  -7   2  -3  218.20    7.38
  -8   2  -3   92.47    4.66
  -8  -2  -3   88.87    4.74
  -8   2  -3   94.27    4.36
  -8  -2  -3   81.00    4.38
  -9  -2  -3    2.57    1.23
  -9   2  -3    2.42    1.15
  -9  -2  -3    1.95    1.03
 -10   2  -3   54.25    4.07
 -10   3   3    1.93    1.12
 -10  -3   3    2.01    1.19
  -9   3   3   25.84    1.79
  -9  -3   3   23.42    2.19
  -9   3   3   22.79    2.21
  -9  -3   3   26.00    2.44
  -8  -3   3  157.08    6.16
  -8  -3   3  153.68    6.58
  -8   3   3  165.54    5.58
  -8  -3   3  159.41    5.13
  -8   3   3  156.56    6.41
  -7  -3   3   41.98    2.86
  -7  -3   3   43.15    2.03
  -7   3   3   37.14    2.65
  -7   3   3   43.66    2.92
  -7   3   3   40.70    2.20
  -7  -3   3   39.87    2.56
  -6  -3   3  415.62   12.25
  -6  -3   3  439.05   10.60
  -6   3   3  430.98   12.02
  -6  -3   3  438.41   10.18
  -6   3   3  422.67   12.22
  -6   3   3  425.66   10.83
  -6  -3   3  393.69   11.38
  -5   3   3   78.55    3.63
  -5  -3   3   88.85    2.75
  -5   3   3   83.17    3.77
  -5  -3   3   90.41    3.57
  -5  -3   3   88.69    3.81
  -5  -3   3   86.42    2.78
   5  -3  -3   83.77    2.61
  -5   3   3   82.39    3.05
  -4   3   3  442.03   10.62
  -4   3   3  440.45   11.70
  -4   3   3  427.77   11.54
  -4  -3   3  434.97   10.26
  -4  -3   3  435.28   11.75
   4   3  -3  435.46   10.80
   4   3  -3  449.08   11.00
  -4  -3   3  436.07   11.08
   4  -3  -3  413.59   10.28
  -4  -3   3  440.97    9.83
  -3   3   3  771.05   20.13
  -3  -3   3  774.23   18.21
  -3  -3   3  809.81   19.02
  -3   3   3  795.62   18.77
  -3   3   3  786.36   19.05
  -2  -3   3  130.24    3.88
  -2  -3   3  132.39    3.66
  -2   3   3  119.48    4.43
   2  -3  -3  130.61    4.08
  -2   3   3  126.62    4.03
  -2  -3   3  130.86    3.67
  -2  -3   3  128.05    4.05
  -2   3   3  122.42    4.07
  -1   3   3 3152.69   71.84
  -1  -3   3 3142.95   69.20
   1  -3  -3 3091.17   70.22
  -1  -3   3 3069.82   70.61
   1  -3  -3 3055.21   73.15
  -1   3   3 3018.43   70.10
  -1   3   3 3219.55   74.85
   0   3   3  106.46    3.07
   0   3  -3  103.37    3.73
   0   3  -3  106.41    3.18
   0   3  -3  106.72    3.23
   0   3   3  102.03    3.75
   0  -3   3  104.38    3.15
   0  -3   3   98.95    3.05
   0  -3  -3  107.49    3.08
   0  -3  -3  104.24    3.53
   0   3  -3   96.55    4.10
   0  -3  -3  106.39    3.00
  -1  -3  -3  508.45   11.41
   1  -3   3  484.15   11.59
  -1   3  -3  508.52   14.34
   1   3   3  490.84   13.02
   1  -3   3  491.67   11.80
  -1   3  -3  487.94   12.65
  -1  -3  -3  487.20   11.89
  -1  -3  -3  488.13   12.82
  -2   3  -3  868.95   23.88
   2  -3   3  889.09   20.23
  -2  -3  -3  879.50   20.52
  -2  -3  -3  855.02   20.43
   2  -3   3  867.32   19.96
  -2   3  -3  869.66   21.38
  -2  -3  -3  862.27   19.35
  -3  -3  -3   90.21    3.37
   3  -3   3   93.74    2.51
   3  -3   3   90.39    2.53
  -3   3  -3   89.18    3.65
  -3  -3  -3   91.44    3.51
   3  -3   3  101.86    3.19
  -3   3  -3   91.57    4.19
  -3  -3  -3   97.07    3.11
  -4  -3  -3 1135.45   25.05
   4  -3   3 1100.28   25.53
  -4  -3  -3 1114.05   26.64
   4  -3   3 1125.01   25.43
  -4   3  -3 1095.12   30.54
  -5  -3  -3   83.35    3.02
  -5   3  -3   75.34    3.61
  -5   3  -3   88.37    3.79
  -5  -3  -3   80.38    3.72
  -5  -3  -3   76.69    3.48
  -6  -3  -3  496.20   14.12
  -6   3  -3  491.20   13.90
  -6  -3  -3  500.45   13.31
  -6   3  -3  487.50   13.88
  -6  -3  -3  537.58   13.15
  -7  -3  -3   79.91    4.01
  -7   3  -3   86.85    4.23
  -7  -3  -3   78.96    4.23
  -7   3  -3   81.94    4.08
  -8  -3  -3   67.52    3.92
  -8  -3  -3   63.49    3.98
  -8   3  -3   67.71    3.76
  -8   3  -3   64.32    3.79
  -9   3  -3  204.11    7.80
  -9  -3  -3  200.66    8.38
  -9   3  -3  197.18    7.98
  -9  -3  -3  187.16    7.76
 -10  -4   3   90.22    5.42
 -10   4   3   87.98    5.27
  -9   4   3    2.90    0.94
  -9  -4   3    3.10    0.90
  -8   4   3  234.38    8.74
  -8   4   3  239.46    7.21
  -8   4   3  232.35    8.54
  -8  -4   3  235.90    8.77
  -8  -4   3  229.04    8.16
  -8  -4   3  245.18    6.96
  -7   4   3  250.86    7.19
  -7  -4   3  248.14    8.65
  -7   4   3  238.99    8.57
  -7  -4   3  253.36    6.90
  -7  -4   3  246.56    8.16
  -6  -4   3  178.36    4.98
  -6  -4   3  163.43    6.27
  -6   4   3  168.11    6.29
  -6   4   3  158.38    6.26
  -6  -4   3  170.23    5.97
  -6   4   3  176.21    5.23
  -5  -4   3  262.39    8.41
  -5  -4   3  291.78    6.98
  -5  -4   3  267.81    8.00
  -5   4   3  278.45    7.29
  -5   4   3  271.72    8.49
  -5   4   3  267.62    8.44
  -4  -4   3   51.88    2.50
  -4   4   3   51.98    2.72
  -4   4   3   54.91    2.81
  -4  -4   3   52.15    2.63
  -4  -4   3   53.66    1.98
  -4   4   3   52.99    2.24
  -4  -4   3   53.24    1.55
  -3   4   3  409.97   10.77
  -3  -4   3  405.22    9.22
  -3   4   3  392.64   10.61
  -3  -4   3  381.63   10.59
  -3  -4   3  397.11   10.35
  -3  -4   3  405.95   10.15
  -3   4   3  401.83   10.21
  -2  -4   3  352.57    9.17
  -2   4   3  359.53   10.12
  -2   4   3  351.73    9.20
   2  -4  -3  356.94    9.62
  -2  -4   3  353.27    9.32
  -2   4   3  349.73    9.23
  -2  -4   3  338.97    8.76
  -2  -4   3  352.31    8.74
   1   4  -3  237.72    7.97
   1  -4  -3  232.59    6.89
  -1   4   3  242.13    6.47
  -1   4   3  254.37    5.91
  -1   4   3  234.62    7.25
  -1  -4   3  235.07    6.16
  -1   4   3  243.74    6.99
   0  -4   3  485.42   11.48
   0  -4  -3  531.56   11.95
   0   4   3  517.13   11.76
   0   4  -3  513.13   12.05
   0  -4   3  489.52   12.12
   0  -4  -3  496.98   11.78
   0   4  -3  490.43   13.16
   0  -4  -3  501.33   13.09
   0   4  -3  490.84   14.62
   0   4   3  485.37   13.21
  -1   4  -3   49.04    2.32
   1  -4   3   42.59    1.60
  -1  -4  -3   42.42    1.97
  -1  -4  -3   43.02    2.25
  -1  -4  -3   49.14    1.52
  -1  -4  -3   46.56    1.90
   1   4   3   46.84    2.31
  -1   4  -3   47.06    2.71
   1  -4   3   43.28    1.70
  -2   4  -3   45.47    2.26
   2  -4   3   36.56    1.41
  -2  -4  -3   35.18    1.78
   2  -4   3   36.67    1.47
  -2  -4  -3   37.24    1.89
  -2  -4  -3   38.57    2.21
   2   4   3   46.59    2.31
  -2   4  -3   45.77    2.70
  -3  -4  -3  192.06    5.76
   3  -4   3  186.81    4.95
  -3   4  -3  198.74    7.27
  -3  -4  -3  185.80    5.89
  -3   4  -3  199.10    6.25
  -3  -4  -3  188.04    5.59
   3  -4   3  183.17    4.94
   4  -4   3  108.63    3.41
  -4  -4  -3  111.23    4.33
  -4  -4  -3  114.04    3.84
  -4   4  -3  114.73    4.49
  -4   4  -3  115.97    5.29
   4  -4   3  113.05    3.21
  -5   4  -3   91.22    4.06
  -5  -4  -3  104.91    3.69
   5  -4   3  102.44    2.96
  -5  -4  -3  103.49    4.35
  -5   4  -3   87.43    4.19
  -5  -4  -3   98.94    4.07
  -6  -4  -3   41.33    2.19
  -6   4  -3   46.99    2.91
  -6   4  -3   44.60    2.77
  -6  -4  -3   47.63    2.81
  -6  -4  -3   42.54    2.83
  -7   4  -3   87.36    4.23
  -7   4  -3   75.36    4.10
  -7  -4  -3   79.92    4.31
  -7  -4  -3   81.77    4.11
  -8  -4  -3   53.71    3.58
  -8   4  -3   57.91    3.52
  -8   4  -3   57.57    3.54
  -8  -4  -3   55.41    3.83
  -9   4  -3   -0.31    0.60
  -9   4  -3   -0.13    0.71
  -9  -4  -3   -0.24    0.61
 -10  -5   3   20.05    2.91
 -10   5   3   17.22    2.78
  -9  -5   3   73.84    4.64
  -9   5   3   73.90    4.72
  -9   5   3   70.97    4.64
  -8   5   3   62.44    3.91
  -8   5   3   58.97    3.80
  -8  -5   3   56.97    3.52
  -8  -5   3   55.81    3.69
  -7   5   3  143.59    6.14
  -7  -5   3  152.98    4.83
  -7   5   3  137.18    6.09
  -7  -5   3  137.80    6.04
  -7  -5   3  141.37    5.77
  -7   5   3  153.85    4.81
  -6   5   3  435.00   12.97
  -6  -5   3  439.43   13.02
  -6  -5   3  438.05   12.35
  -6   5   3  457.49   11.19
  -6   5   3  451.34   13.01
  -6  -5   3  458.12   10.97
  -5   5   3  115.44    3.70
  -5   5   3  110.61    4.75
  -5  -5   3  116.92    4.50
  -5  -5   3  111.04    4.62
  -5  -5   3  118.67    3.74
  -5   5   3  112.70    4.81
  -4   5   3  126.23    4.95
  -4   5   3  130.87    4.91
  -4  -5   3  128.49    4.39
  -4   5   3  129.80    4.11
  -4  -5   3  126.75    4.74
  -3   5   3  346.91    9.87
  -3   5   3  352.60    9.22
  -3   5   3  358.67    9.81
  -3  -5   3  347.41    9.22
  -3  -5   3  358.71    9.61
  -2   5   3  144.26    4.67
  -2   5   3  147.32    4.82
  -2  -5   3  156.03    4.81
  -2  -5   3  152.00    4.58
  -2   5   3  139.20    5.32
   2  -5  -3  153.98    5.16
  -2  -5   3  149.56    3.70
  -2  -5   3  152.61    4.89
  -2  -5   3  156.88    3.96
  -1   5   3 1500.76   36.50
  -1  -5   3 1506.83   34.69
  -1  -5   3 1474.11   32.89
  -1   5   3 1517.52   34.09
   1   5  -3 1473.24   39.67
  -1   5   3 1443.54   34.93
   1  -5  -3 1521.10   36.17
  -1  -5   3 1540.81   33.16
   0   5  -3  325.11    9.81
   0  -5  -3  356.68    9.79
   0   5   3  349.44    9.83
   0   5  -3  345.54   10.92
   0   5   3  348.75    8.53
   0  -5   3  342.09    8.23
   0  -5   3  338.11    8.88
   1  -5   3  781.26   19.14
   1   5   3  796.84   20.55
  -1  -5  -3  881.11   21.12
   1  -5   3  795.38   17.90
  -1   5  -3  853.93   18.97
  -1   5  -3  788.42   22.82
  -1  -5  -3  835.01   20.78
  -1   5  -3  790.57   20.16
  -1  -5  -3  771.72   19.62
  -2   5  -3 1103.96   30.24
   2  -5   3 1126.18   25.42
   2   5   3 1063.67   27.13
  -2  -5  -3 1106.83   25.64
  -2  -5  -3 1078.27   26.01
  -2   5  -3 1069.01   26.66
   2  -5   3 1078.27   23.81
  -2  -5  -3 1132.23   27.55
  -3   5  -3  320.35    9.31
   3   5   3  319.31    9.40
  -3  -5  -3  318.17    8.81
  -3   5  -3  317.79   10.88
  -3  -5  -3  310.57    8.89
  -3  -5  -3  319.60    9.79
   3  -5   3  325.83    8.16
  -4  -5  -3  199.90    6.46
  -4  -5  -3  205.64    6.31
  -4  -5  -3  211.55    6.79
  -4   5  -3  214.56    6.98
  -4   5  -3  200.27    8.12
   4  -5   3  214.94    5.66
  -5  -5  -3   42.33    2.68
  -5   5  -3   44.73    2.60
  -5  -5  -3   44.50    2.64
  -5   5  -3   46.74    2.93
  -6  -5  -3  460.06   13.43
  -6   5  -3  447.40   13.55
  -6   5  -3  448.66   13.00
  -6  -5  -3  457.24   12.65
  -6  -5  -3  493.76   12.69
  -7   5  -3  164.42    6.38
  -7  -5  -3  160.90    6.65
  -7  -5  -3  162.22    6.32
  -7   5  -3  160.00    6.70
  -8  -5  -3  166.08    6.85
  -8   5  -3  157.67    6.58
  -8   5  -3  166.25    7.09
  -9   5  -3   40.54    3.33
  -9   5  -3   47.37    3.43
 -10  -6   3  164.58    7.96
  -9   6   3    3.77    1.36
  -9   6   3    3.67    1.53
  -9  -6   3    2.95    1.27
  -8   6   3  146.99    6.67
  -8   6   3  145.04    6.75
  -8  -6   3  142.84    6.55
  -7  -6   3   88.69    3.49
  -7  -6   3   87.17    4.37
  -7   6   3   91.61    4.73
  -7   6   3   81.53    4.56
  -7  -6   3   87.63    4.58
  -6  -6   3  121.15    5.11
  -6   6   3  121.70    5.48
  -6   6   3  125.50    5.59
  -6  -6   3  130.39    4.34
  -6   6   3  137.84    4.16
  -6  -6   3  124.76    5.39
  -5  -6   3  396.07   11.61
  -5  -6   3  393.68   11.06
  -5   6   3  376.53   11.58
  -5   6   3  389.53   11.66
  -5   6   3  416.32    9.87
  -4  -6   3   63.61    3.18
  -4   6   3   63.94    3.25
  -4  -6   3   64.43    3.03
  -4  -6   3   61.16    2.89
  -4   6   3   71.49    2.63
  -4   6   3   65.63    3.42
  -3  -6   3  277.21    8.23
  -3   6   3  279.05    8.18
  -3  -6   3  281.74    7.76
  -3  -6   3  277.32    8.10
  -3   6   3  265.51    7.46
  -3   6   3  264.48    8.26
  -2  -6   3  206.33    6.37
   2  -6  -3  210.01    6.83
  -2   6   3  217.42    7.13
  -2  -6   3  202.98    6.43
  -2   6   3  214.59    6.20
   2   6  -3  209.16    7.60
  -2  -6   3  213.30    6.00
  -2   6   3  201.45    6.27
  -1  -6   3   15.38    1.07
   1   6  -3   17.61    1.71
   1  -6  -3   16.30    1.43
  -1  -6   3   16.06    0.92
  -1   6   3   18.13    1.24
  -1  -6   3   15.59    1.27
  -1   6   3   18.87    1.58
  -1   6   3   20.13    0.86
  -1   6   3   22.18    1.71
   0  -6   3  328.04    8.16
   0   6   3  342.48    8.54
   0   6   3  350.67    9.92
   0  -6  -3  336.85    9.92
   0   6  -3  342.60   10.14
   0  -6   3  335.62    9.06
  -1   6  -3    3.69    0.87
  -1   6  -3    2.97    0.91
   1  -6   3    4.09    0.37
   1   6   3    5.30    0.92
  -1  -6  -3    4.92    0.89
  -1  -6  -3    2.99    0.80
  -1   6  -3    4.27    0.61
   1  -6   3    3.54    0.66
  -1  -6  -3    4.03    0.53
   2   6   3  151.00    5.39
  -2  -6  -3  158.07    5.32
  -2   6  -3  145.99    6.44
  -2  -6  -3  165.89    5.97
   2  -6   3  165.94    4.82
  -2   6  -3  155.46    5.46
  -3   6  -3  242.09    9.09
  -3   6  -3  238.02    7.54
   3   6   3  241.43    7.54
   3  -6   3  242.43    6.59
  -3  -6  -3  230.82    7.99
  -3  -6  -3  225.26    7.13
  -4  -6  -3   92.82    3.77
  -4  -6  -3   96.07    4.05
   4  -6   3   94.09    3.21
  -4   6  -3   88.67    4.01
   4   6   3   94.91    4.04
  -4   6  -3   99.32    5.21
  -5   6  -3   99.61    4.76
  -5  -6  -3   92.06    4.17
  -5  -6  -3   97.50    3.95
  -6   6  -3    6.33    1.25
  -6  -6  -3    5.55    0.99
  -6  -6  -3    8.41    1.42
  -6   6  -3    6.76    1.23
  -7   6  -3    5.31    1.15
  -7  -6  -3    6.56    1.39
  -7   6  -3    4.81    1.09
  -8  -6  -3   28.00    2.96
  -8   6  -3   29.94    2.88
  -8   6  -3   32.21    2.53
  -9   6  -3    2.92    1.16
  -9   6  -3    3.41    1.09
  -9  -7   3   55.27    4.19
  -9   7   3   50.22    4.09
  -9   7   3   50.55    4.17
  -8   7   3   29.28    3.00
  -8   7   3   27.27    3.10
  -8  -7   3   28.56    2.86
  -7   7   3   90.37    4.85
  -7   7   3   91.17    4.93
  -7  -7   3   83.63    3.52
  -7  -7   3   87.40    4.71
  -6  -7   3  415.45   11.84
  -6   7   3  394.95   12.37
  -6  -7   3  388.98   12.21
  -6  -7   3  413.43   10.52
  -6   7   3  382.40   12.30
  -5  -7   3    1.50    0.56
  -5   7   3    1.05    0.27
  -5  -7   3    1.29    0.38
  -5   7   3    0.34    0.51
  -5   7   3    1.94    0.74
  -5  -7   3    0.92    0.57
  -4   7   3  111.54    4.78
  -4  -7   3  101.74    4.18
  -4   7   3  109.47    4.62
   4   7  -3  108.02    5.00
  -4  -7   3  102.83    4.26
  -4   7   3  114.38    3.66
  -4  -7   3  103.34    4.47
  -3   7   3  342.42   10.07
  -3  -7   3  362.90   10.32
  -3  -7   3  364.35   10.34
  -3  -7   3  358.91    9.62
   3   7  -3  341.46   11.49
  -3   7   3  360.72    9.35
  -3   7   3  340.14   10.27
  -2  -7   3    0.69    0.29
  -2   7   3    0.55    0.29
   2   7  -3    0.46    0.46
   2  -7  -3    0.51    0.42
  -2   7   3    0.18    0.31
  -2   7   3    0.54    0.41
  -2  -7   3    0.87    0.36
  -2  -7   3   -0.04    0.37
  -1   7   3  878.84   21.45
  -1  -7   3  925.62   20.48
  -1  -7   3  880.39   22.07
   1   7  -3  905.24   25.62
   1  -7  -3  884.54   23.25
  -1   7   3  949.50   20.61
  -1   7   3  887.99   23.34
  -1  -7   3  922.07   20.66
  -1   7   3  894.29   22.25
  -1  -7   3  922.38   23.33
   0  -7  -3   84.06    3.70
   0  -7   3   84.27    2.73
   0   7   3   86.53    2.97
   0   7  -3   84.88    4.40
   0   7   3   90.48    3.84
   0   7  -3   82.10    4.08
   0  -7   3   83.13    3.38
   1  -7   3  689.40   15.26
   1  -7   3  687.68   17.02
   1   7   3  698.28   15.88
  -1  -7  -3  666.99   17.53
  -1   7  -3  666.31   20.34
   1   7   3  694.03   18.05
  -1   7  -3  693.23   17.92
  -2   7  -3  578.36   15.56
   2   7   3  584.57   15.65
  -2   7  -3  579.98   18.13
  -2  -7  -3  596.14   16.43
  -2  -7  -3  586.95   15.41
   2  -7   3  582.25   14.67
   3   7   3  271.48    8.40
  -3  -7  -3  272.75    8.32
  -3   7  -3  270.77    8.50
   3  -7   3  272.76    7.65
  -3   7  -3  272.71   10.34
  -3  -7  -3  272.32    9.20
   4   7   3  225.79    7.42
  -4  -7  -3  239.59    7.42
  -4   7  -3  218.00    9.28
   4  -7   3  235.85    6.63
  -4   7  -3  212.40    7.43
  -5   7  -3   26.73    2.08
  -5   7  -3   26.75    2.37
  -5  -7  -3   27.89    1.96
   5   7   3   28.75    1.98
  -6  -7  -3  219.40    7.39
  -6   7  -3  208.00    8.27
  -6  -7  -3  215.41    7.61
  -6   7  -3  213.77    7.47
  -7   7  -3   79.97    4.08
  -7  -7  -3   83.41    4.49
  -7   7  -3   76.20    4.71
  -8   7  -3  148.73    7.20
  -8  -7  -3  147.18    6.56
  -8   7  -3  147.23    6.37
  -9  -8   3   23.39    3.14
  -8   8   3  145.76    6.99
  -8  -8   3  127.47    6.54
  -8   8   3  139.63    6.93
  -7  -8   3    1.75    0.77
  -7   8   3    3.67    1.16
  -7   8   3    2.86    1.16
  -6  -8   3  110.31    5.24
  -6  -8   3  112.84    4.25
  -6   8   3  105.41    5.33
   6   8  -3  107.74    5.21
  -6   8   3  108.07    5.32
  -5   8   3  301.95   10.03
  -5  -8   3  324.82    9.88
  -5  -8   3  309.92   10.02
   5   8  -3  310.66   10.76
  -5   8   3  301.35   10.14
  -4   8   3   87.30    4.18
  -4  -8   3   91.49    3.94
  -4   8   3   90.40    4.39
  -4   8   3   91.26    3.14
  -4  -8   3   85.75    3.95
   4   8  -3   84.84    4.42
  -4  -8   3   82.09    4.08
  -3   8   3  423.48   11.87
  -3   8   3  415.24   12.07
  -3   8   3  425.91   10.88
   3   8  -3  417.76   13.51
   3  -8  -3  416.00   12.71
  -3  -8   3  419.72   11.18
  -3  -8   3  417.62   12.16
  -2  -8   3   55.11    2.89
   2   8  -3   41.41    2.98
  -2   8   3   45.80    2.51
   2  -8  -3   51.15    2.99
  -2  -8   3   52.96    2.42
  -2  -8   3   51.34    2.76
  -2   8   3   42.25    2.65
  -2   8   3   45.41    2.29
  -1  -8   3   12.22    0.96
  -1   8   3   11.80    1.43
  -1  -8   3   14.92    1.48
   1   8  -3   10.24    1.65
  -1  -8   3   11.45    1.37
  -1   8   3    9.70    0.96
   1  -8  -3    8.15    1.36
   0   8   3  277.12    8.68
   0  -8   3  263.47    8.07
   0   8  -3  285.91   10.06
   0  -8  -3  267.91    8.57
   0   8  -3  272.74    9.09
   0  -8  -3  257.66    8.86
   0   8   3  280.39    7.40
  -1  -8  -3  112.85    5.06
  -1  -8  -3  115.94    4.77
  -1   8  -3  119.32    4.84
   1   8   3  114.90    4.62
  -1   8  -3  115.76    5.71
   1   8   3  118.55    3.44
   1  -8   3  111.99    4.27
  -2  -8  -3  373.90   10.96
   2  -8   3  372.31   10.25
   2   8   3  366.94   10.83
  -2   8  -3  377.63   13.09
  -2  -8  -3  381.39   11.77
  -2   8  -3  364.43   10.88
  -3   8  -3   43.75    3.49
  -3  -8  -3   46.12    2.75
  -3   8  -3   46.90    2.76
  -3  -8  -3   50.38    3.25
   3  -8   3   47.73    2.39
   3   8   3   48.98    2.63
  -4   8  -3   13.13    1.41
  -4  -8  -3   18.16    1.91
  -4  -8  -3   17.63    1.61
   4   8   3   17.21    1.42
   4  -8   3   13.06    1.16
  -5  -8  -3  108.06    4.87
  -5   8  -3  107.73    5.48
  -5   8  -3  113.50    4.91
  -5  -8  -3  109.63    4.69
  -6  -8  -3    9.56    1.74
  -6   8  -3    6.72    1.61
  -6   8  -3    7.72    1.26
  -6  -8  -3    7.59    1.22
  -7  -8  -3   48.92    3.44
  -7   8  -3   47.17    3.01
  -7   8  -3   48.75    3.85
  -8  -9   3   80.66    5.13
  -8   9   3   84.31    5.43
  -7   9   3   16.01    2.54
  -7  -9   3   17.18    2.46
  -7   9   3   14.70    2.51
  -6   9   3  139.71    6.44
  -6  -9   3  141.97    6.35
  -6  -9   3  149.14    5.32
  -6   9   3  146.76    6.60
  -5  -9   3   10.46    1.42
   5   9  -3    9.78    1.57
  -5   9   3   10.47    1.65
  -5   9   3   10.92    1.82
  -5  -9   3   13.78    1.93
  -4   9   3   75.62    4.11
  -4  -9   3   71.55    3.72
   4   9  -3   79.42    4.28
  -4  -9   3   74.57    3.95
  -4   9   3   74.74    3.92
  -3  -9   3  315.50    9.75
  -3   9   3  316.31    8.52
  -3   9   3  308.90    9.57
  -3   9   3  301.92    9.75
   3  -9  -3  316.25   10.43
   3   9  -3  307.47   10.95
  -3  -9   3  318.23   10.03
  -2   9   3    6.24    0.91
   2   9  -3    5.54    1.23
  -2   9   3    5.49    1.13
   2  -9  -3    3.63    0.98
  -2   9   3    4.44    0.88
  -2  -9   3    2.93    0.73
  -2  -9   3    4.89    1.08
  -1   9   3  453.47   12.15
  -1  -9   3  480.47   13.79
   1   9  -3  460.51   15.08
   1  -9  -3  463.57   13.84
   1  -9  -3  450.07   13.33
  -1   9   3  498.47   12.97
  -1   9   3  453.51   12.67
  -1  -9   3  441.87   12.75
   0   9  -3   42.71    3.11
   0  -9  -3   49.36    3.01
   0   9   3   47.75    2.14
   0   9   3   44.55    2.71
   0   9  -3   47.38    3.40
   0  -9  -3   42.99    2.95
   0  -9   3   47.50    2.68
  -1   9  -3  409.26   11.96
  -1  -9  -3  393.43   12.52
  -1  -9  -3  403.37   11.93
   1   9   3  400.22   11.75
   1  -9   3  403.15   11.30
  -1   9  -3  395.22   13.85
   2   9   3  157.07    5.75
  -2  -9  -3  159.44    6.14
  -2   9  -3  160.26    6.01
   2  -9   3  163.85    5.60
  -2   9  -3  149.56    7.30
   3  -9   3   82.60    3.54
  -3  -9  -3   79.71    3.99
  -3  -9  -3   75.74    4.37
   3   9   3   81.69    3.64
  -3   9  -3   76.93    4.99
  -3   9  -3   81.93    3.92
  -4   9  -3  251.10    8.69
   4  -9   3  280.13    8.17
  -4  -9  -3  270.09    9.88
  -4  -9  -3  261.09    8.82
  -4   9  -3  276.13    9.84
  -5   9  -3    2.10    0.48
  -5  -9  -3    2.71    0.65
  -5  -9  -3    2.69    0.91
  -5   9  -3    2.63    0.98
  -6  -9  -3  127.28    5.52
  -6   9  -3  127.77    6.61
  -6  -9  -3  129.07    5.88
  -6   9  -3  130.68    5.46
  -7  -9  -3    9.97    1.86
  -7   9  -3   10.64    2.11
  -7 -10   3   46.39    3.73
  -7  10   3   47.43    3.85
  -7  10   3   46.43    3.91
  -6  10   3   73.30    4.61
  -6 -10   3   70.36    4.44
  -5 -10   3  126.99    6.01
  -5  10   3  140.08    6.34
  -5 -10   3  140.20    5.91
  -5  10   3  138.86    6.14
   4  10  -3   52.13    3.43
  -4 -10   3   47.06    3.03
  -4 -10   3   52.46    3.38
  -4  10   3   50.78    3.39
  -4  10   3   56.04    3.36
   4 -10  -3   51.29    3.61
  -3  10   3  185.56    6.79
  -3 -10   3  186.68    6.96
   3 -10  -3  187.80    7.50
  -3 -10   3  184.29    7.15
   3  10  -3  181.44    7.71
  -3  10   3  190.37    7.11
  -2  10   3   95.71    4.16
   2 -10  -3  101.05    4.96
   2  10  -3   96.62    5.16
  -2 -10   3   97.24    4.51
  -2  10   3   98.57    4.53
  -2 -10   3   95.40    4.68
   2 -10  -3  102.11    4.90
  -1  10   3   52.00    2.64
   1 -10  -3   55.62    3.52
  -1  10   3   50.94    2.90
   1  10  -3   53.39    3.71
  -1  10   3   56.03    3.08
   1 -10  -3   55.34    3.41
  -1 -10   3   56.99    3.19
  -1 -10   3   53.89    3.33
   0  10  -3  176.89    7.68
   0  10   3  169.63    5.96
   0 -10   3  155.82    6.88
   0 -10  -3  153.33    6.70
   0  10  -3  173.10    6.92
   0 -10   3  167.96    6.16
   0 -10  -3  161.55    6.57
  -1 -10  -3   39.32    2.82
  -1  10  -3   42.94    2.84
  -1  10  -3   43.09    3.46
   1 -10   3   39.17    2.51
  -1 -10  -3   38.85    2.99
  -2  10  -3   65.81    3.53
  -2 -10  -3   63.30    3.67
   2 -10   3   63.91    3.25
   2  10   3   68.42    3.32
  -2  10  -3   61.41    4.38
  -2 -10  -3   57.11    3.80
   3 -10   3   77.44    3.57
  -3 -10  -3   74.63    4.05
  -3 -10  -3   74.92    4.50
  -3  10  -3   82.32    5.33
  -3  10  -3   72.87    3.82
  -4 -10  -3    1.44    0.92
  -4 -10  -3    0.99    0.47
  -4  10  -3    1.10    0.36
  -4  10  -3    0.47    0.70
  -5  10  -3  171.54    7.91
  -5  10  -3  176.47    6.79
  -5 -10  -3  179.94    7.15
  -5 -10  -3  170.63    6.83
  -6  10  -3   15.22    2.63
  -6 -10  -3   16.37    2.38
  -6 -11   3   50.77    3.87
  -6  11   3   47.37    3.89
  -6  11   3   51.05    3.90
   5 -11  -3    6.64    1.87
  -5  11   3    8.60    1.91
  -5  11   3    7.90    1.76
  -5 -11   3   10.15    1.98
  -5 -11   3    7.17    1.11
  -4  11   3   61.09    3.92
  -4  11   3   68.93    3.93
   4 -11  -3   71.25    4.52
  -4 -11   3   74.05    4.05
   4  11  -3   73.11    4.22
  -4 -11   3   65.17    4.05
   3 -11  -3  131.30    6.08
  -3 -11   3  130.48    5.93
   3 -11  -3  125.38    6.08
  -3  11   3  132.13    5.55
  -3 -11   3  140.08    5.92
  -3  11   3  127.35    5.73
   3  11  -3  138.18    6.42
  -2 -11   3   81.77    4.23
  -2 -11   3   86.77    4.50
   2 -11  -3   80.87    4.59
   2  11  -3   81.00    4.77
   2 -11  -3   82.15    4.54
  -2  11   3   76.48    3.74
  -2  11   3   82.08    4.17
  -1  11   3  198.09    7.04
  -1 -11   3  206.81    7.96
   1  11  -3  183.38    8.08
  -1 -11   3  212.87    7.44
   1 -11  -3  197.70    7.75
   1 -11  -3  193.77    7.92
   1  11  -3  191.84    8.45
   0  11  -3   64.05    4.01
   0 -11  -3   68.49    4.05
   0 -11   3   69.62    3.69
   0 -11   3   68.36    4.21
   0  11   3   65.03    3.35
   0 -11  -3   71.13    4.28
   0  11  -3   68.43    4.53
  -1  11  -3  237.17   10.24
  -1 -11  -3  244.09    8.93
  -1 -11  -3  244.78    9.38
   1 -11   3  246.66    8.24
  -1  11  -3  243.02    8.58
   2 -11   3   61.58    3.32
  -2  11  -3   62.47    4.58
  -2 -11  -3   61.23    3.75
  -2 -11  -3   49.70    3.75
  -2  11  -3   58.88    3.42
   3 -11   3   16.93    1.54
  -3 -11  -3   16.31    2.14
  -3  11  -3   18.99    1.75
  -3 -11  -3   16.21    2.50
  -4 -11  -3  138.61    6.89
  -4 -11  -3  130.63    6.00
  -4  11  -3  131.24    5.61
  -4  11  -3  125.15    6.66
  -5 -11  -3    3.81    1.28
  -5  11  -3    4.46    1.62
  -5 -11  -3    4.80    1.38
  -5  12   3  110.61    5.98
  -5  12   3  112.39    5.87
   5 -12  -3  104.12    6.12
  -5 -12   3  130.74    6.33
   5 -12  -3  113.38    6.02
  -4 -12   3   14.50    2.31
   4 -12  -3   14.62    2.43
  -4  12   3   15.21    2.33
   4 -12  -3   15.84    2.52
  -4 -12   3   13.76    2.11
  -4  12   3   15.41    2.21
   3 -12  -3  120.26    6.30
   3 -12  -3  126.57    6.28
  -3 -12   3  128.08    5.97
   3  12  -3  123.31    6.19
  -3 -12   3  128.28    6.10
  -3  12   3  122.17    5.66
  -3  12   3  129.67    5.53
   2  12  -3  188.00    8.29
  -2 -12   3  187.35    7.84
  -2 -12   3  180.21    7.33
  -2  12   3  192.77    7.22
   2 -12  -3  185.89    8.15
   2 -12  -3  183.55    7.89
  -1 -12   3   76.13    4.51
  -1 -12   3   77.07    4.21
   1  12  -3   74.46    4.79
   1 -12  -3   75.22    4.82
   1  12  -3   77.02    4.88
   1 -12  -3   80.60    4.76
  -1  12   3   80.98    3.99
   0 -12  -3   67.87    4.59
   0 -12  -3   72.54    4.51
   0 -12   3   74.81    4.02
   0  12  -3   72.40    4.30
   0  12  -3   68.46    4.75
   0 -12   3   69.12    4.38
   1 -12   3   35.42    3.42
  -1  12  -3   22.47    3.11
  -1  12  -3   19.58    1.96
   1 -12   3   20.96    1.96
  -1 -12  -3   24.12    2.74
  -1 -12  -3   22.96    2.92
  -2 -12  -3   31.41    2.93
  -2 -12  -3   33.84    3.26
  -2  12  -3   33.51    2.53
   2 -12   3   33.72    2.45
  -3 -12  -3  102.45    5.48
  -3 -12  -3  105.01    6.04
  -3  12  -3  104.51    4.96
  -3  12  -3  106.47    5.98
  -4  12  -3    1.08    1.02
  -4 -12  -3    0.51    0.90
  -5 -12  -3  138.35    6.56
  -4  13   3   55.62    3.83
  -4  13   3   59.16    4.11
  -4 -13   3   64.07    4.26
  -3  13   3   58.72    3.91
   3 -13  -3   57.09    4.31
  -3 -13   3   53.93    3.97
   3 -13  -3   58.11    4.24
  -3 -13   3   55.92    3.95
   2  13  -3   64.66    5.16
  -2 -13   3   67.55    4.26
  -2 -13   3   65.86    4.46
   2 -13  -3   65.57    4.51
   2 -13  -3   58.35    4.42
   1 -13  -3  105.51    6.11
  -1 -13   3  119.66    6.30
   1  13  -3  101.15    6.04
  -1 -13   3  119.06    5.72
   1  13  -3   99.31    6.17
   1 -13  -3  113.45    6.05
   0 -13   3   41.77    3.28
   0  13  -3   37.96    3.35
   0 -13  -3   41.59    3.63
   0  13  -3   45.23    4.08
   0 -13   3   45.43    3.71
   0 -13  -3   44.95    3.88
  -1  13  -3  111.45    5.59
  -1 -13  -3  117.01    6.20
   1 -13   3  126.06    6.82
  -1  13  -3  114.00    7.08
   1 -13   3  119.43    5.66
  -1 -13  -3  123.59    6.66
  -2  13  -3   30.12    3.10
   2 -13   3   29.85    2.66
   2 -13   3   31.03    3.80
  -2 -13  -3   27.62    3.18
  -3 -13  -3    3.41    1.43
   2  14  -3  117.67    7.00
   1  14  -3   52.10    4.36
   0 -14   3   23.50    2.70
   0  14  -3   16.71    2.50
   1 -14   3   13.40    2.16
 -10   0   4   30.33    2.61
  -9   0   4   96.19    4.48
  -9   0   4   92.02    4.43
  -8   0   4  284.91    8.93
  -8   0   4  280.80    8.88
  -7   0   4  113.41    4.50
  -7   0   4  110.06    4.51
  -6   0   4  178.94    5.86
  -6   0   4  175.70    5.87
  -6   0   4  177.18    6.52
  -5   0   4   16.69    1.35
  -5   0   4   18.22    1.61
  -5   0   4   16.89    1.35
  -4   0   4  385.73   10.06
  -4   0   4  398.99   10.95
  -3   0   4  996.88   24.08
  -3   0   4 1007.28   25.01
  -3   0   4 1036.29   24.59
   2   0  -4  210.32    5.93
  -2   0   4  208.79    6.09
  -2   0   4  201.83    6.25
   1   0  -4  180.42    4.24
  -1   0   4  181.07    5.48
  -1   0   4  183.66    4.81
   1   0  -4  185.72    5.23
   0   0   4  575.38   14.26
   0   0  -4  564.21   14.21
   0   0  -4  570.29   13.68
   0   0  -4  560.55   12.53
   0   0   4  592.02   14.18
  -1   0  -4    4.91    0.63
  -1   0  -4    4.09    0.72
  -1   0  -4    4.05    0.70
  -1   0  -4    5.23    0.40
   1   0   4    3.62    0.79
  -2   0  -4   37.18    2.03
  -2   0  -4   39.69    1.86
  -3   0  -4   51.38    2.50
  -3   0  -4   44.96    2.24
  -3   0  -4   47.97    2.50
  -4   0  -4  120.10    4.60
  -4   0  -4  116.78    4.56
  -4   0  -4  112.03    4.20
  -5   0  -4  368.37    9.70
  -5   0  -4  354.70    9.93
  -5   0  -4  341.55   10.45
  -6   0  -4    9.14    1.52
  -6   0  -4   17.95    1.67
  -6   0  -4   11.24    1.07
  -7   0  -4  129.20    5.73
  -7   0  -4  128.81    5.51
  -8   0  -4   10.44    1.88
  -8   0  -4   11.87    2.03
  -9   0  -4   30.53    3.08
 -10   1   4   66.89    3.91
 -10   1   4   69.44    3.97
 -10  -1   4   67.77    4.11
  -9  -1   4  115.99    5.20
  -9   1   4  114.69    5.21
  -9   1   4  112.73    4.92
  -8  -1   4    1.05    0.50
  -8   1   4    2.73    0.75
  -8  -1   4    1.97    0.58
  -8  -1   4    1.92    0.82
  -8   1   4    2.98    0.76
  -7  -1   4  222.85    7.92
  -7  -1   4  207.90    7.06
  -7  -1   4  219.82    6.90
  -7   1   4  220.81    7.33
  -7   1   4  219.18    7.00
  -6  -1   4  116.17    4.19
  -6  -1   4  110.51    4.38
  -6   1   4  116.56    4.57
  -6   1   4  118.24    4.33
  -6  -1   4  112.68    4.89
   5  -1  -4  326.28    7.57
   5   1  -4  332.57    8.30
  -5   1   4  322.53    8.83
  -5  -1   4  327.35    9.03
  -5  -1   4  331.70    9.82
  -5   1   4  331.13    9.29
  -5  -1   4  328.29    8.85
  -4   1   4 1022.10   23.96
   4  -1  -4 1075.78   22.06
  -4  -1   4 1024.76   24.04
  -4  -1   4 1070.51   25.75
  -3  -1   4   39.79    2.00
  -3  -1   4   40.24    2.00
   3  -1  -4   43.06    1.27
   3  -1  -4   43.26    1.40
  -3  -1   4   43.28    2.21
  -3   1   4   44.01    2.13
  -3   1   4   41.63    2.27
   2  -1  -4 1602.67   36.56
  -2   1   4 1593.06   36.61
   2  -1  -4 1513.21   37.14
  -2  -1   4 1594.28   36.52
  -2  -1   4 1563.04   37.79
  -2  -1   4 1612.66   36.95
  -2   1   4 1591.12   38.15
  -1  -1   4  540.14   13.39
  -1  -1   4  555.15   13.23
   1   1  -4  534.29   13.47
   1  -1  -4  541.50   13.11
  -1  -1   4  526.60   13.85
   1  -1  -4  524.44   11.63
  -1   1   4  552.93   13.17
  -1   1   4  525.06   14.07
  -1   1   4  532.51   13.49
   0  -1   4 2656.93   54.79
   0  -1  -4 2702.84   62.96
   0   1  -4 2580.50   55.60
   0   1   4 2612.54   60.29
   0   1   4 2739.96   62.75
   0   1  -4 2619.78   60.93
   0  -1  -4 2536.47   54.94
   0   1   4 2753.11   61.85
   0  -1   4 2670.35   60.36
   0   1  -4 2616.76   61.02
   0  -1   4 2685.25   60.02
   0  -1  -4 2637.82   60.19
  -1  -1  -4  714.45   15.65
  -1   1  -4  706.76   16.27
  -1   1  -4  696.42   19.45
  -1   1  -4  701.02   17.56
   1  -1   4  718.01   17.26
  -1   1  -4  705.37   15.67
  -2  -1  -4  615.85   16.95
  -2   1  -4  611.98   14.38
  -2  -1  -4  635.36   15.48
   2  -1   4  632.64   15.69
  -2   1  -4  621.02   16.02
  -2   1  -4  624.43   17.55
  -2  -1  -4  642.12   14.58
  -2  -1  -4  628.33   14.34
  -3  -1  -4 1074.08   24.26
  -3  -1  -4 1103.09   26.06
  -3   1  -4 1080.09   26.09
  -3   1  -4 1083.11   29.37
  -3  -1  -4 1110.70   28.76
  -3   1  -4 1107.90   24.42
  -3  -1  -4 1098.74   25.41
  -4  -1  -4    1.75    0.59
  -4   1  -4    1.46    0.56
  -4  -1  -4    1.43    0.31
  -4   1  -4    0.45    0.32
  -4  -1  -4    1.09    0.47
  -4   1  -4    0.44    0.29
  -5  -1  -4  137.64    5.29
  -5   1  -4  126.43    4.91
  -5  -1  -4  140.56    4.29
  -5   1  -4  128.61    4.72
  -5  -1  -4  127.36    4.87
  -5   1  -4  123.90    5.14
  -6   1  -4   89.56    3.77
  -6  -1  -4   88.92    4.07
  -6  -1  -4   87.40    4.29
  -6   1  -4   83.64    4.22
  -6   1  -4   83.32    4.03
  -7   1  -4   99.71    4.97
  -7   1  -4  107.48    4.92
  -7   1  -4  108.42    4.45
  -7  -1  -4  105.51    5.11
  -8   1  -4  194.58    7.93
  -8  -1  -4  191.00    7.97
  -8  -1  -4  213.05    7.90
  -9  -1  -4    8.51    1.83
  -9  -1  -4    7.42    1.88
  -9   1  -4    5.86    1.62
 -10   2   4   12.78    2.10
 -10  -2   4   14.52    2.15
 -10   2   4   13.50    1.84
  -9   2   4   57.94    3.20
  -9  -2   4   58.69    3.59
  -9  -2   4   57.42    3.88
  -9   2   4   60.96    3.68
  -8   2   4  183.81    6.20
  -8   2   4  165.51    6.60
  -8  -2   4  177.63    5.88
  -8  -2   4  164.14    6.97
  -8  -2   4  165.21    6.44
  -7  -2   4   27.42    2.10
  -7  -2   4   25.33    2.23
  -7   2   4   27.26    1.88
  -7  -2   4   27.32    1.70
  -7   2   4   26.73    2.14
  -6  -2   4   28.73    2.20
  -6   2   4   21.50    1.59
  -6   2   4   20.63    1.80
  -6  -2   4   30.11    2.05
  -6  -2   4   30.55    1.68
  -5   2   4   57.82    2.90
   5   2  -4   54.54    1.90
  -5  -2   4   48.83    2.57
  -5   2   4   56.46    2.53
  -5  -2   4   46.72    2.77
  -5  -2   4   51.84    2.24
  -4  -2   4  260.56    7.44
  -4  -2   4  262.33    7.99
  -4   2   4  267.58    7.61
  -4  -2   4  270.98    7.07
   4  -2  -4  260.15    6.48
   4  -2  -4  271.03    6.32
  -3  -2   4  174.29    5.35
  -3  -2   4  179.66    5.73
  -3   2   4  185.94    6.14
   3  -2  -4  182.38    4.76
   3  -2  -4  183.49    5.04
  -3   2   4  184.18    5.60
  -3  -2   4  183.62    5.44
  -2   2   4   21.91    1.45
   2  -2  -4   24.10    1.13
  -2  -2   4   19.97    1.35
  -2   2   4   22.72    1.63
  -2  -2   4   22.56    1.32
   2  -2  -4   21.17    0.97
   1  -2  -4  702.86   16.85
  -1   2   4  738.31   17.55
  -1  -2   4  721.24   15.07
   1   2  -4  701.71   17.69
  -1   2   4  730.26   17.12
  -1   2   4  691.28   18.20
   1  -2  -4  692.19   17.27
  -1  -2   4  713.17   17.17
  -1  -2   4  698.46   17.07
   0  -2   4  162.63    4.44
   0   2   4  162.44    5.39
   0   2  -4  169.93    4.42
   0  -2   4  163.50    4.12
   0   2  -4  164.71    5.11
   0  -2  -4  157.55    4.52
   0  -2   4  151.13    4.78
  -1   2  -4   62.78    2.71
   1  -2   4   57.36    2.38
  -1   2  -4   62.84    1.82
  -1  -2  -4   60.20    2.25
  -1  -2  -4   58.31    2.35
  -1   2  -4   60.71    3.05
   1  -2   4   58.68    1.79
  -2   2  -4  168.79    5.94
  -2  -2  -4  153.56    4.91
  -2  -2  -4  150.37    4.56
   2  -2   4  151.42    4.84
  -2  -2  -4  147.41    4.79
  -2   2  -4  173.52    5.42
  -2  -2  -4  145.85    4.20
  -3  -2  -4  179.57    4.72
  -3   2  -4  170.57    6.49
  -3  -2  -4  190.80    5.49
  -3  -2  -4  182.68    5.79
  -3   2  -4  172.60    5.99
   3  -2   4  170.69    5.51
  -3  -2  -4  175.77    5.36
  -4  -2  -4  139.07    4.77
  -4  -2  -4  134.64    5.03
  -4   2  -4  128.64    5.03
  -4  -2  -4  144.08    3.88
  -4   2  -4  126.32    5.50
  -4  -2  -4  145.35    3.93
  -5  -2  -4  217.54    7.40
  -5   2  -4  217.98    7.44
  -5  -2  -4  218.80    7.00
  -5  -2  -4  237.50    5.99
  -5   2  -4  216.32    7.09
  -6  -2  -4   28.95    2.31
  -6   2  -4   21.46    2.00
  -6   2  -4   21.56    1.74
  -6  -2  -4   26.78    2.08
  -7   2  -4   73.81    4.13
  -7  -2  -4   73.52    4.18
  -7  -2  -4   70.96    3.88
  -7   2  -4   80.57    3.83
  -8   2  -4   40.78    3.19
  -8  -2  -4   40.68    3.16
  -8  -2  -4   37.50    3.23
  -9  -2  -4   44.19    3.47
  -9   2  -4   39.23    3.41
  -9  -2  -4   44.17    3.72
 -10  -3   4   23.94    2.76
 -10   3   4   31.30    3.04
  -9  -3   4  127.44    5.83
  -9   3   4  119.77    5.76
  -9   3   4  126.85    5.08
  -9  -3   4  131.58    6.32
  -8   3   4   10.45    1.69
  -8   3   4   12.84    1.19
  -8  -3   4   11.29    1.88
  -8  -3   4   11.62    1.69
  -7   3   4  431.02   11.43
  -7   3   4  444.99   12.69
  -7  -3   4  416.56   12.06
  -7  -3   4  408.26   12.85
  -6   3   4  113.60    4.85
  -6   3   4  119.48    4.23
  -6  -3   4  116.42    3.78
  -6  -3   4  120.18    3.37
  -6  -3   4  108.30    4.87
  -6  -3   4  107.75    4.50
  -5   3   4  233.44    6.71
  -5  -3   4  251.61    5.64
  -5   3   4  213.37    7.36
  -5  -3   4  242.55    6.32
  -5  -3   4  233.26    7.64
  -5  -3   4  221.02    7.04
  -4  -3   4  531.45   14.37
  -4  -3   4  579.08   11.79
  -4   3   4  544.03   13.84
  -4   3   4  536.72   14.16
  -4  -3   4  547.06   13.61
   4  -3  -4  506.25   12.39
  -4  -3   4  562.61   12.90
  -3   3   4   35.89    1.92
  -3  -3   4   32.51    1.92
   3  -3  -4   34.16    1.67
  -3  -3   4   35.73    1.90
  -3   3   4   30.42    2.13
  -3  -3   4   35.98    1.61
   2  -3  -4 1351.98   31.93
  -2  -3   4 1334.50   31.56
   2  -3  -4 1394.22   30.30
  -2   3   4 1313.27   31.36
  -2  -3   4 1346.52   29.93
  -2  -3   4 1361.26   31.64
  -2   3   4 1282.50   32.92
  -2  -3   4 1338.19   32.01
   1  -3  -4   21.71    1.29
   1   3  -4   25.65    1.95
  -1   3   4   21.15    1.11
  -1   3   4   19.24    1.55
   1  -3  -4   23.08    0.99
  -1  -3   4   22.05    1.26
  -1  -3   4   21.85    0.95
  -1  -3   4   22.10    1.35
   0  -3  -4 2044.87   44.54
   0  -3  -4 2076.89   44.50
   0   3  -4 1914.05   46.40
   0  -3   4 1987.58   45.46
   0  -3   4 1998.05   45.21
   0   3  -4 1989.67   51.90
   0  -3  -4 1950.28   46.97
   0   3   4 1984.29   47.74
   0   3   4 1938.35   46.00
   1  -3   4 1048.91   24.58
  -1   3  -4 1027.06   28.66
  -1   3  -4 1068.61   25.68
   1  -3   4 1038.64   24.33
  -1   3  -4 1050.67   24.12
  -1  -3  -4 1087.22   23.90
  -1  -3  -4 1058.60   24.44
  -2  -3  -4  196.71    5.65
   2  -3   4  193.83    4.84
  -2  -3  -4  200.96    5.92
   2  -3   4  195.72    5.58
  -2   3  -4  191.73    6.31
  -2  -3  -4  192.67    5.47
  -2   3  -4  193.41    7.16
  -2  -3  -4  204.64    4.95
  -2  -3  -4  205.40    5.69
  -3   3  -4 1183.14   28.28
   3  -3   4 1140.25   26.79
  -3   3  -4 1152.42   31.38
  -3  -3  -4 1124.59   25.43
  -3  -3  -4 1146.47   26.57
  -3  -3  -4 1122.07   27.14
  -4   3  -4   38.46    2.72
   4  -3   4   39.60    2.05
  -4  -3  -4   39.71    2.27
  -4  -3  -4   43.20    2.49
  -5   3  -4  201.85    7.18
  -5   3  -4  203.73    7.06
  -5  -3  -4  225.10    6.03
  -5  -3  -4  203.11    6.72
  -5  -3  -4  217.30    7.31
  -6  -3  -4   82.48    3.96
  -6   3  -4   84.05    4.01
  -6  -3  -4   76.55    4.07
  -6   3  -4   78.60    4.05
  -7   3  -4  139.98    5.74
  -7   3  -4  135.98    5.97
  -7  -3  -4  138.19    6.13
  -7  -3  -4  135.77    5.73
  -8  -3  -4  150.51    6.90
  -8   3  -4  142.74    6.09
  -8   3  -4  136.40    6.39
  -8  -3  -4  153.41    6.52
  -9  -3  -4    5.78    1.75
  -9   3  -4    5.61    1.57
 -10  -4   4   30.71    3.18
 -10   4   4   26.71    3.18
  -9   4   4   24.03    2.44
  -9  -4   4   31.38    3.00
  -9  -4   4   30.88    2.80
  -8   4   4   84.28    3.58
  -8  -4   4   78.91    4.19
  -8  -4   4   73.44    4.40
  -8   4   4   79.11    4.44
  -7  -4   4   35.57    2.55
  -7   4   4   37.97    2.80
  -7   4   4   36.48    2.11
  -7  -4   4   37.23    2.82
  -6   4   4  324.83   10.22
  -6  -4   4  324.21   10.32
  -6   4   4  330.55    8.98
  -6  -4   4  317.75    9.69
  -6  -4   4  342.72    8.00
  -5  -4   4   24.40    1.98
  -5  -4   4   25.37    1.87
  -5  -4   4   25.78    1.13
  -5  -4   4   27.52    1.21
  -5   4   4   23.83    1.53
  -5   4   4   26.19    2.08
  -4  -4   4  208.26    5.07
  -4   4   4  203.71    6.81
  -4  -4   4  199.88    6.32
  -4   4   4  214.97    6.30
  -4  -4   4  204.31    6.71
  -4  -4   4  206.85    5.25
   3  -4  -4   19.22    1.34
  -3  -4   4   18.32    0.96
  -3  -4   4   21.46    1.08
  -3   4   4   16.80    1.29
  -3  -4   4   16.63    1.31
  -3  -4   4   18.34    1.42
  -3   4   4   15.32    1.54
  -2  -4   4  155.08    4.57
  -2  -4   4  155.52    4.52
   2  -4  -4  159.89    4.99
  -2   4   4  151.56    5.05
  -2   4   4  157.09    5.68
  -2  -4   4  159.32    4.79
  -2  -4   4  155.74    4.95
   1  -4  -4  485.21   12.93
  -1   4   4  493.13   13.01
  -1  -4   4  492.14   11.85
   1  -4  -4  492.36   11.50
  -1   4   4  500.56   13.66
  -1   4   4  521.40   11.85
  -1  -4   4  478.46   12.36
   1   4  -4  494.67   13.56
   0   4  -4   60.02    2.85
   0  -4  -4   49.59    2.47
   0   4   4   63.29    2.99
   0   4  -4   54.52    3.14
   0  -4   4   54.66    2.12
   0  -4  -4   55.26    2.03
   1   4   4  131.05    4.80
  -1  -4  -4  116.69    4.41
  -1  -4  -4  118.86    3.85
   1  -4   4  119.53    3.50
  -1   4  -4  123.36    5.27
   1  -4   4  115.63    3.68
  -1  -4  -4  127.13    3.44
  -1   4  -4  122.21    4.47
  -2   4  -4  285.16   10.08
   2  -4   4  298.11    7.74
  -2  -4  -4  295.02    8.09
  -2  -4  -4  313.32    8.34
  -2   4  -4  303.25    8.92
  -2  -4  -4  307.58    8.06
   2   4   4  303.45    9.20
  -3   4  -4  202.05    6.82
  -3  -4  -4  210.61    6.00
  -3   4  -4  197.79    7.75
  -3  -4  -4  205.46    6.44
  -3  -4  -4  210.85    6.28
   3  -4   4  206.72    5.65
   4  -4   4   73.91    2.68
  -4   4  -4   80.18    3.78
  -4  -4  -4   74.35    3.36
  -4  -4  -4   75.77    2.86
  -4   4  -4   77.17    4.25
  -4  -4  -4   69.56    3.40
  -5  -4  -4   38.34    2.56
  -5   4  -4   33.52    2.41
  -5  -4  -4   36.40    1.85
  -5  -4  -4   41.19    2.50
  -6  -4  -4   34.20    2.43
  -6   4  -4   33.66    2.50
  -6  -4  -4   27.99    2.36
  -6   4  -4   32.41    2.42
  -7   4  -4  138.10    5.94
  -7  -4  -4  142.06    5.91
  -7   4  -4  139.17    6.07
  -7  -4  -4  146.91    6.37
  -8  -4  -4    3.93    1.48
  -8   4  -4    4.43    1.43
  -8  -4  -4    6.34    1.54
  -8   4  -4    3.84    0.83
  -9   4  -4   41.71    3.51
 -10  -5   4   39.50    3.71
 -10   5   4   33.98    3.70
  -9   5   4  101.69    5.68
  -9  -5   4  111.77    6.00
  -9  -5   4  104.66    5.45
  -8  -5   4   -0.51    0.36
  -8   5   4    0.43    0.44
  -8  -5   4    0.06    0.37
  -7   5   4  283.25    9.90
  -7  -5   4  279.32    9.91
  -7   5   4  296.34   10.06
  -7  -5   4  288.58    9.41
  -7   5   4  312.53    8.44
  -6  -5   4  141.66    5.92
  -6   5   4  138.23    5.93
  -6  -5   4  154.99    4.37
  -6   5   4  149.66    6.09
  -6   5   4  151.57    4.88
  -6  -5   4  137.86    5.53
  -5   5   4  377.72   11.40
  -5  -5   4  378.54   11.36
  -5  -5   4  400.54    9.19
  -5   5   4  380.87   11.35
  -5   5   4  382.97    9.97
  -5  -5   4  384.88   10.81
  -4   5   4  189.36    6.65
  -4  -5   4  187.49    6.41
  -4   5   4  198.28    6.58
  -4   5   4  189.36    5.90
  -4  -5   4  183.84    6.07
  -4  -5   4  197.44    5.72
  -3  -5   4  113.69    4.30
  -3  -5   4  115.47    3.83
  -3   5   4  109.75    4.05
  -3   5   4  117.62    4.40
  -3   5   4  110.60    4.85
   3  -5  -4  121.15    4.35
  -3  -5   4  115.21    4.10
  -3  -5   4  119.25    3.24
  -2  -5   4  786.28   18.66
  -2  -5   4  762.89   18.97
   2  -5  -4  793.36   19.55
  -2  -5   4  774.21   19.01
  -2   5   4  748.27   18.90
  -2  -5   4  758.33   17.96
  -2   5   4  753.43   20.29
  -1   5   4  113.87    4.39
  -1  -5   4  111.17    3.60
  -1   5   4  116.06    3.13
   1  -5  -4  114.40    4.20
  -1   5   4  111.14    4.57
   1   5  -4  104.36    4.94
   1   5  -4  106.81    4.70
  -1  -5   4  111.48    3.81
   0   5  -4 1150.94   28.43
   0  -5  -4 1176.95   26.43
   0  -5  -4 1161.85   28.66
   0   5  -4 1150.69   31.85
   0  -5   4 1159.29   25.74
   0   5   4 1152.04   29.03
  -1  -5  -4  575.88   14.82
   1  -5   4  581.72   14.10
   1   5   4  590.25   15.89
  -1  -5  -4  595.32   15.75
   1  -5   4  589.47   13.44
  -1   5  -4  569.84   15.36
  -1  -5  -4  599.00   14.29
  -2  -5  -4   87.82    3.33
  -2  -5  -4   83.92    3.29
   2  -5   4   83.69    2.67
   2  -5   4   87.22    2.70
  -2   5  -4   78.86    3.62
   2   5   4   82.28    3.78
  -2  -5  -4   83.72    3.81
  -3  -5  -4  731.07   18.06
  -3  -5  -4  726.00   17.24
   3  -5   4  711.35   16.79
  -3  -5  -4  739.89   17.87
   3  -5   4  699.29   16.75
  -3   5  -4  715.75   21.45
   3   5   4  718.82   19.25
  -3   5  -4  724.58   18.87
  -4  -5  -4    6.51    1.13
  -4  -5  -4    9.06    0.86
  -4   5  -4    5.61    1.36
  -4   5  -4    9.27    1.41
  -4  -5  -4    8.19    1.27
  -5   5  -4  460.62   13.08
  -5  -5  -4  454.15   13.09
  -5  -5  -4  459.73   12.44
  -6   5  -4   68.25    3.89
  -6   5  -4   67.34    3.74
  -6  -5  -4   68.32    3.69
  -6  -5  -4   72.45    3.97
  -7  -5  -4   94.45    4.77
  -7  -5  -4   99.97    5.12
  -7   5  -4   93.54    4.76
  -7   5  -4   90.18    4.73
  -8  -5  -4   54.45    3.70
  -8   5  -4   47.72    3.58
  -8  -5  -4   56.07    4.03
  -8   5  -4   48.85    3.65
  -9   5  -4    5.86    1.45
  -9   5  -4    7.80    1.78
  -9   6   4   33.08    3.26
  -9  -6   4   39.38    3.52
  -8   6   4   78.97    4.82
  -8  -6   4   67.66    4.20
  -8   6   4   77.94    4.69
  -8  -6   4   66.20    4.32
  -7   6   4    8.91    1.67
  -7  -6   4    8.39    1.60
  -7  -6   4   10.46    1.62
  -7   6   4   10.44    1.81
  -6   6   4  331.64   10.93
  -6  -6   4  347.56   11.08
  -6   6   4  331.09   11.03
  -6  -6   4  346.89   10.47
  -6   6   4  354.14    9.27
  -6  -6   4  365.51    8.85
  -5  -6   4   29.36    1.54
  -5  -6   4   29.83    2.15
  -5   6   4   31.09    2.34
  -5   6   4   29.96    2.40
  -5  -6   4   25.43    2.13
  -4  -6   4  202.49    6.17
  -4  -6   4  190.00    6.34
  -4   6   4  198.69    6.07
  -4  -6   4  185.22    6.62
  -4   6   4  195.67    6.95
  -4   6   4  203.96    6.82
  -3  -6   4   62.20    2.84
  -3  -6   4   59.38    2.66
  -3   6   4   62.72    3.04
  -3  -6   4   60.78    2.99
  -3   6   4   69.43    2.87
   3  -6  -4   60.66    3.04
  -2   6   4   32.77    1.92
  -2  -6   4   31.17    1.78
  -2   6   4   30.13    2.27
  -2  -6   4   32.06    1.30
  -2  -6   4   31.44    1.78
  -2   6   4   31.94    1.93
  -2  -6   4   31.28    1.93
   2   6  -4   30.51    2.45
   2  -6  -4   34.86    2.12
   1  -6  -4   81.68    3.67
  -1   6   4   91.38    3.91
   1   6  -4   86.96    4.48
  -1   6   4   90.97    2.56
  -1  -6   4   82.03    3.02
   1   6  -4   87.00    4.34
  -1  -6   4   82.51    3.31
  -1   6   4   88.97    4.04
   0  -6   4   73.85    2.91
   0   6   4   78.89    3.69
   0  -6  -4   76.27    3.51
   0   6  -4   73.03    4.11
   0  -6   4   71.80    2.57
   0   6  -4   81.74    3.81
   1   6   4    9.76    1.35
  -1   6  -4    9.30    1.60
   1  -6   4    7.23    0.75
  -1  -6  -4    8.21    1.12
  -1  -6  -4    7.35    1.22
  -1   6  -4   10.12    1.31
   1  -6   4    8.55    0.63
  -2  -6  -4  560.52   14.78
  -2   6  -4  575.17   15.47
   2   6   4  566.83   15.74
   2  -6   4  576.55   13.93
  -2  -6  -4  574.98   15.95
   2  -6   4  562.22   12.86
  -2  -6  -4  588.31   14.48
  -2   6  -4  571.51   17.84
   3  -6   4  114.15    3.49
  -3  -6  -4  115.08    4.40
   3   6   4  118.13    4.85
  -3  -6  -4  109.37    4.22
  -3   6  -4  108.72    4.65
  -3   6  -4  110.80    5.65
  -4  -6  -4   90.75    3.72
  -4  -6  -4   89.51    4.04
  -4   6  -4   96.67    4.40
   4   6   4   97.11    4.39
  -4  -6  -4   90.29    4.10
  -4   6  -4   99.30    5.38
  -5  -6  -4   20.48    1.84
   5   6   4   24.00    1.99
  -5  -6  -4   19.52    1.49
  -5  -6  -4   18.85    1.84
  -6   6  -4   15.31    2.06
  -6  -6  -4   13.69    1.88
  -6   6  -4   15.12    1.91
  -6  -6  -4   14.86    1.95
  -7  -6  -4  232.79    8.40
  -7   6  -4  229.48    9.00
  -7   6  -4  229.58    8.45
  -8  -6  -4    9.84    1.93
  -8   6  -4    5.22    1.45
  -8   6  -4    4.62    1.30
  -9   7   4  201.87    8.96
  -9  -7   4  206.09    9.05
  -8   7   4    6.69    1.77
  -8  -7   4    6.81    1.79
  -8   7   4    6.47    1.78
  -7   7   4   80.55    4.66
  -7   7   4   86.64    4.91
  -7  -7   4   83.31    4.69
  -7  -7   4   84.25    4.43
  -6   7   4   52.48    3.40
  -6  -7   4   52.18    3.17
  -6   7   4   48.44    3.44
  -5   7   4  170.12    6.67
  -5   7   4  175.79    6.94
  -5  -7   4  182.10    6.44
  -5  -7   4  184.87    6.08
  -4  -7   4  360.95   10.25
  -4   7   4  356.05   11.07
   4  -7  -4  358.00   11.14
  -4   7   4  354.70   10.68
  -4   7   4  371.39    9.91
  -4  -7   4  377.53   10.46
  -4  -7   4  355.89   10.79
   3   7  -4  248.18    9.24
   3  -7  -4  245.88    8.09
  -3   7   4  247.39    8.17
  -3  -7   4  249.69    7.61
  -3   7   4  236.75    7.64
  -3   7   4  246.24    7.33
  -3  -7   4  258.84    7.45
  -2  -7   4  661.97   15.88
   2  -7  -4  666.39   17.65
   2   7  -4  628.93   19.67
  -2  -7   4  665.88   17.01
  -2   7   4  638.52   16.64
  -2   7   4  665.86   16.49
  -2  -7   4  669.84   17.19
  -2   7   4  643.18   18.15
   1   7  -4   54.73    3.54
  -1  -7   4   55.91    2.67
  -1   7   4   58.10    2.50
   1  -7  -4   56.22    3.06
  -1   7   4   57.23    3.08
   1   7  -4   55.94    3.61
  -1   7   4   52.95    3.12
  -1  -7   4   56.43    2.36
   0  -7  -4  142.49    5.33
   0   7  -4  140.71    6.41
   0   7   4  149.89    5.70
   0  -7   4  131.91    4.08
   0   7  -4  151.49    5.80
   0  -7  -4  139.16    5.51
   0  -7   4  142.45    4.76
  -1  -7  -4  479.08   13.82
  -1   7  -4  464.99   15.46
   1  -7   4  476.85   11.04
   1   7   4  483.84   13.70
  -1  -7  -4  479.05   13.11
  -1   7  -4  465.03   13.32
   1  -7   4  485.20   12.26
  -2  -7  -4  133.18    5.54
  -2  -7  -4  134.18    5.00
  -2   7  -4  121.60    6.16
   2  -7   4  133.19    4.25
   2   7   4  125.56    5.17
  -2   7  -4  127.25    5.15
  -3   7  -4  535.75   17.61
  -3   7  -4  528.68   15.00
   3   7   4  527.07   15.14
  -3  -7  -4  558.08   14.53
  -3  -7  -4  554.02   15.79
   3  -7   4  525.74   13.32
  -4   7  -4   19.48    2.28
   4   7   4   19.65    1.74
  -4  -7  -4   21.91    1.87
  -4   7  -4   21.25    1.89
  -4  -7  -4   18.01    1.50
   5   7   4  347.27   10.76
  -5  -7  -4  338.88    9.92
  -5   7  -4  322.18   11.12
  -5  -7  -4  335.30   10.17
  -5   7  -4  324.16   10.65
  -6   7  -4  108.17    5.59
  -6   7  -4  106.47    5.00
  -6  -7  -4  114.18    5.26
  -7   7  -4   43.69    3.59
  -7   7  -4   48.36    3.32
  -7  -7  -4   44.04    3.33
  -8   7  -4   30.43    2.79
  -8   8   4   88.47    5.46
  -8   8   4   82.60    5.21
  -8  -8   4   72.48    4.89
  -7   8   4    6.14    1.67
  -7  -8   4    6.64    1.82
  -7   8   4    6.91    1.87
  -6  -8   4  247.91    8.58
  -6  -8   4  254.50    9.16
  -6   8   4  249.35    9.34
  -6   8   4  256.76    9.19
  -5  -8   4   48.63    2.99
  -5   8   4   55.97    3.62
   5   8  -4   54.61    3.65
  -5  -8   4   49.28    3.25
  -5   8   4   58.92    3.44
  -5  -8   4   53.67    2.82
  -4   8   4  203.43    7.29
  -4   8   4  219.97    6.52
  -4  -8   4  205.66    6.97
  -4  -8   4  207.24    7.07
  -4  -8   4  215.18    7.53
  -4   8   4  214.92    7.86
   4   8  -4  215.15    8.58
   4  -8  -4  219.98    7.79
  -3   8   4   43.95    2.24
   3   8  -4   41.88    3.11
  -3  -8   4   35.03    2.18
  -3  -8   4   36.30    2.48
  -3   8   4   39.41    2.42
  -3   8   4   40.00    2.75
   3  -8  -4   34.64    2.48
  -3  -8   4   38.59    2.31
  -2   8   4    6.02    0.96
  -2   8   4    4.59    0.86
   2   8  -4    4.77    1.19
   2  -8  -4    5.16    1.09
  -2  -8   4    2.98    0.83
  -2  -8   4    6.59    0.95
  -2  -8   4    5.00    0.92
  -1  -8   4   82.86    3.65
   1   8  -4   91.65    4.95
   1   8  -4   85.83    4.74
   1  -8  -4   83.84    4.14
  -1   8   4   91.33    3.39
  -1  -8   4   80.63    3.08
  -1   8   4   85.84    4.27
  -1  -8   4   83.78    4.04
  -1   8   4   91.79    4.12
   0  -8   4   84.70    3.51
   0   8  -4   83.50    4.24
   0   8  -4   84.10    4.82
   0  -8  -4   77.13    4.02
   0  -8   4   80.79    2.80
   0   8   4   88.49    4.18
   0  -8  -4   81.87    3.95
   1  -8   4   23.74    1.60
  -1   8  -4   23.44    2.01
  -1   8  -4   24.24    2.46
  -1  -8  -4   26.77    2.22
   1   8   4   25.85    2.04
  -1  -8  -4   21.69    1.87
   2   8   4  164.93    6.24
  -2  -8  -4  164.28    6.09
  -2   8  -4  158.94    6.17
  -2  -8  -4  162.56    6.65
   2  -8   4  170.62    5.34
  -2   8  -4  158.39    7.49
  -3  -8  -4   36.45    2.80
  -3   8  -4   34.46    2.48
   3  -8   4   38.32    1.94
  -3   8  -4   35.39    3.20
  -3  -8  -4   39.46    2.50
   3   8   4   37.43    2.49
   4   8   4  129.63    5.40
  -4   8  -4  129.72    5.52
  -4   8  -4  129.88    6.95
  -4  -8  -4  132.87    5.44
  -4  -8  -4  126.05    5.13
  -5  -8  -4   81.64    3.83
  -5   8  -4   82.22    4.75
  -5  -8  -4   87.37    4.40
  -5   8  -4   74.66    4.11
  -6  -8  -4   19.70    2.46
  -6   8  -4   20.36    2.80
  -6   8  -4   18.53    1.81
  -7   8  -4   89.16    5.46
  -7   8  -4   90.57    4.85
  -7  -8  -4   90.51    4.97
  -7   9   4   73.32    4.94
  -7  -9   4   77.20    4.89
  -7   9   4   80.48    4.96
   6   9  -4   18.04    1.88
  -6   9   4   26.70    2.97
  -6   9   4   21.78    2.58
  -6  -9   4   22.18    2.57
   5  -9  -4   81.97    4.57
  -5  -9   4   86.56    4.50
  -5   9   4   76.53    4.50
   5   9  -4   80.60    4.69
  -5   9   4   77.79    4.23
   4  -9  -4  240.91    8.93
  -4  -9   4  255.20    8.47
  -4   9   4  266.45    8.69
  -4  -9   4  253.15    8.13
  -4  -9   4  249.92    8.77
  -4   9   4  262.28    9.11
   4   9  -4  264.16   10.04
   3   9  -4  100.00    5.39
  -3  -9   4  102.21    4.50
  -3   9   4  108.46    5.02
  -3   9   4  106.02    4.03
  -3  -9   4  107.02    4.77
  -3   9   4  107.06    4.51
  -3  -9   4  107.82    4.26
   3  -9  -4  102.59    4.87
  -2  -9   4  581.47   13.88
  -2   9   4  553.64   14.55
   2  -9  -4  537.72   15.83
  -2   9   4  544.49   14.33
  -2   9   4  518.08   15.02
  -2  -9   4  558.51   15.50
   2   9  -4  525.15   17.52
   1   9  -4   46.73    3.49
  -1  -9   4   43.75    2.08
  -1   9   4   43.73    2.77
   1   9  -4   47.69    3.61
  -1   9   4   40.94    2.16
  -1   9   4   47.74    3.07
   1  -9  -4   43.38    2.97
  -1  -9   4   46.40    2.92
   1  -9  -4   43.20    2.94
  -1  -9   4   43.54    2.60
   0  -9  -4  119.63    5.21
   0   9   4  118.48    5.24
   0   9  -4  110.83    5.27
   0  -9   4  122.79    4.68
   0  -9  -4  126.97    5.56
   0   9  -4  113.65    6.04
  -1  -9  -4  263.08    8.74
  -1  -9  -4  262.33    9.22
   1  -9   4  247.59    7.73
   1   9   4  254.89    8.68
  -1   9  -4  248.09    8.59
  -1   9  -4  254.51   10.33
  -2   9  -4   79.38    4.06
   2   9   4   79.59    3.97
  -2   9  -4   81.45    5.14
   2  -9   4   80.14    3.41
  -2  -9  -4   80.18    4.06
  -2  -9  -4   79.93    4.46
  -3  -9  -4  257.06    9.41
  -3   9  -4  229.81    8.42
  -3   9  -4  247.41   10.62
   3   9   4  247.92    8.44
  -3  -9  -4  259.36    8.55
  -4  -9  -4   25.86    2.07
  -4   9  -4   28.51    2.29
  -4   9  -4   28.63    3.12
  -5  -9  -4  309.57   10.08
  -5   9  -4  299.52   11.22
  -5  -9  -4  309.78    9.81
  -5   9  -4  292.40   10.15
  -6   9  -4   36.58    2.88
  -6   9  -4   37.13    3.45
  -6  -9  -4   34.51    2.96
  -7   9  -4   40.85    3.15
  -7  10   4    3.42    1.41
  -7 -10   4    2.44    1.20
  -7  10   4    2.70    1.28
  -6 -10   4  114.20    5.93
   6 -10  -4  111.52    6.12
  -6  10   4  123.95    6.38
  -6  10   4  114.43    5.88
  -5 -10   4   21.25    2.50
  -5  10   4   21.59    2.69
  -5  10   4   28.79    2.43
   5 -10  -4   20.11    2.12
   5  10  -4   25.38    2.40
  -4 -10   4   36.26    2.81
  -4  10   4   37.05    2.95
  -4  10   4   34.91    2.51
   4 -10  -4   31.89    2.65
  -4 -10   4   38.12    2.53
   4  10  -4   33.62    2.86
  -3  10   4   77.42    4.27
  -3 -10   4   80.28    3.99
   3 -10  -4   78.58    4.32
  -3  10   4   77.44    3.78
   3  10  -4   74.28    4.64
  -3 -10   4   78.40    4.13
   2 -10  -4   19.26    1.98
  -2  10   4   23.50    1.67
  -2  10   4   20.22    1.60
  -2  10   4   20.72    1.97
  -2 -10   4   21.84    1.87
   2  10  -4   23.84    2.41
  -2 -10   4   21.59    1.91
   2 -10  -4   20.92    2.12
  -1  10   4  133.76    5.45
   1  10  -4  135.94    6.68
   1 -10  -4  122.70    5.64
  -1 -10   4  123.16    5.13
  -1 -10   4  128.71    5.63
   1  10  -4  124.65    6.18
   1 -10  -4  114.43    5.61
  -1  10   4  129.54    5.30
   0 -10  -4   62.97    3.90
   0 -10  -4   65.56    3.82
   0  10  -4   66.48    4.51
   0  10   4   61.79    3.60
   0  10  -4   66.11    3.96
   0 -10   4   67.58    3.39
  -1 -10  -4   50.97    3.26
  -1 -10  -4   47.40    3.37
  -1  10  -4   51.46    3.23
   1  10   4   48.31    3.03
  -1  10  -4   41.42    3.60
   1 -10   4   47.55    2.68
  -2 -10  -4   89.56    4.59
  -2  10  -4   94.31    4.63
  -2  10  -4   92.49    5.79
   2 -10   4   92.92    3.95
  -2 -10  -4   96.37    5.17
   2  10   4   92.61    4.41
  -3  10  -4    3.25    0.81
  -3 -10  -4    1.37    0.53
  -3  10  -4    3.70    1.42
  -3 -10  -4    2.25    0.99
  -4  10  -4   80.50    4.28
  -4 -10  -4   83.95    4.29
  -5 -10  -4   77.37    4.10
  -5  10  -4   73.59    4.23
  -5 -10  -4   76.05    4.43
  -5  10  -4   66.84    4.85
  -6  10  -4   19.16    2.35
  -6  11   4   14.52    2.61
  -6  11   4   19.30    2.67
   6 -11  -4   13.37    2.38
  -6 -11   4   21.04    2.84
  -5  11   4   39.31    3.21
  -5 -11   4   47.50    3.57
  -5  11   4   46.22    3.77
   5 -11  -4   41.71    3.51
   4  11  -4   84.89    5.13
  -4 -11   4  108.36    5.35
   4 -11  -4   98.77    5.30
  -4  11   4   87.86    5.02
  -4  11   4   91.85    4.57
  -3 -11   4    2.25    0.44
   3 -11  -4    2.29    1.04
  -3  11   4    3.64    1.02
   3 -11  -4    5.64    1.34
  -3  11   4    3.95    0.73
   3  11  -4    2.81    0.72
  -3 -11   4    3.78    1.08
  -2 -11   4  274.82    9.30
   2 -11  -4  276.66   10.02
  -2  11   4  276.66    9.52
   2  11  -4  268.15   10.98
  -2 -11   4  292.00    9.90
   2 -11  -4  280.26   10.15
  -1  11   4   33.05    2.44
  -1  11   4   29.70    2.25
   1 -11  -4   26.66    2.50
   1  11  -4   27.92    2.94
   1  11  -4   32.35    3.02
  -1 -11   4   24.85    2.20
  -1 -11   4   31.24    2.38
   1 -11  -4   28.75    2.61
   0  11   4  250.85    8.88
   0  11  -4  261.69    9.37
   0 -11   4  253.48    8.46
   0  11   4  244.42    8.41
   0 -11  -4  247.51    9.60
   0 -11  -4  269.18    9.55
   0  11  -4  239.54   10.48
   0 -11   4  260.31    9.68
   1 -11   4  133.62    5.33
  -1 -11  -4  141.34    6.31
  -1 -11  -4  138.81    6.63
  -1  11  -4  130.71    7.26
  -1  11  -4  128.36    5.85
  -2  11  -4   44.78    3.08
  -2  11  -4   42.09    4.06
   2 -11   4   42.78    2.57
  -2 -11  -4   37.38    2.94
  -2 -11  -4   42.19    3.58
  -3  11  -4   74.67    4.22
  -3 -11  -4   84.53    5.22
  -3  11  -4   79.46    5.90
  -3 -11  -4   86.09    4.64
  -4 -11  -4   58.02    4.39
  -4  11  -4   56.78    3.72
  -4 -11  -4   66.15    4.06
  -4  11  -4   60.86    4.56
  -5  11  -4  171.29    7.33
  -5 -11  -4  178.72    7.32
  -5  12   4   15.16    2.32
   5 -12  -4   12.44    2.26
  -5  12   4   15.72    2.62
   4 -12  -4    7.59    1.88
  -4 -12   4    6.96    1.79
  -4  12   4    4.89    1.50
  -4  12   4    5.16    1.29
   4 -12  -4    5.79    1.58
   3 -12  -4  126.69    6.54
  -3 -12   4  131.80    6.21
   3 -12  -4  130.46    6.58
   3  12  -4  139.52    7.15
  -3  12   4  141.50    6.45
  -3 -12   4  122.33    5.93
   2 -12  -4   23.91    2.87
  -2  12   4   21.98    2.07
   2 -12  -4   25.95    2.98
   2  12  -4   18.78    2.82
   2  12  -4   24.31    3.43
  -2 -12   4   18.48    1.90
  -1  12   4  128.05    5.55
   1  12  -4  119.90    6.40
  -1 -12   4  122.41    5.54
  -1 -12   4  124.37    6.02
   1  12  -4  126.91    7.03
   1 -12  -4  112.51    6.15
   1 -12  -4  116.54    6.12
   0  12  -4   61.08    4.85
   0  12  -4   62.59    4.13
   0 -12   4   65.01    4.38
   0 -12  -4   70.61    4.69
   0 -12   4   66.76    3.69
   0 -12  -4   72.35    4.59
   1 -12   4   78.10    5.27
  -1 -12  -4   77.84    4.79
  -1  12  -4   77.77    4.46
   1 -12   4   70.47    3.76
  -1  12  -4   75.73    5.58
  -1 -12  -4   74.43    4.93
  -2  12  -4   80.25    4.54
  -2 -12  -4   74.28    5.00
  -2  12  -4   69.99    5.54
  -2 -12  -4   75.91    4.69
  -3  12  -4    1.56    0.85
  -3 -12  -4    1.09    1.03
  -3 -12  -4    0.54    0.81
  -4 -12  -4   54.32    3.90
  -4  13   4  120.87    6.31
  -3  13   4    0.58    0.89
  -3 -13   4    0.75    0.95
  -2 -13   4  193.05    8.40
   2 -13  -4  203.12    8.74
   2  13  -4  190.16    9.23
   2  13  -4  191.02    9.06
   1  13  -4   29.85    3.35
  -1 -13   4   28.34    2.80
   1  13  -4   27.52    3.29
   1 -13  -4   30.73    3.21
  -1 -13   4   28.59    2.76
   1 -13  -4   31.83    3.20
   0 -13  -4   98.29    5.73
   0  13  -4   81.30    5.01
   0 -13   4   96.11    4.89
   0  13  -4   85.52    6.02
   0 -13   4   87.57    5.34
   1 -13   4  152.83    6.37
  -1 -13  -4  148.78    7.22
  -1  13  -4  128.95    7.92
   1 -13   4  152.31    7.66
  -1  13  -4  140.67    6.63
  -2  13  -4   44.27    3.44
 -10   0   5   32.42    2.77
  -9   0   5  152.26    6.31
  -9   0   5  157.94    6.19
  -8   0   5   16.34    1.91
  -8   0   5   16.08    1.54
  -7   0   5   50.79    2.84
  -7   0   5   48.48    2.85
  -6   0   5   17.90    1.53
  -6   0   5   20.20    1.66
  -5   0   5   17.94    1.48
  -5   0   5   18.24    1.47
  -4   0   5  151.89    5.53
  -4   0   5  161.93    5.26
  -3   0   5    1.29    0.49
  -3   0   5    0.86    0.42
   3   0  -5    1.13    0.60
  -2   0   5    8.49    1.11
  -2   0   5    6.61    1.00
   1   0  -5  789.56   18.79
  -1   0   5  727.96   18.82
  -1   0   5  792.36   18.45
   1   0  -5  775.85   16.37
  -1   0   5  746.77   19.67
   0   0  -5   71.08    2.88
   0   0   5   70.42    3.04
   0   0  -5   69.31    2.28
  -1   0  -5  509.17   11.84
  -1   0  -5  524.21   12.14
  -1   0  -5  496.47   14.71
   1   0   5  507.58   13.45
  -1   0  -5  520.90   13.46
   2   0   5   47.71    2.73
  -2   0  -5   49.03    2.22
  -2   0  -5   50.08    2.62
  -3   0  -5  516.90   14.95
  -3   0  -5  509.68   13.76
  -3   0  -5  522.50   12.70
  -4   0  -5  351.44    9.76
  -4   0  -5  352.55   10.57
  -4   0  -5  368.90   11.19
  -5   0  -5    7.32    1.26
  -5   0  -5    7.09    1.35
  -5   0  -5    6.39    0.92
  -6   0  -5  186.70    7.25
  -6   0  -5  184.65    6.74
  -7   0  -5   95.84    4.77
  -7   0  -5   92.46    4.98
  -8   0  -5   51.80    3.91
  -8   0  -5   43.55    3.39
 -10  -1   5  117.42    5.72
 -10   1   5  108.01    5.32
  -9   1   5    6.27    1.21
  -9  -1   5    5.88    1.33
  -9   1   5    2.93    0.73
  -8   1   5  942.70   23.49
  -8  -1   5  913.62   23.58
  -8   1   5  958.59   24.07
  -8  -1   5  969.53   23.53
  -7   1   5   63.51    3.38
  -7  -1   5   62.46    3.70
  -7  -1   5   61.74    3.33
  -7   1   5   56.66    3.10
  -7  -1   5   62.96    3.08
  -6  -1   5   56.19    2.74
  -6   1   5   51.45    2.77
  -6   1   5   51.13    2.91
  -6  -1   5   57.01    3.00
  -6  -1   5   58.04    3.33
  -5  -1   5  160.46    5.56
  -5  -1   5  169.71    5.42
  -5   1   5  165.72    5.75
  -5   1   5  163.28    5.48
  -5  -1   5  160.71    6.01
  -4  -1   5   17.05    1.40
  -4   1   5   16.75    1.52
  -4  -1   5   18.89    1.44
  -4  -1   5   15.71    1.47
  -4   1   5   18.04    1.47
   4  -1  -5   16.55    0.57
  -3  -1   5  893.62   22.77
   3  -1  -5  910.61   21.63
  -3   1   5  899.24   23.22
  -3   1   5  911.54   22.23
  -3  -1   5  895.12   22.18
  -3  -1   5  940.18   22.47
  -2   1   5   22.08    1.61
  -2  -1   5   28.96    1.65
  -2  -1   5   29.60    1.78
   2   1  -5   22.51    1.59
   2  -1  -5   28.13    1.40
  -2  -1   5   24.41    1.66
  -2   1   5   22.62    1.72
   2  -1  -5   26.19    0.90
   1  -1  -5  961.80   20.86
   1  -1  -5 1003.58   23.49
  -1  -1   5 1019.93   23.36
  -1   1   5 1009.92   23.58
  -1   1   5  982.63   23.78
  -1  -1   5  988.08   23.37
  -1  -1   5 1001.67   23.70
   1   1  -5  963.17   23.73
  -1   1   5  955.26   24.80
  -1  -1   5  951.74   24.53
   0   1  -5 1226.60   26.51
   0  -1  -5 1238.46   26.56
   0  -1  -5 1259.40   29.68
   0   1   5 1240.33   29.74
   0   1  -5 1259.17   29.92
   0   1   5 1257.94   31.06
   0  -1   5 1267.29   29.54
   1  -1   5  154.77    5.04
  -1  -1  -5  152.98    4.16
  -1   1  -5  143.99    5.64
  -1  -1  -5  149.43    4.31
  -1   1  -5  146.08    3.83
  -1   1  -5  152.72    4.36
   1   1   5  146.05    5.38
  -1   1  -5  151.45    5.14
  -2  -1  -5  728.82   20.35
  -2   1  -5  743.09   21.00
  -2   1  -5  768.60   19.24
  -2  -1  -5  776.53   17.42
  -2  -1  -5  763.20   17.33
  -2   1  -5  758.00   17.13
  -2  -1  -5  718.56   18.42
   2  -1   5  735.48   18.74
  -2  -1  -5  744.03   17.06
  -3   1  -5   42.82    2.26
  -3   1  -5   44.82    2.55
  -3  -1  -5   42.29    2.22
  -3  -1  -5   40.86    2.42
  -3   1  -5   41.20    2.53
   3  -1   5   40.71    2.46
  -3  -1  -5   40.78    2.20
  -4   1  -5  546.00   14.79
  -4  -1  -5  537.18   14.69
  -4   1  -5  538.91   13.70
  -4  -1  -5  558.51   15.45
  -4   1  -5  542.93   16.14
  -4  -1  -5  526.42   13.57
  -5   1  -5  154.41    5.49
  -5  -1  -5  159.79    6.19
  -5   1  -5  158.64    5.78
  -5  -1  -5  156.50    5.68
  -6   1  -5   68.84    3.30
  -6   1  -5   69.00    3.97
  -6  -1  -5   71.82    3.73
  -6  -1  -5   68.99    3.96
  -6   1  -5   69.34    3.70
  -7   1  -5  132.60    6.17
  -7  -1  -5  134.48    6.25
  -7  -1  -5  140.43    5.98
  -8  -1  -5    4.25    1.51
  -8   1  -5    2.02    1.22
  -8  -1  -5    3.87    1.30
 -10  -2   5   16.73    2.41
 -10   2   5   17.79    2.50
 -10   2   5   14.71    2.03
  -9  -2   5   85.43    4.67
  -9   2   5   88.10    4.25
  -9   2   5   78.65    4.39
  -9  -2   5   87.72    5.13
  -8  -2   5   89.34    4.83
  -8   2   5   84.63    4.01
  -8   2   5   83.98    4.37
  -8  -2   5   85.75    4.36
  -7  -2   5  128.33    4.62
  -7  -2   5  126.35    5.27
  -7   2   5  129.76    5.00
  -7   2   5  129.94    5.46
  -7  -2   5  128.76    5.75
  -6   2   5   84.60    3.61
  -6  -2   5   83.08    3.33
  -6  -2   5   72.87    3.94
  -6  -2   5   82.30    3.80
  -6   2   5   85.46    4.02
  -5   2   5   14.98    1.48
  -5   2   5   14.14    1.27
  -5  -2   5   15.88    1.45
  -5  -2   5   15.16    1.58
  -5  -2   5   14.75    1.12
   4  -2  -5  103.43    3.07
   4  -2  -5  110.24    2.90
  -4  -2   5  110.43    4.02
  -4   2   5  104.60    4.13
   4  -2  -5  109.67    3.23
   4  -2  -5  108.40    3.28
  -4  -2   5  106.88    4.32
  -4   2   5  105.76    4.60
  -4  -2   5  107.68    4.10
  -3   2   5   83.67    3.80
  -3  -2   5   83.94    3.45
  -3  -2   5   80.83    3.29
  -3   2   5   80.27    3.41
   3  -2  -5   84.44    2.62
  -3  -2   5   84.11    3.29
   3  -2  -5   79.20    2.57
  -2  -2   5    3.45    0.72
  -2   2   5    2.48    0.72
  -2   2   5    2.90    0.72
   2  -2  -5    3.86    0.48
  -2  -2   5    2.12    0.55
   2   2  -5    3.22    0.92
  -2  -2   5    1.29    0.43
   2  -2  -5    2.04    0.39
  -1  -2   5  280.01    7.42
  -1  -2   5  272.38    7.75
  -1   2   5  262.72    7.93
  -1  -2   5  275.25    6.19
   1   2  -5  276.80    7.90
  -1  -2   5  262.20    7.99
   1  -2  -5  270.30    7.24
   0  -2  -5   49.52    1.92
   0   2  -5   49.63    2.47
   0  -2   5   47.83    1.87
   0  -2  -5   49.03    2.09
   0   2   5   57.79    2.91
   0  -2   5   44.46    2.25
  -1   2  -5  388.75   10.67
  -1  -2  -5  383.71    9.23
  -1   2  -5  388.64    9.07
  -1  -2  -5  374.61    9.94
  -1   2  -5  366.09   11.88
   1   2   5  373.70   10.85
   1  -2   5  381.38   10.14
  -2  -2  -5  211.49    6.03
  -2   2  -5  206.09    7.67
   2  -2   5  213.83    6.47
  -2  -2  -5  226.14    6.66
  -2  -2  -5  212.45    6.71
  -2   2  -5  227.04    7.10
  -2  -2  -5  212.48    5.65
  -3  -2  -5  536.93   14.63
  -3  -2  -5  585.24   15.50
  -3   2  -5  549.62   16.74
  -3  -2  -5  578.12   13.27
  -3   2  -5  559.38   15.35
   3  -2   5  561.41   14.61
  -3  -2  -5  567.52   13.68
  -4   2  -5  322.25   10.92
  -4  -2  -5  324.53    9.10
  -4  -2  -5  346.40    8.35
   4  -2   5  316.92    9.43
  -4  -2  -5  318.06    9.75
  -4   2  -5  317.19    9.86
  -5   2  -5   13.91    1.80
  -5  -2  -5   11.88    1.54
  -5  -2  -5   10.53    1.59
  -6  -2  -5  165.89    6.29
  -6   2  -5  164.11    6.15
  -6   2  -5  172.00    6.85
  -6  -2  -5  168.01    6.78
  -7  -2  -5   93.55    4.99
  -7  -2  -5   86.90    4.56
  -7   2  -5   85.52    4.77
  -8  -2  -5   90.54    5.36
  -8   2  -5   88.80    5.22
  -8  -2  -5   90.35    4.98
 -10   3   5  132.90    6.50
 -10  -3   5  116.34    6.00
 -10  -3   5  128.25    6.81
  -9  -3   5    9.00    1.99
  -9   3   5    5.70    0.91
  -9   3   5    6.46    1.34
  -9  -3   5    5.35    1.45
  -8   3   5  283.56    9.77
  -8  -3   5  278.00    9.43
  -8  -3   5  279.25   10.13
  -8   3   5  284.29    8.79
  -7  -3   5  121.60    5.21
  -7  -3   5  129.05    5.74
  -7   3   5  120.87    5.45
  -7   3   5  125.36    4.83
  -6  -3   5  205.43    7.03
  -6   3   5  199.20    6.53
  -6   3   5  200.18    7.33
  -6  -3   5  218.25    7.66
  -6  -3   5  216.82    6.13
  -5   3   5  564.35   14.35
  -5  -3   5  604.36   14.01
  -5  -3   5  572.72   14.77
  -5   3   5  566.28   15.35
  -5  -3   5  547.13   15.57
  -4  -3   5   45.67    2.62
  -4   3   5   46.59    2.47
  -4   3   5   51.76    3.03
  -4  -3   5   43.55    2.43
  -4  -3   5   45.96    2.15
   4  -3  -5   45.82    1.96
  -3  -3   5  335.12    9.17
  -3   3   5  332.89   10.30
   3  -3  -5  323.10    8.02
  -3  -3   5  340.57    9.51
  -3  -3   5  341.66    9.10
  -3   3   5  324.34    9.39
   3  -3  -5  335.17    8.80
  -2   3   5  133.67    4.81
   2  -3  -5  133.10    3.62
  -2   3   5  133.44    5.25
   2  -3  -5  135.18    4.22
  -2  -3   5  135.37    4.50
  -2  -3   5  137.60    4.54
  -2  -3   5  136.07    4.56
  -2  -3   5  137.50    3.66
  -2  -3   5  140.08    3.19
   2   3  -5  126.21    5.06
  -1  -3   5  885.17   18.27
  -1   3   5  830.73   22.22
  -1   3   5  843.54   21.16
  -1  -3   5  869.21   20.64
   1   3  -5  864.94   21.46
  -1  -3   5  864.60   20.79
   1  -3  -5  837.41   21.02
   1  -3  -5  861.16   19.76
   0  -3   5  726.27   17.87
   0   3   5  735.69   18.80
   0   3   5  732.84   19.42
   0   3  -5  745.80   18.60
   0   3  -5  693.15   20.91
   0  -3   5  755.69   17.53
  -1  -3  -5  549.79   13.28
  -1  -3  -5  572.64   14.20
   1  -3   5  567.37   13.59
   1  -3   5  602.22   14.42
  -1   3  -5  568.91   15.12
  -1   3  -5  565.60   17.08
   1   3   5  569.23   15.78
  -1   3  -5  588.01   13.51
  -2  -3  -5  618.08   14.79
  -2  -3  -5  641.38   15.84
  -2  -3  -5  626.13   16.85
  -2   3  -5  631.38   16.65
  -2   3  -5  616.81   18.59
   2  -3   5  645.97   15.63
  -2  -3  -5  623.80   15.21
   3  -3   5   37.99    1.99
  -3  -3  -5   37.47    2.28
  -3  -3  -5   38.38    1.64
  -3   3  -5   38.03    2.73
  -3  -3  -5   39.30    1.64
  -3   3  -5   37.99    2.50
  -3  -3  -5   39.93    2.19
  -4   3  -5  192.21    7.82
  -4  -3  -5  198.92    6.43
  -4  -3  -5  199.19    6.85
   4  -3   5  208.16    6.31
  -5  -3  -5  132.67    5.20
  -5   3  -5  131.70    6.20
  -5  -3  -5  134.18    5.58
   5  -3   5  135.10    4.93
  -5   3  -5  143.61    5.81
  -6   3  -5   96.26    4.49
  -6  -3  -5   93.63    4.74
  -6   3  -5   96.40    4.81
  -6  -3  -5   93.34    4.41
  -7  -3  -5  100.98    5.36
  -7   3  -5  100.20    5.22
  -7  -3  -5  105.98    5.14
  -7   3  -5   98.55    4.69
  -8   3  -5    7.39    1.75
  -8  -3  -5    9.51    1.89
  -8  -3  -5   10.03    2.14
 -10   4   5    9.98    2.16
 -10  -4   5   10.10    2.27
  -9  -4   5   39.59    3.52
  -9   4   5   37.02    3.30
  -9  -4   5   36.61    3.07
  -8  -4   5   13.64    1.95
  -8   4   5   10.07    1.82
  -8   4   5   12.04    1.15
  -8  -4   5   14.60    2.19
  -7   4   5   99.41    4.95
  -7  -4   5   92.76    4.88
  -7   4   5  100.39    4.11
  -7  -4   5   97.78    4.66
  -6   4   5  167.14    6.70
  -6  -4   5  178.79    6.45
  -6   4   5  178.60    5.85
  -6  -4   5  178.88    6.86
  -5   4   5   21.90    2.00
  -5  -4   5   18.66    1.66
  -5  -4   5   19.14    1.06
  -5  -4   5   18.44    1.77
  -4  -4   5  108.41    4.49
  -4  -4   5  106.22    4.26
  -4  -4   5  117.40    2.72
  -4   4   5  110.32    4.27
   4  -4  -5  110.27    3.89
  -4   4   5  105.05    4.93
  -4  -4   5  113.54    3.69
  -3  -4   5   55.38    2.28
  -3   4   5   51.86    2.67
  -3  -4   5   58.42    1.86
  -3   4   5   52.82    3.14
   3  -4  -5   53.34    2.38
  -3  -4   5   53.06    2.61
  -3  -4   5   56.53    2.78
   2  -4  -5   50.80    1.53
  -2  -4   5   53.37    2.49
  -2  -4   5   51.11    1.93
   2   4  -5   57.76    3.36
  -2   4   5   59.75    2.80
  -2  -4   5   50.78    1.64
   2  -4  -5   50.20    2.33
  -2  -4   5   46.09    2.19
  -2  -4   5   51.92    2.44
  -2   4   5   64.46    3.32
   1   4  -5  156.15    5.68
   1   4  -5  155.71    6.47
  -1  -4   5  162.07    4.93
   1  -4  -5  154.95    5.13
  -1   4   5  163.55    6.02
   1  -4  -5  158.41    4.30
  -1  -4   5  158.12    4.92
   0   4   5  169.34    6.20
   0   4  -5  172.70    6.82
   0  -4  -5  170.03    4.85
   0  -4  -5  163.82    5.52
   0  -4   5  166.62    4.87
   0  -4   5  162.72    5.16
   0   4  -5  171.61    5.83
   1  -4   5  350.10    8.70
  -1  -4  -5  379.63    8.76
  -1  -4  -5  352.36    9.24
  -1   4  -5  336.54   11.57
  -1   4  -5  346.55   10.16
   1   4   5  335.18   10.57
   1  -4   5  337.23    9.17
  -2  -4  -5  283.14    8.10
  -2  -4  -5  293.23    7.87
   2  -4   5  277.95    6.85
   2  -4   5  275.84    7.66
   2   4   5  293.04    9.24
  -2   4  -5  285.81    8.83
  -2  -4  -5  275.85    7.75
  -2   4  -5  285.30   10.12
  -2  -4  -5  270.02    7.70
   3  -4   5  198.69    5.82
  -3  -4  -5  197.58    6.51
  -3  -4  -5  205.35    5.86
  -3   4  -5  210.05    8.12
  -3  -4  -5  189.42    6.17
  -3   4  -5  195.82    6.98
   4  -4   5  371.52    9.67
  -4   4  -5  358.56   12.62
  -4  -4  -5  369.29   10.80
  -4  -4  -5  376.16    9.58
  -4  -4  -5  356.74   10.08
  -4   4  -5  363.50   11.29
  -5   4  -5   25.00    2.38
  -5  -4  -5   20.34    1.80
  -5   4  -5   25.65    2.19
  -5  -4  -5   23.69    2.07
  -6  -4  -5  267.93    8.68
  -6   4  -5  254.11    8.96
  -6  -4  -5  270.54    9.31
  -6   4  -5  244.22    8.95
  -7   4  -5   34.38    2.57
  -7  -4  -5   33.91    2.88
  -7   4  -5   29.50    2.77
  -7  -4  -5   35.38    3.14
  -8  -4  -5   69.19    4.64
  -8   4  -5   62.82    4.37
  -9  -5   5    5.78    1.56
  -9  -5   5    5.67    1.72
  -9   5   5    3.79    1.45
  -8  -5   5   79.66    4.83
  -8   5   5   81.69    4.80
  -8   5   5   90.32    3.85
  -8  -5   5   82.07    4.61
  -7   5   5  107.02    4.18
  -7  -5   5   95.75    4.73
  -7  -5   5   98.80    5.13
  -7   5   5  106.32    5.31
  -6   5   5  185.07    7.30
  -6  -5   5  198.10    6.99
  -6  -5   5  188.11    7.25
  -6   5   5  188.00    6.11
  -5  -5   5  514.94   14.01
  -5   5   5  544.11   14.01
  -5  -5   5  504.43   14.73
  -5   5   5  533.01   14.84
   4  -5  -5   37.73    2.10
  -4   5   5   39.44    2.25
  -4  -5   5   36.75    2.42
  -4  -5   5   39.32    2.37
  -3   5   5  575.24   15.39
   3  -5  -5  592.67   15.58
  -3  -5   5  587.44   15.64
  -3  -5   5  611.15   14.88
  -3  -5   5  584.90   14.88
  -3  -5   5  617.59   14.87
  -3   5   5  603.92   17.03
  -2  -5   5  106.47    3.98
  -2  -5   5  109.07    3.59
  -2  -5   5  105.01    3.61
   2  -5  -5  106.76    4.04
  -2   5   5  110.03    4.86
  -2  -5   5  106.76    3.87
  -2   5   5  101.47    4.14
   1   5  -5  711.38   21.51
  -1  -5   5  735.19   17.23
   1   5  -5  739.30   19.30
  -1  -5   5  726.30   18.00
   1  -5  -5  732.44   18.82
  -1   5   5  718.91   18.74
   1  -5  -5  753.23   16.85
  -1   5   5  726.85   19.76
   0   5  -5  121.13    4.72
   0   5  -5  123.38    5.63
   0  -5   5  110.96    3.71
   0  -5   5  110.65    3.72
   0   5   5  123.97    5.06
   0   5   5  123.55    5.01
   0  -5  -5  107.77    3.55
   0  -5  -5  108.75    4.39
   1   5   5  219.25    7.76
  -1   5  -5  227.12    7.48
   1  -5   5  231.03    6.13
  -1  -5  -5  231.08    6.55
  -1  -5  -5  225.25    6.87
   1  -5   5  226.39    6.39
  -1  -5  -5  231.76    7.46
  -1   5  -5  227.06    8.79
  -2   5  -5  704.17   18.40
   2  -5   5  687.60   16.28
   2  -5   5  667.10   16.55
  -2   5  -5  704.90   21.01
  -2  -5  -5  698.08   16.53
  -2  -5  -5  692.81   17.27
   2   5   5  695.31   18.93
  -2  -5  -5  680.99   17.18
  -3   5  -5   92.71    4.32
  -3  -5  -5   96.07    3.58
  -3  -5  -5   93.66    3.90
   3   5   5   91.66    4.44
  -3   5  -5   88.72    4.98
  -3  -5  -5   96.11    4.01
   3  -5   5   93.27    3.12
   4   5   5  275.01    9.53
  -4  -5  -5  297.23    8.04
  -4  -5  -5  277.40    8.45
  -4   5  -5  271.59   10.66
  -4  -5  -5  294.31    9.01
  -4   5  -5  268.10    9.26
  -5   5  -5   22.13    2.03
  -5  -5  -5   21.57    1.88
  -5   5  -5   20.81    2.28
  -5  -5  -5   23.99    2.08
  -6  -5  -5    6.07    1.24
  -6   5  -5    5.04    1.01
  -6  -5  -5    4.86    1.23
  -6   5  -5    3.97    1.11
  -7  -5  -5  146.37    6.76
  -7   5  -5  142.48    6.61
  -7  -5  -5  144.44    6.35
  -7   5  -5  141.72    6.53
  -8  -5  -5    1.59    1.04
  -8   5  -5    1.81    1.10
  -8   5  -5    1.08    0.67
  -9  -6   5   93.52    5.37
  -9   6   5  103.15    5.97
  -9  -6   5  100.44    5.93
  -8  -6   5    3.66    1.38
  -8  -6   5    2.78    1.14
  -8   6   5    2.86    1.32
  -7  -6   5   23.67    2.37
  -7   6   5   23.93    1.65
  -7  -6   5   20.89    2.05
  -7   6   5   18.62    2.45
  -6  -6   5  107.77    5.24
  -6   6   5  116.89    4.29
  -6   6   5  114.58    5.49
  -6  -6   5  112.20    5.00
  -5   6   5   53.51    3.41
   5  -6  -5   44.70    2.67
  -5  -6   5   47.86    3.07
  -5   6   5   53.70    2.68
  -5  -6   5   45.42    2.83
  -4  -6   5  213.85    7.16
   4  -6  -5  228.87    7.35
  -4  -6   5  238.71    6.67
  -4   6   5  234.56    8.10
  -4   6   5  231.43    7.17
  -4  -6   5  218.89    7.58
  -3   6   5    2.90    0.96
  -3   6   5    2.31    0.62
  -3  -6   5    1.34    0.52
  -3  -6   5    1.38    0.32
   3  -6  -5    1.76    0.56
  -3  -6   5    2.71    0.77
  -2  -6   5   90.39    3.69
  -2   6   5   82.80    4.35
  -2   6   5   88.11    3.83
   2   6  -5   86.39    4.75
  -2  -6   5   87.48    3.49
   2  -6  -5   94.57    3.91
  -2  -6   5   94.70    3.16
  -2  -6   5   92.05    3.43
   1   6  -5  129.37    6.00
  -1   6   5  121.58    5.29
  -1   6   5  122.34    4.94
  -1  -6   5  114.00    4.17
  -1  -6   5  118.59    4.05
   1   6  -5  127.35    5.34
   1  -6  -5  117.54    4.69
   0   6   5  106.68    4.84
   0  -6   5  110.21    3.78
   0  -6  -5  108.94    4.51
   0   6  -5  105.34    4.59
   0   6  -5  105.21    5.39
   0  -6   5  110.90    3.62
   1  -6   5  138.16    4.13
  -1  -6  -5  138.18    5.04
  -1  -6  -5  141.20    5.51
   1   6   5  137.11    5.71
  -1   6  -5  131.15    6.41
   1  -6   5  144.61    4.34
  -1  -6  -5  153.66    4.67
  -1   6  -5  136.89    5.42
  -2   6  -5  126.97    6.27
  -2  -6  -5  130.31    5.40
   2  -6   5  129.98    3.89
   2  -6   5  131.69    3.77
  -2  -6  -5  132.83    4.67
  -2   6  -5  127.14    5.26
  -2  -6  -5  128.27    4.73
   2   6   5  136.62    5.61
   3   6   5   29.41    2.34
  -3   6  -5   29.52    2.72
  -3  -6  -5   25.73    1.74
  -3  -6  -5   28.36    2.03
  -3  -6  -5   28.47    1.99
  -3   6  -5   29.36    2.29
  -4  -6  -5  244.29    7.94
  -4   6  -5  250.31    8.75
  -4   6  -5  247.50   10.24
  -4  -6  -5  250.73    8.26
   4   6   5  257.89    8.95
  -4  -6  -5  259.24    7.64
  -5  -6  -5   14.91    1.88
   5   6   5   15.73    2.00
  -5   6  -5   16.94    2.47
  -5  -6  -5   15.71    1.95
  -6  -6  -5  372.71   11.40
  -6   6  -5  359.55   11.78
  -6   6  -5  352.88   12.15
  -6  -6  -5  376.29   11.98
   6   6   5  374.08   12.20
  -7  -6  -5   80.35    4.82
  -7   6  -5   76.25    4.61
  -7  -6  -5   77.98    4.51
  -7   6  -5   70.44    4.57
  -8   6  -5   45.91    3.65
  -8   7   5   36.76    3.46
  -8  -7   5   37.11    3.22
  -8  -7   5   35.69    3.37
  -7  -7   5  115.15    5.62
  -7  -7   5  131.89    6.24
  -7   7   5  119.12    6.17
  -6  -7   5   67.82    4.00
  -6  -7   5   60.85    3.56
  -6   7   5   60.83    3.99
  -6   7   5   63.00    2.88
   5  -7  -5  443.06   12.78
  -5   7   5  423.73   13.27
  -5  -7   5  420.29   12.24
  -5   7   5  436.86   11.87
  -5  -7   5  424.82   12.98
   4  -7  -5   63.27    3.25
  -4  -7   5   60.56    3.36
  -4   7   5   60.85    2.94
  -4  -7   5   59.92    3.17
  -4   7   5   63.03    3.75
  -3   7   5  528.73   14.21
  -3  -7   5  536.10   13.80
   3   7  -5  513.54   17.05
  -3  -7   5  526.31   14.58
  -3  -7   5  551.73   14.20
   3  -7  -5  534.15   14.88
  -3   7   5  543.01   16.07
  -2  -7   5   49.48    2.47
  -2   7   5   42.64    2.56
   2   7  -5   44.86    3.38
  -2  -7   5   50.03    2.65
  -2  -7   5   51.17    2.52
  -2   7   5   48.66    3.26
   2  -7  -5   49.55    2.84
   1  -7  -5  322.04    9.87
   1   7  -5  310.53   10.27
  -1   7   5  304.51    9.69
  -1  -7   5  327.42    8.48
   1   7  -5  298.84   11.32
  -1   7   5  316.27   10.43
   0  -7   5   79.02    2.86
   0   7  -5   78.10    4.69
   0   7  -5   77.20    3.95
   0  -7   5   73.91    3.11
   0   7   5   80.21    4.14
   0   7   5   78.61    4.12
   0  -7  -5   78.86    3.88
   1   7   5  188.74    7.10
  -1   7  -5  180.56    8.09
  -1   7  -5  184.19    6.77
   1  -7   5  188.36    5.62
   1  -7   5  183.99    5.08
  -1  -7  -5  193.30    7.02
  -1  -7  -5  178.61    6.38
  -2  -7  -5  340.11   10.85
  -2   7  -5  324.72   10.45
  -2  -7  -5  341.48    9.99
  -2   7  -5  330.68   12.44
   2   7   5  341.25   10.90
  -3   7  -5   26.00    2.19
  -3  -7  -5   24.04    1.95
   3   7   5   25.88    2.18
  -3   7  -5   22.04    2.43
  -3  -7  -5   22.15    1.72
  -4  -7  -5  265.08    8.46
  -4  -7  -5  267.48    8.12
   4   7   5  257.36    9.13
  -4   7  -5  245.62   10.62
  -4   7  -5  249.40    8.93
   5   7   5   51.99    3.33
  -5   7  -5   48.84    3.35
  -5  -7  -5   58.46    3.47
  -6   7  -5    2.20    1.05
   6   7   5    3.10    0.81
  -6  -7  -5    4.38    1.33
  -6   7  -5    3.31    1.30
  -7   7  -5  107.03    5.57
  -7   7  -5   98.05    5.67
  -8  -8   5   17.18    2.76
  -8   8   5   12.16    2.51
  -8  -8   5   14.00    2.29
  -7  -8   5   60.34    4.29
  -7   8   5   66.73    4.60
  -7  -8   5   61.03    3.97
  -6  -8   5   30.32    2.67
  -6  -8   5   24.39    2.21
   6  -8  -5   27.57    2.27
  -6   8   5   23.89    2.85
  -5   8   5   14.36    1.90
  -5   8   5   18.61    2.42
  -5  -8   5   14.20    1.95
   5   8  -5   15.07    2.20
  -5   8   5   17.56    1.36
   5  -8  -5   16.32    1.63
  -5  -8   5   15.16    1.85
  -4  -8   5  269.98    8.46
   4  -8  -5  254.14    8.80
   4   8  -5  270.90   10.57
  -4   8   5  266.50    9.37
  -4   8   5  269.14    8.79
  -4  -8   5  254.00    8.87
  -4   8   5  288.24    8.29
   3   8  -5    2.21    0.92
  -3  -8   5    2.74    0.58
  -3   8   5    1.95    0.52
  -3  -8   5    1.80    0.72
  -3  -8   5    1.14    0.40
   3  -8  -5    1.19    0.50
  -3   8   5    1.35    0.76
   2   8  -5  284.28   10.58
  -2  -8   5  309.68    8.65
  -2   8   5  309.27    9.36
  -2  -8   5  307.50    9.36
  -2   8   5  314.44   10.63
   2  -8  -5  307.28    9.89
   2   8  -5  292.94   11.37
  -2  -8   5  316.23    9.37
   1   8  -5   24.56    2.53
   1   8  -5   30.49    2.81
  -1  -8   5   27.05    1.90
  -1  -8   5   28.09    1.65
   1  -8  -5   31.06    2.34
  -1   8   5   33.58    2.42
  -1   8   5   23.93    2.27
   0   8   5   49.41    3.19
   0   8  -5   44.57    3.01
   0  -8  -5   39.37    2.76
   0   8   5   40.64    2.91
   0  -8   5   39.84    1.87
   0  -8   5   39.99    2.24
   0   8  -5   43.57    3.49
   0  -8  -5   41.05    2.71
  -1   8  -5  100.15    5.74
   1   8   5  108.54    5.04
  -1  -8  -5  100.95    4.53
  -1  -8  -5   99.96    4.88
  -1   8  -5  104.46    4.79
   2   8   5   74.54    4.05
  -2  -8  -5   72.21    4.11
  -2   8  -5   74.54    3.98
  -2  -8  -5   80.53    3.87
  -2   8  -5   73.54    4.90
  -3   8  -5   65.68    3.73
  -3  -8  -5   53.80    3.10
   3   8   5   69.19    3.82
  -3   8  -5   67.56    4.69
  -4   8  -5  150.68    6.44
  -4  -8  -5  165.46    6.28
  -4   8  -5  151.58    7.95
  -4  -8  -5  157.98    5.87
   4   8   5  150.19    6.42
  -5  -8  -5   10.28    1.89
   5   8   5    7.66    1.29
  -5   8  -5    8.90    1.63
  -6  -8  -5  243.41    8.80
  -6   8  -5  232.75    9.62
  -6   8  -5  226.23    8.76
  -7   8  -5   45.74    3.55
  -7   9   5  118.87    6.62
  -7  -9   5  120.49    6.39
  -6   9   5   50.50    3.75
  -6   9   5   51.87    4.08
  -6  -9   5   58.59    4.09
   6   9  -5   59.98    4.16
   6  -9  -5   55.93    3.49
  -6  -9   5   58.27    3.73
   5  -9  -5  215.14    8.00
  -5   9   5  207.40    8.43
   5   9  -5  206.61    9.07
  -5  -9   5  216.64    7.66
  -5   9   5  210.47    7.93
  -5  -9   5  221.01    8.26
  -4   9   5   15.16    1.56
   4  -9  -5   18.48    1.80
  -4  -9   5   17.97    1.61
  -4  -9   5   15.47    1.98
  -4   9   5   19.43    2.44
   4   9  -5   13.96    2.20
   3   9  -5  272.63   10.97
  -3  -9   5  274.80    8.84
   3  -9  -5  276.85    9.55
  -3   9   5  284.32    8.64
  -3  -9   5  286.18    9.24
  -3  -9   5  289.45    8.57
  -3   9   5  273.61    9.64
  -2  -9   5   11.08    1.15
  -2  -9   5   10.50    1.48
  -2   9   5   12.92    1.25
   2   9  -5   11.57    2.07
   2  -9  -5    9.70    1.54
  -2  -9   5   11.11    1.07
   2   9  -5    8.72    2.16
   1  -9  -5  171.74    6.92
  -1  -9   5  180.33    6.70
  -1   9   5  171.58    7.19
  -1  -9   5  182.07    6.27
  -1   9   5  170.98    6.59
   1   9  -5  168.62    7.24
   1   9  -5  167.70    8.01
   1  -9  -5  173.84    6.89
   0  -9  -5  175.36    6.81
   0  -9  -5  169.48    6.98
   0   9  -5  168.64    8.11
   0   9  -5  173.36    6.94
   0   9   5  181.21    7.19
   0   9   5  172.35    6.96
  -1   9  -5   56.45    3.45
   1  -9   5   53.76    2.63
  -1   9  -5   54.19    4.19
  -1  -9  -5   54.63    3.33
   1   9   5   52.66    3.39
  -1  -9  -5   55.71    3.58
   2   9   5  181.88    7.29
  -2   9  -5  187.69    7.28
  -2   9  -5  182.38    8.83
  -2  -9  -5  195.89    7.80
  -2  -9  -5  183.79    7.00
   3   9   5   17.04    1.73
  -3   9  -5   16.12    2.72
  -3   9  -5   17.80    1.88
  -3  -9  -5   15.11    1.51
  -3  -9  -5   14.17    2.16
  -4   9  -5  143.62    6.36
  -4  -9  -5  152.14    6.32
  -4   9  -5  150.42    8.29
  -4  -9  -5  148.37    5.92
  -5  -9  -5  101.74    5.22
  -5   9  -5  108.53    5.53
  -5   9  -5  107.13    6.07
  -6   9  -5   12.17    2.07
   6 -10  -5   37.07    3.08
  -6 -10   5   34.95    3.24
  -6  10   5   35.53    3.19
  -6  10   5   34.47    3.46
   6  10  -5   30.75    3.14
   5 -10  -5    2.03    0.70
  -5 -10   5    3.41    1.36
   5  10  -5    1.38    0.62
  -5  10   5    1.81    1.21
  -5  10   5    2.79    1.03
   4 -10  -5   83.06    4.53
  -4  10   5   95.68    5.17
  -4 -10   5   79.64    3.94
  -4 -10   5   84.77    4.55
  -4  10   5   91.16    4.38
   4  10  -5   88.56    5.35
   3 -10  -5    8.90    1.54
  -3 -10   5    8.50    1.18
  -3  10   5    6.03    1.35
  -3  10   5    7.96    1.21
   3  10  -5    7.20    1.59
  -3 -10   5    9.39    1.59
  -2  10   5   98.74    4.98
  -2  10   5  100.56    4.33
  -2 -10   5   99.39    4.58
  -2 -10   5   94.93    4.52
   2  10  -5   99.61    5.69
   2 -10  -5   94.23    4.90
   2  10  -5  102.05    5.92
   1  10  -5   68.76    4.80
  -1 -10   5   72.10    3.64
   1 -10  -5   73.09    4.22
   1  10  -5   67.06    4.36
   1 -10  -5   74.01    4.25
  -1 -10   5   71.95    3.89
  -1  10   5   72.98    3.85
   0  10   5   21.64    2.11
   0  10  -5   16.17    2.14
   0 -10  -5   19.89    2.07
   0 -10  -5   17.44    2.18
   0  10  -5   18.68    2.71
   0  10   5   19.30    2.31
  -1 -10  -5  159.87    6.62
  -1 -10  -5  146.07    6.82
  -1  10  -5  156.55    6.62
   1 -10   5  155.58    5.58
  -1  10  -5  158.67    8.15
   1  10   5  164.87    6.79
  -2  10  -5   13.33    1.90
  -2 -10  -5   17.47    2.46
  -2 -10  -5   18.28    1.84
   2  10   5   14.87    1.98
  -2  10  -5   12.84    2.62
  -3  10  -5   35.71    3.86
  -3 -10  -5   27.23    2.27
  -3  10  -5   31.10    2.63
  -3 -10  -5   30.54    3.03
  -4  10  -5  250.19    9.33
  -4 -10  -5  256.23    9.07
  -4  10  -5  237.57   11.57
  -4 -10  -5  247.02    8.75
  -5  10  -5   10.38    1.98
   6 -11  -5   80.15    4.84
  -5  11   5   70.97    4.86
   5 -11  -5   77.23    4.66
   5  11  -5   63.21    4.77
  -5 -11   5   76.33    4.70
  -5  11   5   66.95    4.23
  -4  11   5    9.05    1.56
  -4 -11   5    9.67    1.99
   4  11  -5    8.51    1.96
  -4  11   5   11.68    2.22
   4 -11  -5   10.97    2.01
   3 -11  -5  120.21    6.07
   3  11  -5  119.48    6.91
  -3  11   5  128.81    6.26
  -3 -11   5  129.96    5.91
   2 -11  -5   57.00    4.01
   2  11  -5   53.25    4.35
  -2  11   5   49.84    3.43
   2 -11  -5   46.04    3.55
   2  11  -5   52.81    4.48
  -2 -11   5   51.86    3.27
  -1 -11   5   87.88    4.54
   1  11  -5   91.86    5.31
   1  11  -5   88.49    5.86
   1 -11  -5   87.89    5.00
  -1 -11   5   89.24    4.30
  -1  11   5   87.46    4.34
  -1  11   5   85.24    4.53
   1 -11  -5   84.50    5.01
   0 -11  -5  138.29    6.48
   0 -11   5  139.13    6.45
   0  11  -5  140.57    7.80
   0  11  -5  145.50    6.55
   0 -11  -5  138.09    6.71
   0  11   5  132.60    6.15
  -1 -11  -5   23.37    2.41
   1  11   5   21.76    2.08
  -1 -11  -5   21.61    2.84
  -1  11  -5   27.15    2.59
  -1  11  -5   25.26    3.50
  -2 -11  -5  219.01    8.43
  -2 -11  -5  210.12    8.97
  -2  11  -5  208.73   10.37
  -2  11  -5  199.69    8.20
  -3 -11  -5   21.10    2.57
  -3 -11  -5   22.73    2.99
  -3  11  -5   25.72    3.78
  -3  11  -5   23.77    2.54
  -4  11  -5   59.52    4.05
  -4 -11  -5   60.53    3.89
  -5  11  -5   56.41    4.03
   4  12  -5   19.87    2.95
   4 -12  -5   15.88    2.47
  -4 -12   5   17.60    2.53
  -4  12   5   20.73    2.91
   3 -12  -5   49.05    3.96
   3 -12  -5   47.26    3.77
  -3  12   5   48.22    3.75
   3  12  -5   45.12    4.08
   3  12  -5   47.09    4.71
  -3 -12   5   45.31    3.54
  -2 -12   5   45.22    3.40
   2 -12  -5   49.33    3.90
  -2  12   5   51.59    3.79
   2 -12  -5   46.58    3.81
   2  12  -5   49.77    4.38
   2  12  -5   57.38    4.59
   1 -12  -5   68.23    4.69
  -1  12   5   79.80    4.54
   1  12  -5   76.43    5.64
   1 -12  -5   75.48    4.86
  -1 -12   5   72.59    4.43
  -1 -12   5   79.88    4.32
   1  12  -5   77.17    5.02
   0 -12  -5    8.48    1.96
   0  12  -5   11.44    2.55
   0 -12   5   15.31    2.42
   0  12  -5   14.01    2.33
   0 -12  -5   10.17    2.07
  -1 -12  -5  183.79    7.98
  -1  12  -5  170.50    7.55
  -1  12  -5  174.77    9.39
  -1 -12  -5  172.12    8.14
  -2 -12  -5   26.30    2.74
  -2  12  -5   21.04    2.63
  -3  12  -5   34.82    3.11
  -3 -12  -5   33.19    3.09
  -3  13   5   80.60    5.05
  -2  13   5   84.34    4.96
  -2 -13   5   78.64    4.63
  -1 -13   5   17.82    2.31
   0 -13   5  120.80    6.42
   0  13  -5  123.75    6.41
 -10   0   6    1.81    0.82
  -9   0   6  108.06    5.30
  -8   0   6  272.41    9.14
  -8   0   6  272.57    9.01
  -7   0   6  359.83   10.82
  -7   0   6  357.89   10.75
  -6   0   6    6.33    1.10
  -6   0   6    5.78    1.09
  -5   0   6   69.63    3.39
  -5   0   6   71.45    3.61
  -4   0   6  321.25    9.87
   4   0  -6  314.92    9.04
  -3   0   6   25.87    1.91
   3   0  -6   25.03    1.59
  -3   0   6   27.86    1.99
  -2   0   6  118.81    4.60
  -2   0   6  115.23    4.72
   2   0  -6  122.15    4.13
  -1   0   6    0.30    0.35
   1   0  -6    0.91    0.37
   1   0  -6    0.40    0.15
  -1   0   6   -0.07    0.22
  -1   0   6    1.21    0.36
   0   0  -6  416.57   11.43
   0   0   6  425.30   11.62
   0   0  -6  423.07    9.80
  -1   0  -6  893.34   19.75
  -1   0  -6  906.37   22.38
  -1   0  -6  859.88   24.59
   1   0   6  899.03   22.16
  -2   0  -6   53.77    2.85
  -2   0  -6   54.36    2.47
  -2   0  -6   55.76    3.01
   2   0   6   56.48    3.16
  -3   0  -6  478.31   13.31
  -3   0  -6  466.12   14.26
   3   0   6  477.10   13.57
  -3   0  -6  485.34   12.13
  -4   0  -6   18.46    1.80
  -4   0  -6   18.60    1.57
  -4   0  -6   17.83    1.57
  -5   0  -6  370.62   11.72
  -5   0  -6  375.58   10.79
  -6   0  -6   62.69    3.93
  -6   0  -6   57.95    3.44
  -7   0  -6  286.22    9.80
  -7   0  -6  293.78   10.74
  -8   0  -6  186.73    8.43
 -10   1   6   18.08    2.38
 -10  -1   6   16.94    2.42
  -9   1   6  204.65    7.66
  -9   1   6  198.06    7.62
  -9  -1   6  185.75    7.68
  -8   1   6  185.78    7.05
  -8   1   6  175.45    6.78
  -8  -1   6  185.23    7.13
  -7  -1   6  108.83    4.89
  -7   1   6  107.05    4.73
  -7  -1   6  115.96    4.65
  -7   1   6  107.49    4.87
  -6  -1   6  338.34   10.90
  -6  -1   6  351.23   10.00
  -6  -1   6  337.64   10.21
  -6   1   6  347.50   10.40
  -6   1   6  348.88   10.14
  -5  -1   6    9.03    1.35
   5  -1  -6    8.33    1.06
  -5   1   6   10.43    1.37
  -5  -1   6   10.83    1.38
  -5   1   6   11.10    1.59
  -5  -1   6   11.93    1.60
  -4   1   6  802.51   21.02
  -4  -1   6  785.08   20.15
  -4  -1   6  814.27   20.58
   4   1  -6  762.97   20.01
  -4   1   6  786.93   20.02
   4  -1  -6  775.15   19.01
  -4  -1   6  748.76   19.10
  -3  -1   6    9.52    1.26
  -3   1   6    7.08    1.17
  -3   1   6    6.88    1.22
  -3  -1   6   10.01    1.34
   3   1  -6    7.25    1.09
  -3  -1   6   10.13    1.24
   3  -1  -6   10.59    0.86
  -2  -1   6  346.42    9.93
  -2   1   6  339.01   10.45
  -2   1   6  332.87    9.90
  -2  -1   6  346.97   10.19
   2  -1  -6  348.79    7.62
   2   1  -6  343.57    9.56
   2  -1  -6  354.16    9.22
  -1  -1   6  231.68    6.05
  -1   1   6  224.40    7.60
   1  -1  -6  221.30    6.56
  -1   1   6  220.62    7.13
   1  -1  -6  219.33    5.44
  -1  -1   6  221.80    7.02
  -1  -1   6  215.44    7.27
  -1   1   6  237.75    6.35
   1   1  -6  221.52    6.84
   0  -1   6    4.90    0.92
   0  -1  -6    7.09    0.97
   0   1   6    6.64    1.11
   0  -1  -6    6.00    0.68
   0   1  -6    4.07    0.84
   0   1   6    5.90    1.13
  -1   1  -6   93.72    3.12
  -1   1  -6   86.42    3.74
   1  -1   6   83.59    3.60
  -1  -1  -6   79.22    2.96
  -1  -1  -6   82.37    3.46
   1   1   6   90.13    4.01
  -1  -1  -6   86.04    3.85
  -1   1  -6   82.99    4.10
   2   1   6   17.87    1.84
  -2   1  -6   12.47    1.09
   2  -1   6   11.21    1.39
  -2  -1  -6   12.46    1.08
  -2  -1  -6   12.81    0.59
  -2  -1  -6   12.10    1.42
  -2   1  -6   12.49    1.53
  -2   1  -6   12.45    1.37
  -2  -1  -6   12.23    1.18
  -3   1  -6  419.33   10.89
  -3  -1  -6  418.04   10.84
  -3   1  -6  406.78   11.89
  -3  -1  -6  430.17   11.95
   3  -1   6  416.69   11.93
   3   1   6  420.05   12.37
  -3   1  -6  405.32   13.04
  -3  -1  -6  412.57   12.43
  -4  -1  -6  129.85    5.03
  -4   1  -6  129.72    5.44
  -4   1  -6  125.64    5.51
   4  -1   6  126.99    5.27
  -4  -1  -6  124.39    5.32
  -4   1  -6  124.60    4.83
  -4  -1  -6  131.30    4.87
  -5  -1  -6   49.74    3.27
  -5  -1  -6   52.24    3.01
   5  -1   6   47.78    3.05
  -5   1  -6   52.39    3.03
  -5   1  -6   49.52    3.29
  -6   1  -6   79.69    4.55
  -6  -1  -6   81.49    4.14
  -6  -1  -6   78.99    4.52
  -7  -1  -6   23.09    2.68
  -7   1  -6   21.45    2.76
  -7  -1  -6   22.11    2.88
 -10   2   6   13.72    2.06
 -10   2   6   14.29    2.34
  -9   2   6   41.74    3.01
  -9   2   6   35.34    2.81
  -9  -2   6   41.56    3.24
  -8   2   6  174.93    6.58
  -8  -2   6  174.43    6.97
  -8  -2   6  163.23    7.28
  -8   2   6  183.74    7.14
  -7   2   6  214.96    7.28
  -7  -2   6  211.18    8.08
  -7  -2   6  205.31    7.50
  -7   2   6  211.16    7.71
  -6  -2   6   -0.02    0.20
  -6   2   6    1.06    0.46
  -6  -2   6    0.18    0.31
  -6  -2   6    0.07    0.55
  -6   2   6    0.84    0.35
  -5   2   6  261.51    8.01
  -5  -2   6  267.63    8.69
  -5  -2   6  253.42    8.14
  -4  -2   6  169.44    5.90
  -4   2   6  176.89    6.67
  -4  -2   6  168.92    6.09
  -4   2   6  165.16    6.00
   4  -2  -6  176.15    4.85
  -4  -2   6  168.52    5.87
  -3  -2   6   10.97    1.35
  -3   2   6   13.86    1.51
   3  -2  -6   12.08    0.83
  -3  -2   6    9.26    1.23
   3   2  -6   15.18    1.61
  -3   2   6   14.29    1.37
  -3  -2   6   11.34    1.12
  -2   2   6  141.46    5.65
  -2  -2   6  148.20    4.90
  -2  -2   6  139.97    5.14
   2   2  -6  154.02    5.21
  -2  -2   6  140.23    5.16
   2  -2  -6  140.61    3.70
   2  -2  -6  145.07    4.39
  -2   2   6  144.60    5.27
   1  -2  -6  138.59    3.88
  -1  -2   6  146.25    4.12
   1  -2  -6  139.00    4.51
  -1  -2   6  142.20    4.50
   1   2  -6  142.70    5.03
  -1   2   6  144.92    5.66
  -1   2   6  140.82    5.22
  -1  -2   6  140.97    5.03
  -1  -2   6  144.99    5.29
   0   2   6  529.97   15.09
   0   2  -6  524.49   14.22
   0  -2   6  553.35   14.04
   0  -2  -6  540.15   12.26
   0   2   6  532.28   14.39
   0  -2  -6  535.91   13.39
   0   2  -6  516.28   16.18
   1   2   6  341.74   10.38
  -1  -2  -6  341.11    9.41
   1  -2   6  343.56    9.62
  -1   2  -6  334.39   11.31
   1   2   6  329.71   10.56
  -1  -2  -6  333.82    8.54
  -1   2  -6  355.14   10.11
   2   2   6  151.42    6.09
  -2  -2  -6  157.35    4.34
  -2  -2  -6  150.56    4.88
  -2  -2  -6  167.25    5.61
  -2   2  -6  146.78    6.35
  -2   2  -6  155.67    5.84
   2  -2   6  159.51    5.39
  -2  -2  -6  154.39    5.44
  -3  -2  -6  428.22   12.19
  -3   2  -6  426.04   12.46
  -3   2  -6  407.67   13.40
   3  -2   6  428.90   11.62
  -3  -2  -6  402.65   11.79
  -3  -2  -6  410.07   10.85
  -4   2  -6   34.22    2.52
  -4   2  -6   32.51    2.49
  -4  -2  -6   30.23    2.08
   4  -2   6   28.75    2.12
  -4  -2  -6   28.75    2.27
  -5   2  -6  436.88   14.32
  -5   2  -6  429.73   13.14
  -5  -2  -6  432.38   12.07
   5  -2   6  438.21   12.56
  -5  -2  -6  433.03   13.12
  -6  -2  -6   78.87    4.10
  -6   2  -6   83.43    4.66
  -6  -2  -6   81.71    4.57
  -6   2  -6   79.79    3.91
  -7   2  -6  292.51   10.67
  -7  -2  -6  286.54   10.60
  -7  -2  -6  273.36    9.62
 -10   3   6   34.82    3.29
  -9   3   6   93.63    4.69
  -9  -3   6   87.29    5.40
  -9  -3   6   95.26    5.19
  -9   3   6   97.22    5.32
  -8   3   6   80.69    4.50
  -8   3   6   78.38    3.91
  -8  -3   6   73.27    4.33
  -8  -3   6   87.88    4.94
  -7   3   6  107.82    4.67
  -7   3   6  116.29    5.39
  -7  -3   6  109.82    5.12
  -7  -3   6  118.38    5.60
  -6   3   6  409.26   12.23
  -6   3   6  404.70   11.28
  -6  -3   6  401.91   11.71
  -6  -3   6  383.83   12.21
  -5  -3   6   14.64    1.13
  -5  -3   6   14.56    1.71
  -5  -3   6   15.28    1.62
  -5   3   6   14.31    1.42
   4  -3  -6  571.89   14.33
  -4   3   6  586.99   15.49
  -4  -3   6  570.21   14.92
  -4   3   6  582.79   16.75
  -4  -3   6  571.36   15.61
  -4  -3   6  588.61   15.35
  -3   3   6  117.11    5.15
  -3   3   6  110.31    4.52
  -3  -3   6  118.79    4.45
   3   3  -6  113.07    4.94
   3  -3  -6  111.55    3.60
  -3  -3   6  113.09    4.40
  -3  -3   6  115.05    4.27
   2   3  -6  103.66    4.38
  -2  -3   6  112.85    4.04
  -2   3   6   98.70    4.69
  -2   3   6  100.93    4.29
  -2  -3   6  110.34    4.18
   2  -3  -6  108.35    3.24
   2  -3  -6  106.62    3.55
   1  -3  -6  292.89    7.38
  -1   3   6  313.14    9.84
  -1   3   6  314.73    9.20
   1  -3  -6  296.87    7.82
  -1  -3   6  287.14    8.17
  -1  -3   6  289.25    8.67
   1   3  -6  313.31    9.05
   0   3  -6  224.31    7.22
   0   3   6  219.56    7.79
   0  -3   6  225.72    6.09
   0  -3  -6  221.98    6.37
   0  -3  -6  216.69    5.95
   0   3   6  220.53    7.45
   0   3  -6  221.50    8.39
   0  -3   6  218.75    6.79
  -1  -3  -6  181.82    5.22
   1   3   6  167.26    6.54
   1   3   6  161.86    6.44
  -1  -3  -6  181.96    5.62
   1  -3   6  177.12    5.67
  -1   3  -6  168.46    6.12
  -1   3  -6  165.19    6.99
  -2  -3  -6   35.97    2.02
  -2  -3  -6   37.51    1.95
   2   3   6   40.87    2.81
   2  -3   6   38.91    2.14
  -2  -3  -6   34.80    1.65
  -2   3  -6   37.23    2.81
  -2  -3  -6   37.69    2.26
  -2   3  -6   42.76    2.66
  -3   3  -6  237.12    9.19
  -3   3  -6  244.04    8.41
   3  -3   6  250.99    7.44
  -3  -3  -6  246.44    7.92
  -3  -3  -6  252.77    7.38
  -4  -3  -6  129.23    4.98
  -4   3  -6  131.18    6.17
  -4  -3  -6  134.24    5.49
   4  -3   6  132.10    4.79
  -4   3  -6  137.82    5.69
  -5  -3  -6   24.33    2.20
  -5  -3  -6   19.47    1.77
  -5   3  -6   22.10    2.12
  -5   3  -6   25.19    2.31
  -6   3  -6   46.18    2.91
  -6  -3  -6   45.87    3.12
  -6  -3  -6   45.95    3.33
  -6   3  -6   47.42    3.42
  -7   3  -6   62.38    4.27
  -7  -3  -6   58.92    4.21
  -7  -3  -6   53.05    3.67
 -10   4   6   87.63    5.50
  -9   4   6   10.60    1.71
  -9  -4   6   12.44    2.41
  -9  -4   6   12.60    2.17
  -9   4   6   12.06    2.25
  -8  -4   6   52.10    3.67
  -8   4   6   54.61    3.76
  -8  -4   6   47.41    3.78
  -8   4   6   59.12    3.19
  -7  -4   6   83.14    4.60
  -7   4   6   77.85    4.43
  -7  -4   6   78.89    4.22
  -7   4   6   76.23    3.71
  -6  -4   6   20.08    1.91
  -6  -4   6   21.29    2.08
  -6   4   6   20.93    1.68
  -6   4   6   18.19    2.22
  -5  -4   6  289.63    9.14
  -5   4   6  301.16    9.84
  -5   4   6  300.21    9.23
  -5  -4   6  305.41    9.73
  -4   4   6  116.50    4.76
   4  -4  -6  122.00    4.06
  -4  -4   6  118.67    4.92
  -4  -4   6  125.40    4.29
  -4   4   6  119.97    5.59
  -4  -4   6  119.86    4.77
  -3   4   6   43.51    2.97
   3   4  -6   44.58    3.14
  -3  -4   6   33.18    2.19
   3  -4  -6   37.50    1.88
  -3   4   6   40.54    2.45
  -3  -4   6   36.02    2.23
  -3  -4   6   36.02    1.96
  -2  -4   6  509.37   13.42
  -2  -4   6  520.17   12.30
   2  -4  -6  509.73   11.69
   2   4  -6  488.54   13.99
  -2  -4   6  485.12   13.10
  -2   4   6  491.97   13.59
  -2  -4   6  488.67   12.76
  -2   4   6  473.99   14.57
   2  -4  -6  499.99   13.05
   1  -4  -6   81.50    3.27
   1  -4  -6   80.47    2.72
  -1   4   6   79.22    3.75
   1   4  -6   74.83    3.66
  -1  -4   6   83.90    3.16
  -1   4   6   76.82    4.05
   0   4  -6  232.68    9.29
   0   4   6  249.82    8.72
   0   4  -6  261.35    8.19
   0  -4   6  257.80    6.96
   0   4   6  257.12    8.49
   0  -4  -6  261.99    7.08
   0  -4  -6  256.90    6.90
   0  -4   6  255.62    7.55
  -1   4  -6   47.90    2.81
   1   4   6   46.08    3.01
   1  -4   6   44.45    1.67
  -1  -4  -6   44.65    2.25
  -1  -4  -6   45.37    2.24
  -1   4  -6   42.54    3.12
   1  -4   6   42.91    2.23
  -2   4  -6  151.54    6.88
  -2  -4  -6  164.96    5.29
  -2  -4  -6  153.88    5.40
   2   4   6  149.33    6.27
  -2  -4  -6  164.10    5.00
   2  -4   6  157.00    5.12
  -2   4  -6  152.54    5.97
   3   4   6  530.60   15.88
  -3  -4  -6  554.21   14.66
  -3   4  -6  534.18   15.40
  -3   4  -6  531.50   17.32
   3  -4   6  553.07   13.86
  -3  -4  -6  538.79   13.65
  -4  -4  -6    1.74    0.60
  -4   4  -6    0.73    0.52
  -4   4  -6    2.14    0.64
  -4  -4  -6    1.35    0.54
  -5  -4  -6  271.34    9.23
  -5   4  -6  269.85    9.38
  -5  -4  -6  266.28    8.55
  -5   4  -6  259.65   10.45
  -6   4  -6   93.31    4.73
  -6  -4  -6   93.69    5.05
  -6  -4  -6   98.48    4.82
  -6   4  -6   93.94    5.13
  -7   4  -6  155.50    6.74
  -7  -4  -6  147.51    7.06
  -7  -4  -6  151.73    6.61
  -7   4  -6  144.10    6.96
  -9  -5   6  138.06    7.15
  -9   5   6  138.13    7.00
  -8  -5   6   25.22    3.00
  -8  -5   6   22.12    2.70
  -8   5   6   25.42    1.88
  -8   5   6   24.46    3.03
  -7   5   6   71.38    3.49
  -7   5   6   78.28    4.59
  -7  -5   6   75.36    4.46
  -7  -5   6   72.83    4.19
  -6  -5   6  240.11    8.28
  -6   5   6  235.05    7.53
  -6  -5   6  240.51    8.70
  -6   5   6  235.59    8.82
  -5  -5   6   11.17    1.67
   5  -5  -6   13.49    1.10
  -5   5   6   11.35    1.19
  -5  -5   6   12.15    1.65
  -5   5   6   11.42    1.85
  -4   5   6  467.16   12.87
  -4  -5   6  452.11   12.55
  -4   5   6  456.69   14.40
  -4  -5   6  458.02   13.16
   4  -5  -6  467.27   12.44
   3   5  -6   91.90    4.84
  -3  -5   6   97.05    4.14
  -3  -5   6   99.58    3.58
  -3   5   6   97.34    4.22
   3  -5  -6  103.37    3.85
  -3  -5   6   99.71    4.09
  -3   5   6   97.22    4.93
  -2  -5   6  114.82    4.31
  -2   5   6  101.56    5.09
  -2   5   6  105.23    4.51
  -2  -5   6  116.35    4.13
  -2  -5   6  115.82    4.28
  -2  -5   6  119.01    3.67
   2   5  -6  104.35    4.92
   2  -5  -6  111.92    4.22
  -1  -5   6  349.67    9.57
   1   5  -6  349.06   12.46
  -1   5   6  359.92   11.53
   1  -5  -6  355.43    8.86
   1   5  -6  362.87   10.83
  -1   5   6  365.64   10.73
  -1  -5   6  356.42    9.76
   1  -5  -6  362.40   10.31
   0  -5  -6  138.18    5.20
   0   5  -6  138.49    6.56
   0  -5   6  142.90    4.67
   0   5   6  149.23    5.99
   0   5   6  148.11    6.12
   0  -5   6  139.78    4.47
   0   5  -6  142.76    5.54
   0  -5  -6  143.27    4.43
  -1   5  -6  364.55   12.97
   1  -5   6  365.09    9.98
   1  -5   6  369.58    9.40
   1   5   6  357.89   11.71
  -1  -5  -6  374.84    9.82
  -1   5  -6  359.43   11.11
  -1  -5  -6  388.49   10.41
   1   5   6  383.55   11.75
  -1  -5  -6  379.19   10.01
  -2   5  -6   12.07    1.98
  -2  -5  -6    9.12    1.26
  -2  -5  -6    9.89    0.94
  -2   5  -6   10.48    1.55
  -2  -5  -6    7.32    1.09
   2   5   6   12.53    1.84
   2  -5   6    7.93    0.79
   3   5   6   90.27    4.72
  -3  -5  -6   98.50    4.22
  -3   5  -6   89.83    5.25
  -3  -5  -6  101.59    4.14
  -3  -5  -6   92.92    3.55
  -3   5  -6   95.67    4.63
  -4  -5  -6   31.81    2.39
  -4   5  -6   30.10    2.55
  -4   5  -6   31.84    2.91
  -4  -5  -6   36.27    2.41
   4   5   6   35.08    2.78
  -5   5  -6   12.16    2.09
  -5   5  -6   13.14    1.93
  -5  -5  -6   12.85    1.84
   5   5   6   10.73    1.81
  -5  -5  -6   12.05    1.73
  -6  -5  -6  112.18    5.36
  -6   5  -6  116.62    5.68
  -6   5  -6  114.67    5.81
  -6  -5  -6  111.63    5.68
  -7   5  -6   27.24    2.65
  -7   5  -6   28.12    3.14
  -7  -5  -6   26.53    3.05
  -8  -6   6   25.95    3.13
  -8   6   6   31.47    3.18
  -8  -6   6   28.38    2.78
  -7   6   6   34.13    2.18
  -7  -6   6   31.79    2.95
  -7   6   6   35.09    3.16
  -7  -6   6   33.58    2.93
  -6   6   6   19.10    2.50
  -6  -6   6   17.24    2.10
  -6   6   6   21.91    1.66
  -6  -6   6   19.82    2.08
  -5  -6   6   96.33    4.73
   5  -6  -6  104.62    4.14
  -5  -6   6  101.95    4.63
  -5   6   6   95.07    4.23
  -5   6   6  102.72    5.19
   4  -6  -6  102.66    4.10
  -4   6   6  100.96    4.31
  -4  -6   6  102.02    4.41
  -4  -6   6  103.01    4.64
  -4   6   6   98.05    5.27
  -3  -6   6   48.62    2.71
  -3   6   6   53.01    3.60
  -3  -6   6   52.11    2.90
   3  -6  -6   51.61    2.71
  -3   6   6   50.76    2.85
  -2   6   6  610.33   18.28
   2  -6  -6  625.40   16.85
   2   6  -6  627.70   17.82
  -2  -6   6  639.72   15.83
  -2  -6   6  637.39   16.52
   2   6  -6  613.51   19.75
  -2  -6   6  645.11   16.27
  -2   6   6  618.95   16.82
  -2  -6   6  666.78   16.16
  -1  -6   6   58.28    2.70
   1   6  -6   57.02    3.97
   1   6  -6   58.15    3.41
  -1   6   6   56.99    3.26
  -1   6   6   61.09    3.74
  -1  -6   6   56.66    2.67
   1  -6  -6   58.27    3.04
   0   6  -6  116.88    5.06
   0   6   6  119.59    5.42
   0  -6  -6  114.14    4.82
   0  -6   6  119.80    4.06
   0  -6   6  116.57    4.05
   0   6   6  120.87    5.53
   0   6  -6  127.01    6.24
   0  -6  -6  121.12    3.87
   1   6   6   46.46    3.15
  -1   6  -6   42.86    2.84
  -1  -6  -6   43.87    2.47
  -1  -6  -6   40.40    2.64
  -1   6  -6   36.59    3.21
   1  -6   6   41.24    1.97
  -1  -6  -6   47.26    2.26
  -2  -6  -6   47.25    2.63
   2   6   6   45.80    3.18
  -2  -6  -6   50.25    2.57
  -2   6  -6   47.24    3.06
  -2  -6  -6   43.54    2.43
  -2   6  -6   43.42    3.48
  -3   6  -6  431.67   13.28
  -3  -6  -6  444.67   11.98
  -3   6  -6  413.09   15.25
   3   6   6  442.98   13.81
  -3  -6  -6  438.99   12.38
  -3  -6  -6  458.21   12.02
  -4  -6  -6   45.82    2.90
  -4  -6  -6   45.12    2.81
  -4   6  -6   42.82    3.57
  -4   6  -6   50.91    3.38
   4   6   6   47.47    3.30
  -5   6  -6  162.23    8.20
  -5  -6  -6  174.46    6.87
   5   6   6  158.95    7.06
  -5  -6  -6  171.41    6.58
  -5   6  -6  164.40    6.93
   6   6   6   81.66    4.86
  -6   6  -6   81.69    4.96
  -6  -6  -6   79.83    4.77
  -6   6  -6   85.24    4.95
  -6  -6  -6   95.42    4.85
  -7   6  -6   52.45    3.92
  -7  -6  -6   52.27    3.97
   7   6   6   47.79    3.80
  -7   6  -6   51.53    3.95
  -8  -7   6   69.87    4.59
  -8  -7   6   69.53    4.83
  -8   7   6   72.49    5.08
  -7  -7   6  108.53    5.43
  -7   7   6   96.63    5.75
  -7  -7   6  102.08    5.64
  -6  -7   6  132.32    5.74
  -6   7   6  121.79    4.73
  -6   7   6  112.08    5.97
  -6  -7   6  127.32    5.97
  -5   7   6   27.86    2.58
   5  -7  -6   23.86    1.82
  -5  -7   6   26.30    2.17
  -5   7   6   27.31    1.93
  -5  -7   6   25.96    2.33
  -4  -7   6  126.29    5.20
   4  -7  -6  130.90    5.16
  -4   7   6  139.62    6.21
  -4  -7   6  139.98    5.69
   4   7  -6  131.36    6.73
  -4   7   6  130.72    5.16
  -3  -7   6  158.74    5.68
   3  -7  -6  154.32    5.81
  -3  -7   6  153.78    5.88
  -3   7   6  155.38    5.82
   3   7  -6  159.35    7.46
  -3   7   6  166.36    7.18
   3   7  -6  149.15    6.91
   2  -7  -6  291.13    9.30
   2   7  -6  300.34   10.31
  -2   7   6  291.02   10.46
   2   7  -6  275.15   11.16
  -2  -7   6  304.92    8.64
  -2   7   6  296.48    9.33
  -2  -7   6  303.92    9.01
  -1  -7   6  241.96    7.14
   1   7  -6  233.80    8.51
   1  -7  -6  247.50    8.24
  -1   7   6  251.41    9.20
   1   7  -6  241.38    9.98
  -1  -7   6  239.95    7.44
  -1   7   6  259.07    8.51
   0   7   6   90.72    4.68
   0   7   6   93.97    4.85
   0  -7   6   87.36    3.33
   0  -7   6   91.90    3.50
   0   7  -6   86.81    4.36
   0  -7  -6   93.58    4.36
   0   7  -6   88.09    5.33
   1   7   6  198.97    7.89
  -1   7  -6  197.15    8.94
  -1  -7  -6  204.06    7.49
  -1  -7  -6  209.54    7.05
   1   7   6  207.73    7.98
  -1   7  -6  198.18    7.46
  -2  -7  -6    3.61    0.73
   2   7   6    6.43    1.33
  -2   7  -6    5.28    1.13
  -2  -7  -6    4.75    1.02
  -2   7  -6    2.28    0.86
  -3  -7  -6   53.37    2.84
   3   7   6   59.31    3.72
  -3   7  -6   54.39    4.18
  -3   7  -6   56.87    3.56
  -3  -7  -6   56.00    3.18
  -3  -7  -6   57.21    3.07
  -4   7  -6   14.72    2.08
  -4  -7  -6   11.41    1.63
  -4  -7  -6   13.13    1.85
  -4   7  -6   12.87    2.37
   4   7   6   16.96    1.81
  -5  -7  -6   66.91    3.97
  -5   7  -6   65.86    5.14
   5   7   6   70.54    4.21
  -5  -7  -6   63.96    3.80
  -6   7  -6   80.50    5.06
  -6  -7  -6   75.35    4.50
   6   7   6   87.71    5.09
  -6   7  -6   79.23    4.80
  -7  -8   6   31.89    2.94
  -7  -8   6   31.37    3.17
  -7   8   6   32.01    3.61
  -6   8   6   33.64    3.31
  -6  -8   6   33.75    3.09
  -6  -8   6   34.29    2.87
  -5  -8   6   84.28    4.29
  -5   8   6   81.52    3.79
  -5   8   6   88.68    5.07
   5  -8  -6   83.40    4.07
  -5  -8   6   88.30    4.67
   5   8  -6   89.76    5.46
  -4   8   6   75.94    3.65
  -4  -8   6   80.42    3.91
  -4  -8   6   74.21    4.04
   4  -8  -6   79.37    3.87
   4   8  -6   74.99    4.94
  -4   8   6   73.56    4.46
  -3   8   6   78.43    4.66
   3  -8  -6   65.20    3.55
  -3  -8   6   71.33    3.67
  -3  -8   6   65.42    3.33
  -3   8   6   72.42    3.55
   3   8  -6   64.53    4.51
   3   8  -6   67.77    4.63
   2  -8  -6  219.32    7.78
  -2  -8   6  218.53    6.84
  -2   8   6  210.13    8.62
  -2  -8   6  215.10    7.26
   2   8  -6  214.78    8.53
  -2   8   6  222.34    7.60
   2   8  -6  210.09    9.34
   1   8  -6   43.36    3.65
  -1  -8   6   50.39    2.64
  -1   8   6   53.48    3.64
   1   8  -6   48.74    3.37
   1  -8  -6   45.95    2.98
  -1   8   6   49.93    3.14
  -1  -8   6   44.78    2.33
   0  -8  -6  171.27    6.56
   0   8  -6  168.62    6.78
   0  -8   6  166.09    5.55
   0   8  -6  173.83    8.24
   0   8   6  160.86    7.10
   0   8   6  155.86    6.80
   0  -8  -6  178.48    6.85
  -1   8  -6   82.35    4.42
  -1  -8  -6   90.63    4.58
   1   8   6   85.95    4.73
   1   8   6   83.77    4.74
  -1  -8  -6   90.94    4.26
  -1   8  -6   87.43    5.52
   2   8   6   59.47    3.78
  -2  -8  -6   58.21    3.23
  -2   8  -6   58.32    4.47
  -2   8  -6   59.74    3.67
  -3   8  -6  115.92    5.55
  -3  -8  -6  119.85    4.91
   3   8   6  118.00    5.73
  -3  -8  -6  121.47    5.16
  -3   8  -6  111.59    6.80
  -4   8  -6   15.86    2.29
  -4  -8  -6   18.95    2.31
   4   8   6   14.43    2.05
  -4   8  -6   17.32    3.00
  -5   8  -6  223.25   10.94
  -5   8  -6  221.65    9.00
   5   8   6  234.46    9.11
  -5  -8  -6  234.45    8.47
  -6   8  -6   46.15    3.63
   7   9  -6   71.19    5.19
   6   9  -6  144.50    7.92
  -6  -9   6  164.28    6.91
  -6  -9   6  168.40    7.51
  -6   9   6  159.87    7.76
  -5   9   6   21.79    2.97
  -5  -9   6   19.02    2.20
   5  -9  -6   18.17    1.71
  -5  -9   6   20.72    2.56
   5   9  -6   18.75    2.79
  -4  -9   6   40.92    2.96
  -4  -9   6   43.27    2.73
   4  -9  -6   41.85    2.82
  -4   9   6   42.35    3.38
   4   9  -6   46.45    3.86
  -4   9   6   43.32    2.54
  -3   9   6  135.26    6.25
  -3  -9   6  120.93    5.38
  -3   9   6  140.10    5.37
   3   9  -6  120.73    6.54
   3   9  -6  126.98    6.93
  -3  -9   6  124.19    5.00
   3  -9  -6  130.36    5.65
   2   9  -6  162.82    8.08
  -2  -9   6  165.51    6.14
  -2   9   6  156.95    7.30
  -2  -9   6  160.58    5.57
   2  -9  -6  153.82    6.50
   2   9  -6  165.11    7.34
  -2   9   6  160.44    6.22
  -1   9   6  159.63    6.45
  -1   9   6  156.85    7.17
   1  -9  -6  161.09    6.64
  -1  -9   6  159.38    5.78
   1  -9  -6  160.53    6.67
   1   9  -6  150.02    7.88
   1   9  -6  165.77    7.00
   0   9  -6   30.73    2.60
   0  -9  -6   32.07    2.56
   0  -9   6   29.70    1.92
   0  -9  -6   29.60    2.42
   0   9  -6   30.86    3.18
   0   9   6   32.83    2.79
   0   9   6   23.03    2.29
   1   9   6  191.31    8.01
  -1   9  -6  196.67    7.75
  -1   9  -6  191.13    9.33
   1   9   6  188.78    7.97
  -1  -9  -6  205.62    7.56
  -1  -9  -6  199.96    7.93
  -2   9  -6   63.14    3.86
  -2  -9  -6   54.44    3.77
  -2   9  -6   61.49    4.89
  -2  -9  -6   53.08    3.26
   2   9   6   58.55    3.80
   3   9   6   54.17    3.63
  -3   9  -6   51.02    3.66
  -3  -9  -6   56.78    3.25
  -3   9  -6   53.66    4.76
  -3  -9  -6   48.26    3.33
  -4  -9  -6   39.21    3.13
   4   9   6   46.11    3.31
  -4   9  -6   44.25    4.37
  -4   9  -6   48.48    3.63
  -5   9  -6   17.94    2.59
  -6 -10   6    9.20    1.76
  -6 -10   6   10.32    2.20
   6  10  -6   13.16    2.52
   5 -10  -6   82.86    4.67
  -5  10   6   93.81    5.61
   5  10  -6   79.58    5.63
  -5 -10   6   93.46    4.73
  -5 -10   6   85.04    5.04
   4  10  -6   72.33    5.26
  -4  10   6   82.16    5.08
   4 -10  -6   74.22    4.22
  -4 -10   6   72.19    3.74
  -4 -10   6   75.58    4.41
   3  10  -6   23.83    3.26
   3  10  -6   19.27    3.21
  -3  10   6   22.19    2.84
  -3 -10   6   18.15    1.87
   3 -10  -6   19.57    1.98
   2  10  -6   69.10    5.22
  -2 -10   6   73.78    3.77
  -2  10   6   69.21    3.67
   2 -10  -6   70.32    4.14
   2  10  -6   70.17    4.81
  -1  10   6   11.76    1.67
   1 -10  -6    7.28    1.42
  -1  10   6   11.19    1.91
   1 -10  -6    8.64    1.61
  -1 -10   6    9.53    1.34
   1  10  -6   10.55    2.06
   1  10  -6    8.60    2.19
   0  10  -6  100.77    5.31
   0  10   6   98.97    5.21
   0 -10  -6   96.36    5.24
   0  10   6  104.39    5.56
   0 -10  -6   96.08    5.02
   0  10  -6  100.70    6.48
   1  10   6   84.79    4.82
  -1  10  -6   85.80    4.87
  -1  10  -6   83.91    6.01
   1  10   6   78.46    5.02
  -1 -10  -6   76.57    4.79
  -1 -10  -6   90.70    4.67
  -2  10  -6   62.65    5.20
  -2 -10  -6   59.70    3.64
  -2 -10  -6   58.30    4.17
  -2  10  -6   59.60    4.02
   2  10   6   60.95    3.93
  -3 -10  -6   89.93    4.79
  -3  10  -6   84.37    5.00
  -3 -10  -6  101.32    4.81
  -3  10  -6   78.49    6.12
  -4  10  -6   13.74    2.30
   5  11  -6   18.72    2.99
  -4 -11   6   64.89    4.27
   4 -11  -6   69.60    4.40
   4  11  -6   68.86    5.26
   4  11  -6   59.24    5.37
  -4  11   6   72.67    4.92
   3 -11  -6   30.93    2.91
  -3 -11   6   30.84    2.80
   3  11  -6   27.95    3.70
   3  11  -6   28.60    3.39
  -3  11   6   32.78    3.23
  -2 -11   6   33.69    2.68
  -2  11   6   30.56    3.08
   2 -11  -6   37.86    3.32
   2 -11  -6   39.21    3.24
   2  11  -6   36.80    3.74
   2  11  -6   33.05    3.70
   1 -11  -6   57.75    4.09
   1 -11  -6   57.53    4.10
   1  11  -6   50.62    4.60
  -1  11   6   52.50    3.43
  -1 -11   6   51.75    3.08
   1  11  -6   63.14    4.35
   0  11   6   31.26    3.06
   0  11  -6   36.64    3.92
   0  11  -6   35.11    3.22
   0 -11  -6   40.15    3.44
   0 -11  -6   40.17    3.36
   0  11   6   35.16    3.25
  -1 -11  -6  215.47    8.58
  -1  11  -6  203.87    8.52
  -1  11  -6  206.77   10.48
   1  11   6  212.30    8.84
  -1 -11  -6  199.78    8.75
   1  11   6  205.19    8.88
  -2  11  -6   37.44    3.26
  -2 -11  -6   35.60    3.38
  -2 -11  -6   31.38    2.88
  -3  11  -6   13.29    2.29
   3 -12  -6   22.99    2.85
  -3 -12   6   24.68    2.60
  -3  12   6   23.78    3.12
  -2  12   6   38.93    3.42
   2 -12  -6   42.04    3.55
  -2 -12   6   42.92    3.21
   1 -12  -6   12.20    2.26
   1  12  -6   11.61    2.37
  -1  12   6   13.02    2.31
   1 -12  -6   10.95    2.22
   0  12   6   51.90    3.83
   0 -12  -6   47.94    3.89
   0  12  -6   50.65    3.97
   1  12   6   70.27    4.87
  -1 -12  -6   76.90    4.90
  -2 -12  -6   66.99    4.47
  -9   0   7   12.29    2.05
  -8   0   7  159.47    6.41
  -8   0   7  161.05    6.76
  -7   0   7   12.99    1.80
  -7   0   7    9.91    1.49
   6   0  -7   67.06    3.37
  -6   0   7   69.65    3.72
  -6   0   7   76.25    3.79
  -5   0   7  478.15   14.15
   5   0  -7  479.81   12.81
  -5   0   7  458.42   13.06
  -4   0   7   66.49    3.62
  -4   0   7   65.91    3.54
   4   0  -7   66.48    2.91
   3   0  -7  541.31   13.81
  -3   0   7  527.21   14.62
  -3   0   7  518.52   15.14
  -2   0   7    7.13    1.24
   2   0  -7    8.27    1.05
  -2   0   7   11.11    1.55
  -1   0   7  615.09   17.31
  -1   0   7  634.29   16.57
   1   0  -7  615.71   16.09
   0   0  -7  389.92    9.30
   0   0  -7  389.75   11.07
   0   0   7  392.26   11.32
  -1   0  -7    3.61    0.86
   1   0   7    1.57    0.61
  -1   0  -7    2.47    0.51
  -1   0  -7    1.18    0.47
   2   0   7  464.86   13.49
  -2   0  -7  499.63   13.47
  -2   0  -7  479.49   14.80
  -2   0  -7  479.11   11.98
  -3   0  -7    6.77    1.07
   3   0   7    4.47    1.14
  -3   0  -7    5.97    1.06
  -3   0  -7    5.14    1.10
  -4   0  -7  354.09   10.24
  -4   0  -7  362.68   11.45
   4   0   7  370.59   11.60
  -5   0  -7   54.03    3.59
  -5   0  -7   52.08    3.09
   5   0   7   49.54    3.38
  -6   0  -7  270.22    9.12
  -6   0  -7  272.30   10.15
   6   0   7  262.94    9.61
  -7   0  -7  189.71    8.47
  -9  -1   7   31.39    2.85
  -9   1   7   29.78    2.69
  -8   1   7   22.31    2.04
  -8   1   7   22.09    2.47
  -8  -1   7   24.44    2.45
  -7   1   7  283.17    9.41
  -7  -1   7  281.04    9.58
  -7  -1   7  296.06    9.17
  -7   1   7  290.98    9.68
  -6  -1   7    3.88    0.75
  -6   1   7    4.04    1.00
  -6  -1   7    3.91    1.00
  -6   1   7    5.35    1.13
  -5  -1   7  286.81    9.33
   5  -1  -7  277.55    7.87
  -5   1   7  279.32    8.86
   5   1  -7  283.75    8.90
  -5   1   7  282.72    9.73
  -5  -1   7  279.64    8.94
  -4   1   7  246.56    8.57
   4  -1  -7  239.63    6.82
  -4  -1   7  233.91    7.72
  -4  -1   7  233.57    8.03
   4   1  -7  240.35    7.51
  -4   1   7  228.91    7.95
  -3  -1   7   99.22    4.45
  -3  -1   7   97.03    4.41
  -3   1   7  103.71    4.52
   3  -1  -7  105.32    3.67
  -3   1   7   97.49    4.67
   3   1  -7  100.40    3.98
  -2  -1   7  106.87    4.71
  -2   1   7  117.78    4.80
  -2   1   7  119.14    5.14
   2  -1  -7  109.35    3.98
  -2  -1   7  109.04    4.64
   2   1  -7  113.05    4.31
   1  -1  -7  107.34    3.95
  -1   1   7   96.61    4.32
   1   1  -7  101.28    4.09
  -1  -1   7  103.57    4.36
   1  -1  -7   99.16    2.95
  -1   1   7   97.37    4.63
  -1  -1   7  100.60    4.54
   0  -1  -7   99.73    4.00
   0   1  -7  100.47    4.17
   0  -1  -7   96.87    3.17
   0   1   7   96.85    4.32
   0  -1   7   98.89    4.59
   0  -1   7   93.95    4.12
   0   1   7   96.60    4.65
  -1  -1  -7   54.54    2.81
   1   1   7   61.85    3.30
   1   1   7   52.15    3.31
  -1  -1  -7   48.19    2.24
  -1  -1  -7   58.27    3.16
   1  -1   7   53.13    2.91
  -1   1  -7   48.85    3.18
  -1   1  -7   48.60    2.87
  -2   1  -7   12.59    1.66
  -2  -1  -7   14.94    1.53
  -2  -1  -7   18.28    1.39
  -2   1  -7   16.87    1.70
  -2  -1  -7   17.55    1.51
   2  -1   7   19.09    1.65
  -2   1  -7   19.25    1.42
   2   1   7   13.96    1.86
  -3   1  -7   31.47    2.40
  -3   1  -7   34.17    2.10
  -3  -1  -7   29.67    1.96
  -3   1  -7   33.17    2.47
   3   1   7   34.03    2.71
  -3  -1  -7   30.06    2.32
  -3  -1  -7   28.88    2.02
   3  -1   7   34.29    2.37
  -4   1  -7   11.27    1.75
   4  -1   7   11.45    1.68
  -4  -1  -7   10.79    1.70
  -4   1  -7   10.74    1.22
  -4  -1  -7   12.12    1.57
   4   1   7    9.03    1.68
  -4   1  -7   11.97    1.56
  -5   1  -7    6.76    1.42
  -5  -1  -7    5.24    1.31
  -5  -1  -7    3.56    0.89
   5   1   7    5.82    1.43
  -6  -1  -7   32.98    3.16
  -6  -1  -7   37.84    2.94
  -6   1  -7   35.36    3.30
  -7   1  -7   49.75    4.04
  -7  -1  -7   56.39    4.28
  -7  -1  -7   54.16    3.73
  -9  -2   7   12.40    2.11
  -9   2   7   11.53    2.10
  -9   2   7    9.99    1.87
  -8  -2   7   99.46    5.28
  -8   2   7  107.18    5.29
  -8   2   7   99.99    4.98
  -7   2   7   32.36    2.44
  -7   2   7   28.97    2.43
  -7  -2   7   31.26    2.55
  -6   2   7  125.06    5.23
  -6  -2   7  128.34    5.67
  -6  -2   7  125.62    4.83
  -6   2   7  123.47    5.55
  -6  -2   7  128.44    5.48
  -5  -2   7  242.01    8.30
  -5  -2   7  238.89    8.06
  -5   2   7  242.00    8.92
  -5  -2   7  253.02    8.18
   5   2  -7  232.14    8.24
  -4   2   7  123.93    5.13
   4   2  -7  127.24    5.10
  -4  -2   7  120.08    4.93
  -4  -2   7  115.86    4.85
  -4  -2   7  116.93    4.91
  -4   2   7  126.80    5.67
  -3   2   7  510.75   15.21
   3   2  -7  502.52   13.92
  -3  -2   7  526.17   13.90
  -3  -2   7  512.09   14.38
   3  -2  -7  514.86   12.89
  -3   2   7  503.82   14.21
   2  -2  -7   66.41    2.69
  -2   2   7   65.39    3.73
  -2  -2   7   67.43    3.40
  -2   2   7   67.68    3.48
   2   2  -7   66.34    3.20
   2  -2  -7   67.07    2.07
  -2  -2   7   62.96    3.32
   1  -2  -7  634.45   13.97
  -1   2   7  618.20   16.73
  -1   2   7  618.63   17.70
  -1  -2   7  617.46   16.44
  -1  -2   7  628.03   17.19
   1   2  -7  630.84   16.56
   0   2   7  250.50    8.39
   0  -2  -7  269.03    7.66
   0   2  -7  255.05    8.24
   0  -2   7  259.34    8.12
   0   2   7  256.78    9.03
   0  -2  -7  265.35    6.76
   0   2  -7  256.33    9.56
   1   2   7    4.00    1.07
  -1  -2  -7    3.37    0.74
  -1   2  -7    5.66    1.10
  -1   2  -7    4.97    1.14
   1  -2   7    5.25    0.99
   1   2   7    5.19    1.18
  -1  -2  -7    5.13    0.81
  -1  -2  -7    4.71    0.90
  -2  -2  -7  386.87   11.79
  -2  -2  -7  401.14   11.20
   2  -2   7  387.60   11.06
  -2   2  -7  388.46   11.76
   2   2   7  370.31   11.91
  -2   2  -7  375.88   12.95
  -2  -2  -7  391.35   10.10
  -3  -2  -7    7.98    1.18
   3   2   7    8.21    1.65
  -3  -2  -7    8.78    1.42
   3  -2   7    9.12    1.27
  -3   2  -7    9.86    1.60
   4  -2   7  455.91   12.79
  -4  -2  -7  451.26   12.24
  -4   2  -7  458.34   13.63
  -4   2  -7  439.53   14.75
   4   2   7  449.62   13.98
  -4  -2  -7  447.41   13.40
  -5  -2  -7   62.87    3.87
  -5   2  -7   55.59    3.74
  -5  -2  -7   61.38    3.36
  -5   2  -7   56.52    3.61
   5  -2   7   53.33    3.11
  -6  -2  -7  209.22    7.76
  -6  -2  -7  215.24    8.63
  -6   2  -7  200.59    8.52
  -7   2  -7  159.26    7.67
  -7  -2  -7  165.86    7.78
  -9   3   7   41.38    3.57
  -9   3   7   46.98    3.27
  -8   3   7   49.21    3.54
  -8  -3   7   49.03    3.86
  -8  -3   7   50.09    3.63
  -8   3   7   47.57    3.23
  -7   3   7   88.03    4.24
  -7  -3   7   84.41    4.74
  -7   3   7   95.36    4.96
  -7  -3   7   80.99    4.53
  -6   3   7    8.46    1.35
  -6  -3   7    7.13    1.46
  -6   3   7    8.82    1.61
  -6  -3   7    8.95    1.56
  -5   3   7  366.26   12.38
  -5  -3   7  383.37   11.02
  -5   3   7  363.58   11.25
  -5  -3   7  361.68   11.42
  -5  -3   7  381.65   11.21
  -4  -3   7  132.36    5.07
   4   3  -7  130.29    5.59
  -4  -3   7  125.24    5.19
  -4   3   7  133.85    5.44
  -4   3   7  142.99    6.22
  -4  -3   7  135.35    5.36
  -3   3   7  135.28    5.42
  -3  -3   7  134.00    5.07
  -3   3   7  129.49    5.94
   3   3  -7  140.25    5.45
  -3  -3   7  135.06    5.12
  -3  -3   7  131.62    5.14
   2  -3  -7   89.43    2.82
   2   3  -7   91.49    4.07
  -2  -3   7   96.61    3.74
  -2  -3   7   88.08    4.05
   2  -3  -7   91.33    3.08
  -2   3   7   92.99    4.24
  -2   3   7   87.45    4.60
  -2  -3   7   89.99    4.01
   1   3  -7   11.46    1.47
   1  -3  -7   14.13    0.97
  -1   3   7   16.95    1.84
  -1  -3   7   17.14    1.55
  -1  -3   7   13.14    1.35
   1  -3  -7   15.18    1.10
  -1  -3   7   15.11    1.13
  -1   3   7   17.25    1.66
   0   3  -7   66.31    4.12
   0  -3   7   72.60    3.36
   0  -3  -7   65.84    2.89
   0   3  -7   71.87    3.55
   0  -3  -7   66.80    2.63
   0   3   7   71.66    3.99
   0   3   7   70.74    3.70
  -1  -3  -7    8.22    1.13
  -1   3  -7    6.23    1.18
  -1  -3  -7    8.33    1.04
   1   3   7    7.97    1.49
  -1   3  -7    6.34    1.36
   1   3   7    5.75    1.31
   1  -3   7    7.71    1.16
  -2   3  -7   58.24    3.84
  -2  -3  -7   60.99    2.81
   2  -3   7   60.52    2.96
  -2   3  -7   59.68    3.44
   2   3   7   56.47    3.75
  -2  -3  -7   59.12    3.11
   2   3   7   58.35    3.71
  -3  -3  -7   22.80    1.95
   3   3   7   22.77    2.39
  -3  -3  -7   21.18    1.69
  -3   3  -7   25.33    2.36
  -3   3  -7   23.02    2.17
   3  -3   7   23.86    1.72
  -4  -3  -7    7.27    1.20
  -4  -3  -7    6.38    1.30
  -4   3  -7    8.11    1.51
  -4   3  -7    5.55    1.16
   4  -3   7    6.44    1.00
  -5  -3  -7    0.90    0.49
  -5  -3  -7    0.31    0.41
  -5   3  -7    0.01    0.58
  -5   3  -7    1.61    0.50
  -6   3  -7  125.24    6.23
  -6  -3  -7  109.41    5.87
  -6  -3  -7  116.07    5.44
  -9   4   7   16.45    2.16
  -9   4   7   16.14    2.70
  -8  -4   7   59.81    4.34
  -8   4   7   62.41    3.68
  -8   4   7   57.63    4.22
  -8  -4   7   64.84    4.24
  -7  -4   7    7.81    1.72
  -7  -4   7    6.87    1.61
  -7   4   7    4.37    0.77
  -7   4   7    5.62    1.28
  -6   4   7   95.38    4.35
  -6   4   7   98.84    5.12
  -6  -4   7   96.67    4.89
  -6  -4   7   93.77    4.70
  -5   4   7  125.43    5.29
  -5  -4   7  124.34    5.34
  -5  -4   7  125.20    5.45
  -4  -4   7  168.39    6.31
  -4  -4   7  174.21    5.87
  -4  -4   7  168.44    6.27
   4   4  -7  173.13    6.94
  -4   4   7  166.85    7.26
  -4   4   7  165.95    6.34
  -3   4   7  468.58   14.71
  -3  -4   7  474.01   13.13
   3   4  -7  458.01   13.74
  -3   4   7  458.78   13.40
  -3  -4   7  494.51   13.20
  -3  -4   7  479.70   12.91
  -2  -4   7  246.39    7.53
   2   4  -7  243.30    8.18
  -2  -4   7  252.63    7.72
  -2  -4   7  244.10    7.89
  -2   4   7  243.71    9.03
  -1   4   7  344.51   11.40
  -1  -4   7  337.16   10.02
   1  -4  -7  331.89    8.88
  -1  -4   7  340.48    9.37
  -1  -4   7  348.32   10.42
   1   4  -7  344.39   10.44
   1   4  -7  356.02   12.39
  -1   4   7  343.24   10.53
   1  -4  -7  337.55    8.57
   0  -4  -7  306.67    8.32
   0  -4   7  296.11    7.93
   0   4  -7  297.44    9.47
   0  -4   7  301.49    8.91
   0   4   7  286.43    9.58
   0   4   7  302.88   10.32
   0  -4  -7  295.76    7.86
   0   4  -7  285.22   11.01
   1   4   7  112.11    5.40
  -1   4  -7  104.29    4.79
  -1  -4  -7  109.31    4.17
  -1   4  -7  101.58    5.55
   1  -4   7  111.16    4.29
  -1  -4  -7  109.04    3.96
   1   4   7  110.27    5.28
  -1  -4  -7  108.11    3.96
  -2  -4  -7  393.79   11.14
  -2   4  -7  383.86   13.70
  -2   4  -7  391.13   12.02
   2   4   7  378.76   12.60
   2  -4   7  400.70   10.90
  -2  -4  -7  403.96   10.45
   2   4   7  368.91   12.35
  -3   4  -7    3.98    1.00
   3   4   7    3.78    1.06
   3   4   7    4.35    1.24
  -3  -4  -7    4.40    0.89
   3  -4   7    2.12    0.47
  -3   4  -7    2.76    0.88
  -3  -4  -7    2.64    0.73
  -4  -4  -7  307.58    9.18
   4   4   7  293.81   10.71
  -4  -4  -7  304.70    9.89
  -4   4  -7  287.56   11.41
  -5   4  -7   84.36    4.86
  -5   4  -7   74.73    4.83
  -5  -4  -7   88.75    4.68
  -5  -4  -7   91.20    4.46
  -6   4  -7  108.20    5.53
  -6  -4  -7  122.31    6.10
  -6   4  -7  104.39    5.81
  -6  -4  -7  115.93    5.47
  -8  -5   7   47.65    3.90
  -8   5   7   53.77    4.17
  -8  -5   7   51.93    3.87
  -8   5   7   48.39    3.16
  -7   5   7   70.72    4.70
  -7  -5   7   85.84    4.77
  -7   5   7   78.46    3.88
  -7  -5   7   81.20    4.83
  -6  -5   7   22.57    2.24
  -6   5   7   23.63    2.38
  -6  -5   7   19.63    2.30
  -6   5   7   23.55    1.86
  -5   5   7  176.78    7.45
  -5  -5   7  186.36    7.17
  -5   5   7  187.66    6.86
  -5  -5   7  183.78    6.92
  -4   5   7   31.87    2.30
   4   5  -7   31.08    2.97
  -4  -5   7   27.29    2.20
  -4  -5   7   26.88    2.15
  -4   5   7   35.78    3.00
  -3   5   7   41.72    2.69
   3  -5  -7   37.22    2.03
   3   5  -7   40.36    3.00
  -3  -5   7   36.68    2.43
  -3   5   7   36.90    3.05
  -3  -5   7   38.02    2.43
  -3  -5   7   39.07    2.13
   2   5  -7  239.56    9.93
  -2  -5   7  254.79    7.80
  -2  -5   7  258.72    7.95
  -2   5   7  259.26    9.51
  -2   5   7  242.88    8.36
   2   5  -7  249.78    8.59
   2  -5  -7  252.72    7.67
  -2  -5   7  252.36    7.80
  -1   5   7   50.63    3.07
  -1  -5   7   46.31    2.52
  -1  -5   7   45.85    2.66
   1   5  -7   46.86    3.55
  -1   5   7   46.39    3.35
   1   5  -7   43.57    2.88
  -1  -5   7   48.54    2.35
   0  -5  -7  118.63    4.23
   0   5  -7  122.04    6.31
   0   5  -7  125.89    5.33
   0  -5  -7  120.29    4.14
   0   5   7  127.63    5.91
   0   5   7  122.49    5.48
  -1   5  -7   24.95    2.56
   1  -5   7   21.28    1.59
  -1  -5  -7   19.97    1.54
  -1  -5  -7   23.05    1.59
   1   5   7   29.44    2.57
  -1   5  -7   29.30    2.34
  -1  -5  -7   20.09    1.50
   1   5   7   24.86    2.42
   2   5   7    3.93    1.22
   2   5   7    2.92    0.95
  -2   5  -7    3.71    0.98
   2  -5   7    2.42    0.57
  -2  -5  -7    2.47    0.59
  -2   5  -7    2.45    0.81
  -2  -5  -7    1.78    0.60
  -3  -5  -7   89.33    4.19
  -3   5  -7   93.85    4.82
  -3  -5  -7   94.70    4.09
  -3   5  -7   88.96    5.37
   3   5   7   90.21    4.97
  -4   5  -7   11.96    1.97
  -4   5  -7    9.77    1.74
  -4  -5  -7    6.44    1.23
  -4  -5  -7    8.68    1.39
   4   5   7    8.31    1.64
  -5  -5  -7   32.70    2.80
  -5   5  -7   34.00    3.04
  -5  -5  -7   35.42    2.77
  -5   5  -7   27.23    3.01
   5   5   7   31.28    3.07
  -6  -5  -7   25.96    2.94
   6   5   7   32.37    3.14
  -6   5  -7   26.50    2.69
  -6   5  -7   30.75    3.06
  -6  -5  -7   26.93    2.57
  -8  -6   7  114.48    6.37
  -8   6   7  126.48    6.85
  -7  -6   7   10.13    2.02
  -7   6   7   11.56    2.29
  -7   6   7    9.73    1.37
  -7  -6   7   12.73    2.24
  -6   6   7   61.33    4.25
  -6  -6   7   63.64    3.93
  -6   6   7   57.27    3.15
  -6  -6   7   67.32    4.12
  -5   6   7   77.85    3.92
  -5  -6   7   77.23    4.25
  -5   6   7   80.57    4.70
  -5  -6   7   79.21    4.16
  -4  -6   7   46.09    2.90
  -4   6   7   50.38    3.76
  -4   6   7   49.91    2.97
   4   6  -7   44.72    3.66
  -4  -6   7   48.65    3.05
   3  -6  -7  347.43    9.97
  -3  -6   7  329.45    9.98
  -3   6   7  340.84   10.54
  -3  -6   7  344.54   10.32
  -3   6   7  335.61   11.92
   3   6  -7  321.37   11.19
  -2  -6   7   98.31    4.12
  -2  -6   7   95.64    4.03
  -2   6   7   94.67    4.49
   2   6  -7   94.80    5.57
   2  -6  -7   96.55    4.06
   2   6  -7   93.65    4.75
  -2   6   7   93.90    5.20
  -1  -6   7  196.70    6.34
  -1  -6   7  195.18    6.25
   1   6  -7  194.78    7.32
  -1   6   7  198.60    7.33
   1  -6  -7  202.02    6.84
  -1   6   7  198.68    8.12
   1   6  -7  186.97    8.65
   0  -6   7  294.96    8.35
   0   6   7  298.42   10.05
   0   6  -7  285.66   11.44
   0   6   7  294.93   10.57
   0   6  -7  292.74    9.78
  -1  -6  -7  122.42    4.48
  -1  -6  -7  126.03    4.68
   1   6   7  125.38    6.06
  -1   6  -7  124.65    6.71
  -1   6  -7  126.65    5.59
   1   6   7  122.76    5.97
  -1  -6  -7  134.18    4.95
   1  -6   7  125.35    4.35
  -2  -6  -7  433.53   11.73
  -2   6  -7  435.10   13.40
  -2   6  -7  415.78   15.45
   2   6   7  434.30   14.09
  -2  -6  -7  459.84   12.21
   2   6   7  424.62   13.91
  -3   6  -7   15.07    2.08
  -3   6  -7   15.21    2.44
  -3  -6  -7   16.28    1.53
  -3  -6  -7   16.24    1.55
   3   6   7   14.10    2.18
  -4  -6  -7  175.21    6.80
  -4  -6  -7  180.08    6.66
  -4   6  -7  176.30    7.57
  -4   6  -7  161.73    8.51
   4   6   7  178.73    7.75
   5   6   7   32.65    3.18
  -5  -6  -7   28.23    2.55
  -5   6  -7   31.39    2.97
  -5   6  -7   27.69    3.21
  -5  -6  -7   25.98    2.59
  -6  -6  -7   64.47    4.28
  -6   6  -7   54.35    4.00
   6   6   7   53.39    4.10
  -7  -7   7   85.50    5.19
  -7  -7   7   78.19    4.76
  -7   7   7   75.12    5.19
  -6  -7   7    1.75    1.19
  -6   7   7    1.63    1.33
  -6   7   7    1.77    0.34
  -6  -7   7    1.58    0.89
  -5   7   7   45.57    2.83
  -5   7   7   53.70    4.06
  -5  -7   7   47.57    3.28
  -5  -7   7   49.60    3.19
  -4   7   7   39.23    2.61
  -4  -7   7   40.18    2.69
   4   7  -7   48.65    3.83
  -4  -7   7   35.02    2.62
   4   7  -7   38.58    3.50
  -3  -7   7   51.90    3.04
  -3   7   7   49.94    3.05
   3  -7  -7   49.97    2.81
   3   7  -7   50.46    3.99
  -3  -7   7   51.86    2.98
   3   7  -7   52.36    3.83
  -3   7   7   58.47    4.08
   2   7  -7  209.67    9.34
  -2  -7   7  204.31    6.75
  -2   7   7  206.31    7.47
   2   7  -7  207.95    7.97
  -2   7   7  193.40    8.42
  -2  -7   7  194.97    6.84
   2  -7  -7  207.22    7.18
   1   7  -7   10.29    1.71
  -1   7   7   10.80    1.63
  -1  -7   7   11.26    1.08
   1  -7  -7   11.48    1.51
  -1  -7   7    9.10    0.97
   1   7  -7    8.23    1.76
  -1   7   7    9.93    1.84
   0  -7  -7  103.19    4.69
   0   7  -7  104.24    5.03
   0   7  -7   99.49    6.01
   0   7   7   96.48    5.33
   0  -7  -7  105.82    4.65
   0   7   7   99.18    5.08
  -1  -7  -7   28.57    2.05
  -1  -7  -7   31.52    2.18
   1   7   7   31.37    2.80
   1   7   7   32.30    2.90
  -1   7  -7   30.18    2.56
  -1   7  -7   32.99    3.16
  -2  -7  -7    0.22    0.32
   2   7   7    1.45    1.02
   2   7   7    1.36    0.70
  -2   7  -7    4.01    1.18
  -2   7  -7    1.69    0.75
  -3  -7  -7  129.41    5.40
  -3  -7  -7  122.78    5.17
  -3   7  -7  128.72    6.13
  -3   7  -7  130.96    7.43
   3   7   7  137.22    6.51
  -4   7  -7   16.29    2.92
  -4  -7  -7   17.41    1.72
   4   7   7   24.78    2.93
  -4  -7  -7   16.39    2.20
  -4   7  -7   17.67    2.52
   5   7   7   42.23    3.63
  -5  -7  -7   44.95    3.29
  -5  -7  -7   45.86    3.39
  -5   7  -7   43.65    4.17
  -5   7  -7   44.87    3.60
   6   7   7    4.15    1.47
  -6   8   7  143.04    7.36
  -6  -8   7  144.12    6.87
   6   8  -7  136.44    7.72
  -6  -8   7  143.86    6.53
  -5   8   7   41.47    3.67
  -5  -8   7   46.44    3.26
  -5   8   7   39.01    2.56
  -5  -8   7   47.77    3.49
   5   8  -7   38.58    3.77
  -4   8   7    9.47    1.99
  -4  -8   7   10.38    1.67
   4   8  -7    9.30    2.17
   4   8  -7   11.49    2.53
  -4  -8   7   12.12    1.71
  -4   8   7   10.13    1.41
   3  -8  -7  156.06    6.06
  -3   8   7  151.28    7.43
   3   8  -7  145.04    7.80
  -3   8   7  155.82    6.14
   3   8  -7  153.76    7.16
  -3  -8   7  155.09    5.85
  -3  -8   7  151.87    6.07
   2  -8  -7   38.50    2.57
  -2  -8   7   37.14    2.28
  -2  -8   7   37.54    2.43
   2   8  -7   34.74    3.39
  -2   8   7   34.67    2.52
   2   8  -7   37.44    3.09
  -2   8   7   40.20    3.39
  -1   8   7  185.92    7.35
  -1  -8   7  193.70    6.49
   1  -8  -7  200.51    7.35
   1   8  -7  171.98    8.83
   1   8  -7  191.16    7.65
  -1   8   7  200.69    8.50
   0  -8  -7  225.25    7.98
   0  -8  -7  225.36    8.15
   0   8  -7  222.33    8.40
   0   8  -7  210.85    9.96
   0   8   7  215.45    8.98
   0   8   7  209.08    8.33
   1   8   7   95.68    5.48
  -1   8  -7   89.65    4.88
  -1   8  -7   92.26    6.16
  -1  -8  -7   94.19    4.45
   1   8   7   98.09    5.40
   2   8   7  284.93   10.66
  -2  -8  -7  292.37    9.03
  -2   8  -7  262.22   11.97
   2   8   7  285.12   10.88
  -2   8  -7  273.98   10.08
  -3  -8  -7   24.33    2.30
  -3   8  -7   26.28    2.67
   3   8   7   22.89    2.82
  -3   8  -7   20.73    3.29
  -4   8  -7  111.55    7.19
  -4  -8  -7  110.33    5.28
   4   8   7  107.62    6.00
  -4   8  -7  109.81    5.92
   5   8   7   11.74    2.27
  -6  -9   7    1.21    0.87
   6   9  -7    1.41    0.98
  -6  -9   7    0.52    0.94
  -5  -9   7   66.24    4.02
   5   9  -7   60.37    4.91
  -5  -9   7   66.07    4.35
  -5   9   7   65.81    4.82
  -4  -9   7   92.81    4.83
   4   9  -7   88.31    6.01
  -4   9   7   86.94    5.40
   4   9  -7   83.69    5.79
  -4  -9   7   81.85    4.22
  -4   9   7   85.75    4.16
   3   9  -7   20.87    3.04
  -3  -9   7   26.46    1.95
  -3  -9   7   27.89    2.25
   3   9  -7   24.02    3.34
  -3   9   7   24.61    1.99
   3  -9  -7   24.78    2.01
  -2   9   7   95.02    4.64
  -2   9   7   98.89    5.88
  -2  -9   7   91.55    4.29
   2  -9  -7   96.69    4.70
   2   9  -7   85.60    5.98
   2   9  -7   92.42    5.39
   1   9  -7   11.49    2.07
   1  -9  -7    8.67    1.52
  -1   9   7    8.58    1.54
   1  -9  -7    7.93    1.40
   1   9  -7    9.90    2.40
  -1   9   7    7.12    1.64
   0  -9  -7   57.49    3.52
   0  -9  -7   59.44    3.70
   0   9   7   58.43    4.21
   0   9   7   57.73    4.10
   0   9  -7   52.98    4.74
   0   9  -7   62.21    4.12
  -1  -9  -7   74.63    4.52
   1   9   7   77.41    5.10
   1   9   7   80.59    4.99
  -1   9  -7   71.29    5.54
  -1  -9  -7   79.18    4.16
  -1   9  -7   75.54    4.62
   2   9   7    7.35    1.80
  -2   9  -7    9.16    2.26
  -2  -9  -7    8.22    1.64
   2   9   7    7.26    2.14
  -2   9  -7    7.31    1.69
  -3   9  -7  103.61    5.66
   3   9   7  102.27    5.85
  -3  -9  -7   95.23    4.90
  -3   9  -7   99.39    6.85
   4   9   7    1.80    1.12
  -5 -10   7   47.98    3.75
   5  10  -7   45.40    4.31
  -5 -10   7   44.62    3.26
   4  10  -7    4.21    2.25
  -4  10   7    4.13    1.54
  -4 -10   7    4.36    1.43
   4  10  -7    3.06    1.33
   3  10  -7  105.58    6.18
  -3 -10   7  103.98    5.16
  -3  10   7  102.78    4.96
   3 -10  -7  101.09    5.19
   3  10  -7   93.77    6.47
  -3  10   7  108.90    6.08
   2 -10  -7   10.44    1.86
   2  10  -7   10.56    2.41
  -2  10   7   10.95    2.36
  -2 -10   7    9.90    1.47
   2  10  -7    9.44    2.18
  -2  10   7   10.27    1.76
   1  10  -7   41.99    3.54
  -1  10   7   41.36    3.18
   1 -10  -7   46.18    3.52
   1  10  -7   42.42    4.24
  -1  10   7   47.03    4.05
   1 -10  -7   46.81    3.50
   0 -10  -7  213.75    8.77
   0  10  -7  208.16   10.58
   0  10   7  216.25    8.84
   0  10   7  226.78    9.63
   0 -10  -7  236.62    8.80
   0  10  -7  217.42    8.87
  -1 -10  -7  102.03    5.22
   1  10   7   96.68    5.85
   1  10   7   99.90    5.91
  -1  10  -7   94.57    5.44
  -1  10  -7   93.46    6.70
  -1 -10  -7  105.12    5.65
  -2 -10  -7  111.83    5.37
   2  10   7  113.01    6.53
   2  10   7  110.23    6.23
  -2  10  -7  110.95    6.00
  -4 -11   7   70.53    4.50
  -3 -11   7   19.47    2.41
   2 -11  -7   87.69    5.10
  -2  11   7   84.53    5.36
   2 -11  -7   94.85    5.54
  -1  11   7   25.33    3.32
   1  11  -7   30.77    3.19
  -1  11   7   27.74    2.52
   1 -11  -7   25.07    3.00
   1 -11  -7   25.03    2.69
   0 -11  -7   43.78    3.60
   0  11   7   43.01    3.50
   0 -11  -7   39.70    3.47
   0  11   7   47.09    4.03
   1  11   7   42.11    3.82
  -1 -11  -7   44.28    3.54
  -8   0   8   51.62    3.68
  -7   0   8   77.16    4.11
  -7   0   8   78.58    4.48
  -6   0   8   67.31    3.86
  -6   0   8   67.45    3.72
  -5   0   8   18.19    1.84
  -5   0   8   14.79    1.87
  -4   0   8  488.82   14.85
  -4   0   8  486.88   14.37
   4   0  -8  499.17   13.18
  -3   0   8  179.08    6.87
  -3   0   8  183.86    7.23
   3   0  -8  187.93    6.09
  -2   0   8  444.02   12.98
  -2   0   8  444.57   13.65
   2   0  -8  444.16   12.25
   1   0  -8  172.55    5.97
  -1   0   8  162.57    6.34
  -1   0   8  170.57    6.88
   0   0   8  256.46    8.55
   0   0   8  253.74    9.15
   0   0  -8  258.83    8.30
   1   0   8  486.88   13.96
  -1   0  -8  497.34   11.92
  -1   0  -8  499.64   15.56
   1   0   8  470.23   14.89
  -2   0  -8    2.88    0.67
  -2   0  -8    2.01    0.71
  -2   0  -8    2.34    0.56
   2   0   8    2.75    0.83
   3   0   8  409.70   12.59
  -3   0  -8  418.69   12.69
  -3   0  -8  422.04   11.27
  -4   0  -8   65.93    4.02
  -4   0  -8   68.15    3.44
   4   0   8   66.57    3.90
  -5   0  -8    8.80    1.66
  -5   0  -8   10.80    2.09
   5   0   8    6.91    1.67
   6   0   8   72.11    4.61
  -6   0  -8   69.52    4.76
  -8  -1   8   79.91    4.75
  -8   1   8   80.14    4.63
  -8   1   8   80.80    4.47
  -7   1   8    2.54    1.06
  -7  -1   8    3.31    1.18
  -7   1   8    1.12    0.42
  -6  -1   8   12.22    1.81
  -6  -1   8   11.83    1.62
  -6   1   8   11.41    1.70
  -6   1   8    9.94    1.61
  -5  -1   8   61.64    3.58
  -5   1   8   59.34    3.80
  -5  -1   8   71.56    3.85
  -5   1   8   63.73    3.59
   5   1  -8   64.31    3.20
   4   1  -8    8.97    1.21
  -4   1   8   10.17    1.59
  -4  -1   8    8.19    1.43
  -4  -1   8    9.27    1.51
  -4   1   8   10.03    1.71
   3  -1  -8   57.69    2.64
  -3   1   8   63.24    3.77
  -3   1   8   59.48    3.45
  -3  -1   8   52.56    3.27
  -3  -1   8   55.14    3.34
   3   1  -8   56.41    2.90
  -2   1   8   13.41    1.89
  -2  -1   8   12.63    1.73
  -2   1   8   14.28    1.80
  -2  -1   8   13.40    1.73
   2   1  -8   16.39    1.48
   2  -1  -8   11.35    1.09
  -1  -1   8  277.51    9.52
  -1   1   8  277.62    9.75
   1  -1  -8  285.15    8.47
  -1  -1   8  265.97    8.92
   1   1  -8  280.17    8.70
  -1   1   8  273.35    9.06
   0  -1   8   61.40    3.67
   0   1   8   62.19    3.80
   0   1   8   59.62    3.42
   0   1  -8   56.40    3.67
   0  -1  -8   56.93    2.30
   0  -1   8   56.33    3.23
   0   1  -8   63.91    3.32
  -1  -1  -8   11.67    1.48
   1  -1   8   11.03    1.54
  -1   1  -8   10.68    1.69
  -1   1  -8   11.80    1.64
   1   1   8   10.34    1.79
  -1  -1  -8    9.52    0.92
   1   1   8   12.44    1.72
  -1  -1  -8   10.20    1.46
   2   1   8   15.48    1.96
  -2   1  -8   13.32    1.84
   2  -1   8   13.69    1.71
  -2  -1  -8   14.84    1.54
  -2  -1  -8   14.59    1.23
  -2  -1  -8   14.41    1.41
  -3   1  -8  115.08    5.29
  -3  -1  -8  124.75    5.38
  -3  -1  -8  110.08    4.42
  -3   1  -8  113.79    5.49
   3   1   8  107.78    5.29
   3  -1   8  107.58    4.89
  -4  -1  -8   20.34    1.73
   4   1   8   21.60    2.27
  -4  -1  -8   23.50    2.24
   4  -1   8   20.42    1.86
  -4   1  -8   24.54    2.35
  -5  -1  -8   66.99    4.33
   5   1   8   52.42    4.06
  -5  -1  -8   63.39    3.68
  -5   1  -8   52.70    3.97
   5  -1   8   55.92    3.39
  -6  -1  -8    1.14    1.07
  -6   1  -8    2.44    1.24
   6   1   8   -0.94    1.20
  -6  -1  -8    1.79    1.02
  -8   2   8   30.15    2.71
  -8  -2   8   28.65    2.80
  -8   2   8   26.69    2.72
  -7  -2   8   30.15    2.81
  -7   2   8   33.03    2.73
  -7   2   8   35.98    2.84
   6   2  -8   90.05    4.52
  -6   2   8   95.74    4.90
  -6   2   8   92.48    4.58
  -6  -2   8   97.31    4.91
  -5  -2   8   14.77    1.94
   5   2  -8   15.42    1.80
  -5   2   8   15.71    1.98
  -5  -2   8   13.82    1.41
  -5   2   8   14.22    2.12
  -4  -2   8  507.96   14.85
   4   2  -8  526.53   14.25
  -4  -2   8  500.81   14.19
  -4   2   8  512.08   14.75
  -4   2   8  495.09   15.70
  -3  -2   8   53.55    3.19
  -3  -2   8   55.27    3.35
  -3   2   8   59.22    3.79
   3   2  -8   62.30    3.16
  -3   2   8   56.59    3.35
  -2  -2   8  387.04   11.82
  -2  -2   8  372.11   11.43
   2   2  -8  378.81   11.13
  -2   2   8  373.64   11.55
   2  -2  -8  383.30   10.36
  -2   2   8  374.18   12.37
  -1   2   8  265.47    9.40
  -1  -2   8  240.25    8.24
   1   2  -8  253.81    8.23
   1  -2  -8  243.89    7.35
  -1  -2   8  254.08    8.77
  -1   2   8  245.35    8.50
   0   2  -8   99.91    5.33
   0  -2   8   97.91    4.81
   0  -2   8   92.01    4.32
   0  -2  -8   98.30    3.36
   0   2   8  101.26    5.18
   0   2  -8  104.29    4.58
   0   2   8  102.69    4.75
   0  -2  -8  100.16    4.04
  -1   2  -8  539.29   17.66
  -1  -2  -8  587.58   16.82
  -1  -2  -8  542.59   13.35
   1  -2   8  582.50   15.37
  -1   2  -8  552.71   15.70
   1   2   8  526.26   16.60
  -1  -2  -8  565.95   14.93
   1   2   8  536.25   15.71
  -2   2  -8    9.84    1.60
   2  -2   8    6.60    1.14
   2   2   8    8.43    1.65
  -2  -2  -8    7.16    1.04
  -2   2  -8   11.10    1.77
   2   2   8    9.37    1.63
  -2  -2  -8    4.51    0.99
  -3  -2  -8  401.43   12.23
  -3   2  -8  397.83   13.80
   3   2   8  404.36   12.97
  -3   2  -8  388.09   12.32
   3  -2   8  403.59   11.85
  -3  -2  -8  412.01   11.03
  -4  -2  -8   32.78    2.28
  -4   2  -8   28.01    2.70
  -4   2  -8   30.69    2.52
  -4  -2  -8   34.91    2.75
   4  -2   8   32.96    2.26
   4   2   8   30.77    3.01
  -5  -2  -8   13.02    1.95
   5   2   8   13.91    2.57
  -5   2  -8   15.65    2.44
  -5  -2  -8   12.33    2.19
   6   2   8  126.33    6.84
  -6  -2  -8  138.09    6.89
  -6  -2  -8  144.97    6.27
  -9   3   8    4.44    1.53
  -8   3   8   49.46    3.43
  -8  -3   8   51.02    3.86
  -8   3   8   47.70    3.80
  -7   3   8   11.36    1.92
  -7   3   8    9.49    1.71
  -7  -3   8   10.59    1.96
  -6   3   8    5.24    1.19
  -6   3   8    6.83    1.26
  -6  -3   8    9.70    1.84
  -6  -3   8   12.14    1.86
   6   3  -8    6.47    1.55
  -5  -3   8   73.62    4.07
  -5   3   8   75.83    4.11
  -5   3   8   80.82    4.78
   5   3  -8   76.81    4.15
  -5  -3   8   71.84    3.94
  -4  -3   8  104.33    4.59
   4   3  -8  110.72    4.84
  -4   3   8  101.60    4.86
  -4  -3   8  105.76    4.64
  -4   3   8  104.34    5.52
  -4  -3   8   98.87    4.69
  -3  -3   8   60.30    3.07
  -3  -3   8   61.55    3.30
  -3  -3   8   58.11    3.29
  -3   3   8   60.54    3.51
   3   3  -8   58.26    3.24
  -3   3   8   52.00    3.69
  -2   3   8   90.83    4.46
  -2  -3   8   92.50    4.39
   2   3  -8   88.32    4.19
  -2  -3   8   92.65    4.34
  -2   3   8   98.81    5.15
   1   3  -8   71.39    4.43
  -1   3   8   66.42    3.71
  -1  -3   8   62.62    3.40
   1  -3  -8   62.63    2.76
  -1  -3   8   60.19    3.49
   1   3  -8   66.58    3.54
  -1   3   8   67.86    4.15
   0  -3  -8   91.04    3.26
   0  -3   8   87.76    4.10
   0   3   8   92.88    4.99
   0   3  -8   95.71    5.26
   0   3  -8   93.79    4.42
   0   3   8   89.37    4.48
   0  -3  -8   82.99    3.58
   1   3   8   16.96    2.11
  -1   3  -8   15.38    2.19
  -1  -3  -8   16.23    1.26
  -1   3  -8   17.81    1.84
   1   3   8   14.74    2.18
   1  -3   8   15.16    1.47
  -1  -3  -8   19.00    1.56
   2   3   8    9.32    1.71
  -2  -3  -8    8.77    1.21
   2   3   8    9.73    1.75
  -2   3  -8   10.95    1.81
  -2  -3  -8    8.21    1.33
   2  -3   8   10.80    1.42
  -2   3  -8   12.01    1.82
   3   3   8   62.13    4.20
   3   3   8   68.08    4.37
  -3  -3  -8   69.83    3.79
  -3   3  -8   72.15    4.20
  -3   3  -8   67.86    4.33
  -3  -3  -8   67.00    3.29
   3  -3   8   64.41    3.28
  -4  -3  -8   26.88    2.08
   4   3   8   26.13    3.26
  -4   3  -8   25.30    2.78
  -4   3  -8   28.28    2.55
  -4  -3  -8   23.09    2.21
   4   3   8   28.64    3.04
  -5   3  -8  121.66    6.20
  -5  -3  -8  127.67    5.52
   5   3   8  110.78    6.36
  -5  -3  -8  122.82    6.10
  -8  -4   8   18.67    2.75
  -8   4   8   18.50    2.29
  -8   4   8   18.66    2.86
  -7  -4   8   28.42    2.81
  -7  -4   8   28.31    2.88
  -7   4   8   26.97    3.19
  -7   4   8   28.92    2.51
  -6   4   8  157.52    7.14
   6   4  -8  158.07    7.06
  -6  -4   8  165.98    6.91
  -6  -4   8  170.63    7.04
  -6   4   8  145.34    6.20
  -5  -4   8   37.09    2.75
  -5  -4   8   36.58    2.76
  -5   4   8   40.42    3.37
   5   4  -8   38.79    3.08
  -5   4   8   35.77    2.65
  -4   4   8  254.35    9.96
   4   4  -8  261.42    8.99
  -4  -4   8  247.41    8.54
  -4  -4   8  256.46    8.58
  -4   4   8  254.74    8.84
  -3   4   8    0.87    0.59
  -3  -4   8    0.59    0.34
   3   4  -8    1.87    0.75
  -3   4   8    2.27    0.66
  -3  -4   8    2.03    0.51
  -3  -4   8    2.53    0.75
  -2  -4   8  269.43    8.56
  -2  -4   8  257.11    7.77
  -2  -4   8  253.75    8.17
  -2   4   8  247.49    8.65
  -2   4   8  234.56    9.43
   2   4  -8  245.84    8.48
  -1  -4   8  436.08   12.67
   1   4  -8  449.84   15.40
   1   4  -8  428.50   12.99
  -1   4   8  432.49   14.21
  -1   4   8  426.96   13.10
  -1  -4   8  465.89   13.31
   0   4  -8   58.63    3.42
   0  -4  -8   54.26    2.46
   0  -4  -8   57.12    2.68
   0   4   8   57.06    3.87
   0   4  -8   51.11    3.86
   0  -4   8   54.03    3.01
   0   4   8   55.57    3.46
  -1  -4  -8  315.40    8.75
  -1   4  -8  325.30   12.30
   1   4   8  301.65   11.15
  -1   4  -8  327.83   10.58
   1   4   8  319.19   10.81
   1  -4   8  318.60    9.68
  -1  -4  -8  335.05    9.54
   2   4   8    1.88    0.95
   2   4   8    1.30    0.73
  -2  -4  -8    2.21    0.65
  -2   4  -8    0.97    0.38
  -2   4  -8    2.92    0.89
   2  -4   8    2.13    0.47
  -2  -4  -8    2.12    0.56
  -3  -4  -8  282.29    8.56
   3   4   8  267.69   10.40
  -3   4  -8  283.89   11.31
   3   4   8  276.36   10.59
  -3   4  -8  291.15   10.18
  -3  -4  -8  273.79    9.20
   4   4   8   48.55    4.01
  -4   4  -8   52.51    3.98
  -4  -4  -8   63.18    3.74
  -4  -4  -8   59.28    3.41
   4   4   8   55.65    4.41
  -4   4  -8   60.22    4.03
  -5  -4  -8   88.75    4.99
   5   4   8   83.94    5.35
  -5   4  -8   83.46    5.48
  -5   4  -8   85.94    5.15
   5   4   8   79.36    5.40
  -5  -4  -8   87.10    4.55
  -8   5   8  103.75    6.18
  -8   5   8  102.44    5.09
  -7   5   8   24.18    2.28
  -7   5   8   24.32    3.20
  -7  -5   8   22.19    2.88
  -7  -5   8   19.22    2.67
  -6  -5   8   25.18    2.77
  -6  -5   8   18.05    2.42
  -6   5   8   18.55    2.14
   6   5  -8   17.14    2.62
  -6   5   8   17.15    2.67
  -5  -5   8   93.16    4.83
   5   5  -8  109.20    5.60
  -5   5   8  100.29    4.82
  -5   5   8   99.05    5.78
  -5  -5   8   91.93    4.73
  -4  -5   8  107.61    5.01
  -4  -5   8  111.57    4.98
   4   5  -8  114.63    5.55
  -4   5   8  119.81    5.29
  -4   5   8  108.72    6.04
  -3  -5   8  101.32    4.54
  -3  -5   8   98.94    4.30
  -3   5   8   87.04    5.28
   3   5  -8   96.52    4.80
  -3   5   8   97.25    4.71
  -2  -5   8   15.30    1.33
   2   5  -8   14.36    2.29
  -2  -5   8   13.17    1.27
  -2   5   8   14.06    2.26
   2   5  -8   13.82    1.85
  -2  -5   8   13.63    1.66
  -2   5   8   14.20    1.88
   1   5  -8    6.37    1.29
  -1   5   8    8.36    1.48
   1   5  -8    5.01    1.33
  -1   5   8    5.41    1.38
  -1  -5   8    3.90    0.84
   0   5  -8  111.63    5.15
   0   5   8  103.18    5.13
   0   5   8  109.95    5.77
   0  -5  -8  101.79    3.91
   0   5  -8  117.01    6.34
  -1   5  -8   25.08    2.70
   1   5   8   26.94    2.62
   1   5   8   28.41    2.60
  -1  -5  -8   25.34    1.75
   1  -5   8   23.95    1.77
  -1   5  -8   24.69    2.27
   2   5   8  106.42    5.59
  -2   5  -8   97.49    5.01
   2   5   8   96.98    5.57
  -2  -5  -8   93.34    4.00
  -2  -5  -8   93.76    4.20
  -2   5  -8   93.70    5.78
  -3  -5  -8   41.05    2.69
  -3   5  -8   37.84    3.27
   3   5   8   35.60    3.70
  -3  -5  -8   39.40    2.51
  -3   5  -8   43.84    3.74
   3   5   8   39.28    3.45
  -4  -5  -8   11.28    1.86
  -4   5  -8   11.71    2.37
  -4  -5  -8   11.26    1.82
   4   5   8   11.88    2.60
   4   5   8   14.52    2.55
  -5  -5  -8   79.59    4.74
  -5   5  -8   77.23    4.88
   5   5   8   76.71    5.11
  -5  -5  -8   77.90    4.31
  -5   5  -8   66.78    5.05
  -7  -6   8   93.59    5.45
  -7   6   8   86.43    4.52
  -7   6   8   91.19    5.82
  -6   6   8  157.58    7.59
  -6  -6   8  162.93    7.08
  -6  -6   8  158.52    7.04
   6   6  -8  136.28    7.36
  -5  -6   8   19.42    2.42
  -5  -6   8   22.60    2.17
  -5   6   8   17.88    2.73
   5   6  -8   15.78    2.63
  -5   6   8   20.36    1.99
  -4  -6   8   75.19    4.00
   4   6  -8   67.73    4.39
  -4   6   8   65.42    3.77
  -4  -6   8   81.08    4.08
  -4   6   8   73.27    4.96
   3   6  -8    5.65    1.41
   3   6  -8    4.22    1.37
  -3   6   8    2.20    0.96
  -3  -6   8    2.76    0.69
  -3   6   8    3.43    0.78
  -3  -6   8    1.56    0.61
  -2  -6   8  175.05    6.29
   2   6  -8  164.59    8.17
  -2  -6   8  171.50    6.02
  -2   6   8  171.21    6.86
  -2   6   8  171.16    7.87
   2   6  -8  167.84    6.90
   1   6  -8  301.45   12.23
   1  -6  -8  307.33    8.42
  -1   6   8  297.99   11.29
  -1   6   8  296.45   10.21
   1   6  -8  305.00   10.30
  -1  -6   8  312.20    9.16
   0   6  -8  108.86    6.35
   0   6   8  104.26    5.25
   0   6  -8  111.01    5.29
   0   6   8  106.88    5.81
   0  -6   8  109.16    4.28
   0  -6  -8  100.42    4.03
   1   6   8  218.90    9.22
   1   6   8  226.06    9.02
  -1   6  -8  234.63    8.72
  -1   6  -8  234.56   10.40
  -1  -6  -8  236.35    7.29
   2   6   8   48.12    4.01
   2   6   8   47.41    3.77
  -2   6  -8   53.12    4.42
  -2   6  -8   46.45    3.54
  -2  -6  -8   48.88    2.78
  -3   6  -8  152.26    7.01
   3   6   8  160.11    7.58
   3   6   8  150.83    7.60
  -3  -6  -8  151.15    6.01
  -3  -6  -8  156.55    6.00
  -3   6  -8  144.67    8.05
   4   6   8   88.42    5.58
  -4  -6  -8   98.03    4.74
  -4   6  -8   85.19    5.99
  -4  -6  -8  100.79    5.00
  -4   6  -8   94.85    5.49
   5   6   8  191.54    8.68
  -5   6  -8  177.05    9.30
  -5  -6  -8  180.88    7.69
  -6   7   8  111.81    6.46
   6   7  -8  103.59    6.51
  -6  -7   8  105.78    5.58
  -6  -7   8  120.27    6.07
  -5   7   8   39.44    3.67
  -5   7   8   41.45    3.01
   5   7  -8   43.03    4.07
  -5  -7   8   33.26    2.92
  -5  -7   8   37.01    3.07
  -4   7   8   14.16    1.96
   4   7  -8   11.12    2.45
  -4  -7   8   12.82    1.87
  -4   7   8   16.12    2.84
   4   7  -8   13.33    2.53
  -4  -7   8   11.74    1.72
  -3   7   8   37.39    3.65
   3   7  -8   42.96    3.96
  -3   7   8   44.54    3.02
  -3  -7   8   42.42    2.70
   3   7  -8   41.48    3.36
  -3  -7   8   38.27    2.59
   2   7  -8   -0.17    0.61
   2   7  -8    2.92    1.43
  -2   7   8    0.89    0.88
  -2   7   8    0.97    0.50
  -1  -7   8   17.50    1.44
  -1   7   8   24.64    2.32
   1   7  -8   19.25    2.34
   1   7  -8   20.90    3.11
  -1   7   8   18.42    2.69
   0  -7  -8   45.60    2.56
   0   7  -8   48.05    3.51
   0  -7  -8   48.42    2.95
   0   7   8   49.80    3.89
   0   7   8   51.96    3.75
   0   7  -8   49.69    4.42
   1   7   8   25.07    3.04
  -1   7  -8   20.16    2.52
   1   7   8   21.47    2.89
  -1  -7  -8   20.90    1.66
  -1   7  -8   20.27    3.19
   2   7   8  133.87    6.95
  -2  -7  -8  137.25    5.46
   2   7   8  132.30    6.96
  -2   7  -8  130.56    6.36
  -2   7  -8  126.48    7.55
   3   7   8   92.66    5.95
  -3   7  -8   91.65    6.31
  -3   7  -8   99.42    5.59
  -3  -7  -8   96.35    4.64
   3   7   8  101.12    5.94
  -4   7  -8   18.90    3.12
  -4  -7  -8   18.37    2.36
   4   7   8   19.54    2.92
  -6  -8   8   73.07    4.74
   5   8  -8    3.89    2.17
  -5   8   8    5.69    1.28
  -5   8   8    3.76    1.69
  -5  -8   8    3.24    1.39
   5   8  -8    7.69    2.03
  -5  -8   8    5.63    1.44
  -4   8   8   93.70    4.78
   4   8  -8   81.93    5.48
   4   8  -8   96.02    6.30
  -4  -8   8   89.17    4.66
  -4  -8   8   96.67    4.90
   3   8  -8   11.85    2.29
  -3  -8   8   10.22    1.47
   3   8  -8   10.05    2.46
  -3   8   8    9.10    2.23
  -3   8   8   10.33    1.79
  -3  -8   8    8.46    1.25
  -2   8   8  121.09    5.74
  -2   8   8  116.19    6.70
   2   8  -8  115.24    7.12
   2   8  -8  122.94    6.11
   1   8  -8   83.13    4.92
  -1   8   8   88.83    5.69
   1   8  -8   81.07    5.89
  -1   8   8   87.43    4.83
   0   8   8   58.43    4.58
   0  -8  -8   64.56    3.24
   0   8  -8   56.45    4.89
   0   8   8   62.07    4.21
   0   8  -8   60.49    4.17
   0  -8  -8   63.36    3.58
   1   8   8  299.92   11.74
   1   8   8  291.25   11.13
  -1   8  -8  298.23   13.07
  -1  -8  -8  314.77    9.47
  -1   8  -8  302.66   10.92
   2   8   8   33.56    3.80
  -2  -8  -8   34.01    2.61
   2   8   8   27.93    3.40
  -2   8  -8   28.84    3.85
  -2   8  -8   27.43    2.92
  -3  -8  -8  106.21    5.06
   3   8   8  103.29    6.14
  -5  -9   8   40.90    3.42
  -5  -9   8   46.92    3.42
  -4   9   8    5.56    1.24
   4   9  -8    7.46    2.32
  -4   9   8    3.83    1.56
  -4  -9   8    4.59    1.25
  -4  -9   8    6.21    1.50
   3   9  -8   63.02    4.59
  -3   9   8   63.58    5.04
   3   9  -8   64.42    5.28
  -3   9   8   63.92    3.94
   2   9  -8   11.37    2.48
  -2   9   8   12.16    2.01
  -2   9   8   11.95    2.61
   2   9  -8   12.98    2.37
  -1   9   8   39.75    3.88
   1   9  -8   45.95    3.70
  -1   9   8   40.08    3.18
   1   9  -8   41.39    4.28
   1  -9  -8   38.18    3.11
   0  -9  -8   56.00    3.60
   0   9   8   44.93    4.09
   0   9  -8   51.74    4.77
   0   9   8   54.52    3.92
   0   9  -8   54.80    4.01
   1   9   8    8.16    2.05
  -1  -9  -8    8.36    1.50
  -1   9  -8    9.87    2.07
   1   9   8    7.03    1.91
  -2  -9  -8   90.24    4.61
   2   9   8   87.67    5.66
  -4 -10   8   91.23    5.10
  -3  10   8   18.51    2.30
   2 -10  -8  115.34    6.05
  -2  10   8  105.69    5.48
  -1  10   8   68.34    4.38
   1 -10  -8   78.56    4.74
  -1  10   8   74.58    5.45
   0 -10  -8   26.90    2.67
   0  10   8   24.84    3.43
  -7   0   9   72.83    4.52
  -6   0   9   28.96    2.69
  -5   0   9  154.29    6.62
  -5   0   9  164.19    7.08
  -4   0   9   94.19    4.90
  -4   0   9   90.52    4.88
   3   0  -9    8.83    1.19
  -3   0   9    5.84    1.23
  -3   0   9    6.62    1.31
   2   0  -9  208.66    6.96
  -2   0   9  203.14    7.69
  -2   0   9  207.43    8.22
  -1   0   9  172.30    7.28
   1   0  -9  167.75    6.18
  -1   0   9  163.28    6.63
   0   0  -9  387.39   13.33
   0   0   9  392.24   12.95
   0   0  -9  388.66   11.67
   0   0   9  374.38   11.90
   1   0   9    5.82    1.40
   1   0   9    5.25    1.15
  -1   0  -9    5.79    1.19
  -1   0  -9    3.64    0.87
   2   0   9  371.56   12.84
  -2   0  -9  369.99   11.58
   2   0   9  360.44   11.62
  -3   0  -9  106.81    5.33
   3   0   9  104.03    5.18
  -4   0  -9   17.52    2.49
   4   0   9   15.71    2.25
   5   0   9   24.50    2.53
  -7  -1   9    7.64    1.76
  -7   1   9    6.28    1.47
  -7   1   9    3.73    1.12
  -6   1   9   12.15    2.06
  -6  -1   9   11.83    2.01
  -5  -1   9    7.49    1.64
  -5   1   9    8.53    1.65
  -5  -1   9    6.55    1.30
  -5   1   9    4.42    1.17
  -4  -1   9    7.49    1.44
  -4   1   9    8.93    1.60
  -4  -1   9    6.63    1.23
   4   1  -9   10.44    1.09
  -4   1   9    7.10    1.42
  -3   1   9  114.38    5.47
   3   1  -9  127.00    4.95
  -3  -1   9  119.28    5.66
  -3  -1   9  124.77    5.67
  -3   1   9  124.14    6.03
  -2   1   9    7.17    1.38
  -2  -1   9    7.52    1.36
  -2   1   9    7.32    1.52
   2   1  -9    7.78    1.24
  -2  -1   9    7.50    1.35
   2  -1  -9    8.16    1.12
  -1  -1   9   72.99    4.04
   1  -1  -9   82.15    3.75
   1   1  -9   85.12    4.01
  -1   1   9   81.72    4.71
  -1  -1   9   75.63    4.40
  -1   1   9   87.49    4.43
   0  -1  -9   37.99    2.41
   0  -1   9   37.02    2.66
   0   1   9   35.19    2.69
   0  -1   9   35.79    2.93
   0   1  -9   34.92    2.54
   0   1  -9   36.54    2.98
   0  -1  -9   39.92    2.85
   0   1   9   35.28    3.00
   1   1   9   28.02    2.70
  -1   1  -9   31.00    2.61
   1  -1   9   31.66    2.42
  -1   1  -9   33.10    2.55
   1  -1   9   30.38    2.75
  -1  -1  -9   31.40    2.45
   1   1   9   31.95    2.54
  -1  -1  -9   27.19    2.15
  -2   1  -9  179.04    7.79
   2   1   9  172.75    7.85
  -2  -1  -9  189.23    7.05
  -2   1  -9  183.10    7.10
   2  -1   9  173.96    6.88
   2   1   9  175.58    7.16
   3   1   9   45.58    3.95
  -3   1  -9   52.07    3.68
   3  -1   9   48.06    3.16
  -3  -1  -9   52.07    2.77
   3   1   9   51.64    3.64
  -3  -1  -9   51.30    3.46
   4  -1   9  137.26    6.10
   4   1   9  137.61    6.51
  -4  -1  -9  135.55    5.58
  -4   1  -9  148.19    6.80
  -4  -1  -9  140.41    6.59
  -5  -1  -9   98.48    4.81
   5   1   9  100.05    5.57
  -8   2   9   85.86    5.19
  -7   2   9   92.46    5.30
  -7   2   9   88.64    4.94
  -7  -2   9   98.99    5.46
  -6  -2   9   13.29    2.23
  -6   2   9   11.39    1.97
  -5  -2   9  190.49    7.66
  -5   2   9  196.43    8.45
   5   2  -9  197.34    6.99
  -4   2   9   21.53    2.19
  -4  -2   9   23.26    2.03
  -4  -2   9   24.33    2.22
  -4   2   9   21.92    2.35
   4   2  -9   21.14    1.79
  -3   2   9   35.52    3.02
  -3   2   9   38.01    2.83
   3   2  -9   35.84    2.43
  -3  -2   9   36.64    2.69
   2   2  -9  177.14    6.53
  -2  -2   9  175.48    6.92
  -2   2   9  173.82    7.63
  -2   2   9  173.43    6.99
  -2  -2   9  173.67    7.09
  -1   2   9   91.01    4.63
  -1  -2   9   89.77    4.72
   1  -2  -9   89.93    3.75
   1   2  -9   87.82    4.27
  -1   2   9   88.44    5.06
  -1  -2   9   88.72    4.44
   1   2  -9   87.26    5.17
   0  -2   9  432.28   13.76
   0  -2   9  422.54   12.74
   0  -2  -9  441.45   12.10
   0   2   9  436.29   14.23
   0   2  -9  421.64   14.81
   0   2  -9  425.28   12.88
   0   2   9  413.64   13.10
   1  -2   9    4.33    1.14
   1   2   9    8.54    1.57
  -1  -2  -9    6.98    1.25
   1   2   9    7.25    1.62
   1  -2   9    4.19    0.97
  -1   2  -9   10.31    1.68
  -1   2  -9    7.53    1.41
   2   2   9  253.58   10.17
  -2   2  -9  249.60   10.15
  -2  -2  -9  257.66    8.73
   2   2   9  246.35    9.26
   2  -2   9  257.87    8.69
  -3  -2  -9   69.67    4.11
   3  -2   9   73.00    3.85
  -3  -2  -9   71.21    3.45
   3   2   9   77.29    4.66
   3   2   9   74.95    5.04
  -3   2  -9   82.60    4.68
  -3   2  -9   79.15    4.66
  -4  -2  -9   26.31    2.32
  -4   2  -9   36.81    3.22
  -4  -2  -9   31.20    2.93
   4   2   9   26.46    3.14
   4   2   9   35.47    3.51
  -5  -2  -9   60.26    3.68
  -8   3   9   40.41    3.61
  -7   3   9    3.89    1.34
  -7   3   9    2.45    0.95
  -6  -3   9   27.88    2.73
  -6   3   9   22.43    2.26
  -6   3   9   19.76    2.79
   6   3  -9   19.48    1.95
  -5   3   9   28.02    2.83
   5   3  -9   23.62    2.08
  -5   3   9   24.26    2.50
  -5  -3   9   24.89    2.72
  -4   3   9   42.60    3.50
  -4  -3   9   45.34    3.18
  -4   3   9   41.99    3.18
   4   3  -9   43.70    2.83
  -3  -3   9   14.42    1.52
  -3  -3   9   15.42    1.95
  -3   3   9   16.93    2.50
   3   3  -9   19.70    1.80
  -3   3   9   17.34    2.16
  -2   3   9    5.68    1.23
  -2  -3   9    4.81    1.15
  -2  -3   9    4.49    0.95
   2   3  -9    5.25    1.13
  -2   3   9    4.80    1.25
   1   3  -9   73.69    4.74
   1   3  -9   74.73    3.95
  -1  -3   9   64.12    3.68
  -1  -3   9   72.91    4.08
  -1   3   9   68.91    4.04
  -1   3   9   71.57    4.55
   0   3  -9   72.15    4.02
   0   3   9   79.45    4.41
   0   3   9   78.87    4.82
   0  -3   9   77.83    3.95
   0  -3   9   79.98    4.43
   0   3  -9   67.96    4.66
   1  -3   9   27.26    2.08
  -1   3  -9   22.96    2.39
   1   3   9   25.28    2.53
   1   3   9   26.37    2.76
  -1  -3  -9   26.05    1.95
  -1   3  -9   23.41    2.23
  -2   3  -9  177.97    7.36
  -2  -3  -9  173.69    6.60
  -2   3  -9  168.95    8.04
   2   3   9  171.67    7.96
   2   3   9  156.63    7.16
   2  -3   9  172.40    6.45
  -3   3  -9   27.89    2.71
  -3  -3  -9   28.46    2.41
   3   3   9   23.70    2.99
  -3  -3  -9   27.44    1.98
  -3   3  -9   29.39    2.81
   3   3   9   25.26    3.17
  -4  -3  -9   84.47    4.82
  -4  -3  -9   84.79    4.21
  -4   3  -9   77.63    4.86
   4   3   9   81.35    5.26
   4   3   9   78.35    5.31
  -7   4   9  120.29    5.80
  -7   4   9  126.02    6.78
  -6  -4   9   55.33    3.96
  -6   4   9   53.80    3.62
  -6   4   9   61.37    4.44
   6   4  -9   58.59    3.97
   5   4  -9  192.39    7.46
  -5   4   9  188.07    8.80
  -5  -4   9  191.97    7.73
  -5  -4   9  184.62    7.29
  -5   4   9  184.79    7.68
   4   4  -9   10.24    1.61
  -4   4   9    9.38    1.78
  -4   4   9    5.14    1.52
  -4  -4   9   10.40    1.87
  -3   4   9  202.82    8.90
  -3   4   9  202.16    7.97
  -3  -4   9  211.34    7.65
   3   4  -9  207.83    7.68
  -2   4   9  102.15    5.20
  -2  -4   9  109.36    4.97
   2   4  -9  112.22    5.13
  -2   4   9  106.89    5.92
   2   4  -9  104.30    6.15
  -2  -4   9  104.97    4.79
  -1  -4   9   72.05    3.93
   1   4  -9   72.26    4.01
  -1  -4   9   70.06    3.80
  -1   4   9   65.63    4.50
   1   4  -9   68.50    4.73
  -1   4   9   72.92    4.28
   0   4   9  246.38    9.18
   0   4  -9  244.06   10.50
   0   4   9  246.51    9.96
   0   4  -9  256.92    9.01
   0  -4   9  249.23    8.41
   0  -4   9  240.16    9.04
  -1   4  -9    4.95    1.36
   1  -4   9    5.83    0.99
   1   4   9    7.84    1.94
   1   4   9    6.01    1.56
  -1   4  -9    5.27    1.32
  -2  -4  -9  151.64    6.00
   2   4   9  158.65    7.23
   2   4   9  151.92    7.52
  -2   4  -9  157.08    8.03
  -2   4  -9  148.48    6.82
   3   4   9   60.40    4.53
  -3   4  -9   64.93    4.80
   3   4   9   59.34    4.39
  -3  -4  -9   58.68    3.62
  -3  -4  -9   61.26    3.39
  -4  -4  -9   62.81    4.08
  -4  -4  -9   62.08    3.63
   4   4   9   59.68    4.58
  -4   4  -9   58.40    4.57
   7   5  -9    3.25    1.86
  -6   5   9  106.39    6.21
   6   5  -9  100.46    5.73
  -6  -5   9  106.02    5.57
  -6  -5   9  109.58    5.75
  -6   5   9  103.89    5.18
   5   5  -9   21.71    2.70
  -5   5   9   17.65    3.01
  -5  -5   9   24.30    2.80
  -5  -5   9   22.58    2.26
  -5   5   9   24.51    2.44
  -4  -5   9   47.31    2.98
  -4   5   9   53.77    3.69
   4   5  -9   52.99    3.57
  -4  -5   9   47.75    3.41
  -4   5   9   53.78    4.44
   3   5  -9    3.22    1.39
  -3   5   9    3.77    1.19
   3   5  -9    1.95    0.78
  -3  -5   9    1.48    0.61
  -3   5   9    2.58    1.31
   2   5  -9    1.88    0.71
   2   5  -9    0.35    0.87
  -2   5   9    0.93    1.03
  -2  -5   9    1.23    0.39
  -2   5   9    2.28    1.12
  -1   5   9  102.54    5.34
   1   5  -9   98.09    5.04
  -1  -5   9  108.90    4.97
  -1  -5   9  104.83    4.58
   1   5  -9  100.29    6.32
  -1   5   9   98.78    5.94
   0   5   9    7.10    1.67
   0   5  -9    6.21    1.49
   0   5   9    7.16    1.93
   0  -5   9    6.13    1.16
   0   5  -9    4.69    1.52
  -1   5  -9   29.96    2.87
  -1   5  -9   26.07    3.39
   1   5   9   30.31    3.25
   1   5   9   31.76    3.07
  -2   5  -9   94.35    6.14
   2   5   9   91.04    5.49
   2   5   9   93.83    5.80
  -2   5  -9   93.66    5.28
   3   5   9   45.25    4.05
  -3   5  -9   54.61    4.05
  -3   5  -9   46.95    4.22
  -3  -5  -9   41.91    2.88
   3   5   9   57.38    4.43
  -4  -5  -9  166.84    6.54
  -4   5  -9  157.97    8.49
  -6  -6   9   16.58    2.49
   6   6  -9    9.31    2.38
  -5   6   9  149.47    6.71
  -5  -6   9  149.30    6.68
  -5  -6   9  156.58    6.90
   5   6  -9  157.97    7.21
   4   6  -9   21.56    3.23
  -4  -6   9   21.65    1.94
  -4   6   9   23.60    2.41
  -4  -6   9   22.44    2.56
   4   6  -9   24.17    2.82
  -4   6   9   24.03    3.44
   3   6  -9  190.26    9.46
  -3  -6   9  200.14    7.53
  -3   6   9  195.25    9.27
  -3   6   9  201.03    7.99
   3   6  -9  203.42    8.06
   2   6  -9   78.15    5.60
  -2   6   9   81.17    5.51
  -2   6   9   73.00    4.43
  -2  -6   9   83.05    4.06
   2   6  -9   78.26    4.61
  -1  -6   9   69.89    3.49
  -1   6   9   62.73    4.16
   1   6  -9   70.00    4.34
   1   6  -9   69.74    5.28
  -1   6   9   67.18    4.93
   0   6   9   91.74    5.14
   0   6   9   91.79    5.79
   0   6  -9   96.39    6.31
   0   6  -9   86.10    4.98
   1   6   9   41.96    3.56
  -1   6  -9   50.31    3.72
  -1   6  -9   39.09    3.93
   1   6   9   42.77    3.94
  -2   6  -9   97.60    6.42
  -2  -6  -9   90.89    4.27
  -2   6  -9   94.83    5.40
   2   6   9   94.12    5.68
   2   6   9   96.24    5.95
  -3  -6  -9   92.05    4.45
   3   6   9   82.75    5.53
  -3   6  -9   83.91    6.01
  -5  -7   9   15.16    2.37
  -5  -7   9   17.74    2.45
  -5   7   9   14.33    2.16
   5   7  -9   15.94    2.73
   4   7  -9   36.44    3.40
  -4   7   9   32.58    4.01
  -4   7   9   30.51    2.73
  -4  -7   9   28.81    2.67
   4   7  -9   34.12    3.76
  -3   7   9   15.71    2.97
  -3   7   9   11.15    1.89
   3   7  -9   11.31    2.18
   3   7  -9   12.86    2.63
  -3  -7   9   13.50    1.99
  -2   7   9   11.98    2.52
   2   7  -9   12.00    2.55
  -2  -7   9    6.74    1.25
   2   7  -9   10.81    2.09
  -2   7   9    9.48    1.81
   1   7  -9   64.58    4.35
  -1   7   9   78.68    5.46
   1   7  -9   66.83    5.28
  -1   7   9   64.78    4.25
   0   7  -9    3.81    1.42
   0   7   9    2.43    1.11
   0   7  -9    2.09    1.24
   0   7   9    4.36    1.60
   1   7   9   31.95    3.50
  -1   7  -9   33.77    3.16
  -1   7  -9   34.76    3.81
   1   7   9   37.66    3.34
   2   7   9   98.11    6.12
  -5  -8   9  136.73    6.50
  -4  -8   9   34.35    2.86
  -4   8   9   37.45    3.02
   3   8  -9  112.63    6.06
  -3   8   9  118.43    5.84
   2   8  -9   55.81    4.11
  -2   8   9   60.66    4.95
  -2   8   9   57.08    3.93
  -1   8   9   33.74    3.66
  -1   8   9   32.46    3.00
   1   8  -9   36.53    3.28
   0   8   9   58.19    4.77
  -5   0  10    0.70    0.63
  -5   0  10    0.70    0.75
  -4   0  10   74.34    4.56
  -4   0  10   72.62    4.57
  -3   0  10   92.45    5.10
  -3   0  10   92.89    5.22
  -2   0  10    0.79    0.46
  -2   0  10    1.04    0.90
  -1   0  10   99.91    5.53
  -1   0  10  100.73    5.16
   1   0 -10   90.17    4.34
   0   0  10    0.30    0.71
   0   0  10   -0.41    0.78
   0   0 -10   -0.07    0.36
   0   0 -10    0.73    0.36
   1   0  10   10.36    2.16
  -1   0 -10   11.34    1.72
   1   0  10    8.35    1.80
   2   0  10   29.78    3.18
   2   0  10   37.97    3.08
  -2   0 -10   39.25    3.10
   3   0  10   74.60    5.20
  -3   0 -10   77.46    4.62
   3   0  10   70.75    4.40
  -5   1  10  120.65    5.84
  -5   1  10  109.17    6.19
  -5  -1  10  112.64    5.75
  -5  -1  10  102.13    5.47
  -4  -1  10   60.56    3.91
  -4  -1  10   63.74    4.08
  -4   1  10   58.82    4.07
  -4   1  10   60.92    4.33
  -3  -1  10   78.16    4.62
  -3  -1  10   73.09    4.42
  -3   1  10   74.54    4.82
  -3   1  10   77.37    4.61
  -2  -1  10   35.80    2.95
   2   1 -10   37.34    2.51
  -2  -1  10   40.71    3.18
  -2   1  10   36.92    3.11
  -2   1  10   43.45    3.54
   1   1 -10  133.41    5.65
  -1   1  10  136.64    6.91
   1   1 -10  143.12    7.09
  -1   1  10  138.58    6.36
  -1  -1  10  130.04    6.11
  -1  -1  10  130.79    6.47
   0  -1 -10   11.14    1.46
   0   1 -10   12.00    1.97
   0  -1  10   13.05    2.04
   0  -1  10   14.78    2.41
   0   1  10   11.80    2.34
   0   1  10   11.69    2.02
   0   1 -10   10.38    1.60
  -1  -1 -10  134.85    5.61
  -1   1 -10  134.16    6.64
   1   1  10  124.39    6.07
   1  -1  10  135.57    6.83
   1  -1  10  126.65    5.93
   1   1  10  122.65    6.69
  -1   1 -10  127.94    5.78
   2   1  10   15.83    2.35
   2   1  10   15.11    2.70
  -2  -1 -10   20.62    2.38
   2  -1  10   18.17    2.84
  -2   1 -10   18.69    2.42
   2  -1  10   18.34    2.36
   3   1  10  275.58   10.29
   3  -1  10  271.66    9.89
  -3  -1 -10  297.28   10.40
  -3   1 -10  294.37   10.48
  -7   2  10    2.58    1.31
  -5  -2  10   25.17    2.88
  -5   2  10   21.09    3.05
  -4   2  10   66.65    4.31
  -4   2  10   61.08    4.64
  -4  -2  10   66.91    4.17
  -3   2  10   88.75    5.01
  -3   2  10   93.70    5.70
   3   2 -10   88.09    4.30
  -3  -2  10   89.91    4.83
  -2   2  10   31.82    3.23
  -2  -2  10   28.38    2.70
  -2  -2  10   25.14    2.33
   2   2 -10   28.15    2.23
  -2   2  10   27.75    2.70
  -1  -2  10  106.20    5.30
  -1   2  10  109.06    6.15
   1   2 -10  104.31    6.17
  -1  -2  10  109.93    5.63
   1   2 -10  108.23    5.03
  -1   2  10  105.14    5.51
   0   2  10    0.21    0.77
   0   2  10    0.67    1.07
   0   2 -10    0.13    0.62
   0  -2  10   -0.41    0.68
   0   2 -10    0.80    0.68
   0  -2  10    0.31    0.71
  -1   2 -10    5.13    1.47
  -1  -2 -10    6.63    1.19
   1  -2  10    6.17    1.78
   1  -2  10    6.35    1.43
  -1   2 -10    4.31    1.36
   1   2  10    7.21    1.91
   1   2  10    8.09    1.78
   2  -2  10   64.61    3.86
   2  -2  10   56.24    4.36
  -2  -2 -10   59.39    3.76
   2   2  10   63.18    4.22
  -2   2 -10   55.30    3.85
   2   2  10   59.68    4.64
  -3  -2 -10   82.07    4.73
  -5   3  10   43.09    4.01
  -5   3  10   34.06    3.11
  -5  -3  10   40.90    3.32
  -4  -3  10   71.41    4.37
  -4   3  10   69.85    4.41
  -4   3  10   75.98    5.25
   4   3 -10   71.23    3.91
  -3  -3  10   15.55    2.23
   3   3 -10   19.51    1.89
  -3   3  10   18.87    2.97
  -3   3  10   20.60    2.58
   2   3 -10   33.94    2.64
  -2   3  10   40.03    3.21
  -2  -3  10   35.29    2.75
   2   3 -10   31.75    3.37
  -2   3  10   32.65    3.42
  -1   3  10   96.49    5.92
   1   3 -10  112.67    6.49
  -1  -3  10   99.88    5.17
   1   3 -10  110.04    5.27
  -1  -3  10  105.17    5.39
  -1   3  10  105.84    5.58
   0   3 -10   35.67    3.02
   0   3 -10   40.70    3.73
   0  -3  10   33.70    3.06
   0   3  10   38.57    3.27
   0  -3  10   41.25    3.04
   0   3  10   37.33    3.64
  -1   3 -10  206.68    8.35
   1   3  10  198.15    8.39
   1   3  10  207.35    9.32
  -1   3 -10  206.87    9.67
   1  -3  10  220.34    9.07
   1  -3  10  211.14    7.90
  -2   3 -10   10.26    2.16
   2   3  10    8.13    2.11
  -3  -3 -10  124.56    5.97
  -5   4  10  101.88    6.53
   5   4 -10  110.18    5.39
  -4   4  10   63.26    4.20
  -4   4  10   69.66    5.11
  -4  -4  10   66.30    4.18
   4   4 -10   63.15    3.95
   3   4 -10   60.61    3.82
   3   4 -10   55.06    4.63
  -3   4  10   53.68    4.49
  -3  -4  10   60.01    3.85
  -3   4  10   56.87    3.91
  -2   4  10   20.34    3.11
  -2   4  10   22.34    2.69
   2   4 -10   22.62    3.17
   2   4 -10   21.91    2.32
  -2  -4  10   23.88    2.28
  -1  -4  10  116.36    5.61
  -1   4  10  109.41    5.71
   1   4 -10  111.18    6.76
   1   4 -10  106.69    5.45
  -1   4  10  109.21    6.49
   0   4  10    0.66    0.86
   0   4  10    1.10    1.14
   0  -4  10    1.34    0.98
   0   4 -10    2.99    1.26
   0  -4  10    2.51    0.93
   0   4 -10    2.53    1.11
   1   4  10   67.74    4.52
   1  -4  10   69.76    4.63
  -1   4 -10   66.35    5.05
   1   4  10   71.16    5.13
  -1   4 -10   63.57    4.26
  -2   4 -10   42.20    3.57
  -2   4 -10   43.45    3.99
   5   5 -10   15.36    2.29
  -4   5  10  111.72    6.99
   4   5 -10  116.76    5.75
  -4  -5  10  118.40    5.87
   3   5 -10   10.77    1.99
  -3   5  10   10.73    2.54
   3   5 -10   11.92    2.52
  -3   5  10   14.87    2.32
  -3  -5  10   13.42    2.11
   2   5 -10   89.81    5.04
   2   5 -10   91.89    6.18
  -2  -5  10  104.02    5.01
  -2   5  10  100.01    6.32
   1   5 -10   31.71    2.97
  -1  -5  10   35.28    2.67
  -1   5  10   33.23    3.01
   1   5 -10   31.15    3.46
  -1   5  10   31.97    3.47
   0   5 -10   31.19    2.95
   0  -5  10   32.35    2.94
   0   5  10   36.46    3.73
   0   5 -10   29.76    3.45
  -1   5 -10  123.50    6.24
  -1   5 -10  119.98    7.31
   1  -5  10  119.19    6.25
   4   6 -10   58.03    4.05
  -3  -6  10   62.06    3.92
   3   6 -10   62.57    4.23
  -2   6  10    2.60    1.60
  -2  -6  10    4.40    1.17
   2   6 -10    2.62    1.25
   1   6 -10  104.15    5.65
  -4   0  11   83.84    5.44
  -3   0  11    2.43    1.14
  -2   0  11   48.64    4.06
  -1   0  11   23.36    3.17
   1   0 -11   25.05    2.76
   0   0  11    0.76    1.03
  -1   0 -11    1.96    1.00
  -5   1  11  107.50    6.46
  -4   1  11    3.21    1.45
  -3  -1  11  111.48    6.14
  -3   1  11  110.43    6.52
  -2   1  11  109.30    6.45
   2   1 -11  110.39    6.59
  -2  -1  11  119.63    6.39
   1   1 -11   75.11    5.17
  -1  -1  11   71.43    4.51
  -1  -1  11   76.05    5.13
  -1   1  11   85.73    5.59
   0   1 -11  104.35    5.15
   0  -1  11  104.10    6.16
  -1   1 -11   47.28    3.46
  -4   2  11  105.40    6.50
  -3   2  11    6.63    2.03
  -2  -2  11   27.94    2.95
   2   2 -11   34.34    3.47
  -2   2  11   32.97    3.81
   1   2 -11   18.79    2.35
  -1  -2  11   18.13    2.47
  -1  -2  11   14.56    2.52
  -1   2  11   21.77    3.20
   1   2 -11   17.18    2.73
   0  -2  11   16.29    2.75
   0   2 -11   17.66    2.77
   0   2 -11   22.91    2.58
   0  -2  11   17.52    2.41
   2   3 -11   73.23    4.34
  -1  -3  11   64.65    4.16
   1   3 -11   63.38    4.07
  -1  -3  11   60.30    4.34
   0  -3  11  119.60    5.86
   0   3 -11  124.23    6.13
   0  -3  11  130.02    6.80
   3   4 -11    0.25    0.78
   2   4 -11   32.46    2.93
   0  -4  11   14.51    2.49
   0   0   0    0.00    0.00
;
_shelx_hkl_checksum              85714
_shelx_res_checksum              2045
loop_
_space_group_symop_operation_xyz
'x, y, z'
'-x, y+1/2, -z'
loop_
_atom_site_type_symbol
_atom_site_label
_atom_site_fract_x
_atom_site_fract_y
_atom_site_fract_z
_atom_site_U_iso_or_equiv
_atom_site_adp_type
_atom_site_calc_flag
_atom_site_occupancy
Cl Cl1 0.77444(7) 0.45989(5) 0.70617(6) 0.02778(11) Uani d 1
C C1 0.6570(2) 0.41602(18) 0.4880(2) 0.0159(3) Uani d 1
H H1A 0.7421 0.3671 0.4211 0.019 Uiso calc 1
H H1B 0.5559 0.3516 0.4999 0.019 Uiso calc 1
C C2 0.5800(2) 0.54234(17) 0.3809(2) 0.0134(3) Uani d 1
O O1 0.60745(19) 0.66056(14) 0.4372(2) 0.0205(3) Uani d 1
C C3 0.4737(2) 0.51284(16) 0.2015(2) 0.0119(3) Uani d 1
C C4 0.4327(2) 0.37918(18) 0.1191(2) 0.0142(3) Uani d 1
H H4 0.4760 0.2920 0.1676 0.017 Uiso calc 1
C C5 0.3146(3) 0.4020(2) -0.0494(3) 0.0167(3) Uani d 1
H H5 0.2670 0.3323 -0.1338 0.020 Uiso calc 1
C C6 0.2806(3) 0.5478(2) -0.0689(3) 0.0161(3) Uani d 1
H H6 0.2057 0.5913 -0.1681 0.019 Uiso calc 1
C C7 0.3778(2) 0.61677(18) 0.0852(2) 0.0140(3) Uani d 1
H H7 0.3790 0.7139 0.1072 0.017 Uiso calc 1
Fe Fe1 0.20089(3) 0.47611(2) 0.16401(2) 0.01033(6) Uani d 1
C C8 0.1248(2) 0.4631(3) 0.4129(2) 0.0198(3) Uani d 1
H H8 0.2041 0.4677 0.5260 0.024 Uiso calc 1
C C9 0.0737(3) 0.3400(2) 0.3121(3) 0.0180(3) Uani d 1
H H9 0.1123 0.2483 0.3461 0.022 Uiso calc 1
C C10 -0.0457(3) 0.3791(2) 0.1508(3) 0.0162(3) Uani d 1
H H10 -0.1001 0.3177 0.0582 0.019 Uiso calc 1
C C11 -0.0692(3) 0.5260(2) 0.1523(2) 0.0154(3) Uani d 1
H H11 -0.1421 0.5795 0.0612 0.018 Uiso calc 1
C C12 0.0364(3) 0.5785(2) 0.3151(3) 0.0196(4) Uani d 1
H H12 0.0460 0.6729 0.3517 0.024 Uiso calc 1
loop_
_atom_site_aniso_label
_atom_site_aniso_U_11
_atom_site_aniso_U_22
_atom_site_aniso_U_33
_atom_site_aniso_U_12
_atom_site_aniso_U_13
_atom_site_aniso_U_23
Cl1 0.0403(3) 0.0232(2) 0.01616(16) -0.0061(2) -0.00591(16) 0.00289(16)
C1 0.0159(8) 0.0150(7) 0.0158(7) -0.0018(6) 0.0000(6) -0.0003(6)
C2 0.0079(7) 0.0149(7) 0.0176(7) -0.0005(5) 0.0026(5) -0.0010(5)
O1 0.0180(6) 0.0147(6) 0.0266(6) 0.0006(5) -0.0027(5) -0.0044(5)
C3 0.0095(7) 0.0117(6) 0.0146(6) -0.0003(5) 0.0026(5) -0.0005(5)
C4 0.0133(7) 0.0135(7) 0.0161(7) 0.0021(6) 0.0036(6) -0.0021(6)
C5 0.0193(9) 0.0171(8) 0.0146(8) 0.0004(6) 0.0054(6) -0.0033(6)
C6 0.0179(9) 0.0178(8) 0.0129(7) 0.0009(6) 0.0039(6) 0.0019(6)
C7 0.0134(7) 0.0127(7) 0.0164(7) -0.0005(6) 0.0037(6) 0.0022(5)
Fe1 0.00899(9) 0.01107(9) 0.01090(9) -0.00018(9) 0.00159(6) -0.00057(8)
C8 0.0130(6) 0.0346(10) 0.0122(6) -0.0008(8) 0.0035(5) -0.0002(8)
C9 0.0137(8) 0.0218(8) 0.0187(8) -0.0011(7) 0.0036(6) 0.0071(7)
C10 0.0122(8) 0.0152(7) 0.0206(8) -0.0031(6) 0.0012(6) 0.0016(6)
C11 0.0092(7) 0.0175(7) 0.0188(7) 0.0016(6) 0.0007(6) 0.0012(6)
C12 0.0156(9) 0.0218(8) 0.0234(9) -0.0003(7) 0.0091(7) -0.0071(7)
loop_
_atom_type_symbol
_atom_type_description
_atom_type_scat_dispersion_real
_atom_type_scat_dispersion_imag
_atom_type_scat_source
C C 0.0033 0.0016 'International Tables Vol C Tables 4.2.6.8 and 6.1.1.4'
H H 0.0000 0.0000 'International Tables Vol C Tables 4.2.6.8 and 6.1.1.4'
O O 0.0106 0.0060 'International Tables Vol C Tables 4.2.6.8 and 6.1.1.4'
Cl Cl 0.1484 0.1585 'International Tables Vol C Tables 4.2.6.8 and 6.1.1.4'
Fe Fe 0.3463 0.8444 'International Tables Vol C Tables 4.2.6.8 and 6.1.1.4'
loop_
_geom_angle_atom_site_label_1
_geom_angle_atom_site_label_2
_geom_angle_atom_site_label_3
_geom_angle
C2 C1 Cl1 112.47(12)
C2 C1 H1A 109.1
Cl1 C1 H1A 109.1
C2 C1 H1B 109.1
Cl1 C1 H1B 109.1
H1A C1 H1B 107.8
O1 C2 C3 122.05(16)
O1 C2 C1 122.61(16)
C3 C2 C1 115.32(14)
C7 C3 C4 108.32(14)
C7 C3 C2 123.89(14)
C4 C3 C2 127.55(15)
C7 C3 Fe1 69.90(10)
C4 C3 Fe1 69.53(9)
C2 C3 Fe1 121.95(11)
C5 C4 C3 107.29(15)
C5 C4 Fe1 70.61(11)
C3 C4 Fe1 68.99(9)
C5 C4 H4 126.4
C3 C4 H4 126.4
Fe1 C4 H4 125.6
C4 C5 C6 108.22(17)
C4 C5 Fe1 68.55(10)
C6 C5 Fe1 69.60(12)
C4 C5 H5 125.9
C6 C5 H5 125.9
Fe1 C5 H5 127.5
C7 C6 C5 108.61(18)
C7 C6 Fe1 69.09(10)
C5 C6 Fe1 69.80(12)
C7 C6 H6 125.7
C5 C6 H6 125.7
Fe1 C6 H6 127.0
C6 C7 C3 107.55(15)
C6 C7 Fe1 70.38(11)
C3 C7 Fe1 68.78(9)
C6 C7 H7 126.2
C3 C7 H7 126.2
Fe1 C7 H7 126.2
C3 Fe1 C4 41.48(7)
C3 Fe1 C10 162.20(7)
C4 Fe1 C10 123.89(8)
C3 Fe1 C7 41.32(7)
C4 Fe1 C7 69.72(8)
C10 Fe1 C7 154.67(7)
C3 Fe1 C8 107.88(7)
C4 Fe1 C8 119.67(8)
C10 Fe1 C8 68.48(8)
C7 Fe1 C8 126.57(8)
C3 Fe1 C11 155.78(8)
C4 Fe1 C11 161.59(7)
C10 Fe1 C11 40.79(9)
C7 Fe1 C11 120.28(7)
C8 Fe1 C11 68.57(7)
C3 Fe1 C9 125.21(7)
C4 Fe1 C9 106.05(8)
C10 Fe1 C9 40.79(7)
C7 Fe1 C9 163.52(7)
C8 Fe1 C9 40.65(9)
C11 Fe1 C9 68.67(8)
C3 Fe1 C12 120.81(7)
C4 Fe1 C12 155.48(8)
C10 Fe1 C12 68.61(8)
C7 Fe1 C12 108.26(8)
C8 Fe1 C12 40.77(9)
C11 Fe1 C12 40.79(8)
C9 Fe1 C12 68.62(9)
C3 Fe1 C6 68.65(7)
C4 Fe1 C6 68.92(8)
C10 Fe1 C6 119.73(8)
C7 Fe1 C6 40.53(7)
C8 Fe1 C6 163.83(8)
C11 Fe1 C6 107.73(8)
C9 Fe1 C6 154.25(8)
C12 Fe1 C6 126.31(9)
C3 Fe1 C5 68.78(7)
C4 Fe1 C5 40.84(8)
C10 Fe1 C5 106.55(8)
C7 Fe1 C5 68.67(7)
C8 Fe1 C5 154.42(9)
C11 Fe1 C5 125.02(8)
C9 Fe1 C5 119.18(8)
C12 Fe1 C5 162.89(8)
C6 Fe1 C5 40.60(7)
C9 C8 C12 108.40(15)
C9 C8 Fe1 69.75(10)
C12 C8 Fe1 69.87(10)
C9 C8 H8 125.8
C12 C8 H8 125.8
Fe1 C8 H8 126.2
C8 C9 C10 107.72(17)
C8 C9 Fe1 69.60(10)
C10 C9 Fe1 69.30(10)
C8 C9 H9 126.1
C10 C9 H9 126.1
Fe1 C9 H9 126.5
C11 C10 C9 108.32(18)
C11 C10 Fe1 69.85(12)
C9 C10 Fe1 69.91(11)
C11 C10 H10 125.8
C9 C10 H10 125.8
Fe1 C10 H10 126.0
C10 C11 C12 107.91(17)
C10 C11 Fe1 69.36(11)
C12 C11 Fe1 69.85(11)
C10 C11 H11 126.0
C12 C11 H11 126.0
Fe1 C11 H11 126.3
C8 C12 C11 107.64(17)
C8 C12 Fe1 69.36(10)
C11 C12 Fe1 69.37(11)
C8 C12 H12 126.2
C11 C12 H12 126.2
Fe1 C12 H12 126.7
loop_
_geom_bond_atom_site_label_1
_geom_bond_atom_site_label_2
_geom_bond_distance
Cl1 C1 1.7741(17)
C1 C2 1.517(2)
C1 H1A 0.9900
C1 H1B 0.9900
C2 O1 1.220(2)
C2 C3 1.471(2)
C3 C7 1.437(2)
C3 C4 1.439(2)
C3 Fe1 2.0284(16)
C4 C5 1.430(3)
C4 Fe1 2.0357(17)
C4 H4 0.9500
C5 C6 1.431(2)
C5 Fe1 2.0631(19)
C5 H5 0.9500
C6 C7 1.421(3)
C6 Fe1 2.0604(19)
C6 H6 0.9500
C7 Fe1 2.0434(17)
C7 H7 0.9500
Fe1 C10 2.0426(18)
Fe1 C8 2.0487(15)
Fe1 C11 2.0491(19)
Fe1 C9 2.0508(19)
Fe1 C12 2.0555(19)
C8 C9 1.424(3)
C8 C12 1.430(3)
C8 H8 0.9500
C9 C10 1.427(3)
C9 H9 0.9500
C10 C11 1.426(3)
C10 H10 0.9500
C11 C12 1.430(3)
C11 H11 0.9500
C12 H12 0.9500
loop_
_geom_hbond_atom_site_label_D
_geom_hbond_atom_site_label_H
_geom_hbond_atom_site_label_A
_geom_hbond_site_symmetry_A
_geom_hbond_distance_DH
_geom_hbond_distance_HA
_geom_hbond_distance_DA
_geom_hbond_angle_DHA
C11 H11 Cl1 1_454 0.95 2.88 3.4196(19) 117.3
C1 H1B O1 2_646 0.99 2.30 3.256(2) 162.9
C9 H9 Cl1 2_646 0.95 2.95 3.841(2) 156.9
C9 H9 O1 2_646 0.95 2.56 3.262(2) 130.8
C1 H1A Cg2 1_655 0.99 2.69 3.4383(18) 132
loop_
_geom_torsion_atom_site_label_1
_geom_torsion_atom_site_label_2
_geom_torsion_atom_site_label_3
_geom_torsion_atom_site_label_4
_geom_torsion
Cl1 C1 C2 O1 4.3(2)
Cl1 C1 C2 C3 -177.38(12)
O1 C2 C3 C7 -6.7(3)
C1 C2 C3 C7 174.94(16)
O1 C2 C3 C4 179.58(18)
C1 C2 C3 C4 1.2(2)
O1 C2 C3 Fe1 -92.74(19)
C1 C2 C3 Fe1 88.90(16)
C7 C3 C4 C5 1.19(19)
C2 C3 C4 C5 175.70(17)
Fe1 C3 C4 C5 60.52(13)
C7 C3 C4 Fe1 -59.33(12)
C2 C3 C4 Fe1 115.18(17)
C3 C4 C5 C6 -1.1(2)
Fe1 C4 C5 C6 58.42(16)
C3 C4 C5 Fe1 -59.49(12)
C4 C5 C6 C7 0.5(3)
Fe1 C5 C6 C7 58.33(15)
C4 C5 C6 Fe1 -57.78(14)
C5 C6 C7 C3 0.2(2)
Fe1 C6 C7 C3 58.95(12)
C5 C6 C7 Fe1 -58.76(16)
C4 C3 C7 C6 -0.9(2)
C2 C3 C7 C6 -175.62(16)
Fe1 C3 C7 C6 -59.96(13)
C4 C3 C7 Fe1 59.10(12)
C2 C3 C7 Fe1 -115.66(16)
C12 C8 C9 C10 0.4(2)
Fe1 C8 C9 C10 -59.01(13)
C12 C8 C9 Fe1 59.38(13)
C8 C9 C10 C11 -0.3(2)
Fe1 C9 C10 C11 -59.50(14)
C8 C9 C10 Fe1 59.20(12)
C9 C10 C11 C12 0.1(2)
Fe1 C10 C11 C12 -59.42(14)
C9 C10 C11 Fe1 59.54(13)
C9 C8 C12 C11 -0.3(2)
Fe1 C8 C12 C11 59.01(13)
C9 C8 C12 Fe1 -59.31(12)
C10 C11 C12 C8 0.1(2)
Fe1 C11 C12 C8 -59.01(13)
C10 C11 C12 Fe1 59.12(14)
