#------------------------------------------------------------------------------
#$Date: 2016-03-04 10:18:12 +0200 (Fri, 04 Mar 2016) $
#$Revision: 177302 $
#$URL: svn://www.crystallography.net/cod/cif/1/54/26/1542653.cif $
#------------------------------------------------------------------------------
#
# This file is available in the Crystallography Open Database (COD),
# http://www.crystallography.net/
#
# All data on this site have been placed in the public domain by the
# contributors.
#
data_1542653
loop_
_publ_author_name
'Kaplan, Peter T.'
'Vicic, David A.'
_publ_section_title
;
 Versatile Route to Arylated Fluoroalkyl Bromide Building Blocks.
;
_journal_issue                   4
_journal_name_full               'Organic letters'
_journal_page_first              884
_journal_page_last               886
_journal_paper_doi               10.1021/acs.orglett.6b00032
_journal_volume                  18
_journal_year                    2016
_chemical_formula_sum            'C13 H4 Br F12 N'
_chemical_formula_weight         482.08
_space_group_crystal_system      triclinic
_space_group_IT_number           2
_space_group_name_Hall           '-P 1'
_space_group_name_H-M_alt        'P -1'
_symmetry_space_group_name_Hall  '-P 1'
_symmetry_space_group_name_H-M   'P -1'
_atom_sites_solution_hydrogens   geom
_audit_creation_method           SHELXL-2014/7
_cell_angle_alpha                105.4770(10)
_cell_angle_beta                 90.420(2)
_cell_angle_gamma                91.565(2)
_cell_formula_units_Z            2
_cell_length_a                   5.9088(4)
_cell_length_b                   8.3970(5)
_cell_length_c                   15.6935(9)
_cell_measurement_reflns_used    9551
_cell_measurement_temperature    145(2)
_cell_measurement_theta_max      30.39
_cell_measurement_theta_min      3.16
_cell_volume                     750.05(8)
_computing_structure_refinement  'SHELXL-2014/7 (Sheldrick, 2014)'
_diffrn_ambient_temperature      145(2)
_diffrn_measured_fraction_theta_full 0.998
_diffrn_measured_fraction_theta_max 0.892
_diffrn_measurement_device_type  'Bruker D8 Quest'
_diffrn_radiation_type           MoK\a
_diffrn_radiation_wavelength     0.71073
_diffrn_reflns_av_R_equivalents  0.0266
_diffrn_reflns_av_unetI/netI     0.0312
_diffrn_reflns_laue_measured_fraction_full 0.998
_diffrn_reflns_laue_measured_fraction_max 0.892
_diffrn_reflns_limit_h_max       7
_diffrn_reflns_limit_h_min       -8
_diffrn_reflns_limit_k_max       11
_diffrn_reflns_limit_k_min       -11
_diffrn_reflns_limit_l_max       21
_diffrn_reflns_limit_l_min       -20
_diffrn_reflns_number            14095
_diffrn_reflns_point_group_measured_fraction_full 0.998
_diffrn_reflns_point_group_measured_fraction_max 0.892
_diffrn_reflns_theta_full        25.242
_diffrn_reflns_theta_max         30.391
_diffrn_reflns_theta_min         3.158
_exptl_absorpt_coefficient_mu    2.877
_exptl_absorpt_correction_T_max  0.7461
_exptl_absorpt_correction_T_min  0.6300
_exptl_absorpt_correction_type   multi-scan
_exptl_absorpt_process_details   Bruker
_exptl_crystal_colour            colorless
_exptl_crystal_density_diffrn    2.135
_exptl_crystal_description       platelet
_exptl_crystal_F_000             464
_exptl_crystal_size_max          0.236
_exptl_crystal_size_mid          0.198
_exptl_crystal_size_min          0.065
_refine_diff_density_max         0.591
_refine_diff_density_min         -0.503
_refine_diff_density_rms         0.098
_refine_ls_extinction_method     none
_refine_ls_goodness_of_fit_ref   1.203
_refine_ls_hydrogen_treatment    constr
_refine_ls_matrix_type           full
_refine_ls_number_parameters     244
_refine_ls_number_reflns         4037
_refine_ls_number_restraints     0
_refine_ls_restrained_S_all      1.203
_refine_ls_R_factor_all          0.0556
_refine_ls_R_factor_gt           0.0420
_refine_ls_shift/su_max          0.001
_refine_ls_shift/su_mean         0.000
_refine_ls_structure_factor_coef Fsqd
_refine_ls_weighting_details
'w=1/[\s^2^(Fo^2^)+(0.0296P)^2^+0.4715P] where P=(Fo^2^+2Fc^2^)/3'
_refine_ls_weighting_scheme      calc
_refine_ls_wR_factor_gt          0.0775
_refine_ls_wR_factor_ref         0.0812
_reflns_Friedel_coverage         0.000
_reflns_number_gt                3446
_reflns_number_total             4037
_reflns_threshold_expression     'I > 2\s(I)'
_cod_data_source_file            ol6b00032_si_001.cif
_cod_data_source_block           Compound10b
_cod_depositor_comments
;
The following automatic conversions were performed:

'_exptl_absorpt_correction_type' value 'Multi-scan' changed to
'multi-scan' according to
/usr/data/users/saulius/crontab/automatic-downloads/current/ACS/lib/dictionaries/cif_core.dic
dictionary named 'cif_core.dic' version 2.4.2 from 2011-04-26.

Automatic conversion script
Id: cif_fix_values 4268 2015-11-12 08:31:59Z antanas 
;
_cod_database_code               1542653
_shelx_shelxl_version_number     2014/7
_shelx_space_group_comment
;
The symmetry employed for this shelxl refinement is uniquely defined
by the following loop, which should always be used as a source of
symmetry information in preference to the above space-group names.
They are only intended as comments.
;
_shelx_estimated_absorpt_t_min   0.550
_shelx_estimated_absorpt_t_max   0.835
_shelx_res_file
;

    Compound10b.res created by SHELXL-2014/7


TITL Compound10b.res in P-1
REM Old TITL zzz in P1

REM SHELXT solution in P-1
REM R1 0.089,  Rweak 0.013,  Alpha 0.060,  Orientation as input
REM Formula found by SHELXT:  C13 N F12 Br

CELL  0.71073   5.9088   8.3970  15.6935  105.477   90.420   91.565
ZERR    2.000   0.0004   0.0005   0.0009    0.001    0.002    0.002
LATT  1
SFAC C H N F BR
UNIT 26 8 2 24 2
TEMP -128.150
SIZE 0.065 0.198 0.236
L.S. 10
BOND $H
ACTA
LIST 6
FMAP 2
PLAN 5
WGHT    0.029600    0.471500
FVAR       0.45541
BR1   5    0.121697    0.947561    0.815504    11.00000    0.03455    0.02500 =
         0.02371    0.00656    0.00529    0.00403
F9    4    0.227764    1.001120    0.633529    11.00000    0.04287    0.01373 =
         0.02679    0.00626    0.00139    0.00281
F4    4    0.276396    0.498254    0.366999    11.00000    0.04229    0.01405 =
         0.02889    0.00605    0.00127    0.00184
F3    4    0.545292    0.685524    0.377332    11.00000    0.01318    0.04047 =
         0.02496    0.00860   -0.00141    0.00250
F8    4    0.520972    0.760383    0.550497    11.00000    0.01288    0.04612 =
         0.02704    0.00810   -0.00151    0.00462
F10   4   -0.036547    0.810102    0.624334    11.00000    0.01368    0.04029 =
         0.03212    0.00778    0.00121    0.00294
F6    4    0.257596    0.925767    0.460111    11.00000    0.04857    0.01324 =
         0.02640    0.00781   -0.00028    0.00133
F2    4    0.279358    0.847079    0.285234    11.00000    0.05209    0.01995 =
         0.02975    0.01067   -0.00324    0.00818
F7    4    0.250809    0.573955    0.539806    11.00000    0.04883    0.01317 =
         0.02836    0.00736    0.00002    0.00346
F5    4   -0.012936    0.740257    0.449657    11.00000    0.01202    0.04777 =
         0.02951    0.00957   -0.00211    0.00472
F12   4    0.242317    0.651824    0.714990    11.00000    0.04926    0.01995 =
         0.02976    0.01204    0.00455    0.00702
F1    4    0.014516    0.656642    0.274161    11.00000    0.01703    0.04838 =
         0.02939    0.00196   -0.00632    0.00794
F11   4    0.498780    0.845240    0.725321    11.00000    0.02062    0.05089 =
         0.02820    0.01103   -0.00289    0.00242
C11   1    0.295753    0.733525    0.543632    11.00000    0.01399    0.01433 =
         0.02580    0.00659   -0.00213    0.00145
C12   1    0.187501    0.840920    0.628755    11.00000    0.01595    0.01510 =
         0.02529    0.00724   -0.00055    0.00051
C1    1    0.360735    0.576099    0.204498    11.00000    0.02108    0.02391 =
         0.01880    0.00834   -0.00447    0.00393
C13   1    0.276795    0.811062    0.716284    11.00000    0.02290    0.02058 =
         0.02399    0.00844    0.00137    0.00167
C9    1    0.319817    0.658845    0.371295    11.00000    0.01199    0.01502 =
         0.02555    0.00552   -0.00213   -0.00012
C10   1    0.211657    0.766999    0.456051    11.00000    0.01619    0.01591 =
         0.02411    0.00603   -0.00209    0.00339
C8    1    0.241335    0.685993    0.281937    11.00000    0.01874    0.02057 =
         0.02488    0.00625   -0.00530    0.00235
C6    1    0.562124    0.632013    0.176280    11.00000    0.02287    0.03160 =
         0.02521    0.01079   -0.00498   -0.00178
AFIX  43
H6A   2    0.618839    0.741026    0.203020    11.00000   -1.20000
AFIX   0
C2    1    0.275248    0.417645    0.165293    11.00000    0.02574    0.02582 =
         0.02752    0.00565   -0.00209   -0.00216
AFIX  43
H2A   2    0.136073    0.380906    0.184565    11.00000   -1.20000
AFIX   0
C5    1    0.679808    0.528548    0.109159    11.00000    0.02486    0.05099 =
         0.02292    0.01566    0.00131    0.00381
AFIX  43
H5A   2    0.817312    0.566296    0.089110    11.00000   -1.20000
AFIX   0
C4    1    0.596574    0.369405    0.071141    11.00000    0.03490    0.04301 =
         0.02004    0.01054   -0.00062    0.01632
C3    1    0.393007    0.313124    0.098047    11.00000    0.04024    0.02706 =
         0.02773    0.00301   -0.00457    0.00505
AFIX  43
H3A   2    0.335493    0.204577    0.070721    11.00000   -1.20000
AFIX   0
N1    3    0.836972    0.173922   -0.046899    11.00000    0.08292    0.09735 =
         0.03219    0.00852    0.01409    0.04846
C7    1    0.727988    0.259414    0.004365    11.00000    0.05186    0.06171 =
         0.02240    0.01082    0.00187    0.02262

HKLF 4

REM  Compound10b.res in P-1
REM R1 =  0.0420 for    3446 Fo > 4sig(Fo)  and  0.0556 for all    4037 data
REM    244 parameters refined using      0 restraints

END

WGHT      0.0292      0.4704

REM Highest difference peak  0.591,  deepest hole -0.503,  1-sigma level  0.098
Q1    1   0.1313  0.9204  0.7594  11.00000  0.05    0.58
Q2    1   0.2366  0.7890  0.5824  11.00000  0.05    0.55
Q3    1   0.4856  0.5784  0.1906  11.00000  0.05    0.53
Q4    1   0.2476  0.8307  0.6694  11.00000  0.05    0.53
Q5    1   0.2761  0.6773  0.3294  11.00000  0.05    0.49
;
_shelx_res_checksum              8745
_shelx_hkl_file
;
  -1   0   0    9.00    0.70
  -1   0   0    9.60    0.70
  -1   0   0   10.30    0.90
   1   0   0    9.60    0.50
   1   0   0   11.20    0.90
   1   0   0   10.90    0.70
  -2   0   0  551.14   11.70
  -2   0   0  531.85   11.30
  -2   0   0  518.85   11.30
  -2   0   0  541.55   11.60
   2   0   0  558.24   11.60
   2   0   0  539.55   11.30
   2   0   0  547.55   11.70
  -3   0   0   15.00    1.10
  -3   0   0   13.90    1.30
  -3   0   0   14.10    1.80
   3   0   0   12.10    1.40
   3   0   0   13.60    1.70
  -4   0   0  376.66    9.50
  -4   0   0  374.86    9.00
   4   0   0  366.96    9.70
  -5   0   0   83.79    4.00
  -5   0   0   80.19    3.70
   5   0   0   78.69    4.40
  -6   0   0    4.30    2.60
  -6   0   0    0.20    1.90
   6   0   0    0.30    2.60
  -7   0   0   27.60    3.70
  -7   0   0   32.60    4.20
  -8   0   0   29.10    5.70
  -8  -2   1   -0.90    4.10
  -8  -2   1   11.10    4.90
   7   2  -1   20.60    4.40
  -7  -2   1   17.60    3.50
  -7  -2   1   28.40    4.30
   6   2  -1  110.49    5.80
  -6  -2   1  104.99    5.20
  -6  -2   1   95.09    6.00
   5   2  -1   10.70    2.70
  -5  -2   1   13.20    2.40
  -5  -2   1   11.90    2.30
   4   2  -1    4.50    1.50
   4   2  -1    2.70    1.70
  -4  -2   1    4.10    1.70
  -4  -2   1    3.70    1.40
   3   2  -1  281.17    7.20
   3   2  -1  276.37    7.40
   3   2  -1  256.97    6.90
  -3  -2   1  273.07    7.10
  -3  -2   1  279.87    7.10
   2   2  -1  983.10   21.90
   2   2  -1 1010.60   21.40
   2   2  -1 1061.49   21.60
  -2  -2   1 1049.30   21.50
  -2  -2   1 1093.99   21.50
  -2  -2   1 1033.70   22.10
  -2  -2   1 1042.30   21.40
   1   2  -1   86.29    2.50
   1   2  -1   84.89    2.60
   1   2  -1   91.49    2.60
   1   2  -1   86.49    2.60
  -1  -2   1   89.49    2.60
  -1  -2   1   89.69    2.60
  -1  -2   1   92.19    2.60
  -1  -2   1   87.99    2.70
  -1  -2   1   82.99    2.30
   0   2  -1 2619.04   51.49
   0   2  -1 2462.45   51.39
   0   2  -1 2599.94   51.49
   0   2  -1 2555.64   51.59
   0  -2   1 2717.53   51.59
   0  -2   1 2766.82   51.89
   0  -2   1 2638.24   51.49
   0  -2   1 2704.53   51.49
   0  -2   1 2580.04   51.79
  -1   2  -1  309.17    7.40
  -1   2  -1  344.07    7.40
  -1   2  -1  320.37    7.40
   1  -2   1  346.97    7.40
   1  -2   1  333.87    7.40
   1  -2   1  325.27    7.40
   1  -2   1  329.17    7.40
  -2   2  -1 4029.10   77.89
  -2   2  -1 3975.70   77.89
  -2   2  -1 3995.60   77.69
   2  -2   1 3959.90   77.69
   2  -2   1 3834.42   77.89
   2  -2   1 4022.80   77.89
  -3   2  -1    0.90    1.00
  -3   2  -1    0.60    0.60
  -3   2  -1    0.00    1.10
  -3   2  -1   -0.90    0.60
   3  -2   1    0.40    1.00
   3  -2   1    0.20    0.80
   3  -2   1   -1.60    1.10
  -4   2  -1   52.79    2.10
  -4   2  -1   52.59    3.10
  -4   2  -1   57.99    2.10
   4  -2   1   49.80    3.10
   4  -2   1   50.69    2.20
   4  -2   1   53.99    2.30
  -5   2  -1   86.99    4.40
  -5   2  -1   86.29    3.40
   5  -2   1   88.29    3.30
   5  -2   1   86.29    4.60
   5  -2   1   79.69    3.00
  -6   2  -1  101.09    4.30
  -6   2  -1  105.69    5.50
   6  -2   1   97.89    5.50
  -7   2  -1    4.40    3.40
   7  -2   1   -4.20    3.20
  -8   2  -1   14.40    4.90
   7   4  -2   28.70    6.00
  -7  -4   2   29.60    4.50
  -7  -4   2   35.50    5.30
   6   4  -2   54.49    5.30
  -6  -4   2   51.69    4.70
  -6  -4   2   60.49    4.40
   5   4  -2    0.90    3.20
   5   4  -2    0.40    2.30
  -5  -4   2    1.30    2.50
  -5  -4   2    1.00    2.10
   4   4  -2   47.80    3.40
   4   4  -2   46.00    3.50
  -4  -4   2   49.80    3.30
  -4  -4   2   53.79    3.30
   3   4  -2   69.19    3.40
   3   4  -2   69.69    3.40
  -3  -4   2   74.39    3.50
  -3  -4   2   69.79    3.40
   2   4  -2  177.58    5.00
   2   4  -2  178.78    5.40
   2   4  -2  174.38    5.20
  -2  -4   2  168.68    5.00
  -2  -4   2  178.68    4.50
  -2  -4   2  173.18    5.50
  -2  -4   2  178.28    5.00
  -2  -4   2  178.88    4.50
  -2  -4   2  185.18    5.40
   1   4  -2   99.39    3.30
   1   4  -2   89.19    3.50
   1   4  -2   99.29    3.50
  -1  -4   2   98.09    3.20
  -1  -4   2   95.59    3.10
  -1  -4   2   98.09    3.30
  -1  -4   2   94.49    3.10
  -1  -4   2   99.99    3.00
   0   4  -2 3719.43   76.29
   0   4  -2 3858.11   76.89
   0  -4   2 3827.82   76.89
   0  -4   2 4085.69   77.09
   0  -4   2 3919.51   76.89
   0  -4   2 3977.50   76.99
   0  -4   2 3982.90   76.39
  -1   4  -2  344.27    8.50
  -1   4  -2  335.77    7.40
  -1   4  -2  351.46    8.50
   1  -4   2  362.86    8.30
   1  -4   2  338.07    8.40
   1  -4   2  357.66    7.40
   1  -4   2  339.87    8.40
   1  -4   2  350.26    8.60
  -2   4  -2 1027.30   22.60
  -2   4  -2 1073.79   22.90
  -2   4  -2 1067.89   22.80
   2  -4   2 1115.79   22.70
   2  -4   2 1077.69   22.80
  -3   4  -2   13.10    1.90
  -3   4  -2   15.10    2.10
   3  -4   2   12.90    1.80
   3  -4   2   16.20    2.00
  -4   4  -2   22.30    2.80
   4  -4   2   24.80    2.60
   4  -4   2   24.30    2.20
  -5   4  -2   69.19    4.40
   5  -4   2   63.49    4.20
   5  -4   2   64.59    3.40
  -6   4  -2    1.60    2.80
   6  -4   2    2.70    2.80
   6  -4   2    3.00    2.30
  -7   4  -2    8.30    3.90
   7  -4   2   -1.60    3.80
   6   6  -3   19.60    4.80
  -6  -6   3   24.70    4.10
  -6  -6   3   19.30    3.90
   5   6  -3    9.40    3.30
   5   6  -3   10.50    3.60
  -5  -6   3    4.20    3.00
   4   6  -3  105.09    5.40
   4   6  -3  117.19    5.30
  -4  -6   3  103.99    5.20
  -4  -6   3  107.59    5.10
   3   6  -3   33.00    3.20
   3   6  -3   36.20    3.30
  -3  -6   3   38.70    2.90
  -3  -6   3   32.20    2.00
  -3  -6   3   31.50    2.00
  -3  -6   3   36.20    3.10
   2   6  -3  296.47    8.80
   2   6  -3  307.17    8.30
  -2  -6   3  306.37    8.40
  -2  -6   3  301.77    8.80
  -2  -6   3  297.77    8.10
  -2  -6   3  308.07    7.70
   1   6  -3   85.69    4.10
   1   6  -3   87.89    3.60
   1   6  -3   90.59    4.00
   1   6  -3   87.29    3.50
  -1  -6   3   86.99    3.50
  -1  -6   3   88.49    3.50
  -1  -6   3   91.39    3.90
   0   6  -3  788.92   18.00
   0   6  -3  800.12   17.20
   0   6  -3  803.52   18.20
   0  -6   3  820.82   18.10
   0  -6   3  797.82   17.20
   0  -6   3  845.42   17.40
  -1   6  -3   71.79    3.60
  -1   6  -3   69.99    3.50
  -1   6  -3   75.39    2.40
   1  -6   3   73.89    3.30
   1  -6   3   78.19    2.40
   1  -6   3   71.29    2.40
   1  -6   3   70.59    3.40
  -2   6  -3  367.06    9.90
  -2   6  -3  356.46    9.80
   2  -6   3  359.66    9.80
   2  -6   3  365.56    9.50
  -3   6  -3   60.39    3.70
  -3   6  -3   59.89    3.80
   3  -6   3   59.29    3.40
   3  -6   3   61.09    3.60
  -4   6  -3   37.60    3.90
   4  -6   3   41.70    3.30
   4  -6   3   43.40    3.90
  -5   6  -3   17.30    3.50
   5  -6   3   12.60    2.70
   5  -6   3   12.30    2.90
  -6   6  -3   -1.20    3.50
   6  -6   3   -2.80    3.20
   6  -6   3    0.10    3.30
   5   8  -4   13.40    4.80
  -5  -8   4   24.70    5.00
  -5  -8   4   24.30    4.80
   4   8  -4   17.60    4.00
   4   8  -4   14.80    3.40
  -4  -8   4   12.00    3.60
  -4  -8   4   10.40    3.20
   3   8  -4   17.00    3.30
  -3  -8   4   12.20    2.60
  -3  -8   4   11.20    2.10
  -3  -8   4   18.80    3.20
   2   8  -4    9.90    3.00
   2   8  -4    1.30    2.40
  -2  -8   4    5.50    2.00
  -2  -8   4   10.70    2.60
  -2  -8   4    2.60    1.90
   1   8  -4   83.39    4.10
   1   8  -4   87.89    4.80
  -1  -8   4   86.19    4.10
  -1  -8   4   82.79    3.70
  -1  -8   4   87.39    4.50
   0   8  -4  127.99    5.70
   0   8  -4  128.79    4.60
   0  -8   4  126.89    5.50
   0  -8   4  128.09    4.30
   0  -8   4  137.39    5.30
   0  -8   4  127.99    5.20
  -1   8  -4   11.20    1.80
  -1   8  -4   16.30    3.00
   1  -8   4   13.30    1.60
   1  -8   4   12.20    2.50
   1  -8   4   11.10    2.20
  -2   8  -4  831.42   20.30
   2  -8   4  858.11   20.30
   2  -8   4  818.12   19.50
  -3   8  -4   88.59    5.20
   3  -8   4   88.49    4.80
   3  -8   4   85.39    4.30
  -4   8  -4   34.30    4.30
   4  -8   4   39.60    4.00
   4  -8   4   41.80    3.90
  -5   8  -4   -0.70    3.80
   5  -8   4    1.00    3.50
   5  -8   4   -1.10    3.60
   6  -8   4   38.80    5.80
   3  10  -5   -2.90    6.30
  -3 -10   5    3.00    3.40
  -3 -10   5   -3.60    4.20
   2  10  -5   58.69    4.40
  -2 -10   5   57.19    4.10
  -2 -10   5   55.29    4.20
  -2 -10   5   62.99    5.10
   1  10  -5   35.70    4.70
   1  10  -5   35.80    3.60
  -1 -10   5   28.70    4.20
  -1 -10   5   40.50    3.40
  -1 -10   5   34.40    4.00
  -1 -10   5   33.40    3.90
   0  10  -5    0.90    3.20
   0 -10   5    9.20    3.10
   0 -10   5    1.50    2.90
   0 -10   5    4.80    3.00
  -1  10  -5   -4.00    3.30
   1 -10   5    0.40    3.00
   1 -10   5    4.30    2.90
  -2  10  -5   29.10    4.50
   2 -10   5   22.60    3.40
   2 -10   5   28.40    4.10
  -3  10  -5   24.50    4.90
   3 -10   5   18.80    3.70
   1 -11   6   53.49    5.20
  -1  11  -6   47.10    5.60
   0 -11   6   22.90    3.90
   0 -11   6   21.10    4.10
   0  11  -6   25.00    4.40
  -1 -11   6   30.60    4.50
  -1 -11   6   25.80    4.50
  -2 -11   6    5.00    3.40
  -2 -11   6    1.80    4.60
   5  -9   5   12.90    4.30
   4  -9   5   25.70    3.90
   4  -9   5   23.90    4.00
  -4   9  -5   21.80    4.30
   3  -9   5   83.79    5.10
  -3   9  -5   75.39    5.50
   2  -9   5    2.70    2.50
   2  -9   5   -3.20    2.20
  -2   9  -5    1.20    2.80
   1  -9   5   97.09    4.80
   1  -9   5   92.79    4.40
  -1   9  -5  102.39    5.40
   0  -9   5   42.60    2.80
   0  -9   5   51.69    3.90
   0  -9   5   39.10    3.20
   0  -9   5   52.39    3.70
   0   9  -5   40.00    3.10
   0   9  -5   41.70    4.10
  -1  -9   5   98.39    5.30
  -1  -9   5   97.99    4.30
  -1  -9   5  104.89    4.90
   1   9  -5  104.29    5.60
   1   9  -5   97.49    4.60
  -2  -9   5    9.50    3.00
  -2  -9   5    0.00    2.20
   2   9  -5    4.80    3.40
  -3  -9   5   -1.00    3.50
  -3  -9   5    6.00    2.70
   3   9  -5   11.70    4.20
   3   9  -5    3.10    3.20
  -4  -9   5   38.30    4.80
  -4  -9   5   36.20    4.70
   4   9  -5   31.60    5.20
   5   9  -5   11.80    5.20
   6  -7   4    3.10    3.80
   6  -7   4   -0.60    3.70
  -6   7  -4    9.10    4.20
   5  -7   4  205.48    7.90
   5  -7   4  191.68    7.50
  -5   7  -4  199.78    8.20
   4  -7   4   32.60    3.20
   4  -7   4   40.60    3.40
  -4   7  -4   37.20    4.10
   3  -7   4  266.87    8.50
   3  -7   4  252.97    7.80
  -3   7  -4  242.18   10.80
   2  -7   4   98.29    4.10
   2  -7   4  101.09    4.70
  -2   7  -4   94.49    4.70
   1  -7   4  257.37    6.70
   1  -7   4  281.17    6.80
   1  -7   4  280.17    7.80
   1  -7   4  279.17    8.30
  -1   7  -4  269.27    6.80
  -1   7  -4  271.07    8.30
   0  -7   4   78.59    3.70
   0  -7   4   76.59    3.20
   0  -7   4   76.99    3.60
   0  -7   4   76.99    3.90
   0   7  -4   78.69    3.20
   0   7  -4   77.29    4.10
  -1  -7   4  108.29    4.30
  -1  -7   4  106.59    4.20
  -1  -7   4  109.49    4.70
   1   7  -4  106.89    4.80
   1   7  -4  109.99    4.20
   1   7  -4  109.69    4.90
  -2  -7   4   70.79    3.30
  -2  -7   4   80.99    3.90
  -2  -7   4   76.69    4.30
   2   7  -4   75.59    3.90
   2   7  -4   74.69    4.30
  -3  -7   4    5.00    2.40
  -3  -7   4    1.40    1.60
   3   7  -4   -3.90    2.60
  -4  -7   4   27.50    3.80
  -4  -7   4   25.80    3.40
   4   7  -4   25.00    3.80
  -5  -7   4   24.20    4.10
  -5  -7   4   21.90    4.30
   5   7  -4   33.30    4.70
   5   7  -4   21.50    4.30
   6   7  -4   29.30    5.10
   7  -5   3   93.59    6.30
  -7   5  -3   81.59    6.80
   6  -5   3    6.30    3.10
   6  -5   3    8.00    2.80
  -6   5  -3    9.80    3.40
   5  -5   3  117.19    5.10
   5  -5   3  106.39    6.30
  -5   5  -3  122.69    5.70
   4  -5   3    3.90    2.00
   4  -5   3    4.00    1.90
  -4   5  -3    3.40    2.10
   3  -5   3   26.40    2.50
   3  -5   3   28.80    2.50
  -3   5  -3   28.70    2.60
  -3   5  -3   28.80    2.80
   2  -5   3  149.99    5.10
   2  -5   3  152.28    4.80
  -2   5  -3  150.18    5.10
  -2   5  -3  150.58    5.10
   1  -5   3  554.04   12.90
   1  -5   3  576.74   12.50
   1  -5   3  556.14   11.70
   1  -5   3  527.75   12.70
  -1   5  -3  547.25   11.60
  -1   5  -3  559.84   12.90
  -1   5  -3  547.55   12.80
   0  -5   3   66.59    3.00
   0  -5   3   66.19    2.90
   0  -5   3   73.19    2.70
   0  -5   3   67.29    2.40
   0   5  -3   67.49    3.10
   0   5  -3   61.09    2.70
   0   5  -3   62.99    2.90
  -1  -5   3 1481.15   30.20
  -1  -5   3 1424.16   30.20
  -1  -5   3 1492.25   30.80
  -1  -5   3 1511.05   30.30
   1   5  -3 1431.76   30.80
   1   5  -3 1470.75   30.20
   1   5  -3 1496.65   30.80
  -2  -5   3  122.89    4.60
  -2  -5   3  122.39    3.60
  -2  -5   3  119.59    4.40
  -2  -5   3  124.39    3.80
   2   5  -3  118.39    4.50
   2   5  -3  117.39    4.30
  -3  -5   3    9.20    2.10
  -3  -5   3    8.10    1.10
  -3  -5   3    7.50    1.80
  -3  -5   3    6.80    1.10
   3   5  -3    9.00    2.30
  -4  -5   3    9.90    2.40
  -4  -5   3    8.50    2.10
   4   5  -3    9.80    2.90
   4   5  -3   10.00    2.60
  -5  -5   3   13.60    2.70
  -5  -5   3    9.80    2.70
   5   5  -3   15.10    3.20
   5   5  -3   13.60    3.00
  -6  -5   3   23.50    4.30
  -6  -5   3   35.70    4.30
   6   5  -3   34.30    5.00
   7   5  -3   17.20    5.60
  -7   3  -2    9.70    4.00
   6  -3   2   40.50    4.00
   6  -3   2   38.00    2.80
  -6   3  -2   37.90    3.90
   5  -3   2  892.51   19.60
   5  -3   2  865.41   20.70
  -5   3  -2  898.41   20.90
   4  -3   2    4.40    1.30
   4  -3   2    6.30    1.80
  -4   3  -2    2.60    1.80
  -4   3  -2    2.90    0.90
   3  -3   2  162.88    5.10
   3  -3   2  163.18    4.70
   3  -3   2  173.28    5.10
  -3   3  -2  173.38    5.00
  -3   3  -2  168.98    5.30
   2  -3   2  533.45   12.40
   2  -3   2  570.74   12.40
   2  -3   2  561.24   12.40
   2  -3   2  560.84   12.40
  -2   3  -2  563.14   12.40
  -2   3  -2  561.34   12.60
  -2   3  -2  560.24   12.40
   1  -3   2   66.39    2.30
   1  -3   2   63.69    2.40
   1  -3   2   67.79    1.80
  -1   3  -2   61.19    1.70
  -1   3  -2   67.79    2.30
  -1   3  -2   65.89    2.50
   0  -3   2    4.60    0.80
   0  -3   2    4.10    0.90
   0  -3   2    5.90    0.80
   0  -3   2    5.70    1.10
   0   3  -2    4.60    1.00
   0   3  -2    5.50    1.20
   0   3  -2    5.00    1.00
   0   3  -2    6.30    1.50
  -1  -3   2  110.19    3.30
  -1  -3   2  113.49    3.10
  -1  -3   2  106.29    3.10
  -1  -3   2  108.19    3.20
  -1  -3   2  108.29    3.10
  -1  -3   2  110.09    3.50
   1   3  -2  110.79    3.50
   1   3  -2  104.59    3.00
   1   3  -2  109.09    3.20
  -2  -3   2  455.95   10.60
  -2  -3   2  469.95    9.60
  -2  -3   2  441.56   10.40
  -2  -3   2  450.15   10.40
  -2  -3   2  474.55    9.60
  -2  -3   2  459.75   10.70
  -2  -3   2  476.45   10.70
   2   3  -2  459.75   10.60
   2   3  -2  450.65   10.50
  -3  -3   2  285.07    7.50
  -3  -3   2  297.07    7.70
   3   3  -2  274.07    7.50
   3   3  -2  266.97    7.90
   3   3  -2  276.97    7.60
  -4  -3   2   15.70    2.20
  -4  -3   2   10.80    2.00
   4   3  -2   14.20    2.30
   4   3  -2   13.90    2.70
  -5  -3   2   34.50    3.20
  -5  -3   2   31.30    3.30
   5   3  -2   34.00    3.20
   5   3  -2   31.30    3.60
  -6  -3   2   26.90    3.60
  -6  -3   2   29.90    3.60
   6   3  -2   23.20    4.20
  -7  -3   2   26.20    4.70
  -7  -3   2   28.70    4.90
   7   3  -2   26.80    5.30
  -8   1  -1    3.80    4.60
   7  -1   1   39.40    4.90
  -7   1  -1   37.90    4.10
  -7   1  -1   34.30    3.30
   6  -1   1   23.50    3.50
  -6   1  -1   28.00    3.30
  -6   1  -1   21.00    2.60
   5  -1   1  409.76    9.70
   5  -1   1  424.26    9.50
   5  -1   1  439.46   11.70
  -5   1  -1  428.26   10.50
  -5   1  -1  445.96   11.30
   4  -1   1    7.20    1.10
   4  -1   1   10.40    2.00
   4  -1   1    8.50    1.10
  -4   1  -1    9.60    1.50
  -4   1  -1   10.70    1.90
  -4   1  -1    7.40    1.30
   3  -1   1  762.92   16.50
   3  -1   1  726.93   16.20
   3  -1   1  763.42   15.60
   3  -1   1  766.52   15.70
   3  -1   1  767.82   15.60
  -3   1  -1  756.32   15.70
  -3   1  -1  736.33   16.50
  -3   1  -1  739.73   15.60
  -3   1  -1  760.02   16.30
   2  -1   1  233.68    5.30
   2  -1   1  233.18    5.30
   2  -1   1  233.48    5.70
   2  -1   1  229.58    5.60
   2  -1   1  230.98    5.10
  -2   1  -1  227.98    5.60
  -2   1  -1  234.78    5.70
  -2   1  -1  215.78    5.10
  -2   1  -1  239.08    5.20
   1  -1   1 2537.35   50.49
   1  -1   1 2477.05   51.29
   1  -1   1 2561.04   50.39
   1  -1   1 2482.55   50.59
   1  -1   1 2556.94   50.39
  -1   1  -1 2579.64   50.89
  -1   1  -1 2592.84   50.49
  -1   1  -1 2602.84   50.49
  -1   1  -1 2738.83   51.39
  -1   1  -1 2718.53   50.49
  -1  -1   1  560.14   12.10
  -1  -1   1  612.44   12.10
  -1  -1   1  597.34   12.10
   1   1  -1  606.74   12.20
   1   1  -1  560.34   12.10
   1   1  -1  591.94   12.10
  -2  -1   1  207.98    5.20
  -2  -1   1  208.58    5.10
  -2  -1   1  203.78    5.00
  -2  -1   1  203.88    5.20
   2   1  -1  204.68    5.20
   2   1  -1  211.18    5.30
   2   1  -1  202.28    5.10
  -3  -1   1   48.70    2.40
  -3  -1   1   51.69    2.60
  -3  -1   1   47.50    2.10
  -3  -1   1   48.20    2.60
   3   1  -1   50.09    2.70
   3   1  -1   53.79    2.40
   3   1  -1   52.69    2.40
  -4  -1   1  160.78    5.20
  -4  -1   1  159.88    5.00
   4   1  -1  159.48    5.50
   4   1  -1  161.58    5.10
  -5  -1   1    3.20    1.90
  -5  -1   1    3.80    1.80
   5   1  -1    3.90    2.30
  -6  -1   1   11.70    2.70
  -6  -1   1   11.70    2.40
   6   1  -1   17.30    3.40
  -7  -1   1   54.09    4.60
  -7  -1   1   56.29    4.20
   7   1  -1   48.20    5.50
  -8  -1   1   21.90    5.00
  -8  -1   0   15.50    3.80
  -8  -1   0   14.20    4.70
   7   1   0   24.30    5.00
  -7  -1   0   27.70    3.90
  -7  -1   0   25.50    4.30
   6   1   0    1.00    2.80
  -6  -1   0    6.80    2.20
  -6  -1   0    4.40    2.30
   5   1   0  143.19    5.70
  -5  -1   0  142.69    5.20
  -5  -1   0  143.19    5.40
   4   1   0   49.50    3.10
  -4  -1   0   48.80    2.70
  -4  -1   0   51.39    2.80
   3   1   0 2546.35   51.49
   3   1   0 2609.44   51.09
   3   1   0 2610.64   51.09
  -3  -1   0 2591.04   51.09
  -3  -1   0 2430.66   51.39
  -3  -1   0 2594.04   51.19
   2   1   0  227.58    5.50
   2   1   0  236.38    5.50
   2   1   0  222.88    5.60
  -2  -1   0  213.68    5.30
  -2  -1   0  217.08    5.40
  -2  -1   0  222.98    5.40
  -2  -1   0  218.78    5.50
   1   1   0 6383.16  127.49
   1   1   0 6592.14  126.39
   1   1   0 6194.48  126.49
   1   1   0 6431.86  126.39
  -1  -1   0 6420.06  126.89
  -1  -1   0 6324.07  126.49
  -1  -1   0 6562.94  127.39
  -1  -1   0 6529.55  126.59
  -1   1   0  279.67    6.50
  -1   1   0  314.87    6.60
  -1   1   0  302.57    6.40
   1  -1   0  294.67    6.50
   1  -1   0  299.37    6.60
   1  -1   0  290.47    6.40
  -2   1   0   64.99    1.90
  -2   1   0   65.99    2.10
  -2   1   0   67.19    2.40
  -2   1   0   66.09    1.90
   2  -1   0   69.79    2.10
   2  -1   0   67.89    2.10
   2  -1   0   67.79    2.50
   2  -1   0   69.59    2.40
  -3   1   0    3.60    1.30
  -3   1   0    2.20    0.80
  -3   1   0    3.10    0.80
  -3   1   0    4.30    0.70
  -3   1   0    2.60    1.10
   3  -1   0    4.70    1.10
   3  -1   0    2.90    0.80
   3  -1   0    2.70    0.80
   3  -1   0    5.10    1.40
  -4   1   0  290.67    8.00
  -4   1   0  304.77    7.30
  -4   1   0  295.27    7.00
   4  -1   0  293.07    6.80
   4  -1   0  292.37    6.80
   4  -1   0  290.97    8.20
  -5   1   0   13.00    1.90
  -5   1   0   14.40    2.60
   5  -1   0   16.80    1.50
   5  -1   0   16.30    1.30
   5  -1   0   16.00    2.70
  -6   1   0    2.70    1.90
  -6   1   0    2.80    2.80
   6  -1   0    4.20    2.60
  -7   1   0   40.20    4.50
   7  -1   0   41.10    4.60
  -8   1   0   22.70    4.60
   7   3  -1    5.40    4.10
  -7  -3   1    3.50    3.40
  -7  -3   1   -0.50    3.30
   6   3  -1    4.40    3.00
  -6  -3   1    2.50    2.60
  -6  -3   1   -1.10    2.50
   5   3  -1  224.38    7.90
  -5  -3   1  228.88    7.20
  -5  -3   1  225.88    7.40
   4   3  -1   85.59    3.90
   4   3  -1   87.39    4.20
  -4  -3   1   93.99    3.90
  -4  -3   1   89.49    3.90
   3   3  -1  105.59    3.70
   3   3  -1  114.79    4.20
   3   3  -1  110.99    4.20
  -3  -3   1  110.79    4.00
  -3  -3   1  118.79    4.00
   2   3  -1   -1.10    0.90
   2   3  -1    0.00    1.20
   2   3  -1   -1.50    0.80
   2   3  -1   -1.30    0.60
  -2  -3   1   -1.50    0.50
  -2  -3   1   -1.30    1.00
  -2  -3   1   -1.10    0.80
  -2  -3   1   -1.30    0.50
  -2  -3   1   -1.00    0.80
  -2  -3   1   -2.60    0.80
   1   3  -1   44.10    1.90
   1   3  -1   46.90    2.10
   1   3  -1   43.30    1.70
  -1  -3   1   46.30    1.80
  -1  -3   1   47.80    2.00
  -1  -3   1   44.80    1.90
  -1  -3   1   46.70    1.70
  -1  -3   1   44.70    1.90
  -1  -3   1   46.80    1.90
  -1  -3   1   48.10    1.80
   0   3  -1  477.85   10.40
   0   3  -1  474.65   10.40
   0   3  -1  455.35   10.10
   0   3  -1  465.15   10.70
   0  -3   1  504.35   10.10
   0  -3   1  481.15   10.40
   0  -3   1  478.85   10.50
   0  -3   1  500.15   10.60
   0  -3   1  481.95   10.40
  -1   3  -1 2023.40   41.40
  -1   3  -1 2071.39   41.30
   1  -3   1 2082.49   41.30
   1  -3   1 2053.29   41.30
   1  -3   1 2121.69   41.30
  -2   3  -1   26.70    1.80
  -2   3  -1   24.00    2.00
   2  -3   1   24.00    1.50
   2  -3   1   25.80    1.80
   2  -3   1   23.60    1.60
   2  -3   1   22.80    2.10
  -3   3  -1  341.37    8.80
  -3   3  -1  350.76    8.50
   3  -3   1  351.86    8.80
   3  -3   1  329.07    8.20
   3  -3   1  347.27    8.50
  -4   3  -1  152.68    4.90
  -4   3  -1  146.39    5.40
   4  -3   1  150.38    4.80
   4  -3   1  144.59    5.30
  -5   3  -1   39.80    3.50
  -5   3  -1   32.30    1.80
   5  -3   1   33.00    3.40
   5  -3   1   33.60    2.40
  -6   3  -1   76.09    5.10
   6  -3   1   83.09    4.90
   6  -3   1   81.09    3.70
  -7   3  -1   18.40    4.00
   7  -3   1   17.00    3.80
   6   5  -2    3.40    3.60
  -6  -5   2    6.00    3.00
   5   5  -2   43.50    4.40
  -5  -5   2   37.90    3.80
  -5  -5   2   37.80    3.50
   4   5  -2    3.90    2.10
   4   5  -2    3.40    2.40
  -4  -5   2    2.60    2.00
  -4  -5   2    3.80    1.80
   3   5  -2 2006.00   41.60
   3   5  -2 1990.70   42.00
  -3  -5   2 1986.20   41.60
  -3  -5   2 1962.50   39.90
  -3  -5   2 2074.19   40.00
  -3  -5   2 2003.90   41.60
   2   5  -2   50.19    2.30
   2   5  -2   49.20    2.80
   2   5  -2   49.60    3.10
  -2  -5   2   51.09    2.90
  -2  -5   2   50.19    2.30
  -2  -5   2   50.19    2.80
  -2  -5   2   48.60    2.10
   1   5  -2 1709.23   34.40
   1   5  -2 1621.24   34.70
   1   5  -2 1643.14   33.80
   1   5  -2 1632.04   33.80
  -1  -5   2 1748.72   34.00
  -1  -5   2 1574.74   34.10
  -1  -5   2 1713.63   34.40
  -1  -5   2 1666.43   33.90
  -1  -5   2 1677.13   33.90
  -1  -5   2 1645.04   34.80
   0   5  -2   87.99    2.90
   0   5  -2   91.89    3.50
   0   5  -2   92.19    3.60
   0  -5   2   89.79    2.90
   0  -5   2   93.49    3.40
   0  -5   2   89.79    3.60
   0  -5   2   96.59    3.00
   0  -5   2   89.39    3.50
  -1   5  -2    4.10    1.40
  -1   5  -2    3.60    0.70
  -1   5  -2    4.80    1.40
   1  -5   2    1.50    1.40
   1  -5   2    2.70    1.30
   1  -5   2    5.40    0.80
   1  -5   2    4.90    0.80
   1  -5   2    5.80    1.30
  -2   5  -2   96.19    4.00
  -2   5  -2   92.19    3.80
   2  -5   2   92.49    3.90
   2  -5   2   91.69    3.70
  -3   5  -2  364.96    9.60
  -3   5  -2  362.26    9.80
   3  -5   2  356.66    9.60
   3  -5   2  344.67    9.50
  -4   5  -2  164.48    5.90
  -4   5  -2  157.08    6.20
   4  -5   2  158.98    5.80
   4  -5   2  155.18    5.90
  -5   5  -2   41.80    3.90
   5  -5   2   36.20    4.50
   5  -5   2   50.69    3.30
  -6   5  -2   19.90    3.70
   6  -5   2   21.10    4.20
   6  -5   2   20.30    3.10
  -7   5  -2    0.60    4.00
   7  -5   2   15.70    4.40
   6   7  -3    5.10    5.00
   5   7  -3   10.20    3.90
  -5  -7   3    9.00    3.00
   4   7  -3   14.10    3.10
   4   7  -3   11.70    3.30
  -4  -7   3   11.60    2.80
  -4  -7   3   13.20    3.20
   3   7  -3   91.79    5.10
  -3  -7   3   89.99    4.60
  -3  -7   3   96.99    3.60
   2   7  -3   52.79    3.60
   2   7  -3   57.59    4.00
  -2  -7   3   56.79    2.80
  -2  -7   3   60.29    3.30
  -2  -7   3   52.19    3.70
   1   7  -3   58.79    3.30
   1   7  -3   58.89    3.60
   1   7  -3   56.19    3.80
   1   7  -3   57.59    3.20
  -1  -7   3   56.99    3.10
  -1  -7   3   59.09    3.00
  -1  -7   3   57.89    3.40
   0   7  -3   13.70    1.80
   0   7  -3   11.20    2.30
   0   7  -3   12.10    2.30
   0  -7   3   10.70    1.60
   0  -7   3   10.40    2.00
   0  -7   3   10.90    2.00
  -1   7  -3  704.63   16.70
  -1   7  -3  642.64   16.40
  -1   7  -3  716.13   16.80
   1  -7   3  686.03   14.90
   1  -7   3  721.13   16.50
   1  -7   3  730.03   16.80
  -2   7  -3  135.29    5.50
  -2   7  -3  135.29    5.60
   2  -7   3  142.59    5.30
   2  -7   3  138.09    5.60
  -3   7  -3   15.50    3.00
   3  -7   3   14.20    2.40
   3  -7   3   14.40    2.80
  -4   7  -3    4.40    2.70
   4  -7   3    0.30    2.70
   4  -7   3   -0.30    2.40
  -5   7  -3   41.70    4.80
   5  -7   3   33.90    4.10
   5  -7   3   42.80    4.00
  -6   7  -3   53.19    5.60
   6  -7   3   55.09    4.90
   6  -7   3   61.29    5.20
   5   9  -4   17.70    5.30
   4   9  -4    2.20    4.40
  -4  -9   4    7.20    4.10
  -4  -9   4    6.80    3.40
   3   9  -4   42.30    5.20
   3   9  -4   48.40    4.40
  -3  -9   4   51.39    4.10
  -3  -9   4   39.10    4.80
   2   9  -4   49.50    4.00
   2   9  -4   49.10    5.40
  -2  -9   4   43.10    3.50
  -2  -9   4   55.09    4.40
   1   9  -4   48.30    4.70
   1   9  -4   40.70    3.40
  -1  -9   4   47.60    3.20
  -1  -9   4   39.20    3.80
  -1  -9   4   44.60    3.30
   0   9  -4   -2.00    2.60
   0   9  -4    1.30    1.90
   0  -9   4    1.70    2.20
   0  -9   4    1.40    1.70
   0  -9   4    0.10    2.30
   0  -9   4    2.40    2.30
  -1   9  -4  175.48    7.10
   1  -9   4  183.98    6.80
   1  -9   4  168.88    6.50
  -2   9  -4   60.69    4.80
   2  -9   4   63.39    4.30
   2  -9   4   62.29    4.20
  -3   9  -4   21.10    4.00
   3  -9   4   22.00    3.70
   3  -9   4   20.30    3.40
  -4   9  -4    6.70    4.00
   4  -9   4    9.10    3.50
   4  -9   4    7.70    3.40
   5  -9   4   23.20    4.40
  -2 -11   5   28.40    5.10
  -2 -11   5   24.30    4.70
  -1 -11   5    0.90    3.90
  -1 -11   5   15.30    4.40
   0  11  -5    7.90    4.00
   0 -11   5   11.60    4.00
   0 -11   5    3.70    3.70
  -1  11  -5   -1.90    4.10
   1 -11   5    6.50    4.00
  -2  11  -5   26.00    5.50
  -3  10  -6    7.90    3.90
   2 -10   6    7.90    3.50
  -2  10  -6   10.90    3.70
   1 -10   6   30.60    3.00
   1 -10   6   29.80    4.20
   1 -10   6   30.20    4.20
  -1  10  -6   27.20    4.40
   0 -10   6   80.19    5.10
   0 -10   6   76.99    4.10
   0 -10   6   77.19    5.00
   0  10  -6   67.49    5.50
  -1 -10   6   -0.50    3.30
  -1 -10   6   -1.30    2.80
  -1 -10   6    1.50    2.40
  -1 -10   6    5.30    2.70
   1  10  -6   -2.10    2.80
   1  10  -6   -1.40    3.60
  -2 -10   6    6.90    3.70
  -2 -10   6   13.10    3.00
  -2 -10   6    4.50    3.20
   2  10  -6    9.60    3.40
  -3 -10   6   37.50    4.10
  -3 -10   6   29.30    4.90
   3  10  -6   33.00    4.80
   6  -8   5   35.00    5.10
   5  -8   5    4.90    3.50
   5  -8   5   12.70    3.30
  -5   8  -5    6.40    3.80
   4  -8   5  245.98    8.90
   4  -8   5  240.08    8.60
  -4   8  -5  228.28    9.10
   3  -8   5   32.80    3.30
   3  -8   5   30.60    3.10
  -3   8  -5   24.90    3.70
   2  -8   5   73.19    4.40
   2  -8   5   72.09    3.70
  -2   8  -5   72.39    4.70
   1  -8   5   54.99    2.60
   1  -8   5   57.09    3.10
   1  -8   5   56.39    3.60
  -1   8  -5   55.69    4.00
  -1   8  -5   60.29    2.70
   0  -8   5   83.99    4.10
   0  -8   5   80.09    4.50
   0  -8   5   80.19    3.50
   0  -8   5   82.09    3.70
   0   8  -5   76.89    4.60
   0   8  -5   72.59    3.40
  -1  -8   5   46.10    3.70
  -1  -8   5   48.10    3.40
  -1  -8   5   49.90    3.10
   1   8  -5   44.10    3.80
   1   8  -5   53.29    3.20
  -2  -8   5    2.70    1.90
  -2  -8   5    6.80    2.70
  -2  -8   5    3.00    1.80
   2   8  -5    4.50    2.70
   2   8  -5    6.90    2.40
  -3  -8   5   31.50    3.30
   3   8  -5   34.80    3.70
   3   8  -5   27.00    3.90
  -4  -8   5   26.20    4.70
   4   8  -5   27.60    4.20
   4   8  -5   24.90    4.30
  -5  -8   5   25.50    4.50
  -5  -8   5   26.00    4.70
   5   8  -5   19.20    4.80
   5   8  -5   31.30    5.40
   7  -6   4    6.20    4.80
   6  -6   4   52.59    4.70
   6  -6   4   61.89    4.60
  -6   6  -4   58.19    5.20
   5  -6   4    5.80    2.70
   5  -6   4   -1.00    2.50
  -5   6  -4   -2.40    2.70
   4  -6   4  117.89    7.60
   4  -6   4  125.99    5.20
  -4   6  -4  124.49    5.90
   3  -6   4  103.29    4.60
   3  -6   4   97.59    4.20
  -3   6  -4  101.59    4.90
   2  -6   4    0.60    1.50
   2  -6   4    3.80    1.50
  -2   6  -4    4.60    1.90
   1  -6   4   45.70    1.90
   1  -6   4   40.40    2.70
   1  -6   4   38.70    2.70
   1  -6   4   48.80    2.50
  -1   6  -4   43.00    1.90
  -1   6  -4   43.20    3.00
   0  -6   4  399.16   10.10
   0  -6   4  405.36   10.30
   0  -6   4  397.26    9.90
   0  -6   4  390.56    9.50
   0  -6   4  404.96    9.40
   0   6  -4  401.76   10.30
   0   6  -4  398.76    9.40
  -1  -6   4  166.78    5.70
  -1  -6   4  162.28    5.10
   1   6  -4  161.78    5.70
   1   6  -4  165.98    5.10
   1   6  -4  166.58    5.80
  -2  -6   4   32.70    2.70
  -2  -6   4   36.80    2.20
  -2  -6   4   35.60    2.90
  -2  -6   4   35.60    2.90
   2   6  -4   30.50    2.90
   2   6  -4   38.10    2.80
  -3  -6   4    8.20    1.40
  -3  -6   4    7.70    1.50
  -3  -6   4    8.80    2.50
  -3  -6   4    6.70    2.20
   3   6  -4    9.70    2.50
   3   6  -4    7.90    2.10
  -4  -6   4   59.09    3.90
  -4  -6   4   60.29    4.10
   4   6  -4   61.89    4.30
   4   6  -4   50.69    4.30
  -5  -6   4   39.00    5.10
  -5  -6   4   41.40    4.00
   5   6  -4   42.10    4.30
   5   6  -4   41.90    4.80
  -6  -6   4    6.50    3.50
  -6  -6   4    5.10    3.70
   6   6  -4   -2.00    4.10
   7  -4   3   15.90    4.00
  -7   4  -3   12.50    3.90
   6  -4   3  194.58    6.70
   6  -4   3  188.98    7.70
  -6   4  -3  207.88    7.90
   5  -4   3    3.80    2.20
   5  -4   3    1.30    1.80
  -5   4  -3    3.80    2.30
   4  -4   3   11.50    2.10
   4  -4   3   10.30    2.00
  -4   4  -3   13.70    2.40
   3  -4   3   75.99    3.30
   3  -4   3   75.39    3.30
  -3   4  -3   78.49    3.60
   2  -4   3  151.78    4.90
   2  -4   3  159.38    4.60
  -2   4  -3  155.88    4.90
  -2   4  -3  155.58    4.60
  -2   4  -3  155.18    5.00
   1  -4   3   10.10    1.50
   1  -4   3    9.30    1.10
   1  -4   3    8.80    1.10
   1  -4   3   11.00    1.30
   1  -4   3   12.20    0.90
  -1   4  -3    9.70    0.90
  -1   4  -3   11.00    1.60
  -1   4  -3    9.20    1.60
   0  -4   3  552.74   11.70
   0  -4   3  561.14   11.60
   0  -4   3  532.45   11.90
   0  -4   3  535.55   12.00
   0  -4   3  527.05   12.00
   0   4  -3  521.75   11.50
   0   4  -3  522.85   11.90
   0   4  -3  535.95   12.10
  -1  -4   3  508.05   11.60
  -1  -4   3  480.05   10.90
  -1  -4   3  504.55   11.20
  -1  -4   3  493.95   11.00
  -1  -4   3  493.35   11.30
   1   4  -3  509.45   11.60
   1   4  -3  504.25   11.20
   1   4  -3  499.35   11.30
  -2  -4   3  356.56    7.80
  -2  -4   3  350.26    7.80
  -2  -4   3  330.27    8.20
  -2  -4   3  337.77    8.50
  -2  -4   3  338.77    9.00
   2   4  -3  326.67    8.50
   2   4  -3  357.06    8.70
   2   4  -3  346.47    8.60
  -3  -4   3    1.00    1.30
  -3  -4   3    0.10    1.50
   3   4  -3   -0.70    1.50
   3   4  -3    2.60    1.50
  -4  -4   3    3.40    2.10
  -4  -4   3    2.20    1.80
   4   4  -3    3.70    2.10
   4   4  -3    5.20    2.00
  -5  -4   3   76.29    4.30
  -5  -4   3   70.99    5.10
   5   4  -3   73.59    4.60
   5   4  -3   71.49    4.40
  -6  -4   3   48.10    4.30
  -6  -4   3   34.70    4.10
   6   4  -3   41.70    4.60
  -7  -4   3   16.10    4.00
  -7  -4   3   17.20    4.20
   7   4  -3   13.10    4.80
  -8   2  -2    2.10    4.70
   7  -2   2   28.80    4.40
  -7   2  -2   35.20    4.60
   6  -2   2  435.26   12.70
  -6   2  -2  433.36   11.10
   5  -2   2   78.49    3.00
   5  -2   2   84.59    3.40
   5  -2   2   88.79    4.30
  -5   2  -2   89.09    4.40
  -5   2  -2   83.59    3.50
   4  -2   2   13.50    1.50
   4  -2   2   14.70    2.10
  -4   2  -2   15.10    1.40
  -4   2  -2   13.30    2.00
  -4   2  -2   11.20    1.30
   3  -2   2  274.77    6.50
   3  -2   2  264.37    7.00
   3  -2   2  262.47    6.60
   3  -2   2  271.27    6.10
  -3   2  -2  266.87    6.00
  -3   2  -2  264.97    7.00
  -3   2  -2  257.87    6.10
   2  -2   2  154.48    3.50
   2  -2   2  147.59    4.20
   2  -2   2  147.69    4.10
   2  -2   2  152.18    4.20
  -2   2  -2  150.58    4.30
  -2   2  -2  152.48    4.30
  -2   2  -2  147.19    3.60
  -2   2  -2  147.79    4.00
   1  -2   2  316.57    7.20
   1  -2   2  318.07    7.00
   1  -2   2  321.07    7.20
   1  -2   2  315.97    7.00
   1  -2   2  322.87    7.30
  -1   2  -2  317.37    7.20
  -1   2  -2  313.87    7.30
  -1   2  -2  329.97    7.30
  -1   2  -2  330.07    6.80
  -1   2  -2  330.27    7.00
   0  -2   2  725.73   14.10
   0  -2   2  722.43   14.40
   0  -2   2  667.53   14.30
   0  -2   2  700.63   14.30
   0  -2   2  747.83   14.10
   0   2  -2  673.13   14.10
   0   2  -2  713.03   14.30
   0   2  -2  674.73   14.40
   0   2  -2  655.43   14.10
  -1  -2   2  467.45   10.40
  -1  -2   2  474.65   10.00
  -1  -2   2  468.85    9.80
  -1  -2   2  478.95   10.30
  -1  -2   2  482.45    9.80
  -1  -2   2  489.65   10.20
   1   2  -2  472.05   10.30
   1   2  -2  450.65   10.00
   1   2  -2  486.65   10.10
   1   2  -2  481.45   10.20
  -2  -2   2  898.71   18.50
  -2  -2   2  877.01   18.20
  -2  -2   2  885.61   18.30
   2   2  -2  882.31   18.40
   2   2  -2  826.62   19.10
   2   2  -2  875.31   19.30
  -3  -2   2  171.18    5.10
  -3  -2   2  175.38    5.20
   3   2  -2  169.38    5.00
   3   2  -2  161.28    4.90
   3   2  -2  168.28    5.20
  -4  -2   2    5.70    1.80
  -4  -2   2    2.40    1.50
   4   2  -2    1.90    1.40
   4   2  -2    1.10    1.70
  -5  -2   2   38.70    2.80
  -5  -2   2   40.90    3.30
   5   2  -2   39.90    3.50
   5   2  -2   36.40    3.00
  -6  -2   2   83.69    5.00
   6   2  -2   86.79    5.30
  -7  -2   2   17.00    3.80
   7   2  -2   21.00    4.30
  -8  -2   2    6.00    4.50
  -8  -2   2    0.70    4.60
  -8   0  -1    8.30    4.70
   7   0   1    8.30    3.80
  -7   0  -1    9.10    3.20
  -7   0  -1    6.30    2.90
   6   0   1  143.69    6.40
  -6   0  -1  152.68    5.70
  -6   0  -1  148.29    5.90
   5   0   1   68.59    4.20
  -5   0  -1   67.69    3.40
  -5   0  -1   69.49    3.60
   4   0   1 1743.73   36.70
  -4   0  -1 1781.62   36.00
  -4   0  -1 1756.12   36.20
   3   0   1   75.49    3.20
   3   0   1   79.09    2.80
   3   0   1   82.59    2.70
  -3   0  -1   78.79    3.10
  -3   0  -1   77.69    3.40
  -3   0  -1   77.99    3.00
  -3   0  -1   76.79    2.60
   2   0   1  845.92   16.70
   2   0   1  843.32   17.60
   2   0   1  871.71   17.40
   2   0   1  831.62   16.70
   2   0   1  837.62   17.20
  -2   0  -1  845.72   17.30
  -2   0  -1  836.82   17.20
  -2   0  -1  832.32   17.20
  -2   0  -1  839.32   16.70
  -2   0  -1  842.32   17.50
   1   0   1  191.78    4.30
   1   0   1  193.78    4.10
  -1   0  -1  198.18    4.40
  -1   0  -1  189.38    4.30
  -1   0  -1  198.08    4.10
  -1   0   1  176.28    4.00
  -1   0   1  168.48    3.80
   1   0  -1  170.88    3.70
   1   0  -1  172.68    4.00
   1   0  -1  170.28    4.00
  -2   0   1  367.66    7.70
  -2   0   1  374.76    8.50
  -2   0   1  384.96    8.60
  -2   0   1  379.46    8.50
  -2   0   1  360.56    8.10
   2   0  -1  382.26    8.50
   2   0  -1  393.46    8.60
   2   0  -1  389.46    7.80
   2   0  -1  359.46    8.10
  -3   0   1  364.36    8.70
  -3   0   1  352.76    8.10
  -3   0   1  353.56    8.10
  -3   0   1  339.47    8.70
   3   0  -1  348.97    8.70
   3   0  -1  353.86    8.80
   3   0  -1  365.16    8.20
  -4   0   1  356.06    9.30
  -4   0   1  366.26    8.80
   4   0  -1  376.16    8.90
   4   0  -1  353.56    9.50
  -5   0   1    8.80    2.20
  -5   0   1    8.30    1.70
   5   0  -1    4.10    2.20
  -6   0   1   49.00    3.30
  -6   0   1   47.10    3.90
   6   0  -1   51.79    4.20
  -7   0   1   21.40    4.20
   7   0  -1   32.10    4.50
  -8   0   1   27.30    5.30
  -8  -2   0    3.50    4.20
   7   2   0   -3.70    3.80
  -7  -2   0   -4.20    2.90
  -7  -2   0    5.60    3.10
   6   2   0  192.08    7.80
  -6  -2   0  210.88    7.30
  -6  -2   0  197.88    7.40
   5   2   0  129.29    5.70
  -5  -2   0  128.09    5.00
  -5  -2   0  133.99    5.20
   4   2   0  619.64   15.00
  -4  -2   0  624.44   14.50
  -4  -2   0  630.94   14.30
   3   2   0    0.50    1.10
   3   2   0   -1.00    0.90
   3   2   0    0.70    1.40
  -3  -2   0    1.30    0.90
  -3  -2   0    2.20    1.00
   2   2   0  146.39    4.00
   2   2   0  147.59    4.40
  -2  -2   0  152.58    4.00
  -2  -2   0  147.19    4.10
  -2  -2   0  146.09    4.20
   1   2   0  980.10   20.30
   1   2   0  977.30   20.40
   1   2   0  993.10   20.20
  -1  -2   0 1000.30   20.20
  -1  -2   0 1066.39   20.10
  -1  -2   0 1022.20   19.90
  -1  -2   0  937.91   20.10
  -1  -2   0 1036.20   20.40
  -1  -2   0  980.50   20.20
   0   2   0   83.49    2.50
   0   2   0   85.59    2.80
   0   2   0   86.39    2.30
   0   2   0   82.59    2.40
   0  -2   0   89.99    2.70
   0  -2   0   88.49    2.50
   0  -2   0   91.79    2.30
   0  -2   0   89.79    2.40
   0  -2   0   86.59    2.30
  -1   2   0    9.10    1.00
  -1   2   0    8.70    1.20
  -1   2   0    7.80    1.00
   1  -2   0    9.00    1.10
   1  -2   0    8.00    1.00
   1  -2   0    8.00    1.00
  -2   2   0 1528.35   31.10
  -2   2   0 1521.25   31.60
  -2   2   0 1592.44   31.50
   2  -2   0 1567.44   31.50
   2  -2   0 1550.64   31.50
  -3   2   0  233.58    6.50
  -3   2   0  240.38    6.10
  -3   2   0  240.38    5.30
  -3   2   0  220.88    5.30
   3  -2   0  231.38    5.80
   3  -2   0  241.48    6.60
   3  -2   0  244.38    6.10
  -4   2   0  216.28    5.60
  -4   2   0  209.38    5.10
  -4   2   0  203.58    6.40
  -4   2   0  206.48    5.00
   4  -2   0  210.58    5.60
   4  -2   0  202.48    6.50
   4  -2   0  198.08    5.30
  -5   2   0   18.20    2.80
  -5   2   0   20.80    1.80
  -5   2   0   20.10    1.90
   5  -2   0   24.40    3.00
   5  -2   0   18.10    1.90
   5  -2   0   19.20    1.80
  -6   2   0   25.70    2.60
  -6   2   0   27.40    3.70
   6  -2   0   24.50    2.70
   6  -2   0   30.30    3.70
   7  -2   0   11.80    3.60
  -8   2   0   19.00    4.90
   7   4  -1   -1.10    4.60
  -7  -4   1   -3.90    3.70
   6   4  -1   17.50    3.80
  -6  -4   1   13.70    3.20
  -6  -4   1   14.60    3.30
  -5  -4   1   33.10    3.10
  -5  -4   1   38.30    3.60
   4   4  -1 1031.60   23.10
   4   4  -1 1038.00   23.70
  -4  -4   1 1050.79   22.90
  -4  -4   1 1041.10   23.20
   3   4  -1   41.90    2.10
   3   4  -1   45.60    3.10
   3   4  -1   42.60    2.70
  -3  -4   1   43.70    2.80
  -3  -4   1   47.70    2.70
  -3  -4   1   42.10    2.20
   2   4  -1   48.30    2.60
   2   4  -1   48.40    1.90
   2   4  -1   48.50    2.10
   2   4  -1   48.10    2.80
  -2  -4   1   49.10    1.90
  -2  -4   1   46.30    2.50
  -2  -4   1   48.80    2.10
  -2  -4   1   47.70    1.90
   1   4  -1  181.18    5.60
   1   4  -1  179.88    5.00
   1   4  -1  176.58    5.00
  -1  -4   1  184.78    4.90
  -1  -4   1  184.18    5.00
  -1  -4   1  184.48    5.00
  -1  -4   1  177.88    4.70
  -1  -4   1  176.68    5.00
  -1  -4   1  175.08    4.70
   0   4  -1   44.30    1.90
   0   4  -1   49.20    2.30
   0   4  -1   50.99    2.70
   0  -4   1   48.00    1.90
   0  -4   1   43.60    2.30
   0  -4   1   51.69    2.10
   0  -4   1   53.79    2.20
   0  -4   1   47.90    1.90
   0  -4   1   50.79    2.30
  -1   4  -1  180.58    5.20
  -1   4  -1  180.18    5.20
   1  -4   1  181.08    5.10
   1  -4   1  178.88    5.20
   1  -4   1  182.98    5.10
  -2   4  -1  210.58    6.10
  -2   4  -1  210.38    6.00
  -2   4  -1  209.68    6.40
   2  -4   1  208.38    6.10
   2  -4   1  210.68    5.90
  -3   4  -1   80.09    3.50
  -3   4  -1   78.49    3.70
   3  -4   1   77.59    3.50
   3  -4   1   76.29    3.40
  -4   4  -1  326.87    8.70
  -4   4  -1  311.57    9.20
   4  -4   1  314.27    9.20
   4  -4   1  319.57    8.60
  -5   4  -1  109.19    7.30
   5  -4   1  114.39    5.40
   5  -4   1  115.69    4.50
  -6   4  -1   -1.30    2.80
   6  -4   1   -2.30    2.20
   6  -4   1    1.10    2.70
  -7   4  -1    7.70    3.60
   7  -4   1    8.70    3.80
   6   6  -2   27.40    4.80
  -6  -6   2   24.20    4.10
   5   6  -2   16.50    3.90
  -5  -6   2   16.30    2.90
  -5  -6   2   10.40    3.00
   4   6  -2  927.01   22.60
   4   6  -2  918.31   22.20
  -4  -6   2  964.50   22.10
  -4  -6   2  934.91   21.60
   3   6  -2   44.70    3.40
   3   6  -2   41.10    3.70
  -3  -6   2   47.40    2.30
  -3  -6   2   47.30    3.20
  -3  -6   2   45.50    2.20
  -3  -6   2   48.90    3.20
   2   6  -2    2.30    1.40
   2   6  -2   -1.70    1.60
   2   6  -2    0.40    1.90
  -2  -6   2    0.80    1.20
  -2  -6   2    2.50    1.60
  -2  -6   2    1.30    1.40
   1   6  -2   33.20    3.00
   1   6  -2   31.20    2.40
   1   6  -2   37.20    2.80
   1   6  -2   31.40    2.30
  -1  -6   2   34.80    2.50
  -1  -6   2   33.20    2.20
  -1  -6   2   32.00    2.20
   0   6  -2  101.99    3.50
   0   6  -2  102.89    4.10
   0   6  -2  102.19    4.10
   0  -6   2  101.49    4.00
   0  -6   2  100.19    3.20
   0  -6   2   98.69    3.40
  -1   6  -2  191.88    4.70
  -1   6  -2  183.28    6.00
  -1   6  -2  187.98    6.10
   1  -6   2  191.98    6.00
   1  -6   2  188.28    6.10
   1  -6   2  188.88    4.70
   1  -6   2  186.08    4.60
  -2   6  -2   13.90    2.40
  -2   6  -2   13.60    2.40
   2  -6   2   11.30    2.00
   2  -6   2   11.30    2.10
  -3   6  -2   58.19    3.60
  -3   6  -2   57.59    3.90
   3  -6   2   59.79    3.50
   3  -6   2   60.79    3.60
  -4   6  -2  184.88    7.30
   4  -6   2  178.98    6.80
   4  -6   2  180.18    7.80
  -5   6  -2   45.40    4.30
   5  -6   2   36.30    3.50
   5  -6   2   42.40    4.00
  -6   6  -2   15.00    4.00
   6  -6   2   22.00    4.20
   6  -6   2   13.30    3.50
   5   8  -3   -2.30    4.40
  -5  -8   3    7.10    3.60
   4   8  -3   41.50    4.80
  -4  -8   3   37.80    5.00
   3   8  -3   61.69    4.30
   3   8  -3   44.40    7.10
  -3  -8   3   48.80    3.00
  -3  -8   3   61.39    4.10
  -3  -8   3   43.20    4.20
   2   8  -3  357.96   11.30
   2   8  -3  378.56   10.40
  -2  -8   3  358.56    9.70
  -2  -8   3  373.96   10.30
  -2  -8   3  363.46   10.90
   1   8  -3    2.00    1.90
   1   8  -3    1.50    2.30
   1   8  -3   -0.40    2.00
  -1  -8   3    1.50    1.40
  -1  -8   3   -2.30    1.70
  -1  -8   3    0.70    1.90
   0   8  -3  193.48    6.80
   0   8  -3  196.18    5.80
   0   8  -3  204.08    7.10
   0  -8   3  199.18    7.00
   0  -8   3  203.08    5.80
   0  -8   3  200.28    6.90
   0  -8   3  197.98    7.00
  -1   8  -3   90.29    4.70
  -1   8  -3   88.79    4.70
   1  -8   3   95.29    3.30
   1  -8   3   98.39    4.70
   1  -8   3   90.89    4.30
  -2   8  -3  127.29    5.90
  -2   8  -3  134.39    5.80
   2  -8   3  127.09    5.30
   2  -8   3  135.69    5.90
  -3   8  -3   40.50    4.00
  -3   8  -3   38.70    3.90
   3  -8   3   40.40    3.40
   3  -8   3   39.90    3.60
  -4   8  -3   -0.40    3.00
   4  -8   3   -4.20    2.70
   4  -8   3   -1.00    2.90
  -5   8  -3   75.89    6.20
   5  -8   3   77.79    5.50
   5  -8   3   65.19    5.10
   6  -8   3   35.40    5.40
   4  10  -4   88.79    7.20
   3  10  -4   22.20    5.10
  -3 -10   4   19.80    4.50
  -3 -10   4   26.50    4.10
  -2 -10   4    5.50    3.10
  -2 -10   4    7.30    3.70
   1  10  -4   11.30    3.60
  -1 -10   4   15.20    2.50
  -1 -10   4   16.80    3.20
  -1 -10   4    8.40    3.10
  -1 -10   4   13.50    3.50
   0  10  -4   40.00    4.30
   0 -10   4   41.50    4.10
   0 -10   4   38.30    3.60
   0 -10   4   33.30    3.90
  -1  10  -4   34.90    4.30
   1 -10   4   35.50    4.00
   1 -10   4   41.20    3.70
  -2  10  -4   44.70    5.10
   2 -10   4   54.69    4.80
   2 -10   4   60.69    4.30
  -3  10  -4    8.10    4.30
   3 -10   4   16.80    3.50
   4 -10   4    5.80    4.10
   1 -11   7   31.70    4.70
  -1  11  -7   19.20    4.70
   0 -11   7   -2.20    3.90
   0 -11   7    4.60    3.70
   0  11  -7   -0.70    4.10
  -1 -11   7    6.90    4.40
  -1 -11   7   -0.80    4.10
  -2 -11   7   21.30    5.20
  -2 -11   7   27.00    4.50
   2  11  -7   16.70    4.30
  -3 -11   7   20.00    6.20
   4  -9   6   -3.00    3.20
   4  -9   6   -4.50    3.50
  -4   9  -6   -3.90    3.70
   3  -9   6    3.50    3.20
   3  -9   6   10.00    2.80
  -3   9  -6   11.10    3.50
   2  -9   6   54.19    4.20
   2  -9   6   48.70    3.60
  -2   9  -6   52.19    4.70
   1  -9   6   89.19    4.90
   1  -9   6   86.29    3.40
   1  -9   6   87.69    5.10
   1  -9   6   89.89    4.00
  -1   9  -6   93.89    5.20
   0  -9   6   21.60    3.40
   0  -9   6   22.30    2.60
   0  -9   6   25.90    3.20
   0  -9   6   21.90    2.50
   0   9  -6   26.60    3.70
   0   9  -6   19.50    2.70
  -1  -9   6   -0.20    1.90
  -1  -9   6    1.10    2.70
  -1  -9   6   -0.80    2.20
   1   9  -6    1.80    2.20
   1   9  -6   -1.00    3.00
  -2  -9   6   25.70    4.10
  -2  -9   6   33.30    3.20
  -2  -9   6   28.90    4.00
   2   9  -6   32.30    3.70
   2   9  -6   32.00    4.00
  -3  -9   6   32.30    3.70
  -3  -9   6   25.70    4.60
   3   9  -6   32.90    5.30
   3   9  -6   30.90    4.20
  -4  -9   6   15.20    3.60
  -4  -9   6   20.60    4.60
   6  -7   5    6.10    4.00
   6  -7   5   -2.80    3.90
  -6   7  -5   -1.00    4.10
   5  -7   5  217.68    8.30
   5  -7   5  235.48    8.50
  -5   7  -5  227.28    9.00
   4  -7   5   76.59    4.80
   4  -7   5   74.99    4.20
  -4   7  -5   76.99    5.10
   3  -7   5    5.00    1.90
   3  -7   5    3.00    2.20
  -3   7  -5    4.90    2.60
   2  -7   5   30.20    2.30
   2  -7   5   32.00    3.00
  -2   7  -5   31.60    3.20
   1  -7   5   89.39    3.50
   1  -7   5   90.09    4.20
   1  -7   5   88.79    3.20
  -1   7  -5   89.69    3.20
  -1   7  -5   84.19    4.40
   0  -7   5  129.79    4.90
   0  -7   5  128.59    4.60
   0  -7   5  122.49    5.10
   0   7  -5  128.19    5.30
   0   7  -5  124.49    4.30
  -1  -7   5   25.30    2.40
  -1  -7   5   26.10    2.80
   1   7  -5   27.20    2.50
   1   7  -5   27.10    3.10
   1   7  -5   29.20    2.70
  -2  -7   5    1.60    1.50
  -2  -7   5    0.70    2.00
  -2  -7   5    0.60    1.60
   2   7  -5   -0.90    1.70
   2   7  -5   -0.70    2.10
  -3  -7   5   96.49    6.00
  -3  -7   5   95.49    5.30
  -3  -7   5  101.99    3.80
   3   7  -5   96.79    4.90
   3   7  -5   88.99    7.00
  -4  -7   5   53.49    3.90
  -4  -7   5   46.70    4.90
   4   7  -5   45.40    4.20
   4   7  -5   47.30    4.50
  -5  -7   5   10.00    3.10
  -5  -7   5    5.00    3.50
   5   7  -5    7.50    3.40
   5   7  -5   -1.70    3.60
  -6  -7   5   -3.20    4.30
   6   7  -5    1.00    4.50
   7  -5   4    1.10    4.00
  -7   5  -4    9.00    4.20
   6  -5   4   14.90    2.90
   6  -5   4   14.20    3.50
  -6   5  -4   18.70    3.70
   5  -5   4  124.19    5.70
   5  -5   4  130.69    5.30
  -5   5  -4  128.49    6.00
   4  -5   4   54.39    3.40
   4  -5   4   51.69    3.40
  -4   5  -4   57.69    3.80
   3  -5   4  461.55   11.40
   3  -5   4  473.05   11.70
  -3   5  -4  457.95   11.90
   2  -5   4    4.10    1.30
  -2   5  -4    3.60    1.30
  -2   5  -4    2.60    1.50
   1  -5   4   86.09    3.00
   1  -5   4   82.69    3.10
   1  -5   4   85.49    3.60
   1  -5   4   93.09    2.80
  -1   5  -4   86.89    3.70
  -1   5  -4   88.49    2.70
   0  -5   4  363.56    8.40
   0  -5   4  356.66    8.90
   0  -5   4  356.16    8.40
   0   5  -4  361.16    8.50
   0   5  -4  356.46    9.10
  -1  -5   4  123.59    3.70
  -1  -5   4  128.69    4.60
  -1  -5   4  125.39    4.00
  -1  -5   4  124.79    4.10
   1   5  -4  127.69    4.60
   1   5  -4  130.19    4.10
  -2  -5   4    7.80    2.00
  -2  -5   4    6.80    1.20
  -2  -5   4    6.40    1.40
   2   5  -4    7.90    1.80
   2   5  -4    6.40    1.60
  -3  -5   4   68.59    3.80
  -3  -5   4   66.79    2.40
  -3  -5   4   65.99    2.30
  -3  -5   4   61.79    3.60
   3   5  -4   66.89    3.60
   3   5  -4   71.19    3.70
  -4  -5   4   54.19    3.90
  -4  -5   4   58.39    3.80
   4   5  -4   63.79    3.90
   4   5  -4   61.69    3.90
  -5  -5   4   20.40    3.30
  -5  -5   4   19.50    3.00
   5   5  -4   17.10    3.10
   5   5  -4   19.00    4.10
  -6  -5   4   21.90    4.20
   6   5  -4   17.50    3.60
  -7  -5   4    4.70    4.50
   7   5  -4    0.90    5.10
   7  -3   3   27.40    4.60
  -7   3  -3   37.90    4.50
   6  -3   3    9.60    3.10
   6  -3   3   11.90    2.30
  -6   3  -3    8.20    2.80
   5  -3   3  268.47    8.60
   5  -3   3  277.47    7.60
  -5   3  -3  262.77    7.10
  -5   3  -3  281.97    8.60
   4  -3   3   88.99    3.50
   4  -3   3   87.49    4.00
   4  -3   3   96.89    2.80
  -4   3  -3   83.09    2.90
  -4   3  -3   88.69    4.00
  -4   3  -3   87.29    2.70
   3  -3   3  473.95    9.80
   3  -3   3  468.35   11.00
   3  -3   3  464.05   10.80
   3  -3   3  454.75   10.70
  -3   3  -3  449.36    9.90
  -3   3  -3  458.65   11.10
   2  -3   3  198.88    5.30
   2  -3   3  196.78    5.40
   2  -3   3  205.98    4.60
   2  -3   3  203.68    5.50
   2  -3   3  206.98    5.30
  -2   3  -3  205.18    5.70
  -2   3  -3  193.48    4.70
  -2   3  -3  203.68    5.30
  -2   3  -3  205.28    5.40
   1  -3   3   47.60    2.00
   1  -3   3   50.59    2.10
   1  -3   3   50.29    1.70
   1  -3   3   46.00    2.40
   1  -3   3   48.40    1.80
  -1   3  -3   50.09    2.10
  -1   3  -3   47.20    1.60
  -1   3  -3   50.39    1.90
  -1   3  -3   47.20    2.20
   0  -3   3  506.75   10.30
   0  -3   3  505.45   10.40
   0  -3   3  479.25   10.70
   0  -3   3  475.95   10.60
   0  -3   3  482.55   10.60
   0   3  -3  487.45   10.70
   0   3  -3  485.45   10.40
   0   3  -3  482.45   10.80
  -1  -3   3  482.25   10.40
  -1  -3   3  475.05   10.60
  -1  -3   3  488.65   10.80
  -1  -3   3  457.55   10.20
  -1  -3   3  460.15   10.10
  -1  -3   3  479.75   10.10
   1   3  -3  478.65   10.50
   1   3  -3  478.35   10.20
   1   3  -3  470.75   10.60
   1   3  -3  453.85   10.20
  -2  -3   3  287.87    7.10
  -2  -3   3  290.57    7.00
  -2  -3   3  290.87    7.60
  -2  -3   3  297.07    6.40
  -2  -3   3  293.87    7.40
  -2  -3   3  277.77    6.40
   2   3  -3  297.37    7.30
   2   3  -3  294.67    7.20
   2   3  -3  284.97    7.30
  -3  -3   3    8.00    1.80
  -3  -3   3    6.20    1.50
   3   3  -3    5.90    1.50
   3   3  -3    7.60    1.80
  -4  -3   3   92.69    4.20
  -4  -3   3   94.69    4.10
   4   3  -3   91.09    4.10
   4   3  -3   95.79    4.40
  -5  -3   3  111.19    5.10
  -5  -3   3  104.99    4.70
   5   3  -3  113.19    5.30
   5   3  -3  106.99    5.00
  -6  -3   3   20.90    3.40
   6   3  -3   18.30    3.50
   6   3  -3   16.10    3.00
  -7  -3   3    5.40    3.40
  -7  -3   3    1.80    3.90
  -8  -3   3   -1.40    5.10
  -8   1  -2   14.50    5.00
   7  -1   2   12.60    4.10
  -7   1  -2   12.10    3.20
   6  -1   2   50.89    4.30
  -6   1  -2   56.79    3.40
  -6   1  -2   57.49    4.00
   5  -1   2   60.29    3.80
   5  -1   2   55.89    2.30
  -5   1  -2   63.99    3.70
  -5   1  -2   61.69    3.20
   4  -1   2   85.99    2.70
   4  -1   2   89.19    2.90
   4  -1   2   87.59    3.80
   4  -1   2   85.49    2.80
  -4   1  -2   86.29    3.20
  -4   1  -2   82.29    3.50
  -4   1  -2   81.29    2.80
   3  -1   2 1180.18   23.60
   3  -1   2 1191.58   24.50
   3  -1   2 1180.68   23.70
   3  -1   2 1154.78   23.70
   3  -1   2 1158.78   24.20
  -3   1  -2 1168.78   24.20
  -3   1  -2 1167.18   23.80
  -3   1  -2 1162.68   23.80
  -3   1  -2 1150.78   24.50
   2  -1   2  298.77    6.90
   2  -1   2  299.67    6.70
   2  -1   2  303.17    6.70
   2  -1   2  313.87    6.60
   2  -1   2  293.57    7.00
  -2   1  -2  285.87    6.90
  -2   1  -2  287.67    6.60
  -2   1  -2  305.17    7.00
  -2   1  -2  304.57    6.70
   1  -1   2    2.00    0.70
   1  -1   2    1.20    0.80
   1  -1   2    1.00    0.70
   1  -1   2    1.50    0.70
  -1   1  -2    1.40    0.80
  -1   1  -2    2.70    0.80
  -1   1  -2    0.60    0.70
  -1   1  -2    0.40    0.70
  -1  -1   2  191.58    4.80
  -1  -1   2  198.38    4.50
  -1  -1   2  205.08    4.30
  -1  -1   2  197.28    4.60
   1   1  -2  196.58    4.20
   1   1  -2  181.78    4.50
   1   1  -2  190.48    4.60
   1   1  -2  198.48    4.80
  -2  -1   2  532.75   11.60
  -2  -1   2  523.05   11.40
  -2  -1   2  527.75   11.30
   2   1  -2  521.95   11.30
   2   1  -2  512.95   11.50
   2   1  -2  541.95   11.50
  -3  -1   2   13.30    1.30
  -3  -1   2   17.30    1.40
  -3  -1   2   15.80    1.90
  -3  -1   2   10.40    1.70
   3   1  -2   14.60    1.50
   3   1  -2   14.80    1.50
   3   1  -2   16.60    1.80
  -4  -1   2    0.30    1.60
  -4  -1   2    0.00    1.30
   4   1  -2    0.50    1.20
   4   1  -2   -0.10    1.30
  -5  -1   2   90.39    4.00
  -5  -1   2   95.69    4.50
   5   1  -2   90.99    4.10
   5   1  -2   89.59    4.60
  -6  -1   2   24.50    3.20
  -6  -1   2   19.50    3.50
   6   1  -2   32.10    3.90
  -7  -1   2   26.20    4.20
  -7  -1   2   23.60    3.30
   7   1  -2   25.80    4.60
  -8  -1   2   -6.70    4.50
   7   1   1    1.40    3.70
  -7  -1  -1    5.10    3.10
  -7  -1  -1   -0.40    2.80
   6   1   1   35.20    4.20
  -6  -1  -1   34.70    3.30
  -6  -1  -1   38.00    3.40
   5   1   1   19.80    2.90
  -5  -1  -1   19.80    2.50
  -5  -1  -1   17.10    2.50
   4   1   1   -0.20    1.50
  -4  -1  -1   -1.80    1.20
  -4  -1  -1   -0.30    1.20
   3   1   1  956.70   20.70
   3   1   1  944.11   20.30
   3   1   1  987.50   20.20
  -3  -1  -1  956.30   20.30
  -3  -1  -1  995.10   20.20
   2   1   1  927.61   19.20
   2   1   1  909.51   18.90
   2   1   1  953.60   18.70
  -2  -1  -1  915.41   18.90
  -2  -1  -1  919.91   18.60
  -2  -1  -1  906.81   19.10
  -2  -1  -1  887.51   18.80
   1   1   1  465.15    9.30
   1   1   1  436.16    9.30
   1   1   1  474.05    9.60
   1   1   1  434.56    9.70
  -1  -1  -1  463.25    9.30
  -1  -1  -1  488.35    9.80
  -1  -1  -1  463.45    9.30
  -1  -1  -1  425.26    9.60
  -1  -1  -1  474.95    9.70
   0   1   1   54.99    1.50
   0  -1  -1   59.89    1.50
   0  -1  -1   57.19    2.10
   0  -1  -1   57.69    2.10
  -1   1   1    6.70    1.10
  -1   1   1    8.00    1.10
  -1   1   1    5.80    0.90
   1  -1  -1    6.40    1.20
   1  -1  -1    8.80    1.10
   1  -1  -1    6.00    1.00
  -2   1   1  683.73   14.30
  -2   1   1  668.63   13.60
  -2   1   1  686.63   14.40
  -2   1   1  644.14   13.80
  -2   1   1  690.63   13.50
   2  -1  -1  682.13   14.40
   2  -1  -1  662.53   13.80
   2  -1  -1  651.33   13.50
   2  -1  -1  668.23   14.30
  -3   1   1  377.86    8.30
  -3   1   1  381.16    9.30
  -3   1   1  389.26    8.30
  -3   1   1  374.66    8.40
   3  -1  -1  370.06    9.20
   3  -1  -1  370.86    8.30
   3  -1  -1  391.96    8.40
   3  -1  -1  377.46    9.30
  -4   1   1    9.30    1.10
  -4   1   1   12.20    1.70
  -4   1   1   11.00    1.10
  -4   1   1   11.90    2.00
   4  -1  -1    9.10    1.20
   4  -1  -1   10.00    2.00
  -5   1   1   29.60    2.40
  -5   1   1   34.30    3.10
   5  -1  -1   34.70    1.90
   5  -1  -1   34.40    3.20
   5  -1  -1   27.40    2.10
  -6   1   1   47.80    4.90
  -6   1   1   51.49    3.20
   6  -1  -1   57.09    4.40
  -7   1   1   36.90    4.50
   7  -1  -1   36.30    4.70
  -8   1   1    6.40    4.90
   7   3   0    4.20    4.00
  -7  -3   0   -0.40    3.30
  -7  -3   0    7.80    3.30
   6   3   0   44.40    4.50
  -6  -3   0   39.10    4.00
  -6  -3   0   51.39    3.90
   5   3   0    2.20    2.10
  -5  -3   0    3.80    2.10
  -5  -3   0    3.50    1.80
   4   3   0   55.29    3.40
  -4  -3   0   55.49    3.10
  -4  -3   0   61.09    3.10
   3   3   0  104.19    4.20
   3   3   0  105.39    3.90
   3   3   0  100.09    3.40
  -3  -3   0  107.29    3.90
   2   3   0  311.27    7.80
   2   3   0  293.07    6.60
   2   3   0  306.87    7.60
   2   3   0  304.27    7.10
  -2  -3   0  313.67    7.30
  -2  -3   0  304.17    7.50
  -2  -3   0  310.87    7.10
  -2  -3   0  305.27    6.60
  -2  -3   0  289.87    7.50
  -2  -3   0  285.77    7.30
   1   3   0  593.24   12.70
   1   3   0  594.84   12.80
   1   3   0  588.24   12.60
   1   3   0  624.44   13.30
  -1  -3   0  594.34   12.80
  -1  -3   0  598.34   13.00
  -1  -3   0  620.54   12.60
  -1  -3   0  568.84   12.70
  -1  -3   0  606.94   12.80
  -1  -3   0  613.04   12.60
   0   3   0  230.28    5.60
   0   3   0  231.08    6.10
   0   3   0  235.68    5.50
   0   3   0  211.18    5.20
   0  -3   0  240.28    5.30
   0  -3   0  229.88    5.60
   0  -3   0  239.08    5.50
   0  -3   0  236.38    6.00
   0  -3   0  225.28    5.20
  -1   3   0  148.89    4.90
  -1   3   0  158.18    4.30
   1  -3   0  156.98    4.30
   1  -3   0  169.28    4.50
   1  -3   0  154.28    4.30
  -2   3   0   69.59    2.80
  -2   3   0   70.59    3.00
  -2   3   0   67.89    2.70
   2  -3   0   72.99    3.00
   2  -3   0   68.49    2.70
   2  -3   0   67.39    2.60
  -3   3   0  417.86    9.80
  -3   3   0  416.06   10.30
   3  -3   0  431.86   10.00
   3  -3   0  382.36    9.50
   3  -3   0  412.96   10.20
  -4   3   0   57.49    2.90
  -4   3   0   55.79    3.30
   4  -3   0   53.49    2.70
   4  -3   0   55.29    3.50
  -5   3   0   30.90    3.20
   5  -3   0   28.60    3.20
   5  -3   0   25.20    2.20
  -6   3   0    4.10    2.80
   6  -3   0    2.90    2.80
   6  -3   0    2.30    1.90
  -7   3   0   39.50    4.70
   7  -3   0   27.50    4.80
   6   5  -1   16.30    4.40
  -6  -5   1   18.00    3.60
  -6  -5   1   20.40    3.80
   5   5  -1  187.78    7.80
  -5  -5   1  182.68    7.40
  -5  -5   1  178.78    6.60
   4   5  -1   44.70    4.00
  -4  -5   1   56.09    3.70
  -4  -5   1   53.99    3.20
   3   5  -1  161.48    5.80
   3   5  -1  169.58    6.30
  -3  -5   1  162.18    5.70
  -3  -5   1  177.38    4.50
  -3  -5   1  166.08    4.40
  -3  -5   1  176.08    5.70
   2   5  -1   58.19    3.00
   2   5  -1   59.69    2.50
   2   5  -1   58.29    3.30
  -2  -5   1   60.89    3.00
  -2  -5   1   62.69    2.50
  -2  -5   1   56.99    3.00
  -2  -5   1   61.09    2.30
  -2  -5   1   53.19    2.40
   1   5  -1    7.50    1.40
   1   5  -1    8.50    2.00
   1   5  -1    9.50    1.60
  -1  -5   1    7.10    1.30
  -1  -5   1    7.00    1.10
  -1  -5   1    7.30    1.20
   0   5  -1  267.37    6.40
   0   5  -1  266.47    7.00
   0   5  -1  261.57    7.10
   0  -5   1  269.47    6.40
   0  -5   1  271.87    6.40
   0  -5   1  269.47    7.90
   0  -5   1  266.47    7.10
   0  -5   1  261.17    6.90
  -1   5  -1  233.58    6.60
  -1   5  -1  234.48    6.60
   1  -5   1  235.38    6.80
   1  -5   1  232.08    5.30
   1  -5   1  243.38    5.40
   1  -5   1  245.48    6.80
  -2   5  -1   37.10    2.60
  -2   5  -1   38.40    2.60
   2  -5   1   39.40    2.50
   2  -5   1   31.70    2.50
  -3   5  -1  345.87    9.20
  -3   5  -1  334.57    9.40
   3  -5   1  331.47    9.30
   3  -5   1  343.17    9.30
  -4   5  -1  125.29    5.50
  -4   5  -1  129.49    5.10
   4  -5   1  127.09    5.00
   4  -5   1  118.79    5.30
  -5   5  -1   29.50    3.60
  -5   5  -1   27.60    3.00
   5  -5   1   19.40    3.50
   5  -5   1   19.10    2.80
  -6   5  -1    3.20    3.20
   6  -5   1    2.60    3.10
   6  -5   1    2.70    2.60
  -7   5  -1   27.70    5.10
   7  -5   1   37.50    4.90
   6   7  -2    8.90    4.90
   5   7  -2   19.80    4.20
  -5  -7   2   23.70    3.90
  -5  -7   2   21.30    4.20
   4   7  -2   72.19    5.20
  -4  -7   2   70.99    4.50
  -4  -7   2   65.09    4.30
   3   7  -2   17.40    3.50
  -3  -7   2   14.70    2.70
  -3  -7   2   24.50    1.90
   2   7  -2   -0.60    1.60
   2   7  -2    3.00    2.40
   2   7  -2    2.00    1.90
  -2  -7   2    0.40    1.90
  -2  -7   2    4.40    1.70
  -2  -7   2    4.30    1.50
   1   7  -2   98.99    4.00
   1   7  -2  101.79    4.20
   1   7  -2   98.09    5.00
   1   7  -2   99.79    4.60
  -1  -7   2  104.79    4.10
  -1  -7   2  102.99    3.90
  -1  -7   2  102.19    4.40
   0   7  -2  136.49    5.20
   0   7  -2  132.79    5.10
   0   7  -2  135.39    4.30
   0  -7   2  135.59    4.20
   0  -7   2  141.09    5.10
   0  -7   2  133.39    5.30
  -1   7  -2   14.10    2.40
  -1   7  -2   14.20    2.50
   1  -7   2   16.60    1.40
   1  -7   2   16.40    2.20
   1  -7   2   11.90    2.30
  -2   7  -2   14.90    2.60
  -2   7  -2   12.60    2.60
   2  -7   2   11.80    2.20
   2  -7   2   10.30    2.40
  -3   7  -2   80.49    4.40
   3  -7   2   75.29    4.30
   3  -7   2   80.59    4.30
  -4   7  -2   46.80    4.00
  -4   7  -2   49.30    4.30
   4  -7   2   45.10    3.80
   4  -7   2   42.60    4.50
  -5   7  -2   26.50    4.30
   5  -7   2   30.50    4.00
   5  -7   2   38.80    3.90
  -6   7  -2    5.20    3.90
   6  -7   2    6.20    3.70
   6  -7   2    8.80    3.70
   5   9  -3   17.60    5.30
   4   9  -3   29.30    5.10
  -4  -9   3   33.30    4.40
   3   9  -3   30.70    5.00
  -3  -9   3   25.10    3.60
  -3  -9   3   19.50    3.80
   2   9  -3   12.30    3.90
  -2  -9   3   16.90    2.60
  -2  -9   3   17.40    3.10
   1   9  -3   18.10    3.90
  -1  -9   3   18.80    2.60
  -1  -9   3   14.80    2.50
   0   9  -3   47.50    3.90
   0   9  -3   30.80    4.10
   0  -9   3   43.80    3.60
   0  -9   3   37.60    3.70
   0  -9   3   41.60    3.40
   0  -9   3   44.30    2.70
  -1   9  -3   17.20    3.30
  -1   9  -3   19.80    3.50
   1  -9   3   17.90    3.00
   1  -9   3   20.90    2.80
  -2   9  -3   58.09    4.50
  -2   9  -3   48.80    4.40
   2  -9   3   47.20    4.00
  -3   9  -3    3.30    3.10
   3  -9   3    6.70    3.20
   3  -9   3    9.60    2.80
  -4   9  -3   23.20    4.70
   4  -9   3   25.80    4.00
   4  -9   3   26.60    4.30
   5  -9   3   43.70    5.50
  -2 -11   4   15.80    3.70
  -1 -11   4   20.80    4.30
  -1 -11   4   29.80    4.50
  -1 -11   4   21.80    4.10
   0 -11   4   12.70    3.70
   0 -11   4   13.00    3.90
   0 -11   4   19.30    3.90
   1 -11   4   32.60    4.70
   1 -11   4   28.20    4.40
  -2  11  -4   25.40    4.90
  -3  10  -7   45.10    5.70
   2 -10   7   27.70    4.10
   1 -10   7   18.80    3.40
   1 -10   7   20.60    3.80
  -1  10  -7   19.00    4.00
   0 -10   7    4.40    2.20
   0 -10   7    5.00    3.00
   0 -10   7   -0.90    3.10
   0  10  -7    7.40    3.50
  -1 -10   7   28.30    3.30
  -1 -10   7   28.70    4.40
  -1 -10   7   25.40    3.70
   1  10  -7   19.30    3.90
  -2 -10   7   41.60    4.20
  -2 -10   7   49.60    3.90
  -2 -10   7   38.80    4.90
   2  10  -7   53.39    4.90
  -3 -10   7    2.00    4.60
  -3 -10   7    9.40    3.40
   3  10  -7    8.90    3.90
  -4 -10   7    4.30    5.60
   6  -8   6   19.30    4.70
   5  -8   6   21.70    4.00
   5  -8   6   19.50    3.70
  -5   8  -6   18.70    4.20
   4  -8   6    6.90    3.10
   4  -8   6    6.90    2.90
  -4   8  -6   11.00    3.50
   3  -8   6   21.50    3.20
   3  -8   6   16.20    2.80
  -3   8  -6   27.70    3.60
   2  -8   6  118.19    5.60
   2  -8   6  120.19    4.60
  -2   8  -6  120.49    5.60
   1  -8   6   79.49    4.40
   1  -8   6   79.39    3.60
  -1   8  -6   83.09    3.30
   0  -8   6    9.60    2.40
   0  -8   6   12.20    2.70
   0  -8   6    9.40    2.00
   0   8  -6   11.80    2.70
   0   8  -6   13.90    2.10
  -1  -8   6    8.50    2.40
  -1  -8   6    4.10    2.00
   1   8  -6    6.80    2.60
   1   8  -6    8.00    2.20
  -2  -8   6   39.90    3.00
  -2  -8   6   34.90    3.70
  -2  -8   6   44.90    4.10
   2   8  -6   39.60    3.70
   2   8  -6   47.00    3.50
  -3  -8   6   47.50    3.80
  -3  -8   6   46.10    4.50
  -3  -8   6   40.10    3.00
   3   8  -6   48.30    3.90
   3   8  -6   54.99    4.20
  -4  -8   6    7.80    3.60
  -4  -8   6    4.50    2.80
   4   8  -6    5.80    3.70
  -5  -8   6    6.10    3.50
   5   8  -6   -4.40    4.40
   5   8  -6   -4.20    4.00
   6   8  -6   23.00    5.70
   7  -6   5   -6.20    4.50
   6  -6   5   28.60    4.10
   6  -6   5   25.80    3.90
  -6   6  -5   27.10    4.30
   5  -6   5   68.59    5.00
   5  -6   5   76.59    4.60
  -5   6  -5   76.59    4.90
   4  -6   5   36.50    3.00
  -4   6  -5   40.90    3.80
   3  -6   5    0.30    1.90
   3  -6   5   -0.80    1.50
  -3   6  -5    0.00    1.90
   2  -6   5  121.19    4.80
   2  -6   5  124.29    4.20
  -2   6  -5  124.09    3.40
  -2   6  -5  124.19    5.10
   1  -6   5  183.48    5.20
   1  -6   5  184.68    5.00
   1  -6   5  182.38    5.90
   1  -6   5  181.98    5.30
  -1   6  -5  184.18    6.10
   0  -6   5  297.27    7.50
   0  -6   5  283.07    8.20
   0  -6   5  277.97    7.10
   0  -6   5  288.37    7.90
   0   6  -5  282.57    7.30
   0   6  -5  298.57    8.30
  -1  -6   5    7.30    1.80
  -1  -6   5    6.10    1.60
   1   6  -5    8.40    1.50
   1   6  -5    9.20    2.10
   1   6  -5    8.90    1.80
  -2  -6   5  128.79    4.30
  -2  -6   5  127.19    5.40
   2   6  -5  128.19    4.80
   2   6  -5  121.19    4.80
  -3  -6   5   41.90    3.20
  -3  -6   5   41.80    2.10
  -3  -6   5   39.60    3.70
  -3  -6   5   40.80    2.20
   3   6  -5   39.20    3.20
   3   6  -5   47.50    3.40
  -4  -6   5   17.80    3.60
  -4  -6   5   17.90    3.00
   4   6  -5   16.00    3.30
  -5  -6   5    9.50    3.30
  -5  -6   5   10.60    2.60
   5   6  -5   17.40    3.60
   5   6  -5   10.80    3.20
  -6  -6   5   12.50    3.70
   6   6  -5   21.40    4.40
   6   6  -5   14.30    4.20
   7  -4   4    4.40    3.70
  -7   4  -4   15.60    3.80
   6  -4   4    3.70    2.40
   6  -4   4   -0.80    2.60
  -6   4  -4    2.10    2.90
   5  -4   4   59.99    4.00
   5  -4   4   57.99    3.40
  -5   4  -4   58.09    4.10
   4  -4   4  175.48    6.00
   4  -4   4  185.88    5.90
  -4   4  -4  178.38    6.20
   3  -4   4   15.80    1.90
   3  -4   4   15.90    1.90
  -3   4  -4   16.00    2.10
   2  -4   4   15.90    1.10
   2  -4   4   14.20    1.70
  -2   4  -4   14.90    1.00
  -2   4  -4   15.60    1.30
  -2   4  -4   16.90    1.90
   1  -4   4  262.67    6.10
   1  -4   4  251.07    7.30
   1  -4   4  241.78    6.50
   1  -4   4  252.07    6.70
   1  -4   4  264.37    6.00
  -1   4  -4  254.87    6.80
  -1   4  -4  254.87    6.60
  -1   4  -4  253.67    5.90
   0  -4   4  443.16   10.30
   0  -4   4  453.15   10.40
   0  -4   4  468.55    9.80
   0  -4   4  452.85   10.60
   0  -4   4  433.06   10.40
   0  -4   4  459.55   10.00
   0   4  -4  458.05   10.60
   0   4  -4  460.05   10.40
   0   4  -4  441.06    9.90
  -1  -4   4  180.98    4.90
  -1  -4   4  175.18    4.80
  -1  -4   4  173.88    4.50
  -1  -4   4  170.48    4.60
  -1  -4   4  172.48    5.00
  -1  -4   4  180.88    5.40
   1   4  -4  168.58    4.80
   1   4  -4  180.88    5.50
   1   4  -4  175.78    4.70
   1   4  -4  181.98    5.00
  -2  -4   4   -0.60    0.70
  -2  -4   4   -0.40    0.90
   2   4  -4    1.80    1.20
   2   4  -4    1.40    1.30
  -3  -4   4  111.09    4.70
   3   4  -4  113.79    4.30
   3   4  -4  118.29    4.40
  -4  -4   4   21.80    2.80
  -4  -4   4   27.50    2.90
   4   4  -4   29.20    2.70
   4   4  -4   25.00    2.80
  -5  -4   4   45.40    4.00
  -5  -4   4   40.00    3.50
   5   4  -4   43.00    3.80
   5   4  -4   47.40    4.00
  -6  -4   4   -0.40    2.70
  -6  -4   4    0.50    3.10
   6   4  -4    2.30    2.80
   6   4  -4    3.60    3.30
  -7  -4   4   14.10    4.30
  -7  -4   4    2.80    4.10
   7   4  -4    7.70    4.60
  -8   2  -3   54.69    5.90
   7  -2   3   24.10    4.60
  -7   2  -3   16.30    3.90
   6  -2   3   12.50    3.30
  -6   2  -3   17.70    3.50
  -6   2  -3   14.80    2.40
   5  -2   3   38.30    3.20
   5  -2   3   42.90    2.40
   5  -2   3   39.50    2.30
  -5   2  -3   46.90    3.40
  -5   2  -3   40.70    2.70
   4  -2   3  191.38    5.10
   4  -2   3  184.18    5.30
   4  -2   3  191.78    4.90
   4  -2   3  184.48    5.90
  -4   2  -3  187.58    5.90
  -4   2  -3  185.38    5.20
  -4   2  -3  180.88    4.90
   3  -2   3  200.58    6.00
   3  -2   3  202.38    4.90
   3  -2   3  199.58    5.20
   3  -2   3  206.38    5.40
   3  -2   3  200.98    5.60
  -3   2  -3  193.58    4.90
  -3   2  -3  201.78    5.70
  -3   2  -3  192.98    5.50
  -3   2  -3  198.08    5.20
   2  -2   3   23.30    1.50
   2  -2   3   23.10    1.50
   2  -2   3   22.80    1.10
   2  -2   3   23.10    1.50
  -2   2  -3   22.30    1.40
  -2   2  -3   22.60    1.30
  -2   2  -3   23.10    1.40
  -2   2  -3   20.40    1.50
   1  -2   3   19.10    1.20
   1  -2   3   19.20    1.00
   1  -2   3   16.20    1.30
   1  -2   3   19.90    1.30
   1  -2   3   18.50    1.30
  -1   2  -3   18.60    1.30
  -1   2  -3   19.30    1.00
  -1   2  -3   20.20    1.30
  -1   2  -3   15.50    1.80
   0  -2   3 2325.47   44.80
   0  -2   3 2353.96   44.50
   0  -2   3 2309.37   44.70
   0  -2   3 2212.58   44.80
   0  -2   3 2235.48   44.20
   0   2  -3 2315.57   44.80
   0   2  -3 2272.47   44.70
   0   2  -3 2139.19   44.50
  -1  -2   3  799.92   16.40
  -1  -2   3  819.12   16.40
  -1  -2   3  791.92   17.00
  -1  -2   3  797.72   17.10
  -1  -2   3  846.02   16.70
   1   2  -3  777.52   16.90
   1   2  -3  825.32   16.70
   1   2  -3  826.42   16.70
  -2  -2   3   40.50    2.20
  -2  -2   3   37.80    1.80
  -2  -2   3   42.40    1.50
  -2  -2   3   40.40    1.90
   2   2  -3   37.90    2.00
   2   2  -3   36.90    2.20
  -3  -2   3   10.60    1.80
   3   2  -3    9.50    1.80
   3   2  -3    8.80    1.50
  -4  -2   3  112.59    4.60
  -4  -2   3  104.79    4.30
   4   2  -3  109.79    4.10
   4   2  -3  109.99    4.60
  -5  -2   3   67.89    3.60
  -5  -2   3   67.79    4.20
   5   2  -3   68.29    4.30
   5   2  -3   65.39    3.70
   6   2  -3    7.50    3.20
   6   2  -3    4.30    3.10
  -7  -2   3   10.20    3.30
  -7  -2   3    1.10    3.50
   7   2  -3    4.90    4.00
  -8  -2   3   15.70    4.90
  -8  -2   3   25.40    4.30
  -8   0  -2   22.70    5.00
   7   0   2   14.30    4.00
  -7   0  -2   16.90    3.60
  -7   0  -2   19.20    3.80
   6   0   2   25.50    3.70
  -6   0  -2   25.70    3.00
  -6   0  -2   30.90    2.90
   5   0   2    9.50    2.50
  -5   0  -2   12.00    2.20
  -5   0  -2   10.20    2.00
   4   0   2  340.97    9.20
  -4   0  -2  348.67    8.70
  -4   0  -2  350.46    8.70
   3   0   2  348.37    7.40
   3   0   2  343.67    8.50
   3   0   2  340.87    7.40
   3   0   2  340.67    8.00
   3   0   2  345.17    8.00
  -3   0  -2  344.27    8.00
  -3   0  -2  340.47    8.20
  -3   0  -2  343.87    7.40
  -3   0  -2  327.07    9.10
  -3   0  -2  341.47    8.00
   2   0   2   69.39    2.20
   2   0   2   66.49    2.50
   2   0   2   63.99    2.20
   2   0   2   66.69    2.00
  -2   0  -2   65.59    2.40
  -2   0  -2   67.09    2.20
  -2   0  -2   66.59    2.30
  -2   0  -2   67.59    1.90
   1   0   2   -0.50    0.70
   1   0   2   -0.30    0.70
   1   0   2    2.00    0.90
   1   0   2    0.30    0.70
  -1   0  -2   -0.90    0.60
  -1   0  -2    0.90    0.80
  -1   0  -2    2.00    0.80
  -1   0  -2   -0.70    0.70
  -1   0   2  480.65    9.60
  -1   0   2  433.46    9.30
  -1   0   2  455.25    9.70
  -1   0   2  447.36    9.30
   1   0  -2  452.35    9.40
   1   0  -2  457.35    9.60
   1   0  -2  454.25    9.30
   1   0  -2  456.95    9.50
  -2   0   2  238.28    5.40
  -2   0   2  241.68    6.00
  -2   0   2  260.27    6.10
   2   0  -2  249.28    6.10
   2   0  -2  249.68    5.50
   2   0  -2  255.97    6.20
   2   0  -2  251.57    5.70
  -3   0   2   50.99    2.00
  -3   0   2   53.59    2.70
  -3   0   2   47.40    1.60
  -3   0   2   50.89    2.60
  -3   0   2   54.99    2.20
   3   0  -2   52.79    2.10
   3   0  -2   51.49    1.70
   3   0  -2   49.00    2.30
   3   0  -2   51.49    2.70
  -4   0   2    7.00    1.80
  -4   0   2    9.10    1.50
   4   0  -2   10.00    2.10
   4   0  -2    7.90    1.50
  -5   0   2  139.59    4.70
  -5   0   2  137.39    5.60
   5   0  -2  134.99    5.70
   5   0  -2  143.09    4.70
  -6   0   2   51.59    3.40
   6   0  -2   46.20    4.50
  -7   0   2    6.00    3.20
   7   0  -2    5.20    3.50
  -8   0   2   13.00    4.70
  -8  -2  -1   13.20    4.70
   7   2   1   12.00    3.90
  -7  -2  -1   14.60    3.30
  -7  -2  -1   10.80    3.30
   6   2   1    7.50    2.90
  -6  -2  -1   12.90    2.80
  -6  -2  -1   13.90    2.60
   5   2   1   23.40    3.10
  -5  -2  -1   26.70    2.50
  -5  -2  -1   23.40    2.80
   4   2   1   87.69    3.60
   4   2   1   85.19    4.10
  -4  -2  -1   92.99    3.90
  -4  -2  -1   87.19    3.50
   3   2   1  288.07    7.20
  -3  -2  -1  308.07    7.20
  -3  -2  -1  298.97    7.60
   2   2   1  653.43   13.80
   2   2   1  683.93   15.80
   2   2   1  720.23   14.80
   2   2   1  704.33   14.40
  -2  -2  -1  700.23   14.20
  -2  -2  -1  678.13   14.60
  -2  -2  -1  668.73   15.30
   1   2   1  388.96    8.80
   1   2   1  404.96    8.70
   1   2   1  415.46    9.10
  -1  -2  -1  389.26    8.70
  -1  -2  -1  367.16    8.40
  -1  -2  -1  402.76    8.40
  -1  -2  -1  412.26    8.30
  -1  -2  -1  401.96    8.90
  -1  -2  -1  406.26    8.70
   0   2   1  110.49    2.90
   0   2   1  112.89    3.50
   0   2   1  117.59    2.90
   0   2   1  114.09    3.20
   0  -2  -1  120.09    3.00
   0  -2  -1  121.99    2.90
   0  -2  -1  118.49    3.20
   0  -2  -1  119.39    3.50
   0  -2  -1  116.49    2.90
  -1   2   1  592.74   12.40
  -1   2   1  557.84   12.10
  -1   2   1  582.04   12.30
   1  -2  -1  573.54   12.20
   1  -2  -1  569.24   12.20
   1  -2  -1  582.74   12.40
  -2   2   1 1024.80   21.00
  -2   2   1  915.91   22.90
  -2   2   1 1043.30   20.80
   2  -2  -1 1030.10   21.00
  -3   2   1   62.49    3.00
  -3   2   1   64.59    2.50
   3  -2  -1   65.29    3.10
   3  -2  -1   58.79    2.30
  -4   2   1    0.60    0.80
  -4   2   1   -0.60    1.20
  -4   2   1    2.10    1.50
   4  -2  -1   -0.10    1.60
   4  -2  -1   -1.90    1.10
  -5   2   1   52.59    2.50
  -5   2   1   46.90    2.20
  -5   2   1   54.69    2.70
  -5   2   1   56.99    3.70
   5  -2  -1   50.89    2.50
   5  -2  -1   54.09    3.80
   5  -2  -1   53.69    2.60
  -6   2   1   22.80    2.50
  -6   2   1   24.20    3.50
   6  -2  -1   26.80    3.60
  -7   2   1   19.10    3.90
   7  -2  -1   11.80    3.50
   7   4   0   14.80    4.90
   6   4   0   35.10    4.90
  -6  -4   0   27.10    3.30
  -6  -4   0   25.00    3.80
   5   4   0   33.20    4.00
  -5  -4   0   31.30    2.90
  -5  -4   0   28.50    3.60
   4   4   0   77.99    4.40
  -4  -4   0   75.59    3.90
  -4  -4   0   75.69    3.50
   3   4   0   25.10    1.80
   3   4   0   26.00    2.70
  -3  -4   0   29.80    2.20
  -3  -4   0   31.50    1.80
  -3  -4   0   30.50    2.40
   2   4   0  306.37    8.20
   2   4   0  299.67    7.70
   2   4   0  294.57    6.90
  -2  -4   0  295.87    7.70
  -2  -4   0  304.87    7.60
  -2  -4   0  309.17    7.00
  -2  -4   0  294.77    7.10
   1   4   0  416.36   10.10
   1   4   0  415.36    9.40
   1   4   0  404.16    9.50
   1   4   0  406.56    9.40
  -1  -4   0  408.16    9.30
  -1  -4   0  400.86    9.70
  -1  -4   0  401.56    9.20
  -1  -4   0  406.46    9.10
  -1  -4   0  407.56    9.40
  -1  -4   0  417.66    9.40
   0   4   0   19.50    1.50
   0   4   0   18.90    1.80
   0  -4   0   17.00    1.40
   0  -4   0   21.00    1.30
   0  -4   0   15.60    1.20
   0  -4   0   20.00    1.30
   0  -4   0   20.90    1.60
  -1   4   0   29.60    2.10
  -1   4   0   29.80    2.00
   1  -4   0   26.90    1.70
   1  -4   0   28.60    1.70
   1  -4   0   30.20    1.90
   1  -4   0   30.40    2.00
  -2   4   0  522.45   12.20
  -2   4   0  514.65   12.10
   2  -4   0  532.05   12.40
  -3   4   0   66.09    3.10
  -3   4   0   65.49    3.40
   3  -4   0   67.99    3.40
   3  -4   0   67.59    3.20
  -4   4   0   70.29    4.10
  -4   4   0   72.69    3.60
   4  -4   0   65.69    3.80
   4  -4   0   69.09    3.40
  -5   4   0    0.60    1.90
   5  -4   0    2.60    2.70
   5  -4   0    0.50    1.70
  -6   4   0   52.29    4.70
   6  -4   0   45.50    4.40
   6  -4   0   52.69    3.30
  -7   4   0   20.80    4.70
   7  -4   0   25.80    4.50
   6   6  -1   25.30    5.00
  -6  -6   1   14.10    3.80
   5   6  -1   65.19    5.10
  -5  -6   1   55.99    3.70
  -5  -6   1   49.80    4.30
  -4  -6   1   15.60    2.50
  -4  -6   1   15.00    3.00
   3   6  -1   20.10    3.30
  -3  -6   1   20.70    2.50
  -3  -6   1   15.10    1.70
  -3  -6   1   19.50    1.70
  -3  -6   1   19.10    2.40
   2   6  -1   52.69    3.10
   2   6  -1   46.10    3.40
   2   6  -1   49.70    2.60
  -2  -6   1   49.10    2.50
  -2  -6   1   47.80    3.00
  -2  -6   1   49.90    2.90
   1   6  -1  189.68    6.70
   1   6  -1  196.98    6.00
   1   6  -1  192.08    5.70
   1   6  -1  187.98    5.80
  -1  -6   1  193.38    5.80
  -1  -6   1  196.88    5.60
  -1  -6   1  198.98    6.00
   0   6  -1  279.27    7.70
   0   6  -1  272.57    7.70
   0  -6   1  278.07    6.80
   0  -6   1  281.37    7.80
   0  -6   1  278.77    6.90
  -1   6  -1    1.30    1.60
  -1   6  -1    1.90    1.50
   1  -6   1    1.80    0.80
   1  -6   1    0.40    0.70
   1  -6   1   -2.30    1.30
   1  -6   1    2.20    1.60
  -2   6  -1  106.39    4.50
  -2   6  -1   97.69    4.50
   2  -6   1  102.49    4.50
   2  -6   1  103.69    4.40
  -3   6  -1  177.88    6.40
  -3   6  -1  180.48    6.50
   3  -6   1  183.18    6.40
   3  -6   1  176.08    6.30
  -4   6  -1  123.09    5.70
   4  -6   1  121.99    5.50
  -5   6  -1    0.60    2.70
  -5   6  -1   -2.30    2.60
   5  -6   1   -1.80    2.50
   5  -6   1   -4.30    2.70
   6  -6   1   16.30    3.20
   6  -6   1   12.60    3.70
   5   8  -2   23.20    4.80
  -5  -8   2   21.90    4.20
   4   8  -2    8.20    3.70
  -4  -8   2   13.10    2.90
  -4  -8   2   12.40    3.30
   3   8  -2   19.90    3.80
  -3  -8   2   17.30    2.30
  -3  -8   2   17.70    3.00
  -3  -8   2   15.90    2.80
   2   8  -2   81.79    4.10
   2   8  -2   96.19    5.50
  -2  -8   2   89.69    4.40
  -2  -8   2   83.19    4.60
  -2  -8   2   89.69    4.00
   1   8  -2   58.69    3.50
   1   8  -2   59.29    3.80
  -1  -8   2   55.69    3.60
  -1  -8   2   59.89    3.10
  -1  -8   2   59.79    3.50
   0   8  -2  102.49    4.80
   0   8  -2   91.49    4.60
   0  -8   2   93.99    4.80
   0  -8   2   97.09    4.90
   0  -8   2  101.39    3.80
   0  -8   2   96.59    4.60
  -1   8  -2   42.80    3.60
  -1   8  -2   39.40    3.40
   1  -8   2   38.00    3.20
   1  -8   2   42.60    3.30
   1  -8   2   38.00    2.20
  -2   8  -2   35.60    3.40
  -2   8  -2   31.60    4.10
   2  -8   2   37.00    3.40
   2  -8   2   31.40    3.20
  -3   8  -2   14.30    2.80
  -3   8  -2   10.20    2.90
   3  -8   2    9.80    2.70
  -4   8  -2   57.99    5.20
  -4   8  -2   58.79    4.90
   4  -8   2   66.89    4.50
   4  -8   2   59.99    4.70
  -5   8  -2   31.20    5.10
   5  -8   2   35.90    4.50
   5  -8   2   26.90    4.30
   4  10  -3   14.10    6.00
   3  10  -3   30.30    5.40
  -3 -10   3   19.20    3.50
  -2 -10   3   11.90    3.70
  -2 -10   3   13.20    3.00
   1  10  -3   24.20    3.80
  -1 -10   3   21.20    3.60
  -1 -10   3   17.90    3.50
  -1 -10   3   20.80    3.00
  -1 -10   3   17.60    2.80
   0  10  -3  102.19    5.60
   0 -10   3   97.39    5.40
   0 -10   3  107.99    5.40
   0 -10   3  101.89    5.30
  -1  10  -3   44.10    4.30
  -1  10  -3   35.80    4.30
   1 -10   3   32.10    3.80
   1 -10   3   31.10    3.90
  -2  10  -3   -3.40    3.30
   2 -10   3    7.00    3.30
   2 -10   3   -0.20    3.40
  -3  10  -3    9.20    4.10
   3 -10   3    7.10    3.50
   4 -10   3   38.10    5.70
   1 -11   8   19.90    4.60
  -1  11  -8   29.20    5.20
   0 -11   8   16.40    4.10
   0 -11   8   12.60    4.20
   0  11  -8   15.40    4.40
  -1 -11   8   40.50    4.70
  -1 -11   8   41.70    5.60
  -2 -11   8    1.30    3.70
   2  11  -8    4.80    3.90
   4  -9   7   23.00    4.40
  -4   9  -7   30.20    4.80
   3  -9   7   16.40    2.80
   3  -9   7   14.80    3.50
  -3   9  -7   16.50    3.60
   2  -9   7   42.70    3.00
   2  -9   7   44.10    3.90
  -2   9  -7   47.70    4.60
   1  -9   7    3.20    2.40
   1  -9   7    2.80    2.60
   1  -9   7    3.90    1.70
   1  -9   7    5.20    2.00
  -1   9  -7    1.70    2.70
  -1   9  -7    7.90    3.20
   0  -9   7   18.60    3.20
   0  -9   7   13.70    2.10
   0  -9   7   12.40    2.80
   0  -9   7   12.40    2.30
   0   9  -7   12.40    2.40
   0   9  -7    9.90    3.40
  -1  -9   7  100.59    4.40
  -1  -9   7  109.09    5.00
  -1  -9   7  104.59    5.80
  -1  -9   7  110.79    4.80
   1   9  -7  105.79    4.90
   1   9  -7   97.49    5.80
  -2  -9   7   38.10    3.50
  -2  -9   7   39.30    4.40
  -2  -9   7   33.40    3.40
   2   9  -7   33.00    3.60
  -3  -9   7    8.40    2.70
  -3  -9   7    6.60    3.70
   3   9  -7    9.70    3.40
  -4  -9   7   -1.60    3.30
  -4  -9   7    8.60    4.70
   4   9  -7   -1.10    4.10
  -5  -9   7   12.00    5.30
   6  -7   6   20.90    4.00
   6  -7   6   23.10    4.20
  -6   7  -6   14.80    4.50
   5  -7   6   37.20    4.10
   5  -7   6   33.30    4.10
   4  -7   6    9.90    2.80
   4  -7   6    6.20    2.40
  -4   7  -6   12.00    3.00
   3  -7   6   98.89    4.20
   3  -7   6   95.29    5.00
  -3   7  -6   99.29    5.10
   2  -7   6  127.69    4.40
   2  -7   6  123.39    5.50
  -2   7  -6  131.79    5.50
  -2   7  -6  118.09    4.20
   1  -7   6    4.10    2.20
   1  -7   6    8.20    1.40
  -1   7  -6    7.90    2.00
  -1   7  -6    6.60    1.50
   0  -7   6    2.50    1.50
   0  -7   6   -2.40    1.70
   0  -7   6    0.70    1.70
   0  -7   6    1.40    1.30
   0   7  -6    0.00    1.40
   0   7  -6   -2.10    1.90
  -1  -7   6   61.29    3.20
  -1  -7   6   52.89    3.60
   1   7  -6   54.59    3.10
   1   7  -6   50.29    3.80
  -2  -7   6   34.30    3.30
  -2  -7   6   38.00    2.60
   2   7  -6   42.70    3.20
   2   7  -6   39.30    3.10
  -3  -7   6  177.68    6.70
  -3  -7   6  177.98    5.40
  -3  -7   6  180.28    7.20
   3   7  -6  172.08    6.50
   3   7  -6  167.58    6.80
  -4  -7   6   -0.30    3.10
  -4  -7   6    1.70    2.50
   4   7  -6   -0.40    2.90
   4   7  -6    5.90    2.90
  -5  -7   6   23.30    3.80
  -5  -7   6   27.70    4.30
   5   7  -6   17.80    3.70
   5   7  -6   32.00    4.50
  -6  -7   6   14.80    4.90
   6   7  -6    6.90    5.30
   7  -5   5    5.50    3.90
  -7   5  -5    7.00    4.00
   6  -5   5   58.89    4.20
   6  -5   5   60.39    4.50
  -6   5  -5   68.09    5.30
   5  -5   5   72.69    4.10
   5  -5   5   66.29    4.10
  -5   5  -5   65.59    4.50
   4  -5   5   13.90    2.40
   4  -5   5   18.80    2.40
  -4   5  -5   17.70    2.90
   3  -5   5   -2.10    1.40
   3  -5   5   -2.60    1.60
  -3   5  -5   -0.60    1.70
   2  -5   5  170.48    4.80
   2  -5   5  162.98    4.40
   2  -5   5  166.88    5.60
  -2   5  -5  165.98    4.20
  -2   5  -5  156.58    4.80
  -2   5  -5  165.88    5.60
   1  -5   5  365.26    8.40
   1  -5   5  368.66    9.40
   1  -5   5  366.86    8.40
   1  -5   5  361.16    8.60
  -1   5  -5  372.76    8.30
  -1   5  -5  367.06    9.40
   0  -5   5   51.39    2.00
   0  -5   5   51.19    2.10
   0  -5   5   49.80    2.10
   0  -5   5   51.69    2.80
   0  -5   5   49.40    2.60
   0   5  -5   50.29    2.90
   0   5  -5   51.49    2.30
  -1  -5   5  293.17    7.50
  -1  -5   5  280.47    7.20
  -1  -5   5  299.67    8.10
  -1  -5   5  289.97    6.90
   1   5  -5  297.17    8.20
   1   5  -5  283.77    7.20
   1   5  -5  287.87    7.40
   1   5  -5  292.67    7.50
  -2  -5   5   85.29    3.10
  -2  -5   5   82.19    2.90
  -2  -5   5   87.59    4.00
  -2  -5   5   81.09    2.90
   2   5  -5   81.39    3.50
   2   5  -5   86.39    3.60
  -3  -5   5  137.49    5.70
  -3  -5   5  141.69    3.90
   3   5  -5  142.29    5.30
   3   5  -5  143.39    5.20
  -4  -5   5   18.40    2.90
  -4  -5   5   20.80    3.20
   4   5  -5   21.60    3.00
   4   5  -5   24.70    2.90
  -5  -5   5    1.60    2.10
  -5  -5   5    0.90    2.80
   5   5  -5    4.30    2.70
  -6  -5   5   23.80    4.00
  -6  -5   5   24.30    4.20
   6   5  -5   18.20    3.60
   6   5  -5   13.80    4.20
  -7  -5   5   31.30    5.20
   7   5  -5   31.20    6.20
  -8   3  -4    7.20    5.00
   7  -3   4    7.00    3.70
  -7   3  -4   -2.90    3.30
   6  -3   4   23.20    3.40
   6  -3   4   21.80    2.50
  -6   3  -4   21.80    3.60
   5  -3   4   78.69    3.80
   5  -3   4   77.59    4.20
  -5   3  -4   89.89    4.40
  -5   3  -4   80.29    3.50
   4  -3   4   84.59    3.50
   4  -3   4   84.89    2.80
   4  -3   4   83.19    3.80
  -4   3  -4   82.59    3.90
  -4   3  -4   85.99    2.80
  -4   3  -4   80.39    3.40
   3  -3   4   34.60    1.50
   3  -3   4   34.80    2.20
   3  -3   4   30.40    1.80
   3  -3   4   33.00    2.10
  -3   3  -4   37.50    1.90
  -3   3  -4   29.90    2.40
  -3   3  -4   34.80    1.70
   2  -3   4   22.80    1.60
   2  -3   4   23.90    1.20
   2  -3   4   24.90    1.50
   2  -3   4   18.50    1.50
   2  -3   4   20.70    1.80
  -2   3  -4   23.30    1.30
  -2   3  -4   24.20    1.50
  -2   3  -4   24.20    1.60
  -2   3  -4   22.60    1.90
   1  -3   4  155.78    4.50
   1  -3   4  154.98    4.30
   1  -3   4  157.88    4.40
   1  -3   4  163.38    4.10
   1  -3   4  153.08    3.80
  -1   3  -4  154.38    3.90
  -1   3  -4  150.48    4.30
  -1   3  -4  144.29    4.90
  -1   3  -4  159.48    3.90
   0  -3   4  452.45   10.10
   0  -3   4  453.65    9.20
   0  -3   4  438.76    9.90
   0  -3   4  446.86   10.00
   0  -3   4  444.16    9.70
   0  -3   4  457.35   10.10
   0   3  -4  430.46    9.70
   0   3  -4  429.56    9.90
   0   3  -4  454.65   10.10
  -1  -3   4   11.70    1.10
  -1  -3   4   11.90    1.30
  -1  -3   4   11.40    1.10
  -1  -3   4   11.00    0.80
  -1  -3   4   11.60    1.80
  -1  -3   4    9.90    1.10
   1   3  -4   10.40    1.00
   1   3  -4    9.80    1.20
   1   3  -4   12.40    1.30
   1   3  -4   11.30    1.00
  -2  -3   4   29.00    2.30
  -2  -3   4   31.40    1.50
  -2  -3   4   30.80    1.90
  -2  -3   4   31.60    1.30
  -2  -3   4   29.90    1.50
   2   3  -4   29.70    1.90
   2   3  -4   30.00    1.70
   2   3  -4   28.70    2.00
   2   3  -4   29.20    1.30
  -3  -3   4  455.55   11.40
   3   3  -4  446.96   10.90
   3   3  -4  462.55   11.00
  -4  -3   4  152.08    5.60
  -4  -3   4  142.69    5.30
   4   3  -4  140.99    5.10
   4   3  -4  146.09    5.50
  -5  -3   4   16.00    2.60
  -5  -3   4   25.00    3.50
   5   3  -4   21.90    3.40
   5   3  -4   19.90    3.20
  -6  -3   4   11.00    2.60
  -6  -3   4   12.10    3.30
   6   3  -4    5.30    2.90
   6   3  -4    7.80    3.50
  -7  -3   4   21.70    4.10
  -7  -3   4   32.80    4.80
   7   3  -4   20.20    4.80
  -8  -3   4    4.80    6.70
  -8   1  -3   16.80    4.80
   7  -1   3   18.40    3.80
   6  -1   3    1.10    2.60
  -6   1  -3    5.10    2.40
  -6   1  -3    3.30    2.10
   5  -1   3   86.89    2.80
   5  -1   3   86.69    4.50
   5  -1   3   84.39    3.20
  -5   1  -3   92.59    4.10
  -5   1  -3   86.49    3.90
   4  -1   3  121.49    3.40
   4  -1   3  117.39    4.50
   4  -1   3  106.59    3.70
  -4   1  -3  114.49    4.10
  -4   1  -3  116.49    3.90
   3  -1   3  315.27    7.90
   3  -1   3  306.77    7.20
   3  -1   3  310.07    7.50
   3  -1   3  310.87    7.20
   3  -1   3  316.87    7.10
  -3   1  -3  315.67    7.10
  -3   1  -3  292.27    8.10
  -3   1  -3  309.27    7.40
   2  -1   3   12.30    1.10
   2  -1   3   10.60    1.20
   2  -1   3   10.10    1.00
   2  -1   3   11.50    1.00
  -2   1  -3   10.50    1.20
  -2   1  -3   10.40    1.40
  -2   1  -3   11.70    1.10
  -2   1  -3   11.30    1.00
   1  -1   3 1785.42   36.10
   1  -1   3 1909.01   36.30
   1  -1   3 1801.02   36.40
   1  -1   3 1821.22   36.20
  -1   1  -3 1904.91   36.40
  -1   1  -3 1899.61   36.10
  -1   1  -3 1856.11   36.30
  -1   1  -3 1760.12   36.20
   0  -1   3   78.29    2.40
   0  -1   3   78.19    2.40
   0  -1   3   77.59    2.50
   0  -1   3   82.59    2.40
   0   1  -3   76.89    2.40
   0   1  -3   79.69    2.40
   0   1  -3   77.79    2.40
   0   1  -3   74.39    2.40
  -1  -1   3   11.30    1.00
  -1  -1   3   14.30    1.30
  -1  -1   3   10.00    0.90
  -1  -1   3   11.00    1.40
   1   1  -3   10.20    1.00
   1   1  -3   10.10    1.00
   1   1  -3   11.90    1.30
   1   1  -3   11.90    1.10
  -2  -1   3   29.10    1.60
  -2  -1   3   30.00    1.80
  -2  -1   3   29.20    1.50
  -2  -1   3   27.30    1.20
   2   1  -3   27.10    1.60
   2   1  -3   27.50    1.50
   2   1  -3   26.40    1.60
  -3  -1   3  352.06    8.30
  -3  -1   3  334.77    9.00
  -3  -1   3  355.86    8.90
   3   1  -3  358.66    8.80
   3   1  -3  362.26    8.40
  -4  -1   3  179.88    5.90
  -4  -1   3  177.18    5.40
   4   1  -3  174.48    5.30
   4   1  -3  171.68    5.90
  -5  -1   3  151.58    5.90
  -5  -1   3  147.79    5.20
   5   1  -3  150.18    6.10
   5   1  -3  151.88    5.40
  -6  -1   3    0.70    2.00
  -6  -1   3    0.60    3.30
   6   1  -3    0.30    2.80
  -7  -1   3   20.00    3.90
  -7  -1   3   14.10    3.10
   7   1  -3   19.20    4.00
  -8  -1   3    2.90    4.60
  -8  -1  -2   11.50    4.30
   7   1   2   65.69    5.80
  -7  -1  -2   72.79    4.60
   6   1   2    6.00    2.90
  -6  -1  -2    9.10    2.30
   5   1   2   14.60    2.90
  -5  -1  -2   11.10    2.30
  -5  -1  -2   10.40    1.90
   4   1   2  139.49    4.40
   4   1   2  140.49    5.30
  -4  -1  -2  146.59    4.80
  -4  -1  -2  144.09    4.60
   3   1   2  293.57    6.90
   3   1   2  280.77    7.50
  -3  -1  -2  281.77    6.70
  -3  -1  -2  278.77    7.20
   2   1   2  120.29    3.00
   2   1   2  124.09    3.50
   2   1   2  123.79    3.70
   2   1   2  132.59    3.20
  -2  -1  -2  122.99    3.70
  -2  -1  -2  110.49    3.60
  -2  -1  -2  122.19    3.60
  -2  -1  -2  118.19    3.10
  -2  -1  -2  124.29    3.50
   1   1   2   21.00    1.20
   1   1   2   19.00    1.30
   1   1   2   17.10    1.10
  -1  -1  -2   19.10    1.20
  -1  -1  -2   19.20    1.30
  -1  -1  -2   19.90    1.20
   0   1   2  429.76    9.50
   0   1   2  462.35    9.80
   0   1   2  464.75    9.30
   0   1   2  453.95    9.10
   0  -1  -2  444.16    9.50
   0  -1  -2  461.85    9.30
   0  -1  -2  458.45    9.10
   0  -1  -2  451.85    9.70
  -1   1   2   25.30    1.50
  -1   1   2   26.20    1.30
  -1   1   2   27.00    1.40
  -1   1   2   23.70    1.30
   1  -1  -2   27.60    1.50
   1  -1  -2   27.00    1.50
   1  -1  -2   26.50    1.40
   1  -1  -2   24.90    1.10
  -2   1   2  258.57    6.40
  -2   1   2  251.97    6.00
  -2   1   2  256.07    6.40
  -2   1   2  271.87    5.70
   2  -1  -2  257.57    6.40
   2  -1  -2  253.07    5.70
   2  -1  -2  255.37    6.00
   2  -1  -2  254.77    6.40
  -3   1   2    2.40    1.30
  -3   1   2    1.50    0.70
  -3   1   2    0.80    0.70
  -3   1   2    2.40    0.70
   3  -1  -2    3.30    1.40
   3  -1  -2    3.00    0.80
   3  -1  -2    1.60    0.70
  -4   1   2  236.28    6.50
  -4   1   2  240.18    7.20
  -4   1   2  234.28    6.30
  -4   1   2  236.18    5.90
   4  -1  -2  252.47    6.20
   4  -1  -2  240.68    5.90
   4  -1  -2  237.48    7.30
   4  -1  -2  241.78    5.90
  -5   1   2  177.38    5.40
  -5   1   2  183.08    6.50
  -5   1   2  184.28    4.90
   5  -1  -2  172.48    5.10
   5  -1  -2  174.08    4.70
   5  -1  -2  182.68    6.80
  -6   1   2   40.70    4.00
  -6   1   2   38.70    3.00
   6  -1  -2   42.70    3.90
  -7   1   2    0.10    3.30
   7  -1  -2    3.70    3.50
  -8   1   2   21.80    5.70
   7   3   1   49.20    5.80
  -7  -3  -1   40.80    4.80
   6   3   1   23.60    4.10
  -6  -3  -1   21.20    3.30
  -6  -3  -1   17.80    3.20
   5   3   1    0.10    2.50
  -5  -3  -1   -2.00    2.10
  -5  -3  -1   -1.20    1.80
   4   3   1    3.20    2.20
   4   3   1    3.30    1.70
  -4  -3  -1    4.10    1.70
  -4  -3  -1    5.60    1.40
   3   3   1  423.76   10.90
   3   3   1  432.86   10.00
  -3  -3  -1  456.35   10.00
  -3  -3  -1  433.46   10.60
   2   3   1  340.07    8.60
   2   3   1  329.77    7.50
   2   3   1  342.77    7.60
  -2  -3  -1  337.47    7.50
  -2  -3  -1  332.97    8.20
  -2  -3  -1  344.37    7.80
  -2  -3  -1  356.46    7.70
  -2  -3  -1  338.07    9.00
   1   3   1    0.60    1.10
   1   3   1    1.40    0.80
   1   3   1    0.00    0.70
   1   3   1    0.60    0.70
  -1  -3  -1   -0.40    0.60
  -1  -3  -1   -0.10    0.60
  -1  -3  -1    1.20    0.80
  -1  -3  -1    0.20    0.60
  -1  -3  -1    0.40    0.70
  -1  -3  -1    1.00    0.50
   0   3   1   97.99    3.10
   0   3   1   98.89    2.70
   0   3   1   92.99    2.80
   0   3   1   93.49    3.40
   0  -3  -1   95.09    2.60
   0  -3  -1   93.79    2.70
   0  -3  -1   94.49    3.00
   0  -3  -1   95.89    2.80
   0  -3  -1   92.49    3.30
  -1   3   1  668.13   14.30
  -1   3   1  682.53   14.60
   1  -3  -1  642.34   14.40
   1  -3  -1  664.73   14.30
   1  -3  -1  695.03   14.80
  -2   3   1   85.09    3.20
  -2   3   1   82.99    3.10
  -2   3   1   86.09    3.40
   2  -3  -1   83.79    3.00
   2  -3  -1   81.89    3.10
   2  -3  -1   91.19    3.40
  -3   3   1   -0.70    1.10
  -3   3   1    1.10    1.40
   3  -3  -1    0.30    1.10
   3  -3  -1    1.20    1.30
  -4   3   1   63.29    3.00
  -4   3   1   63.39    3.80
   4  -3  -1   61.89    3.00
   4  -3  -1   61.29    3.70
  -5   3   1  130.09    5.80
  -5   3   1  136.59    4.80
   5  -3  -1  126.39    5.70
   5  -3  -1  129.49    4.60
  -6   3   1   40.20    3.90
   6  -3  -1   37.80    2.70
   6  -3  -1   32.60    3.80
  -7   3   1   16.00    4.00
   7  -3  -1   12.30    3.90
   6   5   0   30.80    5.50
  -6  -5   0   25.90    4.30
   5   5   0    3.40    3.30
  -5  -5   0    6.70    2.30
  -5  -5   0    5.40    2.50
   4   5   0    1.60    2.50
  -4  -5   0    2.70    1.80
  -4  -5   0   -0.40    1.70
   3   5   0   71.99    4.20
  -3  -5   0   74.29    3.20
  -3  -5   0   72.09    2.50
  -3  -5   0   71.69    3.70
  -3  -5   0   79.79    3.40
   2   5   0  171.48    4.80
   2   5   0  174.78    6.10
  -2  -5   0  176.78    5.40
  -2  -5   0  166.78    4.70
  -2  -5   0  171.28    4.80
  -2  -5   0  174.38    4.80
  -2  -5   0  167.18    5.30
   1   5   0  105.29    4.60
   1   5   0  106.09    3.70
   1   5   0  112.59    3.90
  -1  -5   0  100.59    3.60
  -1  -5   0  106.59    3.40
  -1  -5   0  114.19    3.80
  -1  -5   0  106.89    3.50
   0   5   0    8.50    1.60
   0   5   0    5.70    1.50
   0  -5   0    6.90    1.20
   0  -5   0    4.80    0.90
   0  -5   0    5.70    0.90
  -1   5   0   18.80    1.90
  -1   5   0   18.10    1.90
   1  -5   0   18.90    1.00
   1  -5   0   16.40    1.00
   1  -5   0   16.50    1.90
  -2   5   0  235.38    6.90
  -2   5   0  239.88    7.00
   2  -5   0  234.68    7.00
   2  -5   0  236.08    7.00
  -3   5   0  188.68    6.40
  -3   5   0  192.68    6.20
   3  -5   0  190.48    6.50
   3  -5   0  198.98    6.40
  -4   5   0    6.10    2.10
  -4   5   0    1.80    2.10
   4  -5   0    0.00    1.80
   4  -5   0    0.50    2.00
  -5   5   0   67.79    4.70
  -5   5   0   66.99    4.00
   5  -5   0   67.79    4.00
   5  -5   0   72.19    4.80
  -6   5   0   47.80    4.90
   6  -5   0   42.20    3.70
   6  -5   0   51.89    4.60
  -7   5   0   19.40    5.70
   7  -5   0   19.10    4.10
   6   7  -1   27.50    5.70
   5   7  -1   12.20    4.30
  -5  -7   1   12.10    3.40
   4   7  -1    8.60    3.50
  -4  -7   1   10.10    2.80
   3   7  -1   25.40    4.00
  -3  -7   1   18.70    2.00
  -3  -7   1   25.20    2.90
   2   7  -1   76.39    4.80
   2   7  -1   71.59    3.40
  -2  -7   1   68.89    3.80
  -2  -7   1   74.49    3.30
  -2  -7   1   72.69    3.70
   1   7  -1  140.59    6.10
   1   7  -1  146.89    5.40
   1   7  -1  145.49    5.20
  -1  -7   1  148.79    4.90
  -1  -7   1  147.19    5.30
  -1  -7   1  144.99    5.20
   0   7  -1   29.60    2.70
   0   7  -1   30.90    2.70
   0  -7   1   27.90    2.60
   0  -7   1   29.90    2.00
  -1   7  -1   10.70    2.30
  -1   7  -1   14.80    2.60
   1  -7   1   12.40    2.20
   1  -7   1    8.30    2.30
   1  -7   1   11.70    1.40
   1  -7   1   11.10    1.10
  -2   7  -1   88.69    4.50
  -2   7  -1   91.49    4.70
   2  -7   1   93.39    4.50
   2  -7   1   88.19    4.70
  -3   7  -1   86.59    4.70
   3  -7   1   83.79    4.60
   3  -7   1   75.49    4.40
  -4   7  -1   15.60    3.00
  -4   7  -1    9.30    2.90
   4  -7   1   13.50    3.10
   4  -7   1   15.30    2.90
  -5   7  -1    5.40    3.40
   5  -7   1   -3.00    2.90
   5  -7   1    2.80    3.10
  -6   7  -1   31.30    5.30
   6  -7   1   27.60    4.90
   6  -7   1   38.80    4.60
   4   9  -2   34.90    5.60
  -4  -9   2   24.70    4.40
   3   9  -2    7.90    4.20
  -3  -9   2    0.00    2.80
  -3  -9   2    2.60    3.20
   2   9  -2   22.10    4.10
  -2  -9   2   14.40    2.60
  -2  -9   2   14.80    2.70
  -2  -9   2   19.30    3.50
   1   9  -2  110.59    5.40
   1   9  -2  122.89    5.40
  -1  -9   2  124.09    5.00
  -1  -9   2  116.99    5.20
  -1  -9   2  119.29    5.30
   0   9  -2   25.20    3.30
   0  -9   2   22.20    2.40
   0  -9   2   28.00    3.20
   0  -9   2   23.90    3.50
  -1   9  -2    0.40    2.50
  -1   9  -2   -0.70    2.60
   1  -9   2    4.20    2.40
  -2   9  -2    0.50    2.70
  -2   9  -2    3.60    2.90
   2  -9   2    1.20    2.50
   2  -9   2    5.90    2.70
  -3   9  -2   53.19    4.80
  -3   9  -2   53.69    4.90
   3  -9   2   58.29    4.50
   3  -9   2   67.89    4.60
  -4   9  -2   32.70    4.70
  -4   9  -2   32.20    4.50
   4  -9   2   32.10    4.30
   4  -9   2   35.30    4.50
   5  -9   2    3.00    4.40
  -2 -11   3   -0.50    5.00
  -1 -11   3   30.50    4.20
  -1 -11   3   25.20    5.00
  -1 -11   3   27.50    4.40
   0  11  -3   29.60    5.00
   0 -11   3   44.20    4.90
   0 -11   3   38.80    4.60
   0 -11   3   33.60    4.30
  -1  11  -3   28.70    4.60
   1 -11   3   25.10    4.30
   1 -11   3   22.20    4.10
  -2  11  -3   -3.00    4.10
   2 -11   3   -1.60    4.10
   3 -11   3   25.80    5.00
  -3  10  -8   31.80    5.20
   2 -10   8    1.40    3.50
  -2  10  -8   10.10    3.70
   1 -10   8   10.50    3.10
   1 -10   8    8.10    3.40
  -1  10  -8    8.40    3.70
   0 -10   8   71.39    4.80
   0 -10   8   66.39    3.80
   0 -10   8   64.79    4.90
   0  10  -8   70.69    5.60
  -1 -10   8   23.50    3.60
  -1 -10   8   34.80    4.60
  -1 -10   8   26.50    3.60
   1  10  -8   26.80    3.80
  -2 -10   8    7.90    3.20
  -2 -10   8   12.40    3.10
  -2 -10   8   11.90    3.90
   2  10  -8   16.90    3.60
  -3 -10   8   13.80    3.40
  -3 -10   8    9.20    4.60
   3  10  -8    7.80    4.20
  -4 -10   8   13.90    5.50
   5  -8   7    2.00    3.30
   5  -8   7   -4.60    3.60
  -5   8  -7    4.20    3.80
   4  -8   7   35.50    4.20
   4  -8   7   49.10    3.90
  -4   8  -7   49.60    4.80
   3  -8   7   67.19    4.30
   3  -8   7   79.09    4.00
  -3   8  -7   66.29    4.80
   2  -8   7   17.60    2.10
   2  -8   7   15.90    2.90
  -2   8  -7   21.00    3.60
   1  -8   7    5.80    1.70
   1  -8   7   -0.10    2.20
   1  -8   7    3.20    2.10
  -1   8  -7    7.10    2.60
  -1   8  -7    0.10    1.60
   0  -8   7   44.10    2.50
   0  -8   7   45.80    5.70
   0   8  -7   43.90    4.70
   0   8  -7   42.10    2.80
  -1  -8   7   65.39    6.60
  -1  -8   7   71.79    4.00
   1   8  -7   73.79    3.90
   1   8  -7   66.59    5.70
  -2  -8   7   83.79    6.60
  -2  -8   7   84.89    4.00
  -2  -8   7   79.69    5.10
   2   8  -7   85.29    4.50
  -3  -8   7    5.40    3.40
  -3  -8   7    1.60    2.20
   3   8  -7    6.70    2.90
   3   8  -7    4.80    2.70
  -4  -8   7   13.20    2.90
  -4  -8   7   15.50    3.90
   4   8  -7    9.10    4.20
  -5  -8   7   25.40    4.40
  -5  -8   7   22.10    4.90
   5   8  -7   24.10    4.70
   5   8  -7   22.60    4.70
  -6  -8   7   -4.10    5.70
   7  -6   6   11.50    4.80
   6  -6   6   55.59    4.60
   6  -6   6   46.70    4.50
  -6   6  -6   60.09    5.50
   5  -6   6   39.60    3.70
  -5   6  -6   41.90    4.60
   4  -6   6   76.89    4.40
   4  -6   6   73.99    3.80
  -4   6  -6   80.59    4.70
   3  -6   6   75.59    4.00
   3  -6   6   68.29    3.40
  -3   6  -6   74.29    4.20
   2  -6   6   96.69    4.30
   2  -6   6   96.39    3.30
   2  -6   6   99.89    3.50
  -2   6  -6   96.89    4.60
  -2   6  -6   98.89    3.00
   1  -6   6    8.10    1.50
   1  -6   6    9.40    1.90
   1  -6   6    7.90    1.40
  -1   6  -6    9.30    2.00
  -1   6  -6    9.30    1.50
   0  -6   6   -0.20    1.30
   0  -6   6    1.20    0.90
   0  -6   6   -1.00    1.50
   0  -6   6   -1.60    1.00
   0   6  -6   -1.70    1.50
   0   6  -6    1.20    1.20
  -1  -6   6  116.49    4.20
  -1  -6   6  110.19    3.50
  -1  -6   6  109.49    4.80
   1   6  -6  111.79    5.00
   1   6  -6  113.59    4.30
   1   6  -6  115.99    4.70
  -2  -6   6  408.36   11.30
  -2  -6   6  398.96    9.90
   2   6  -6  383.96   10.20
   2   6  -6  391.36   10.20
  -3  -6   6    2.80    2.40
  -3  -6   6    5.40    1.50
   3   6  -6    4.40    2.00
  -4  -6   6   -3.10    2.10
  -4  -6   6    1.30    2.70
   4   6  -6   -1.30    2.50
   4   6  -6    1.30    2.30
  -5  -6   6   13.40    3.60
  -5  -6   6   16.90    3.10
   5   6  -6   21.00    3.70
   5   6  -6   15.50    3.50
  -6  -6   6   36.10    5.60
  -6  -6   6   41.00    4.90
   6   6  -6   48.20    5.10
   6   6  -6   35.10    5.60
  -7  -6   6    5.20    5.60
   7  -4   5   26.50    4.60
  -7   4  -5   39.80    5.00
   6  -4   5   32.20    3.80
  -6   4  -5   26.40    3.90
   5  -4   5   56.29    3.70
   5  -4   5   48.30    3.30
  -5   4  -5   47.60    2.70
  -5   4  -5   50.99    3.90
   4  -4   5   15.60    2.30
   4  -4   5   21.30    2.40
   4  -4   5   18.90    1.60
  -4   4  -5   21.30    1.70
  -4   4  -5   18.50    2.70
   3  -4   5   50.89    2.90
   3  -4   5   54.99    2.70
   3  -4   5   50.79    1.90
  -3   4  -5   51.49    2.10
  -3   4  -5   53.59    3.00
   2  -4   5  458.75   10.00
   2  -4   5  455.75   10.90
   2  -4   5  473.05   10.20
  -2   4  -5  437.86   10.20
  -2   4  -5  436.36    9.80
  -2   4  -5  453.95   10.90
   1  -4   5  218.48    5.40
   1  -4   5  210.98    5.10
   1  -4   5  215.98    6.00
   1  -4   5  203.48    5.70
  -1   4  -5  215.98    6.10
  -1   4  -5  203.18    5.70
  -1   4  -5  219.68    5.30
   0  -4   5   69.29    2.50
   0  -4   5   67.69    2.90
   0  -4   5   69.69    2.70
   0  -4   5   69.79    2.20
   0  -4   5   66.79    2.80
   0  -4   5   71.09    3.10
   0  -4   5   69.39    2.10
   0   4  -5   68.79    2.60
   0   4  -5   67.19    2.90
   0   4  -5   72.49    3.10
  -1  -4   5  109.69    3.30
  -1  -4   5  111.59    3.60
  -1  -4   5  108.59    3.00
  -1  -4   5  107.89    4.10
  -1  -4   5  112.09    3.50
   1   4  -5  108.29    3.70
   1   4  -5  104.59    3.30
   1   4  -5  106.09    3.30
  -2  -4   5  178.88    5.30
  -2  -4   5  189.28    6.10
  -2  -4   5  184.98    4.80
  -2  -4   5  185.98    4.90
   2   4  -5  184.98    5.50
   2   4  -5  182.78    4.70
  -3  -4   5  122.19    5.10
  -3  -4   5  124.09    3.30
  -3  -4   5  127.59    3.60
   3   4  -5  128.39    4.60
   3   4  -5  126.79    4.60
  -4  -4   5   31.30    3.20
  -4  -4   5   25.40    2.80
   4   4  -5   37.40    3.00
   4   4  -5   33.50    3.10
  -5  -4   5   12.90    2.70
  -5  -4   5   16.50    3.20
   5   4  -5   11.60    2.60
   5   4  -5    8.00    3.00
  -6  -4   5   35.30    3.90
  -6  -4   5   25.70    4.60
   6   4  -5   39.70    4.70
   6   4  -5   34.40    4.10
  -7  -4   5   38.20    4.80
  -7  -4   5   31.50    5.20
   7   4  -5   47.80    5.70
  -8   2  -4    6.40    4.30
   7  -2   4    3.00    3.60
  -7   2  -4    5.80    3.20
   6  -2   4   69.39    4.60
  -6   2  -4   66.19    4.40
  -6   2  -4   63.59    3.70
   5  -2   4  100.89    4.90
   5  -2   4  104.09    3.90
  -5   2  -4  111.39    4.80
  -5   2  -4  113.19    4.20
   4  -2   4   37.90    2.00
   4  -2   4   35.90    2.10
   4  -2   4   41.10    2.10
   4  -2   4   37.80    2.80
  -4   2  -4   36.60    2.60
  -4   2  -4   40.00    2.30
  -4   2  -4   40.60    2.00
  -4   2  -4   30.60    1.90
   3  -2   4    5.50    1.40
   3  -2   4    3.00    1.10
   3  -2   4    4.30    0.90
   3  -2   4    3.50    1.10
   3  -2   4    2.10    1.00
  -3   2  -4    2.60    1.30
  -3   2  -4    4.10    1.10
  -3   2  -4    4.30    0.90
   2  -2   4   48.50    2.10
   2  -2   4   51.99    1.90
  -2   2  -4   50.29    2.10
  -2   2  -4   52.29    2.30
  -2   2  -4   50.79    2.10
  -2   2  -4   51.49    2.00
   1  -2   4   25.30    1.10
   1  -2   4   26.50    1.60
   1  -2   4   27.10    1.40
   1  -2   4   26.50    1.40
  -1   2  -4   25.60    1.40
  -1   2  -4   24.30    1.50
  -1   2  -4   23.60    1.40
  -1   2  -4   25.80    1.10
   0  -2   4 1536.55   30.70
   0  -2   4 1551.04   30.70
   0  -2   4 1492.25   30.70
   0  -2   4 1578.34   30.50
   0   2  -4 1487.25   30.50
   0   2  -4 1523.25   30.70
   0   2  -4 1557.24   30.60
  -1  -2   4   18.10    1.60
  -1  -2   4   16.70    1.40
  -1  -2   4   17.60    1.00
  -1  -2   4   20.30    1.30
  -1  -2   4   19.40    1.30
   1   2  -4   17.00    1.30
   1   2  -4   17.90    1.40
   1   2  -4   18.70    1.20
   1   2  -4   16.90    1.00
  -2  -2   4 1037.60   21.40
  -2  -2   4 1062.59   22.00
  -2  -2   4 1032.30   22.40
  -2  -2   4 1064.99   21.70
   2   2  -4 1093.79   21.30
   2   2  -4 1067.39   21.80
   2   2  -4 1035.20   22.40
   2   2  -4 1086.69   22.00
  -3  -2   4  219.08    6.50
   3   2  -4  212.08    6.00
   3   2  -4  219.88    6.20
  -4  -2   4  124.59    4.60
  -4  -2   4  128.99    5.00
   4   2  -4  130.69    5.00
   4   2  -4  125.69    4.50
  -5  -2   4   -1.50    1.70
  -5  -2   4   -0.10    2.20
   5   2  -4   -1.00    2.20
   5   2  -4    1.10    1.70
  -6  -2   4   22.90    3.70
  -6  -2   4   20.90    3.80
   6   2  -4   20.80    3.30
   6   2  -4   24.90    4.00
  -7  -2   4   29.10    5.10
  -7  -2   4   31.20    4.30
   7   2  -4   32.60    5.10
  -8  -2   4   16.80    4.80
  -8  -2   4   22.40    6.30
   7   0   3    6.20    3.70
  -7   0  -3    2.90    3.20
  -7   0  -3   -3.00    2.90
   6   0   3   18.30    3.50
  -6   0  -3   15.80    2.60
  -6   0  -3   18.90    2.80
   5   0   3   84.09    4.40
  -5   0  -3   86.69    4.00
  -5   0  -3   90.59    3.90
   4   0   3  329.87    9.00
   4   0   3  334.47    7.40
   4   0   3  333.87    7.70
  -4   0  -3  333.97    8.30
  -4   0  -3  342.87    7.50
  -4   0  -3  330.17    8.50
   3   0   3   27.40    1.70
   3   0   3   36.10    1.70
   3   0   3   29.40    2.10
   3   0   3   31.30    1.60
  -3   0  -3   30.50    1.70
  -3   0  -3   31.90    2.00
  -3   0  -3   31.20    1.30
  -3   0  -3   29.00    1.60
   2   0   3  364.76    8.30
   2   0   3  362.96    7.70
   2   0   3  338.97    7.80
   2   0   3  362.16    8.10
  -2   0  -3  359.26    7.70
  -2   0  -3  348.67    8.10
  -2   0  -3  342.77    7.60
  -2   0  -3  356.26    8.20
   1   0   3  197.88    4.80
   1   0   3  210.08    5.00
   1   0   3  200.98    4.80
   1   0   3  215.68    4.90
  -1   0  -3  205.38    4.90
  -1   0  -3  211.58    4.90
  -1   0  -3  212.38    4.90
  -1   0  -3  205.08    4.40
   0   0   3  119.49    3.00
   0   0   3  120.49    2.90
   0   0   3  125.79    3.20
   0   0   3  112.29    3.30
   0   0  -3  115.49    3.00
   0   0  -3  120.99    3.20
   0   0  -3  124.19    3.40
   0   0  -3  121.49    3.20
  -1   0   3   44.00    2.00
  -1   0   3   45.70    1.70
  -1   0   3   45.00    1.60
  -1   0   3   42.90    1.80
   1   0  -3   45.50    1.70
   1   0  -3   43.10    1.60
   1   0  -3   47.70    1.90
   1   0  -3   44.50    1.80
  -2   0   3   23.80    1.80
  -2   0   3   24.80    1.30
  -2   0   3   21.10    1.20
  -2   0   3   22.70    1.40
   2   0  -3   24.30    1.60
   2   0  -3   23.20    1.20
   2   0  -3   21.10    1.50
   2   0  -3   22.00    1.30
  -3   0   3  179.68    4.40
  -3   0   3  176.28    5.50
  -3   0   3  180.08    4.70
   3   0  -3  186.38    5.50
   3   0  -3  188.38    4.50
   3   0  -3  181.58    4.80
  -4   0   3  413.06    9.70
  -4   0   3  403.96   10.50
  -4   0   3  408.16    8.80
   4   0  -3  401.36   10.40
   4   0  -3  398.26    8.80
   4   0  -3  396.46    9.50
  -5   0   3   39.60    3.30
  -5   0   3   32.60    2.50
   5   0  -3   34.20    3.10
   5   0  -3   33.00    2.50
  -6   0   3    6.10    2.70
  -6   0   3   13.20    2.20
   6   0  -3    9.10    2.70
  -7   0   3   26.60    4.50
   7   0  -3   22.40    4.60
  -8   0   3   35.60    5.80
  -8  -2  -2   26.60    5.70
   7   2   2    6.60    3.90
  -7  -2  -2   15.10    3.60
   6   2   2    5.40    2.90
  -6  -2  -2    1.20    2.30
  -6  -2  -2    1.80    2.20
   5   2   2   27.80    3.20
  -5  -2  -2   23.90    2.80
  -5  -2  -2   23.50    2.40
   4   2   2  233.48    6.40
   4   2   2  241.18    7.40
  -4  -2  -2  253.97    6.50
  -4  -2  -2  244.18    7.10
   3   2   2  171.08    4.60
  -3  -2  -2  173.18    4.50
  -3  -2  -2  177.38    5.30
   2   2   2   23.50    1.20
   2   2   2   23.10    1.90
   2   2   2   22.20    1.20
   2   2   2   23.80    1.50
  -2  -2  -2   22.70    1.20
  -2  -2  -2   21.70    1.80
  -2  -2  -2   21.70    1.30
  -2  -2  -2   22.60    1.60
  -2  -2  -2   25.30    1.60
   1   2   2   83.69    2.60
   1   2   2   80.69    2.80
   1   2   2   87.49    3.00
  -1  -2  -2   84.29    2.70
  -1  -2  -2   83.49    2.50
  -1  -2  -2   82.29    2.60
   0   2   2  262.47    6.20
   0   2   2  261.17    6.70
   0   2   2  279.67    6.00
   0  -2  -2  271.07    6.20
   0  -2  -2  274.47    6.00
   0  -2  -2  261.67    6.60
   0  -2  -2  268.67    5.80
  -1   2   2  569.64   12.60
  -1   2   2  577.14   12.40
  -1   2   2  579.04   12.50
   1  -2  -2  583.44   12.50
   1  -2  -2  592.54   12.70
   1  -2  -2  596.24   12.40
  -2   2   2    1.50    0.90
  -2   2   2    0.20    1.20
   2  -2  -2    0.80    1.20
   2  -2  -2    0.20    0.90
  -3   2   2   76.79    2.90
  -3   2   2   76.49    2.10
  -3   2   2   73.59    3.30
   3  -2  -2   73.39    2.60
   3  -2  -2   73.69    3.40
  -4   2   2  242.88    6.40
  -4   2   2  239.48    7.30
  -4   2   2  249.88    5.80
  -4   2   2  232.38    5.80
   4  -2  -2  246.48    7.50
   4  -2  -2  243.68    6.30
  -5   2   2  159.28    6.20
  -5   2   2  158.58    4.40
  -5   2   2  155.98    4.60
  -5   2   2  166.38    5.00
   5  -2  -2  158.78    5.00
   5  -2  -2  158.68    6.40
  -6   2   2    0.80    2.60
  -6   2   2    2.20    1.70
   6  -2  -2   -0.10    2.70
  -7   2   2   14.00    3.70
   7  -2  -2   13.20    4.00
   7   4   1    8.40    5.10
  -7  -4  -1    2.00    3.70
   6   4   1   13.40    4.00
  -6  -4  -1    7.40    2.90
  -6  -4  -1   14.80    2.80
   5   4   1    1.10    2.80
  -5  -4  -1    2.80    1.80
  -5  -4  -1    1.50    2.10
   4   4   1  194.88    7.10
  -4  -4  -1  196.78    6.70
  -4  -4  -1  194.58    5.60
  -4  -4  -1  178.48    5.90
   3   4   1   95.19    3.10
   3   4   1   93.89    2.70
   3   4   1   93.09    4.30
  -3  -4  -1   93.19    3.90
  -3  -4  -1   96.49    3.70
  -3  -4  -1   91.79    3.00
  -3  -4  -1   90.49    2.80
   2   4   1  131.39    4.00
   2   4   1  131.99    4.80
  -2  -4  -1  131.89    4.30
  -2  -4  -1  135.79    3.80
  -2  -4  -1  133.29    4.00
  -2  -4  -1  125.69    3.60
   1   4   1    8.50    1.50
   1   4   1    7.30    1.20
   1   4   1    8.50    1.80
  -1  -4  -1    4.40    0.90
  -1  -4  -1    6.70    1.00
  -1  -4  -1    6.40    0.90
  -1  -4  -1    5.40    1.00
  -1  -4  -1    6.10    1.20
   0   4   1  250.27    6.10
   0   4   1  247.98    6.50
   0  -4  -1  250.47    6.10
   0  -4  -1  238.58    6.80
   0  -4  -1  249.58    5.90
   0  -4  -1  244.18    6.30
   0  -4  -1  249.38    5.80
  -1   4   1  327.97    7.90
  -1   4   1  316.27    8.00
   1  -4  -1  300.97    7.80
   1  -4  -1  316.97    7.70
   1  -4  -1  336.27    8.50
   1  -4  -1  303.57    8.30
  -2   4   1   73.29    3.30
  -2   4   1   72.29    3.20
   2  -4  -1   71.79    3.30
  -3   4   1   27.40    2.30
  -3   4   1   34.50    2.70
   3  -4  -1   32.70    2.50
  -4   4   1  134.99    5.60
  -4   4   1  141.89    5.10
   4  -4  -1  131.69    5.60
   4  -4  -1  141.99    5.10
  -5   4   1   47.00    3.20
  -5   4   1   51.59    4.20
   5  -4  -1   46.30    3.00
   5  -4  -1   37.70    4.90
  -6   4   1   39.90    4.50
   6  -4  -1   42.90    4.60
   6  -4  -1   40.70    3.30
  -7   4   1   10.60    4.10
   7  -4  -1    2.00    3.90
  -6  -6   0   15.60    3.50
   5   6   0    6.30    3.70
  -5  -6   0    5.40    2.80
   4   6   0   29.90    3.80
  -4  -6   0   27.20    2.50
   3   6   0   81.29    4.80
   3   6   0   81.59    3.20
  -3  -6   0   74.69    3.00
  -3  -6   0   87.19    4.10
  -3  -6   0   83.19    3.10
  -3  -6   0   82.79    3.70
   2   6   0   70.49    4.20
   2   6   0   69.69    3.00
  -2  -6   0   74.39    3.50
  -2  -6   0   70.49    3.00
  -2  -6   0   67.69    3.30
   1   6   0   27.80    2.40
   1   6   0   32.60    2.40
   1   6   0   32.40    3.10
  -1  -6   0   37.60    2.40
  -1  -6   0   34.40    2.20
  -1  -6   0   31.80    2.20
   0   6   0   26.00    2.30
   0   6   0   18.20    2.20
   0  -6   0   19.40    1.60
   0  -6   0   20.10    1.70
  -1   6   0  237.18    7.20
  -1   6   0  236.08    7.00
   1  -6   0  243.58    7.20
   1  -6   0  240.38    5.60
   1  -6   0  241.98    7.50
   1  -6   0  245.88    5.70
  -2   6   0  152.18    5.50
  -2   6   0  152.48    5.60
   2  -6   0  152.98    5.60
   2  -6   0  150.58    5.70
  -3   6   0   47.10    3.30
  -3   6   0   47.10    3.60
   3  -6   0   48.70    3.50
   3  -6   0   48.70    3.40
  -4   6   0   34.60    3.40
  -4   6   0   39.00    3.80
   4  -6   0   40.10    4.00
   4  -6   0   36.70    3.80
  -5   6   0   80.39    4.60
  -5   6   0   77.09    5.20
   5  -6   0   74.09    4.60
   5  -6   0   73.79    5.30
  -6   6   0   26.90    4.90
   6  -6   0   23.10    4.40
   6  -6   0   27.50    4.00
   5   8  -1   14.50    4.90
  -5  -8   1   21.00    3.90
   4   8  -1   -5.20    3.60
  -4  -8   1   -1.20    2.70
   3   8  -1   19.80    4.10
  -3  -8   1   11.40    2.30
  -3  -8   1   14.30    2.80
  -3  -8   1   12.20    2.70
   2   8  -1  111.49    4.70
   2   8  -1  113.59    7.20
  -2  -8   1  113.89    4.50
  -2  -8   1  124.39    5.10
  -2  -8   1  103.89    5.10
   1   8  -1   34.90    3.10
   1   8  -1   32.80    3.10
  -1  -8   1   31.90    2.60
  -1  -8   1   29.90    2.80
  -1  -8   1   36.80    2.90
   0   8  -1    4.70    2.10
   0  -8   1    3.80    1.50
   0  -8   1    4.80    2.30
  -1   8  -1   30.10    3.30
  -1   8  -1   28.90    3.30
   1  -8   1   30.40    3.00
   1  -8   1   29.10    1.90
   1  -8   1   27.30    3.00
  -2   8  -1   46.80    5.70
  -2   8  -1   53.09    3.90
   2  -8   1   47.50    3.90
   2  -8   1   56.09    3.90
  -3   8  -1   34.20    4.10
  -3   8  -1   35.60    3.80
   3  -8   1   42.90    3.60
   3  -8   1   38.20    3.70
  -4   8  -1   -0.40    3.30
  -4   8  -1    2.80    3.10
   4  -8   1    0.20    3.00
   4  -8   1    0.70    2.90
  -5   8  -1   12.50    4.00
   5  -8   1   10.80    3.70
   5  -8   1   20.50    4.20
   4  10  -2   20.70    7.30
   3  10  -2   -0.30    5.20
  -3 -10   2    4.10    3.30
  -2 -10   2   21.90    3.70
  -2 -10   2   23.30    4.30
   1  10  -2   27.50    4.20
   1  10  -2   38.90    4.40
  -1 -10   2   37.70    3.70
  -1 -10   2   31.70    4.10
  -1 -10   2   30.50    4.10
  -1 -10   2   35.20    3.30
   0  10  -2   37.60    4.20
   0  10  -2   42.30    4.40
   0 -10   2   53.09    4.20
   0 -10   2   45.40    4.00
   0 -10   2   39.30    4.10
  -1  10  -2    7.20    3.30
  -1  10  -2   11.10    3.50
   1 -10   2    7.90    3.10
   1 -10   2    6.80    3.00
  -2  10  -2   22.70    4.30
  -2  10  -2   22.90    4.30
   2 -10   2   24.80    3.90
   2 -10   2   28.00    4.10
  -3  10  -2   35.20    5.10
   3 -10   2   26.00    4.50
   4 -10   2    1.40    4.30
   0 -11   9   21.90    4.70
   0 -11   9   35.20    5.60
   0  11  -9   26.10    4.70
  -1 -11   9    3.50    4.50
  -1 -11   9    0.30    3.90
  -2 -11   9   13.90    3.90
   2  11  -9   10.30    4.70
   4  -9   8   27.40    4.60
  -4   9  -8   28.50    5.30
   3  -9   8   24.10    3.90
  -3   9  -8   25.20    4.50
   2  -9   8   -3.00    2.80
  -2   9  -8    0.30    3.00
   1  -9   8   38.20    3.50
   1  -9   8   34.30    4.20
  -1   9  -8   34.30    2.60
  -1   9  -8   34.90    4.20
   0  -9   8   70.59    4.50
   0  -9   8   68.89    4.70
   0   9  -8   73.69    4.00
   0   9  -8   73.99    5.00
  -1  -9   8   58.29    3.80
  -1  -9   8   47.50    4.50
  -2  -9   8    0.50    2.50
  -2  -9   8    0.20    3.20
  -2  -9   8   -3.60    2.40
   2   9  -8    5.20    2.90
  -3  -9   8   16.20    4.30
  -3  -9   8   12.50    3.20
  -4  -9   8   33.20    4.50
  -4  -9   8   32.40    5.70
   4   9  -8   30.10    4.50
   6  -7   7   -2.20    3.70
   6  -7   7    3.50    3.90
  -6   7  -7   -0.50    4.40
   5  -7   7   57.49    4.60
   5  -7   7   73.79    4.40
  -5   7  -7   69.99    5.20
   4  -7   7   39.00    3.20
  -4   7  -7   37.40    4.10
   3  -7   7   78.99    3.70
   3  -7   7   80.29    4.70
  -3   7  -7   81.89    4.80
   2  -7   7    8.20    1.70
  -2   7  -7    1.90    2.20
  -2   7  -7    5.40    1.40
   1  -7   7    1.20    1.20
   1  -7   7   -0.10    1.70
   1  -7   7    2.90    1.60
  -1   7  -7    2.40    1.40
  -1   7  -7    2.20    1.90
   0  -7   7  112.59    3.70
   0  -7   7  133.19    5.20
   0  -7   7  127.99    5.30
   0  -7   7  126.89    4.00
   0   7  -7  122.69    5.50
   0   7  -7  128.19    4.50
  -1  -7   7  117.09    4.60
  -1  -7   7  114.39    5.20
  -1  -7   7  103.79    3.50
   1   7  -7  114.89    4.50
   1   7  -7  117.29    5.50
  -2  -7   7   23.70    2.20
  -2  -7   7   15.80    3.10
   2   7  -7   23.50    2.70
   2   7  -7   21.30    2.60
  -3  -7   7   22.50    4.10
  -3  -7   7   21.50    3.10
  -3  -7   7   20.00    2.20
   3   7  -7   24.00    3.30
   3   7  -7   15.90    3.00
  -4  -7   7   33.20    3.70
  -4  -7   7   27.70    4.50
   4   7  -7   39.00    4.10
   4   7  -7   36.40    3.90
  -5  -7   7   28.10    4.00
  -5  -7   7   31.20    4.90
   5   7  -7   30.10    4.80
   5   7  -7   29.80    4.40
   6   7  -7   18.40    5.20
   7  -5   6   19.20    4.30
  -7   5  -6   15.40    4.50
   6  -5   6   16.50    3.40
   6  -5   6   12.10    3.10
  -6   5  -6   17.70    3.80
   5  -5   6    8.00    3.10
   5  -5   6   14.50    2.90
  -5   5  -6   17.40    3.10
   4  -5   6   20.10    2.70
   4  -5   6   25.40    2.60
  -4   5  -6   26.70    3.20
   3  -5   6  331.87    7.60
   3  -5   6  328.07    9.20
   3  -5   6  333.17    8.60
  -3   5  -6  323.17    7.60
  -3   5  -6  334.17    9.30
   2  -5   6  109.89    4.40
   2  -5   6  108.89    3.50
  -2   5  -6  113.49    3.70
  -2   5  -6  114.19    4.50
  -2   5  -6  117.49    3.40
   1  -5   6   82.69    2.70
   1  -5   6   77.89    2.50
   1  -5   6   80.59    3.50
   1  -5   6   81.19    2.90
  -1   5  -6   81.59    3.70
  -1   5  -6   80.69    3.30
   0  -5   6  210.38    5.00
   0  -5   6  207.38    6.10
   0  -5   6  213.68    6.10
   0  -5   6  206.78    6.40
   0  -5   6  208.98    5.10
   0   5  -6  213.08    6.40
   0   5  -6  211.58    5.70
  -1  -5   6  376.46   10.00
  -1  -5   6  372.76    9.60
  -1  -5   6  394.06    9.40
  -1  -5   6  369.66    8.50
   1   5  -6  386.76   10.10
   1   5  -6  373.66    9.80
   1   5  -6  373.36    8.90
   1   5  -6  382.76    9.40
  -2  -5   6   90.19    3.10
  -2  -5   6   94.59    3.10
  -2  -5   6   94.39    3.40
  -2  -5   6   94.09    4.40
   2   5  -6   95.69    3.20
   2   5  -6   90.29    3.90
   2   5  -6   97.29    3.70
  -3  -5   6   44.80    2.30
  -3  -5   6   43.90    2.00
  -3  -5   6   40.50    3.60
   3   5  -6   50.39    3.10
   3   5  -6   48.70    3.10
  -4  -5   6   12.50    3.10
  -4  -5   6   10.70    2.50
   4   5  -6   16.10    2.90
   4   5  -6   14.50    2.90
  -5  -5   6   13.00    2.90
  -5  -5   6    8.10    3.10
   5   5  -6   13.40    4.00
   5   5  -6   12.10    2.90
  -6  -5   6   33.10    4.20
  -6  -5   6   28.90    4.70
   6   5  -6   26.90    4.90
   6   5  -6   31.80    4.60
  -7  -5   6   -5.80    4.90
   7   5  -6   -1.50    5.10
  -8   3  -5    1.60    4.90
   7  -3   5   10.20    3.90
   6  -3   5   42.90    4.00
   6  -3   5   42.80    3.00
  -6   3  -5   52.29    4.10
  -6   3  -5   39.70    3.00
   5  -3   5    0.30    2.10
   5  -3   5    0.10    1.60
  -5   3  -5    2.10    2.00
  -5   3  -5   -1.90    1.60
   4  -3   5   13.50    1.90
   4  -3   5   10.90    1.60
   4  -3   5   16.00    2.10
  -4   3  -5   14.30    2.30
  -4   3  -5   14.80    1.90
   3  -3   5  337.77    8.60
   3  -3   5  338.47    7.80
   3  -3   5  341.77    8.40
  -3   3  -5  334.77    9.00
  -3   3  -5  335.77    8.60
  -3   3  -5  338.17    8.10
   2  -3   5  247.08    6.50
   2  -3   5  228.78    6.10
   2  -3   5  239.18    5.80
   2  -3   5  237.58    5.80
   2  -3   5  220.88    6.20
  -2   3  -5  230.08    6.20
  -2   3  -5  239.18    6.30
  -2   3  -5  229.98    5.90
  -2   3  -5  241.08    5.80
   1  -3   5  199.28    5.50
   1  -3   5  199.48    4.50
   1  -3   5  202.38    5.10
  -1   3  -5  200.78    5.30
  -1   3  -5  197.38    5.00
  -1   3  -5  196.58    4.60
  -1   3  -5  195.68    5.50
   0  -3   5    9.10    1.10
   0  -3   5   10.10    1.40
   0  -3   5   10.40    1.10
   0   3  -5    7.70    1.00
   0   3  -5    9.40    1.10
  -1  -3   5  118.89    3.00
  -1  -3   5  124.79    4.20
  -1  -3   5  117.99    3.60
  -1  -3   5  116.29    3.50
   1   3  -5  111.49    3.70
   1   3  -5  112.69    3.10
   1   3  -5  116.19    3.70
   1   3  -5  118.49    3.40
  -2  -3   5  451.35    9.90
  -2  -3   5  432.46   11.00
  -2  -3   5  450.25    9.80
   2   3  -5  443.96   10.40
   2   3  -5  452.15   10.10
   2   3  -5  446.36    9.70
  -3  -3   5  152.08    5.50
  -3  -3   5  139.69    3.90
   3   3  -5  153.88    4.90
   3   3  -5  149.29    4.90
  -4  -3   5    2.00    2.30
   4   3  -5    2.50    1.90
   4   3  -5   -0.40    1.40
  -5  -3   5   11.70    3.00
   5   3  -5   10.70    2.20
   5   3  -5    8.00    2.70
  -6  -3   5   22.10    4.20
   6   3  -5   20.90    3.60
   6   3  -5   21.40    4.40
  -7  -3   5   23.10    4.40
   7   3  -5   18.60    4.60
   7  -1   4   19.70    4.50
  -7   1  -4   20.50    3.30
  -7   1  -4   26.20    3.90
   6  -1   4   43.70    4.20
  -6   1  -4   42.10    3.60
  -6   1  -4   42.10    3.60
   5  -1   4   10.90    2.40
   5  -1   4   10.50    1.60
   5  -1   4   10.70    1.60
  -5   1  -4   12.80    2.20
  -5   1  -4   11.90    2.30
   4  -1   4    4.10    1.10
   4  -1   4    4.00    1.20
   4  -1   4    3.80    1.60
  -4   1  -4    2.40    1.10
  -4   1  -4    2.80    1.40
  -4   1  -4    4.40    1.50
   3  -1   4   12.50    1.30
   3  -1   4   11.90    1.20
   3  -1   4   14.90    1.70
   3  -1   4   16.80    1.40
  -3   1  -4   14.80    1.40
  -3   1  -4   12.10    1.10
  -3   1  -4   11.90    1.60
   2  -1   4  124.69    3.50
   2  -1   4  128.59    3.70
   2  -1   4  123.89    3.50
   2  -1   4  128.29    3.70
  -2   1  -4  121.49    3.80
  -2   1  -4  131.59    3.70
  -2   1  -4  127.79    3.60
  -2   1  -4  131.09    3.60
   1  -1   4 4635.34   92.39
   1  -1   4 4350.16   91.89
   1  -1   4 4701.83   92.29
   1  -1   4 4814.22   91.59
  -1   1  -4 4865.91   91.69
  -1   1  -4 4815.92   91.79
  -1   1  -4 4689.93   92.79
  -1   1  -4 4743.33   91.99
   0  -1   4    7.80    1.30
   0  -1   4    7.50    1.10
   0  -1   4    7.60    1.00
   0  -1   4    7.30    1.20
   0   1  -4    9.20    1.20
   0   1  -4    6.50    1.00
   0   1  -4    6.80    1.00
  -1  -1   4  150.38    3.50
  -1  -1   4  148.79    3.80
  -1  -1   4  140.89    3.90
  -1  -1   4  142.69    4.10
   1   1  -4  150.68    3.90
   1   1  -4  144.29    3.80
   1   1  -4  147.19    4.10
   1   1  -4  141.89    3.80
  -2  -1   4  296.97    6.90
  -2  -1   4  290.67    6.50
  -2  -1   4  286.07    6.80
   2   1  -4  283.97    7.10
   2   1  -4  287.67    6.80
   2   1  -4  291.57    6.60
   2   1  -4  289.47    7.10
  -3  -1   4  514.85   11.70
  -3  -1   4  533.65   12.50
  -3  -1   4  499.35   10.90
  -3  -1   4  507.95   12.70
   3   1  -4  546.95   12.30
   3   1  -4  535.85   11.10
   3   1  -4  536.55   11.90
  -4  -1   4   71.29    3.80
   4   1  -4   73.39    3.20
   4   1  -4   69.69    3.60
  -5  -1   4   -1.90    1.50
  -5  -1   4    4.10    2.30
   5   1  -4    1.90    1.70
   5   1  -4    1.20    2.30
  -6  -1   4   46.70    4.40
  -6  -1   4   50.99    3.50
   6   1  -4   49.40    3.50
   6   1  -4   55.89    4.60
  -7  -1   4   14.60    3.90
  -7  -1   4   19.70    3.20
   7   1  -4   24.10    4.80
  -8  -1  -3    1.20    4.60
   7   1   3    4.00    3.80
  -7  -1  -3   -0.10    3.00
   6   1   3   20.80    3.80
  -6  -1  -3   25.90    3.00
   5   1   3   78.59    4.40
  -5  -1  -3   78.69    3.40
  -5  -1  -3   72.19    3.90
   4   1   3  100.29    4.30
   4   1   3  102.09    3.50
  -4  -1  -3  104.19    3.50
  -4  -1  -3  103.49    4.10
   3   1   3  274.37    6.40
   3   1   3  258.17    6.00
   3   1   3  263.27    7.20
  -3  -1  -3  269.87    6.00
  -3  -1  -3  264.27    6.30
  -3  -1  -3  270.57    7.00
   2   1   3  346.57    8.00
   2   1   3  337.77    7.60
   2   1   3  358.26    7.40
  -2  -1  -3  345.77    7.70
  -2  -1  -3  340.97    7.20
  -2  -1  -3  345.67    8.20
   1   1   3  258.47    6.10
   1   1   3  267.17    6.40
   1   1   3  266.97    6.20
  -1  -1  -3  276.37    6.40
  -1  -1  -3  274.87    6.20
  -1  -1  -3  266.97    6.30
   0   1   3  205.58    5.10
   0   1   3  206.78    4.40
   0   1   3  196.28    4.90
   0   1   3  213.18    4.80
   0  -1  -3  205.68    4.90
   0  -1  -3  209.78    4.80
   0  -1  -3  186.88    5.00
   0  -1  -3  204.78    5.10
  -1   1   3  219.18    5.20
  -1   1   3  227.28    6.00
  -1   1   3  222.38    5.30
  -1   1   3  200.58    5.10
   1  -1  -3  215.08    5.20
   1  -1  -3  227.18    5.20
   1  -1  -3  206.78    5.30
   1  -1  -3  208.78    4.90
  -2   1   3   52.59    1.70
  -2   1   3   48.60    2.50
  -2   1   3   49.70    2.10
  -2   1   3   48.30    2.00
   2  -1  -3   49.10    2.00
   2  -1  -3   54.29    2.30
   2  -1  -3   52.19    2.30
   2  -1  -3   50.59    1.70
  -3   1   3  347.87    7.60
  -3   1   3  328.07    8.70
  -3   1   3  347.47    7.90
   3  -1  -3  328.57    7.60
   3  -1  -3  341.57    8.80
   3  -1  -3  342.27    7.80
  -4   1   3  222.48    5.60
  -4   1   3  228.38    5.90
  -4   1   3  222.18    5.70
  -4   1   3  221.28    6.90
   4  -1  -3  217.68    5.70
   4  -1  -3  214.68    6.90
   4  -1  -3  216.48    5.60
  -5   1   3    6.10    1.40
  -5   1   3    3.80    2.20
  -5   1   3    2.80    1.50
   5  -1  -3    3.20    1.40
   5  -1  -3    6.60    1.50
   5  -1  -3    7.80    2.40
   5  -1  -3    5.70    1.40
  -6   1   3    0.90    1.80
  -6   1   3   -1.40    2.50
   6  -1  -3    5.70    2.60
  -7   1   3   22.70    4.70
   7  -1  -3   34.60    4.60
   7   3   2    7.30    4.30
  -7  -3  -2   10.20    3.60
   6   3   2    3.20    3.00
  -6  -3  -2    7.50    2.40
  -6  -3  -2    3.70    2.70
  -5  -3  -2   34.90    3.40
  -5  -3  -2   37.70    2.70
   4   3   2   36.50    2.20
   4   3   2   37.50    3.20
  -4  -3  -2   40.50    2.90
  -4  -3  -2   41.50    2.20
   3   3   2   75.69    2.20
   3   3   2   69.09    3.50
   3   3   2   76.29    2.50
  -3  -3  -2   74.69    2.50
  -3  -3  -2   73.19    3.40
  -3  -3  -2   74.69    2.50
   2   3   2    0.20    1.20
   2   3   2    0.70    0.70
  -2  -3  -2   -0.30    1.00
  -2  -3  -2    0.00    0.70
  -2  -3  -2   -0.30    0.50
   1   3   2 1385.76   28.10
   1   3   2 1313.77   26.70
   1   3   2 1331.77   27.30
   1   3   2 1310.07   27.20
  -1  -3  -2 1351.96   27.90
  -1  -3  -2 1361.66   27.30
  -1  -3  -2 1366.46   27.20
  -1  -3  -2 1278.17   27.80
  -1  -3  -2 1359.56   26.80
  -1  -3  -2 1362.46   26.60
   0   3   2  529.65   13.20
   0   3   2  517.75   11.30
   0   3   2  524.05   12.30
   0   3   2  540.75   11.40
   0  -3  -2  537.75   12.40
   0  -3  -2  542.75   11.30
   0  -3  -2  554.34   11.40
   0  -3  -2  551.44   11.90
   0  -3  -2  554.54   11.40
  -1   3   2  275.07    5.90
  -1   3   2  280.47    7.00
  -1   3   2  289.37    6.80
   1  -3  -2  285.47    7.30
   1  -3  -2  273.27    6.70
   1  -3  -2  272.47    6.80
   1  -3  -2  273.47    6.00
  -2   3   2    2.30    1.30
  -2   3   2    3.40    1.30
   2  -3  -2    3.80    1.00
   2  -3  -2    3.30    1.00
   2  -3  -2    3.70    1.40
  -3   3   2  126.69    4.60
  -3   3   2  134.89    4.40
   3  -3  -2  130.09    4.80
  -4   3   2  222.98    6.40
  -4   3   2  213.68    7.10
   4  -3  -2  226.68    7.40
  -5   3   2   42.10    3.70
  -5   3   2   45.50    2.80
   5  -3  -2   45.80    3.80
   5  -3  -2   46.60    2.80
  -6   3   2    3.80    3.00
  -6   3   2   -0.90    2.10
   6  -3  -2    3.40    2.80
   6  -3  -2    2.30    2.10
  -7   3   2   26.20    4.90
   7  -3  -2   18.80    4.20
  -6  -5  -1    2.10    3.00
   5   5   1   14.30    3.70
  -5  -5  -1   14.30    2.70
  -5  -5  -1   12.90    2.40
   4   5   1   42.30    3.90
  -4  -5  -1   39.60    2.70
  -4  -5  -1   40.10    3.60
   3   5   1   31.20    3.30
   3   5   1   33.60    1.90
  -3  -5  -1   36.30    1.80
  -3  -5  -1   30.60    2.80
  -3  -5  -1   36.20    2.20
  -3  -5  -1   30.20    1.80
   2   5   1   11.70    1.60
   2   5   1   15.90    2.60
  -2  -5  -1   15.20    1.40
  -2  -5  -1   11.00    1.80
   1   5   1   87.29    3.40
   1   5   1   88.29    4.30
  -1  -5  -1   90.69    3.60
  -1  -5  -1   88.39    2.90
  -1  -5  -1   84.79    3.30
   0   5   1  226.88    6.10
   0   5   1  220.78    6.30
   0  -5  -1  217.78    5.50
   0  -5  -1  226.48    5.80
  -1   5   1  463.25   11.20
  -1   5   1  474.45   11.60
   1  -5  -1  479.95   10.00
   1  -5  -1  486.15   10.10
   1  -5  -1  477.85   12.10
  -2   5   1   35.10    2.60
  -2   5   1   32.80    2.70
   2  -5  -1   31.80    2.60
  -3   5   1   31.40    2.70
  -3   5   1   30.50    2.90
   3  -5  -1   32.60    2.90
   3  -5  -1   29.50    2.60
  -4   5   1   83.29    4.10
  -4   5   1   77.29    4.60
   4  -5  -1   81.79    4.60
   4  -5  -1   83.69    4.30
  -5   5   1   45.10    4.10
  -5   5   1   42.90    4.20
   5  -5  -1   37.50    4.40
   5  -5  -1   43.50    3.40
  -6   5   1   11.00    3.70
  -6   5   1   12.30    3.10
   6  -5  -1   11.70    3.60
   6  -5  -1    5.50    3.00
  -5  -7   0    1.90    3.10
   4   7   0   26.80    4.20
  -4  -7   0   23.00    3.40
  -4  -7   0   19.00    2.90
   3   7   0   15.30    2.20
  -3  -7   0   20.60    2.00
  -3  -7   0   21.30    2.90
  -3  -7   0   16.50    2.60
   2   7   0   51.89    3.00
   2   7   0   48.30    4.40
  -2  -7   0   51.79    2.80
  -2  -7   0   51.79    3.30
  -2  -7   0   49.40    3.20
   1   7   0    0.30    1.70
   1   7   0    0.80    2.20
   1   7   0    3.70    1.70
  -1  -7   0    0.90    1.50
  -1  -7   0    2.60    1.50
   0   7   0   58.19    3.40
   0   7   0   66.09    3.70
   0  -7   0   62.29    3.60
   0  -7   0   61.19    2.80
  -1   7   0  214.38    7.00
  -1   7   0  221.58    7.30
   1  -7   0  229.78    5.60
   1  -7   0  216.78    7.50
   1  -7   0  217.28    7.30
  -2   7   0  182.08    6.50
   2  -7   0  181.38    6.80
  -3   7   0    0.30    2.20
   3  -7   0   -0.40    2.20
   3  -7   0    0.00    2.10
  -4   7   0   30.30    3.60
  -4   7   0   30.00    3.90
   4  -7   0   27.40    3.70
   4  -7   0   24.70    3.40
  -5   7   0   33.90    4.60
  -5   7   0   46.50    4.30
   5  -7   0   39.80    4.60
   5  -7   0   41.00    3.90
   6  -7   0   24.50    4.80
   6  -7   0   23.60    4.60
   4   9  -1    6.10    4.80
  -4  -9   1    0.90    3.30
  -3  -9   1   24.50    3.80
   2   9  -1   46.10    5.20
   2   9  -1   40.90    3.60
  -2  -9   1   35.00    3.20
  -2  -9   1   37.50    3.50
  -2  -9   1   37.50    3.90
   1   9  -1    9.40    2.80
   1   9  -1   17.00    2.80
  -1  -9   1   14.40    2.30
  -1  -9   1   15.00    2.90
  -1  -9   1   15.40    2.70
   0   9  -1   11.40    3.00
   0   9  -1   10.10    2.90
   0  -9   1   14.50    3.20
   0  -9   1   14.50    2.90
   0  -9   1   12.10    2.00
   0  -9   1   16.40    2.90
  -1   9  -1   55.49    4.30
  -1   9  -1   57.89    4.30
   1  -9   1   60.39    4.00
   1  -9   1   56.29    4.20
  -2   9  -1   45.90    4.20
  -2   9  -1   46.90    4.20
   2  -9   1   45.90    4.00
   2  -9   1   46.10    4.00
  -3   9  -1   32.40    4.20
  -3   9  -1   35.50    4.20
   3  -9   1   34.60    4.10
   3  -9   1   34.50    4.00
  -4   9  -1   -3.60    3.70
  -4   9  -1   -1.20    3.80
   4  -9   1    5.90    3.50
   4  -9   1    0.90    3.70
   5  -9   1    9.70    4.50
  -1 -11   2   24.10    4.80
  -1 -11   2   27.80    4.20
   0  11  -2    2.60    4.10
   0  11  -2    1.60    4.20
   0 -11   2    4.90    4.60
   0 -11   2    6.90    3.90
   0 -11   2   -2.40    3.90
  -1  11  -2   18.90    4.30
   1 -11   2   24.30    4.60
  -2  11  -2   37.60    5.10
   2 -11   2   46.70    5.20
   3 -11   2   29.30    5.40
  -3  10  -9   11.20    4.90
   2 -10   9   12.40    3.60
   2 -10   9   14.90    3.80
  -2  10  -9    8.30    3.80
   1 -10   9   26.60    3.80
   1 -10   9   27.50    4.40
  -1  10  -9   25.70    4.80
   0 -10   9   20.60    4.10
   0 -10   9   20.80    3.20
   0 -10   9   19.80    3.70
   0  10  -9   22.40    4.30
  -1 -10   9    5.60    3.00
  -1 -10   9   -1.70    3.70
  -1 -10   9   -0.20    2.70
   1  10  -9    1.40    3.20
  -2 -10   9   30.70    5.00
  -2 -10   9   23.50    4.10
  -2 -10   9   21.20    3.80
   2  10  -9   24.70    4.60
  -3 -10   9   32.50    4.30
  -3 -10   9   37.80    6.00
   3  10  -9   40.40    5.40
   5  -8   8   24.10    4.10
  -5   8  -8   24.10    4.40
   4  -8   8   47.10    4.50
   4  -8   8   49.60    3.60
  -4   8  -8   42.00    5.10
   3  -8   8   12.20    2.50
   3  -8   8   14.70    3.10
  -3   8  -8   13.70    3.40
   2  -8   8   10.20    2.80
   2  -8   8   12.80    2.20
  -2   8  -8   16.50    3.40
  -2   8  -8   17.70    2.00
   1  -8   8   73.39    4.30
   1  -8   8   76.09    3.20
   1  -8   8   75.09    4.60
  -1   8  -8   76.29    3.40
  -1   8  -8   76.09    4.70
   0  -8   8   20.90    2.80
   0  -8   8   27.50    2.10
   0  -8   8   27.20    3.30
   0   8  -8   26.30    2.60
   0   8  -8   18.00    3.40
  -1  -8   8   33.30    3.60
  -1  -8   8   28.70    3.00
   1   8  -8   34.70    2.90
  -2  -8   8    9.50    2.20
  -2  -8   8   13.80    3.20
   2   8  -8   13.30    2.50
   2   8  -8   13.30    2.60
  -3  -8   8   50.49    4.80
  -3  -8   8   38.10    3.00
  -3  -8   8   37.80    3.70
   3   8  -8   40.80    4.30
   3   8  -8   51.09    3.60
  -4  -8   8   48.30    5.20
  -4  -8   8   41.60    4.30
   4   8  -8   40.90    4.80
   4   8  -8   49.50    5.20
  -5  -8   8   14.10    4.80
   7  -6   7   -5.50    4.80
   6  -6   7   -2.30    3.20
   6  -6   7   -3.10    3.30
  -6   6  -7   -0.70    3.60
   5  -6   7   14.80    3.00
   5  -6   7   16.30    3.10
  -5   6  -7   18.60    3.70
   4  -6   7  134.19    5.90
   4  -6   7  137.49    5.30
  -4   6  -7  146.39    6.20
   3  -6   7   32.00    3.10
   3  -6   7   29.20    3.00
   3  -6   7   28.60    2.40
  -3   6  -7   35.20    3.30
   2  -6   7    8.10    1.60
   2  -6   7    7.50    1.30
  -2   6  -7    8.10    2.20
  -2   6  -7    8.00    1.40
   1  -6   7  103.19    3.30
   1  -6   7  108.99    4.40
   1  -6   7  106.69    3.20
  -1   6  -7  105.39    4.60
  -1   6  -7  109.59    3.70
   0  -6   7   16.40    1.20
   0  -6   7   15.20    2.10
   0  -6   7   19.70    2.40
   0  -6   7   14.80    1.20
   0   6  -7   16.60    2.50
   0   6  -7   17.50    1.90
  -1  -6   7   93.49    2.90
  -1  -6   7   91.19    4.50
  -1  -6   7   97.89    3.90
   1   6  -7   91.69    3.30
   1   6  -7   91.89    3.90
   1   6  -7   93.69    4.60
  -2  -6   7  127.89    4.40
  -2  -6   7  124.79    5.50
  -2  -6   7  117.99    3.80
   2   6  -7  122.79    4.90
   2   6  -7  119.99    4.50
  -3  -6   7   52.59    4.30
  -3  -6   7   40.00    2.30
  -3  -6   7   47.10    2.70
   3   6  -7   42.80    3.20
   3   6  -7   48.50    3.50
  -4  -6   7  120.19    5.80
   4   6  -7  130.99    5.70
   4   6  -7  118.19    5.40
  -5  -6   7   37.30    4.70
  -5  -6   7   37.80    4.00
   5   6  -7   43.20    4.50
   5   6  -7   42.00    4.40
  -6  -6   7   -2.90    3.40
  -6  -6   7    5.90    4.20
   6   6  -7   -4.90    4.00
   6   6  -7    2.50    4.20
   7  -4   6   15.50    4.00
  -7   4  -6   20.50    4.10
   6  -4   6   15.60    3.50
   6  -4   6   20.30    2.90
  -6   4  -6   24.80    3.80
   5  -4   6    5.20    2.10
   5  -4   6    7.70    2.40
  -5   4  -6    6.00    2.40
  -5   4  -6    6.00    1.90
   4  -4   6  123.59    3.80
   4  -4   6  127.49    4.80
   4  -4   6  126.09    4.90
  -4   4  -6  126.99    5.10
  -4   4  -6  124.99    4.30
   3  -4   6  217.78    5.50
   3  -4   6  225.28    6.70
   3  -4   6  222.08    6.10
  -3   4  -6  223.58    6.70
  -3   4  -6  208.38    5.80
   2  -4   6  129.29    4.50
   2  -4   6  124.99    3.80
   2  -4   6  130.59    3.60
  -2   4  -6  127.59    4.50
  -2   4  -6  123.19    3.70
  -2   4  -6  125.49    3.80
   1  -4   6    4.70    0.80
   1  -4   6    4.00    1.30
   1  -4   6    4.90    1.00
  -1   4  -6    5.00    1.00
  -1   4  -6    5.20    1.50
   0  -4   6  466.85   10.60
   0  -4   6  436.16   10.60
   0  -4   6  423.56   10.30
   0  -4   6  437.86   10.00
   0   4  -6  433.66   10.30
   0   4  -6  456.15   10.10
   0   4  -6  445.36   10.70
  -1  -4   6  474.85   11.40
  -1  -4   6  471.05    9.80
  -1  -4   6  471.55   10.70
   1   4  -6  471.15   10.60
   1   4  -6  457.25   10.70
   1   4  -6  429.66   10.00
  -2  -4   6    3.80    1.00
  -2  -4   6    1.80    1.10
  -2  -4   6    4.20    0.90
  -2  -4   6    3.00    1.60
   2   4  -6    2.90    0.90
   2   4  -6    3.70    1.40
   2   4  -6    2.50    1.00
  -3  -4   6    1.10    0.90
  -3  -4   6    2.00    1.90
  -3  -4   6    3.70    1.10
   3   4  -6    1.30    1.40
   3   4  -6    3.40    1.60
   3   4  -6    1.40    1.00
  -4  -4   6    9.30    2.50
   4   4  -6    3.70    1.80
   4   4  -6    7.80    2.30
  -5  -4   6   81.89    5.70
  -5  -4   6   73.59    4.70
   5   4  -6   79.79    4.80
   5   4  -6   83.09    4.50
  -6  -4   6   69.79    5.60
  -6  -4   6   75.29    4.70
   6   4  -6   65.69    5.30
   6   4  -6   66.59    5.10
  -7  -4   6    4.80    3.90
  -7  -4   6   -2.00    4.10
   7   4  -6   -0.50    4.60
   7   4  -6   12.50    4.10
   7  -2   5   19.60    4.40
  -7   2  -5   12.40    3.30
   6  -2   5   29.50    3.70
  -6   2  -5   31.30    3.10
  -6   2  -5   27.20    3.40
   5  -2   5   -0.50    1.90
   5  -2   5    1.00    1.50
  -5   2  -5    0.50    1.60
   4  -2   5    8.40    2.00
   4  -2   5    8.60    1.50
   4  -2   5    9.30    1.70
  -4   2  -5    6.40    1.50
  -4   2  -5    8.40    1.60
  -4   2  -5    6.00    1.80
   3  -2   5  219.78    6.00
   3  -2   5  213.98    5.70
   3  -2   5  213.58    5.80
   3  -2   5  211.98    5.80
   3  -2   5  221.68    5.60
  -3   2  -5  218.38    6.00
  -3   2  -5  224.48    6.00
  -3   2  -5  213.98    5.80
  -3   2  -5  210.58    5.70
   2  -2   5  285.77    6.70
   2  -2   5  284.67    6.70
   2  -2   5  287.17    7.10
   2  -2   5  279.77    6.90
  -2   2  -5  288.67    6.80
  -2   2  -5  284.67    6.90
  -2   2  -5  284.37    7.00
  -2   2  -5  281.47    6.90
   1  -2   5   10.60    0.70
   1  -2   5   12.00    1.10
   1  -2   5   15.00    1.30
  -1   2  -5   11.30    0.80
  -1   2  -5   11.70    1.20
  -1   2  -5   12.50    1.20
  -1   2  -5   12.20    1.30
   0  -2   5   17.50    1.20
   0  -2   5   16.60    1.30
   0  -2   5   17.60    1.40
   0  -2   5   16.10    1.20
   0   2  -5   13.80    1.30
   0   2  -5   16.00    1.20
   0   2  -5   18.70    1.40
  -1  -2   5  382.06    8.70
  -1  -2   5  389.06    9.30
  -1  -2   5  400.46    8.10
  -1  -2   5  386.56    8.70
  -1  -2   5  382.96    9.10
   1   2  -5  381.76    9.10
   1   2  -5  389.56    8.80
   1   2  -5  397.76    8.70
   1   2  -5  368.06    8.10
  -2  -2   5  880.31   17.80
  -2  -2   5  852.21   17.80
  -2  -2   5  817.02   18.60
  -2  -2   5  851.11   18.10
   2   2  -5  852.71   18.10
   2   2  -5  877.41   17.60
   2   2  -5  811.72   18.50
   2   2  -5  885.81   17.90
  -3  -2   5   59.99    2.10
  -3  -2   5   60.89    3.30
   3   2  -5   66.09    2.90
   3   2  -5   62.29    3.00
   3   2  -5   63.69    2.00
  -4  -2   5   12.50    2.50
   4   2  -5   15.20    2.50
   4   2  -5    9.90    2.00
  -5  -2   5   61.99    3.80
  -5  -2   5   62.09    4.60
   5   2  -5   63.59    4.20
   5   2  -5   67.29    3.60
  -6  -2   5   22.40    3.10
  -6  -2   5   31.10    4.10
   6   2  -5   19.60    3.30
   6   2  -5   22.00    4.00
  -7  -2   5   15.20    4.40
  -7  -2   5   19.90    3.60
   7   2  -5   16.50    4.50
  -8  -2   5   44.20    6.20
   7   0   4   14.30    3.90
  -7   0  -4   12.60    3.20
  -7   0  -4   11.70    3.20
   6   0   4   68.69    4.80
  -6   0  -4   68.39    3.90
  -6   0  -4   54.69    4.10
   5   0   4   17.40    2.90
  -5   0  -4   21.20    2.60
  -5   0  -4   22.50    2.20
   4   0   4   23.90    1.40
   4   0   4   22.90    1.70
   4   0   4   25.80    1.70
   4   0   4   21.50    2.40
  -4   0  -4   24.90    2.20
  -4   0  -4   28.50    2.00
  -4   0  -4   23.80    1.40
   3   0   4  263.77    6.30
   3   0   4  252.67    6.90
   3   0   4  264.07    6.20
   3   0   4  258.47    7.00
  -3   0  -4  252.07    6.70
  -3   0  -4  254.07    6.00
  -3   0  -4  246.58    6.10
   2   0   4  812.92   16.70
   2   0   4  783.12   16.70
   2   0   4  810.42   16.10
   2   0   4  791.52   16.80
  -2   0  -4  782.12   16.70
  -2   0  -4  797.02   16.80
  -2   0  -4  805.72   16.50
  -2   0  -4  768.92   16.00
   1   0   4  123.49    3.30
   1   0   4  115.89    3.10
   1   0   4  132.39    3.70
   1   0   4  128.69    3.50
  -1   0  -4  126.79    3.50
  -1   0  -4  120.59    2.90
  -1   0  -4  137.09    3.40
  -1   0  -4  133.29    3.60
   0   0   4    1.00    0.90
   0   0   4    0.50    0.70
   0   0   4   -0.20    1.10
   0   0  -4    0.10    1.00
   0   0  -4    0.00    1.00
   0   0  -4    0.80    0.70
   0   0  -4    0.60    0.70
  -1   0   4  296.47    6.60
  -1   0   4  293.47    6.80
  -1   0   4  302.27    6.60
  -1   0   4  294.67    6.90
   1   0  -4  297.27    6.80
   1   0  -4  302.17    6.80
   1   0  -4  296.77    6.70
   1   0  -4  289.97    6.70
  -2   0   4  517.45   11.40
  -2   0   4  506.25   11.10
  -2   0   4  500.85   11.10
   2   0  -4  535.95   11.60
   2   0  -4  523.25   11.10
   2   0  -4  517.45   11.10
   2   0  -4  524.95   11.60
  -3   0   4  267.27    7.40
  -3   0   4  269.07    6.40
  -3   0   4  258.37    6.10
   3   0  -4  266.97    6.20
   3   0  -4  270.67    7.20
   3   0  -4  247.28    7.00
  -4   0   4  184.08    6.20
  -4   0   4  183.98    4.60
   4   0  -4  182.58    6.10
   4   0  -4  181.78    5.30
   4   0  -4  179.68    4.70
  -5   0   4   61.59    3.20
  -5   0   4   57.29    4.00
   5   0  -4   58.19    4.20
   5   0  -4   59.59    3.10
  -6   0   4   63.49    4.80
  -6   0   4   69.69    3.60
   6   0  -4   66.09    4.80
   6   0  -4   61.89    3.60
  -7   0   4   22.60    4.30
   7   0  -4   22.80    4.30
   7   2   3    1.70    4.00
  -7  -2  -3    5.10    3.50
   6   2   3   55.89    4.50
  -6  -2  -3   57.79    3.40
  -6  -2  -3   56.99    4.20
   5   2   3   56.69    3.90
  -5  -2  -3   59.19    2.90
  -5  -2  -3   53.39    3.50
   4   2   3   15.20    2.40
   4   2   3   10.70    1.60
  -4  -2  -3   12.50    2.10
   3   2   3   32.40    1.40
   3   2   3   34.00    1.60
   3   2   3   34.20    2.50
  -3  -2  -3   32.80    1.50
  -3  -2  -3   29.40    1.50
  -3  -2  -3   30.90    2.20
   2   2   3   88.29    3.00
   2   2   3   89.69    2.70
   2   2   3   89.29    3.40
  -2  -2  -3   92.29    3.30
  -2  -2  -3   83.19    3.00
  -2  -2  -3   90.49    2.80
   1   2   3  524.45   11.50
   1   2   3  505.75   11.80
   1   2   3  550.44   11.90
  -1  -2  -3  521.95   11.30
  -1  -2  -3  525.95   11.50
  -1  -2  -3  542.05   11.90
   0   2   3  111.09    3.40
   0   2   3  108.99    2.90
   0   2   3  116.59    3.80
   0  -2  -3  115.99    3.10
   0  -2  -3  114.09    3.30
   0  -2  -3  116.89    2.90
   0  -2  -3  111.69    3.60
  -1   2   3    6.50    1.10
  -1   2   3    6.60    0.70
  -1   2   3    7.60    1.50
   1  -2  -3    5.90    1.10
   1  -2  -3    6.90    1.00
   1  -2  -3    7.60    0.90
   1  -2  -3    5.30    1.00
  -2   2   3  579.34   11.60
  -2   2   3  549.15   12.30
  -2   2   3  538.65   12.60
  -2   2   3  566.74   12.70
   2  -2  -3  560.64   13.90
   2  -2  -3  563.94   12.60
   2  -2  -3  580.34   12.90
   2  -2  -3  556.14   11.50
  -3   2   3  176.68    5.50
  -3   2   3  182.28    4.30
  -3   2   3  184.38    5.10
   3  -2  -3  174.98    5.60
   3  -2  -3  174.18    4.20
   3  -2  -3  174.48    4.90
  -4   2   3  234.18    6.20
  -4   2   3  218.68    5.40
  -4   2   3  214.28    6.90
  -4   2   3  217.58    5.30
   4  -2  -3  223.68    5.40
   4  -2  -3  216.28    5.90
   4  -2  -3  220.38    7.20
  -5   2   3   47.30    2.50
  -5   2   3   44.60    2.30
  -5   2   3   47.40    3.70
   5  -2  -3   45.90    2.60
   5  -2  -3   46.70    3.80
  -6   2   3   48.10    4.20
  -6   2   3   42.00    2.70
   6  -2  -3   37.80    4.10
  -7   2   3   46.60    5.00
   7  -2  -3   44.80    5.10
  -7  -4  -2   -0.70    3.90
   6   4   2    5.80    3.50
  -6  -4  -2    4.50    2.90
   5   4   2   18.20    3.70
  -5  -4  -2   14.60    2.80
  -5  -4  -2   16.30    2.30
   4   4   2  258.37    8.40
   4   4   2  229.38    6.30
  -4  -4  -2  256.67    7.90
  -4  -4  -2  246.58    6.40
  -4  -4  -2  264.37    6.70
   3   4   2    2.60    0.90
   3   4   2    2.60    1.90
  -3  -4  -2    1.60    1.50
  -3  -4  -2    1.00    1.00
  -3  -4  -2    1.20    0.90
   2   4   2  172.38    4.70
   2   4   2  165.48    5.70
  -2  -4  -2  159.78    4.50
  -2  -4  -2  169.88    4.50
  -2  -4  -2  167.08    5.20
  -2  -4  -2  164.28    4.10
   1   4   2  251.67    6.00
   1   4   2  253.37    7.30
   1   4   2  237.98    6.20
   1   4   2  241.18    6.40
  -1  -4  -2  252.37    6.00
  -1  -4  -2  231.58    6.10
  -1  -4  -2  238.28    6.20
  -1  -4  -2  249.97    5.70
  -1  -4  -2  243.98    6.30
   0   4   2  308.47    7.20
   0   4   2  306.17    7.00
   0   4   2  305.67    7.70
   0  -4  -2  299.67    7.60
   0  -4  -2  303.47    7.00
   0  -4  -2  311.87    7.10
   0  -4  -2  299.97    7.10
  -1   4   2   41.80    1.40
  -1   4   2   39.30    2.40
  -1   4   2   40.10    2.30
   1  -4  -2   40.40    2.50
   1  -4  -2   42.00    2.00
   1  -4  -2   38.80    1.40
   1  -4  -2   37.10    1.40
  -2   4   2  120.79    4.30
  -2   4   2  116.79    4.40
   2  -4  -2  120.99    4.50
  -3   4   2  287.17    8.00
  -3   4   2  285.27    8.20
   3  -4  -2  283.47    8.40
  -4   4   2  232.68    7.10
  -4   4   2  235.88    7.70
   4  -4  -2  235.38    7.80
  -5   4   2    7.40    2.00
  -5   4   2    7.50    2.80
   5  -4  -2    9.00    2.10
   5  -4  -2   11.20    3.00
  -6   4   2    7.20    3.20
  -6   4   2    7.90    2.70
   6  -4  -2    1.30    2.50
   6  -4  -2    4.60    3.10
  -7   4   2   21.40    4.80
   7  -4  -2   29.00    5.00
   6   6   1   -1.10    4.50
  -6  -6  -1    4.20    3.50
   5   6   1   25.70    4.50
  -5  -6  -1   24.70    3.70
   4   6   1   24.90    3.90
  -4  -6  -1   26.00    3.20
  -4  -6  -1   22.00    2.50
   3   6   1   24.40    3.60
   3   6   1   27.10    2.10
  -3  -6  -1   21.40    2.30
  -3  -6  -1   20.60    1.90
  -3  -6  -1   25.90    2.80
  -3  -6  -1   21.70    2.20
   2   6   1   12.60    2.80
   2   6   1   14.10    1.90
  -2  -6  -1   13.60    1.60
  -2  -6  -1   12.50    2.10
  -2  -6  -1   11.20    1.90
   1   6   1   65.19    3.20
   1   6   1   67.39    3.40
   1   6   1   66.89    4.10
  -1  -6  -1   63.79    3.00
  -1  -6  -1   66.59    3.10
   0   6   1  291.77    8.30
   0   6   1  290.97    7.80
   0  -6  -1  283.87    7.10
   0  -6  -1  297.07    7.30
  -1   6   1  188.48    6.30
  -1   6   1  183.08    5.90
   1  -6  -1  182.58    4.60
   1  -6  -1  186.58    6.60
   1  -6  -1  189.58    4.70
  -2   6   1   23.80    2.70
  -2   6   1   26.30    2.70
   2  -6  -1   21.30    2.60
  -3   6   1   15.60    3.00
  -3   6   1   22.80    2.80
   3  -6  -1   22.00    2.70
   3  -6  -1   20.60    2.80
  -4   6   1  161.78    6.20
  -4   6   1  158.68    6.70
   4  -6  -1  152.78    6.90
   4  -6  -1  155.58    6.30
  -5   6   1   79.39    5.30
  -5   6   1   68.69    4.60
   5  -6  -1   68.89    4.40
   5  -6  -1   70.29    5.10
  -6   6   1    5.30    3.50
  -6   6   1    8.60    3.80
   6  -6  -1    4.80    3.80
   6  -6  -1    5.90    3.20
   5   8   0   -7.30    4.60
  -5  -8   0    1.90    5.50
  -4  -8   0   22.00    3.80
   3   8   0   35.90    2.90
   3   8   0   48.30    5.00
  -3  -8   0   37.80    3.60
  -3  -8   0   38.50    2.80
  -3  -8   0   40.60    3.40
   2   8   0   16.40    3.60
   2   8   0   14.00    2.60
  -2  -8   0   15.10    2.50
  -2  -8   0   11.80    2.10
  -2  -8   0   14.00    2.90
   1   8   0    8.70    2.20
   1   8   0    4.90    2.10
  -1  -8   0    7.60    2.00
  -1  -8   0    7.90    1.80
  -1  -8   0    8.80    2.00
   0   8   0   89.99    4.90
   0   8   0   88.49    4.30
   0  -8   0   85.89    3.50
   0  -8   0   86.49    5.00
   0  -8   0   85.49    4.50
  -1   8   0  118.69    5.20
  -1   8   0  115.39    5.40
   1  -8   0  115.89    5.50
   1  -8   0  115.59    3.80
   1  -8   0  111.99    5.30
  -2   8   0   16.90    2.90
   2  -8   0   12.80    2.90
  -3   8   0    4.70    2.90
  -3   8   0    0.40    2.60
   3  -8   0    6.00    2.70
   3  -8   0   -1.50    2.50
  -4   8   0   54.59    5.00
  -4   8   0   49.70    4.70
   4  -8   0   54.19    4.80
   4  -8   0   57.49    4.50
  -5   8   0   47.80    5.00
  -5   8   0   51.79    5.50
   5  -8   0   54.59    5.00
   5  -8   0   38.70    5.40
   3  10  -1   27.70    5.70
  -3 -10   1   26.60    4.30
   2  10  -1   28.50    3.90
  -2 -10   1   23.40    3.70
  -2 -10   1   28.10    3.60
   1  10  -1    1.40    3.40
   1  10  -1    5.90    3.20
  -1 -10   1   -1.30    2.90
  -1 -10   1    8.50    3.50
  -1 -10   1   -1.20    3.10
  -1 -10   1    1.20    2.40
   0  10  -1   20.70    4.10
   0  10  -1   20.00    3.90
   0 -10   1   17.80    3.60
   0 -10   1   28.00    3.90
   0 -10   1   17.70    3.50
  -1  10  -1   51.39    4.80
  -1  10  -1   52.49    4.50
   1 -10   1   53.49    4.30
   1 -10   1   47.50    4.30
  -2  10  -1   30.70    4.50
  -2  10  -1   30.90    4.60
   2 -10   1   36.00    4.20
  -3  10  -1    3.80    3.70
   3 -10   1    7.20    3.80
   4 -10   1    5.70    4.70
  -1 -11  10    0.80    4.10
  -1 -11  10    7.40    4.40
  -2 -11  10   26.60    4.20
   2  11 -10   27.00    4.60
   4  -9   9    3.10    4.10
  -4   9  -9    1.80    4.00
   3  -9   9   -2.80    3.10
  -3   9  -9    0.20    3.70
   2  -9   9   35.90    3.80
  -2   9  -9   39.20    4.30
   1  -9   9   71.79    4.70
   1  -9   9   86.69    5.10
  -1   9  -9   76.79    5.20
  -1   9  -9   78.09    3.70
   0  -9   9   16.10    3.00
   0  -9   9   16.20    3.20
   0   9  -9   14.80    3.40
   0   9  -9   14.40    2.70
  -1  -9   9  115.29    5.30
  -1  -9   9  107.69    6.10
   1   9  -9  110.09    5.10
  -2  -9   9   30.80    3.40
  -2  -9   9   26.00    4.20
   2   9  -9   32.30    3.90
  -3  -9   9   41.60    5.40
  -3  -9   9   53.49    4.60
   3   9  -9   58.89    4.90
  -4  -9   9    9.60    3.60
  -4  -9   9    5.60    4.80
   4   9  -9   18.60    4.30
   6  -7   8   23.10    4.80
   6  -7   8   21.30    4.20
  -6   7  -8   29.90    5.20
   5  -7   8   91.09    4.90
   5  -7   8   86.89    5.30
  -5   7  -8   86.19    6.10
   4  -7   8   37.40    3.20
   4  -7   8   36.50    3.80
  -4   7  -8   42.10    4.20
   3  -7   8   22.40    2.20
   3  -7   8   19.00    3.00
  -3   7  -8   17.30    2.30
  -3   7  -8   21.50    3.50
   2  -7   8   59.49    3.80
   2  -7   8   62.39    2.80
  -2   7  -8   53.39    4.10
  -2   7  -8   60.69    2.70
   1  -7   8   32.10    2.30
   1  -7   8   37.60    3.30
   1  -7   8   38.30    2.00
   1  -7   8   33.10    3.00
  -1   7  -8   36.20    2.40
  -1   7  -8   38.90    3.50
   0  -7   8   71.39    4.10
   0  -7   8   67.99    2.50
   0  -7   8   75.59    4.00
   0  -7   8   70.09    2.50
   0   7  -8   73.39    3.50
   0   7  -8   72.49    4.20
  -1  -7   8   65.39    4.20
  -1  -7   8   61.99    2.70
  -1  -7   8   68.99    3.60
   1   7  -8   66.19    3.60
  -2  -7   8   19.30    3.30
  -2  -7   8   22.70    2.30
   2   7  -8   22.60    2.80
   2   7  -8   23.50    2.60
  -3  -7   8  716.83   16.60
  -3  -7   8  715.23   18.60
   3   7  -8  732.53   17.90
   3   7  -8  692.33   16.90
  -4  -7   8   22.80    3.50
  -4  -7   8   27.90    4.40
   4   7  -8   24.30    3.80
  -5  -7   8   -4.10    3.80
  -5  -7   8   -1.60    3.10
   5   7  -8    0.20    3.50
   5   7  -8   -0.50    3.90
  -6  -7   8   -1.90    5.20
   6   7  -8   -8.50    5.00
   7  -5   7   25.60    5.10
  -7   5  -7   18.00    4.70
   6  -5   7   10.00    3.20
   6  -5   7    8.70    3.10
  -6   5  -7   17.30    3.70
   5  -5   7   70.59    4.10
   5  -5   7   72.69    4.70
  -5   5  -7   74.39    4.90
   4  -5   7   50.89    3.10
   4  -5   7   51.49    3.60
  -4   5  -7   49.60    2.70
  -4   5  -7   50.39    3.70
   3  -5   7  122.19    5.00
   3  -5   7  125.29    4.20
   3  -5   7  114.29    3.70
  -3   5  -7  121.69    4.00
  -3   5  -7  125.49    5.10
   2  -5   7    1.00    1.60
   2  -5   7   -0.20    1.30
   2  -5   7    4.40    1.00
  -2   5  -7    0.10    1.60
  -2   5  -7    2.90    1.20
   1  -5   7    5.60    1.00
   1  -5   7    4.70    0.80
   1  -5   7    5.80    1.60
  -1   5  -7    7.70    1.80
  -1   5  -7    7.80    1.40
   0  -5   7  340.97    9.10
   0  -5   7  351.46    9.00
   0   5  -7  332.67    8.40
   0   5  -7  335.67    9.10
  -1  -5   7   26.70    1.30
  -1  -5   7   28.30    2.50
  -1  -5   7   29.10    2.10
   1   5  -7   26.60    2.20
   1   5  -7   27.80    1.60
  -2  -5   7    5.40    1.90
  -2  -5   7    6.70    1.40
  -2  -5   7    5.80    1.30
  -2  -5   7    5.60    1.10
   2   5  -7    4.00    1.30
   2   5  -7    6.20    1.80
  -3  -5   7  208.58    7.50
  -3  -5   7  204.88    5.30
  -3  -5   7  206.38    5.80
   3   5  -7  202.88    5.40
   3   5  -7  209.78    6.80
   3   5  -7  207.68    6.40
  -4  -5   7   97.99    5.50
   4   5  -7  104.39    4.70
  -5  -5   7  276.77    9.90
  -5  -5   7  271.37    9.50
   5   5  -7  276.27    9.20
   5   5  -7  284.17    9.50
  -6  -5   7   -2.80    3.80
  -6  -5   7    3.00    3.00
   6   5  -7    2.10    3.80
   6   5  -7    0.30    3.60
  -7  -5   7   12.20    5.40
   7   5  -7   18.00    5.40
   7  -3   6   26.40    4.40
  -7   3  -6   20.60    4.10
   6  -3   6    2.90    2.30
   6  -3   6    5.60    2.90
  -6   3  -6    4.70    2.60
   5  -3   6   43.40    3.40
   5  -3   6   38.80    2.80
  -5   3  -6   40.50    2.90
  -5   3  -6   50.29    3.60
   4  -3   6  157.28    5.30
   4  -3   6  157.38    5.30
  -4   3  -6  151.28    5.10
  -4   3  -6  155.98    5.40
   3  -3   6  278.47    7.10
   3  -3   6  272.07    7.40
   3  -3   6  271.47    6.70
  -3   3  -6  255.07    7.00
  -3   3  -6  277.67    7.20
  -3   3  -6  274.57    7.40
   2  -3   6  116.09    3.30
   2  -3   6  119.19    4.00
   2  -3   6  116.29    3.60
   2  -3   6  110.79    4.80
  -2   3  -6  112.39    3.70
  -2   3  -6  119.09    4.00
  -2   3  -6  117.29    3.80
  -2   3  -6  118.29    3.40
   1  -3   6   42.40    2.00
   1  -3   6   43.50    2.30
   1  -3   6   41.50    1.40
   1  -3   6   42.70    2.00
  -1   3  -6   40.00    2.00
  -1   3  -6   40.70    2.30
  -1   3  -6   41.00    2.00
   0  -3   6  385.96    9.30
   0  -3   6  397.36    9.30
   0  -3   6  385.46    9.00
   0  -3   6  393.46    9.20
   0   3  -6  396.76    9.20
   0   3  -6  405.46    9.50
  -1  -3   6   97.39    2.50
  -1  -3   6   98.29    3.80
  -1  -3   6  102.19    3.40
  -1  -3   6   88.49    3.40
  -1  -3   6   94.99    3.10
   1   3  -6   92.89    3.10
   1   3  -6   90.69    2.50
   1   3  -6   97.99    3.40
   1   3  -6   85.69    3.30
  -2  -3   6   94.99    4.10
  -2  -3   6  102.59    3.10
  -2  -3   6  104.29    3.30
   2   3  -6   96.09    3.00
   2   3  -6  100.19    3.20
   2   3  -6   95.29    3.60
  -3  -3   6  323.47    7.70
  -3  -3   6  328.67    9.40
   3   3  -6  335.77    8.70
   3   3  -6  343.57    8.60
   3   3  -6  339.27    7.50
  -4  -3   6  114.49    5.30
   4   3  -6  118.39    4.60
   4   3  -6  113.69    4.80
  -5  -3   6  662.13   16.60
  -5  -3   6  679.43   17.40
   5   3  -6  653.63   16.30
   5   3  -6  660.33   16.60
  -6  -3   6    1.90    3.30
  -6  -3   6    0.20    2.50
   6   3  -6    3.30    3.20
   6   3  -6    4.70    2.70
  -7  -3   6    3.30    4.10
   7   3  -6    5.10    3.50
   7  -1   5   34.90    4.90
  -7   1  -5   51.49    4.40
  -7   1  -5   38.60    4.10
   6  -1   5    6.70    3.00
  -6   1  -5   12.80    2.50
  -6   1  -5   11.40    2.50
   5  -1   5   -0.60    1.50
   5  -1   5    0.70    2.20
   5  -1   5   -0.30    1.60
  -5   1  -5   -1.20    1.70
  -5   1  -5    0.00    1.60
  -5   1  -5   -1.30    1.50
   4  -1   5  134.09    5.00
   4  -1   5  135.49    3.90
   4  -1   5  133.59    4.30
  -4   1  -5  135.09    4.70
  -4   1  -5  128.69    3.90
  -4   1  -5  135.79    4.40
   3  -1   5  156.08    4.80
   3  -1   5  155.88    4.40
   3  -1   5  154.28    4.40
   3  -1   5  159.58    4.60
  -3   1  -5  157.28    4.70
  -3   1  -5  150.28    4.30
   2  -1   5  133.69    3.80
   2  -1   5  135.89    3.90
   2  -1   5  135.99    4.10
   2  -1   5  129.79    3.60
  -2   1  -5  130.89    3.80
  -2   1  -5  129.59    3.60
  -2   1  -5  134.39    3.90
  -2   1  -5  136.19    4.00
   1  -1   5 1763.42   35.90
   1  -1   5 1816.32   36.50
   1  -1   5 1848.92   36.60
   1  -1   5 1870.61   36.10
  -1   1  -5 1848.22   35.90
  -1   1  -5 1830.62   36.50
  -1   1  -5 1799.52   36.00
  -1   1  -5 1812.12   36.60
   0  -1   5  252.37    5.90
   0  -1   5  243.68    5.80
   0  -1   5  252.37    5.90
   0   1  -5  239.48    5.20
   0   1  -5  242.58    5.80
   0   1  -5  248.38    5.90
   0   1  -5  234.18    5.90
   0   1  -5  221.18    5.30
  -1  -1   5  305.57    7.10
  -1  -1   5  297.27    7.20
  -1  -1   5  300.17    7.40
  -1  -1   5  307.37    6.60
   1   1  -5  300.97    6.70
   1   1  -5  311.27    7.20
   1   1  -5  302.37    7.30
   1   1  -5  316.17    7.20
  -2  -1   5  313.77    8.00
  -2  -1   5  317.77    7.40
  -2  -1   5  311.77    7.30
  -2  -1   5  317.37    7.30
   2   1  -5  294.17    7.70
   2   1  -5  320.97    7.50
   2   1  -5  319.37    7.30
  -3  -1   5  436.96   11.00
  -3  -1   5  434.76    9.60
   3   1  -5  441.56   10.30
   3   1  -5  453.35    9.80
   3   1  -5  439.16   10.60
  -4  -1   5   90.49    4.30
   4   1  -5   88.69    4.10
   4   1  -5   86.19    3.50
  -5  -1   5  469.45   11.90
  -5  -1   5  464.85   12.80
   5   1  -5  469.25   12.70
   5   1  -5  463.25   11.60
  -6  -1   5   39.70    4.40
  -6  -1   5   36.30    3.30
   6   1  -5   39.80    4.40
   6   1  -5   34.90    3.40
  -7  -1   5   22.60    3.90
  -7  -1   5   19.20    4.00
   7   1  -5   21.90    4.60
  -8  -1  -4    6.00    4.40
   7   1   4   40.20    5.10
  -7  -1  -4   29.30    4.60
   6   1   4   44.00    4.40
  -6  -1  -4   39.20    3.80
  -6  -1  -4   48.50    3.30
   5   1   4   12.00    2.90
  -5  -1  -4   14.30    2.00
  -5  -1  -4   14.40    2.50
   4   1   4   10.80    1.20
   4   1   4   10.00    2.00
   4   1   4    8.70    1.60
  -4  -1  -4   10.60    1.10
  -4  -1  -4   12.00    2.30
  -4  -1  -4   11.80    2.00
   3   1   4  462.25   11.30
   3   1   4  492.35   10.30
   3   1   4  464.95   10.30
  -3  -1  -4  460.65   10.10
  -3  -1  -4  482.95   11.20
  -3  -1  -4  484.05   10.30
   2   1   4  724.03   15.70
   2   1   4  721.03   15.50
   2   1   4  703.33   15.10
  -2  -1  -4  728.33   15.60
  -2  -1  -4  737.83   15.30
  -2  -1  -4  724.53   15.70
   1   1   4   10.40    1.20
   1   1   4   11.00    1.30
   1   1   4   12.10    1.10
  -1  -1  -4   11.40    1.30
  -1  -1  -4   10.30    1.00
  -1  -1  -4   10.70    1.20
   0   1   4   71.29    2.60
   0   1   4   71.69    2.60
   0   1   4   78.59    2.50
   0   1   4   75.89    2.10
   0  -1  -4   77.09    2.70
   0  -1  -4   79.19    2.10
   0  -1  -4   76.69    2.50
   0  -1  -4   73.99    2.50
  -1   1   4  276.57    6.60
  -1   1   4  272.97    6.50
  -1   1   4  284.27    6.30
  -1   1   4  275.67    6.60
   1  -1  -4  266.27    6.50
   1  -1  -4  275.37    6.70
   1  -1  -4  284.67    6.40
   1  -1  -4  257.27    6.20
  -2   1   4  269.77    6.70
  -2   1   4  280.77    7.20
  -2   1   4  271.57    6.80
  -2   1   4  275.97    6.30
   2  -1  -4  274.97    7.70
   2  -1  -4  270.47    6.20
   2  -1  -4  272.17    6.60
   2  -1  -4  275.57    6.90
  -3   1   4  222.48    5.40
  -3   1   4  224.38    5.80
  -3   1   4  220.18    6.50
   3  -1  -4  222.38    5.70
   3  -1  -4  229.28    6.60
   3  -1  -4  228.88    5.50
  -4   1   4    9.90    1.50
  -4   1   4   11.40    2.50
   4  -1  -4   12.30    1.50
   4  -1  -4   11.40    2.30
   4  -1  -4   15.20    1.50
  -5   1   4 1275.17   25.90
  -5   1   4 1219.58   26.10
  -5   1   4 1252.17   28.00
   5  -1  -4 1255.07   28.10
   5  -1  -4 1266.37   26.20
   5  -1  -4 1200.48   25.90
  -6   1   4   29.80    2.80
  -6   1   4   40.20    3.90
   6  -1  -4   30.30    3.80
  -7   1   4    1.70    3.70
   7  -1  -4    3.60    3.70
   7   3   3   11.10    4.80
  -7  -3  -3    7.60    3.60
   6   3   3   40.50    4.90
  -6  -3  -3   29.80    4.00
   5   3   3   79.99    4.90
  -5  -3  -3   79.39    3.40
   4   3   3    3.90    1.40
   4   3   3    6.80    2.20
  -4  -3  -3    3.40    1.10
  -4  -3  -3    5.30    1.90
   3   3   3   47.90    1.90
   3   3   3   47.60    3.10
  -3  -3  -3   48.20    2.80
  -3  -3  -3   53.59    1.90
  -3  -3  -3   49.60    2.10
   2   3   3  245.08    6.90
   2   3   3  242.88    6.00
  -2  -3  -3  245.28    6.60
  -2  -3  -3  236.88    5.90
   1   3   3  733.43   16.00
   1   3   3  695.83   17.10
   1   3   3  725.43   15.40
  -1  -3  -3  681.83   15.10
  -1  -3  -3  730.03   15.30
  -1  -3  -3  700.93   15.20
   0   3   3   66.29    2.70
   0   3   3   67.59    3.20
   0   3   3   70.29    2.30
   0   3   3   65.09    2.20
   0  -3  -3   68.49    2.60
   0  -3  -3   65.09    2.20
   0  -3  -3   66.79    2.30
   0  -3  -3   64.69    2.80
  -1   3   3   25.50    1.10
  -1   3   3   23.50    1.90
  -1   3   3   23.50    1.60
   1  -3  -3   24.40    1.50
   1  -3  -3   26.30    2.10
   1  -3  -3   24.10    1.70
   1  -3  -3   26.80    1.30
  -2   3   3  124.39    4.20
  -2   3   3  122.59    4.10
   2  -3  -3  124.79    4.40
   2  -3  -3  120.39    3.90
  -3   3   3   14.50    1.90
  -3   3   3   13.40    2.00
  -4   3   3   60.39    3.70
  -4   3   3   63.99    3.20
   4  -3  -3   61.69    3.90
  -5   3   3  163.98    5.40
  -5   3   3  150.78    9.00
   5  -3  -3  156.88    5.40
  -6   3   3   51.09    4.70
  -6   3   3   54.69    3.50
   6  -3  -3   47.50    3.10
   6  -3  -3   49.30    4.70
  -7   3   3   88.49    6.30
   7  -3  -3   85.09    6.30
   6   5   2   32.90    5.00
  -6  -5  -2   31.70    4.30
   5   5   2   73.19    5.50
  -5  -5  -2   67.59    4.70
  -4  -5  -2   19.00    2.20
   3   5   2   -0.40    2.00
   3   5   2   -1.20    1.30
  -3  -5  -2    0.80    1.20
  -3  -5  -2    1.60    1.30
  -3  -5  -2   -1.40    1.40
  -3  -5  -2   -1.60    1.10
   2   5   2   98.89    4.70
   2   5   2  100.79    3.60
  -2  -5  -2   89.99    3.30
  -2  -5  -2   99.29    3.00
  -2  -5  -2  102.99    3.40
  -2  -5  -2   99.99    3.90
   1   5   2  300.37    7.90
   1   5   2  300.37    9.10
   1   5   2  304.37    7.40
  -1  -5  -2  297.67    7.70
  -1  -5  -2  294.67    7.10
  -1  -5  -2  310.07    7.50
   0   5   2  129.19    4.60
   0   5   2  129.89    4.10
   0  -5  -2  126.89    3.80
   0  -5  -2  130.09    3.90
   0  -5  -2  128.69    3.70
  -1   5   2   60.19    2.90
  -1   5   2   59.19    3.10
   1  -5  -2   60.19    2.10
   1  -5  -2   60.69    2.00
   1  -5  -2   62.09    3.40
  -2   5   2  170.08    5.60
  -2   5   2  163.78    5.60
   2  -5  -2  162.78    5.90
  -3   5   2  181.28    6.30
  -3   5   2  187.28    6.50
   3  -5  -2  181.88    6.60
  -4   5   2   25.00    3.30
  -4   5   2   25.20    2.80
   4  -5  -2   31.60    3.20
  -5   5   2   44.90    4.20
  -5   5   2   44.60    4.20
   5  -5  -2   45.30    4.40
  -6   5   2   24.60    4.40
  -6   5   2   18.80    3.50
   6  -5  -2   24.90    3.40
   6  -5  -2   20.50    4.30
   5   7   1   20.50    4.60
  -5  -7  -1   19.60    3.40
   4   7   1   37.50    4.80
  -4  -7  -1   45.30    3.80
   3   7   1   17.70    3.50
   3   7   1   17.90    2.30
  -3  -7  -1   18.90    2.10
  -3  -7  -1   13.70    2.40
  -3  -7  -1   20.00    2.90
   2   7   1   -1.60    2.70
   2   7   1    4.20    1.80
  -2  -7  -1    4.10    1.80
  -2  -7  -1    4.40    1.60
  -2  -7  -1   -0.20    1.80
   1   7   1  140.79    6.40
   1   7   1  131.89    4.80
   1   7   1  138.49    5.20
  -1  -7  -1  134.99    4.70
  -1  -7  -1  130.29    4.80
   0   7   1  107.39    4.80
   0   7   1  109.19    4.50
   0  -7  -1  113.09    3.90
  -1   7   1   35.00    3.20
  -1   7   1   35.00    3.00
   1  -7  -1   34.50    3.20
   1  -7  -1   37.20    1.80
   1  -7  -1   29.60    2.00
  -2   7   1   17.30    2.90
  -2   7   1   17.90    2.70
   2  -7  -1   16.80    2.90
   2  -7  -1   14.60    2.60
  -3   7   1  133.19    6.90
  -3   7   1  129.99    5.70
   3  -7  -1  136.39    6.00
  -4   7   1   98.89    5.40
  -4   7   1  103.19    5.90
   4  -7  -1  107.89    5.60
   4  -7  -1  112.29    5.90
  -5   7   1    1.50    3.10
  -5   7   1    7.60    3.80
   5  -7  -1    4.50    3.50
   5  -7  -1    4.00    3.30
  -6   7   1   -2.30    4.30
   6  -7  -1   -1.00    4.10
   6  -7  -1    7.10    4.50
   4   9   0   30.20    5.50
  -4  -9   0   22.50    4.30
   3   9   0   40.30    5.50
  -3  -9   0   27.00    3.60
   2   9   0   -2.50    3.80
   2   9   0    2.70    2.60
  -2  -9   0    0.00    2.40
  -2  -9   0    0.10    2.90
  -2  -9   0    1.40    2.30
   1   9   0   23.00    3.30
   1   9   0   18.50    3.30
  -1  -9   0   27.00    3.00
  -1  -9   0   25.20    3.00
  -1  -9   0   15.60    2.70
   0   9   0   66.59    4.40
   0   9   0   65.49    4.20
   0  -9   0   54.69    4.50
   0  -9   0   66.09    3.30
   0  -9   0   62.49    4.20
   0  -9   0   68.29    4.00
  -1   9   0   45.90    4.20
  -1   9   0   42.90    3.90
   1  -9   0   43.70    3.80
   1  -9   0   44.80    4.10
  -2   9   0    5.50    2.80
  -2   9   0   -4.90    3.00
   2  -9   0    1.80    2.90
   2  -9   0    2.70    2.80
  -3   9   0    8.30    3.40
  -3   9   0    0.90    3.50
   3  -9   0    6.60    3.30
  -4   9   0   27.20    5.40
  -4   9   0   37.00    4.90
   4  -9   0   40.70    4.70
   4  -9   0   37.30    4.60
   1  11  -1    3.80    4.20
  -1 -11   1    3.10    4.50
  -1 -11   1   -2.90    3.90
   0 -11   1   20.70    4.10
   0 -11   1   24.20    4.40
  -1  11  -1   28.60    5.10
   1 -11   1   31.00    4.80
   1 -11   1   35.30    4.70
  -2  11  -1   29.00    5.30
   2 -11   1   23.00    4.70
   2 -10  10  113.79    6.90
   2 -10  10  109.79    6.50
  -2  10 -10  116.49    6.90
   1 -10  10    8.00    3.60
   1 -10  10    6.10    3.30
  -1  10 -10   -1.70    3.60
   0 -10  10    8.20    3.30
   0 -10  10    1.20    3.50
   0  10 -10    4.10    3.80
   0  10 -10   -0.60    2.90
  -1 -10  10   25.70    4.10
  -1 -10  10   34.40    4.90
   1  10 -10   29.60    4.10
  -2 -10  10   26.60    4.00
  -2 -10  10   27.50    3.80
  -2 -10  10   30.30    4.70
   2  10 -10   26.20    4.40
  -3 -10  10    3.00    3.70
  -3 -10  10    8.90    4.80
   3  10 -10    5.60    4.10
   5  -8   9   23.20    4.10
  -5   8  -9   22.50    4.60
   4  -8   9   24.10    4.00
  -4   8  -9   27.00    4.60
   3  -8   9   29.20    3.40
  -3   8  -9   24.50    3.90
   2  -8   9  123.99    5.70
  -2   8  -9  122.99    4.30
  -2   8  -9  126.19    6.10
   1  -8   9   27.10    3.60
   1  -8   9   23.10    3.00
   1  -8   9   26.70    2.10
  -1   8  -9   24.60    3.50
  -1   8  -9   31.30    2.50
   0  -8   9   80.29    4.40
   0  -8   9   81.59    4.80
   0   8  -9   84.59    4.90
   0   8  -9   76.09    3.90
  -1  -8   9   11.10    2.90
  -1  -8   9   10.00    1.70
   1   8  -9    5.80    2.20
  -2  -8   9  241.18    7.60
  -2  -8   9  234.38    8.90
   2   8  -9  228.48    7.80
  -3  -8   9   23.50    4.50
  -3  -8   9   17.10    2.90
   3   8  -9   22.00    3.80
  -4  -8   9    5.70    3.10
  -4  -8   9    7.80    4.20
   4   8  -9    9.80    3.70
  -5  -8   9   -0.30    4.80
   7  -6   8   21.10    4.80
   6  -6   8   15.90    3.60
   6  -6   8   20.10    3.90
  -6   6  -8   25.70    5.00
   5  -6   8   35.40    3.70
   5  -6   8   30.20    3.50
  -5   6  -8   35.10    4.10
   4  -6   8   47.10    3.20
   4  -6   8   44.60    3.60
  -4   6  -8   43.00    4.20
   3  -6   8   16.50    3.10
   3  -6   8   18.30    2.00
  -3   6  -8   16.60    1.80
  -3   6  -8   20.50    3.10
   2  -6   8   11.10    2.20
  -2   6  -8   10.30    1.60
  -2   6  -8    9.00    2.40
   1  -6   8  138.49    5.30
   1  -6   8  137.79    3.70
   1  -6   8  132.79    3.60
   1  -6   8  134.59    5.20
  -1   6  -8  136.89    4.50
  -1   6  -8  135.99    5.40
   0  -6   8  891.21   20.90
   0  -6   8  942.41   20.70
   0   6  -8  900.71   19.90
   0   6  -8  927.21   21.10
  -1  -6   8    8.60    1.20
  -1  -6   8    9.20    2.10
  -1  -6   8   11.00    2.00
   1   6  -8    7.40    1.80
  -2  -6   8  509.35   13.60
  -2  -6   8  516.55   12.30
  -2  -6   8  475.65   11.20
   2   6  -8  501.35   12.60
   2   6  -8  499.15   11.90
  -3  -6   8   53.19    4.60
  -3  -6   8   50.19    2.90
   3   6  -8   50.39    3.20
   3   6  -8   52.99    3.50
  -4  -6   8    1.70    3.10
   4   6  -8    7.80    2.50
   4   6  -8   -1.20    2.40
  -5  -6   8   -1.80    3.60
  -5  -6   8   -2.70    2.80
   5   6  -8   -1.70    3.20
  -6  -6   8    9.40    3.70
  -6  -6   8    8.80    4.60
   6   6  -8    5.50    4.10
   6   6  -8   13.10    4.20
   7  -4   7    1.90    4.10
  -7   4  -7    7.70    3.90
   6  -4   7   -3.60    3.10
   6  -4   7   -2.80    2.80
  -6   4  -7   -1.60    2.80
   5  -4   7   50.69    3.50
   5  -4   7   54.39    3.60
  -5   4  -7   52.09    3.80
  -5   4  -7   44.50    3.10
   4  -4   7   54.89    3.20
   4  -4   7   57.69    3.20
  -4   4  -7   55.99    3.50
  -4   4  -7   54.09    3.00
   3  -4   7   50.29    2.90
   3  -4   7   48.40    2.50
   3  -4   7   52.89    2.30
  -3   4  -7   48.30    2.70
  -3   4  -7   51.49    3.20
  -3   4  -7   50.09    2.60
   2  -4   7  771.92   17.30
   2  -4   7  789.32   16.10
   2  -4   7  749.82   16.60
  -2   4  -7  734.33   16.20
  -2   4  -7  790.62   16.70
  -2   4  -7  785.72   17.40
   1  -4   7  213.18    6.10
   1  -4   7  207.08    5.70
  -1   4  -7  205.98    6.10
  -1   4  -7  211.98    5.70
   0  -4   7   65.79    2.50
   0  -4   7   68.29    3.00
   0  -4   7   66.49    3.10
   0   4  -7   71.49    2.90
   0   4  -7   64.69    3.30
   0   4  -7   67.59    3.20
  -1  -4   7  104.39    3.70
  -1  -4   7  104.39    4.20
  -1  -4   7  103.89    2.70
   1   4  -7   94.89    3.30
   1   4  -7  102.49    3.70
   1   4  -7  101.29    2.80
  -2  -4   7   57.89    2.20
  -2  -4   7   58.59    3.50
  -2  -4   7   61.39    2.70
   2   4  -7   54.69    2.90
   2   4  -7   53.29    2.20
   2   4  -7   58.49    2.30
  -3  -4   7  156.88    4.70
  -3  -4   7  160.28    6.20
   3   4  -7  157.08    5.20
   3   4  -7  156.18    5.50
   3   4  -7  156.18    4.20
  -4  -4   7  574.64   15.40
   4   4  -7  588.94   14.30
   4   4  -7  575.34   14.40
  -5  -4   7   -3.70    2.20
  -5  -4   7    0.70    2.70
   5   4  -7   -2.50    2.20
   5   4  -7    4.80    2.60
  -6  -4   7   57.09    5.50
  -6  -4   7   53.29    4.40
   6   4  -7   64.99    5.10
   6   4  -7   58.99    4.80
  -7  -4   7   20.10    4.20
  -7  -4   7   15.00    4.50
   7   4  -7   13.70    4.00
   7   4  -7   14.80    4.90
   7  -2   6    3.40    4.10
  -7   2  -6   10.60    3.40
   6  -2   6    4.50    3.00
  -6   2  -6    7.70    2.40
   5  -2   6   86.29    3.70
   5  -2   6   92.49    4.60
  -5   2  -6   85.69    4.10
  -5   2  -6   85.99    4.00
   4  -2   6    0.80    1.40
   4  -2   6    3.60    1.70
  -4   2  -6    3.80    1.60
  -4   2  -6    5.30    1.60
   3  -2   6   94.69    3.40
   3  -2   6   96.69    3.10
   3  -2   6   94.09    3.40
   3  -2   6   93.09    3.50
  -3   2  -6   89.59    3.30
  -3   2  -6   91.89    3.60
  -3   2  -6   86.99    3.10
  -3   2  -6   93.49    3.40
   2  -2   6   12.70    1.20
   2  -2   6   12.40    1.50
   2  -2   6   12.40    1.10
   2  -2   6    9.20    1.20
  -2   2  -6   12.30    1.30
  -2   2  -6   12.70    1.10
  -2   2  -6    9.70    2.00
   1  -2   6   17.90    1.30
   1  -2   6   20.40    1.70
   1  -2   6   17.60    0.90
   1  -2   6   21.40    1.60
  -1   2  -6   20.30    1.60
  -1   2  -6   20.50    1.00
  -1   2  -6   20.00    1.50
  -1   2  -6   19.00    1.40
   0  -2   6 3266.27   63.39
   0  -2   6 3169.88   63.49
   0  -2   6 3104.39   64.29
   0  -2   6 3139.59   63.39
   0   2  -6 3316.57   63.59
   0   2  -6 3311.07   63.49
   0   2  -6 3240.68   63.39
   0   2  -6 3164.48   63.49
  -1  -2   6  285.47    9.40
  -1  -2   6  292.57    7.30
  -1  -2   6  282.47    6.90
  -1  -2   6  302.27    7.20
  -1  -2   6  297.77    6.20
   1   2  -6  284.07    7.30
   1   2  -6  269.77    6.20
   1   2  -6  288.57    6.90
  -2  -2   6  479.85   10.40
  -2  -2   6  467.85   10.70
   2   2  -6  474.85   10.90
   2   2  -6  471.15   10.50
   2   2  -6  478.55   10.50
  -3  -2   6   27.80    1.60
  -3  -2   6   28.60    2.50
   3   2  -6   27.20    1.50
   3   2  -6   29.60    2.20
   3   2  -6   25.80    2.10
  -4  -2   6  178.38    6.50
   4   2  -6  169.28    5.90
   4   2  -6  175.58    5.70
  -5  -2   6   13.30    2.60
  -5  -2   6   21.20    3.60
   5   2  -6   15.80    3.20
   5   2  -6   18.50    2.80
  -6  -2   6   23.00    3.30
   6   2  -6   24.10    4.30
   6   2  -6   31.90    3.50
  -7  -2   6   21.70    4.20
  -7  -2   6   12.80    4.20
   7   2  -6   10.20    3.20
   7   2  -6   16.60    4.60
   7   0   5    5.60    3.90
  -7   0  -5   -1.30    3.20
   6   0   5   10.00    3.00
  -6   0  -5    8.00    2.90
  -6   0  -5    3.60    2.30
   5   0   5   19.70    2.90
   5   0   5   15.80    2.10
  -5   0  -5   15.10    2.00
  -5   0  -5   11.10    2.00
  -5   0  -5   19.30    2.50
   4   0   5   16.30    1.60
   4   0   5   16.00    2.20
  -4   0  -5   16.40    2.20
  -4   0  -5   14.00    1.30
  -4   0  -5   15.30    1.70
   3   0   5  408.76   10.00
   3   0   5  412.86   10.10
   3   0   5  424.16    9.30
  -3   0  -5  423.76    9.40
  -3   0  -5  415.36   10.00
  -3   0  -5  407.26    9.10
   2   0   5   41.40    1.50
   2   0   5   43.20    2.30
   2   0   5   43.30    2.00
   2   0   5   42.20    2.00
  -2   0  -5   43.00    1.90
  -2   0  -5   43.60    2.30
  -2   0  -5   41.00    1.50
  -2   0  -5   42.20    2.00
   1   0   5   48.70    2.00
   1   0   5   45.70    2.20
   1   0   5   45.80    1.50
   1   0   5   47.00    1.90
   1   0   5   45.90    1.40
  -1   0  -5   48.70    2.10
  -1   0  -5   46.80    1.80
  -1   0  -5   46.10    1.50
  -1   0  -5   47.90    2.10
   0   0   5  199.48    5.10
   0   0  -5  204.78    4.80
   0   0  -5  201.38    5.30
   0   0  -5  203.58    5.30
   0   0  -5  201.68    5.00
  -1   0   5  761.02   15.30
  -1   0   5  744.23   15.60
  -1   0   5  741.73   15.40
  -1   0   5  747.23   15.60
   1   0  -5  747.53   15.40
   1   0  -5  733.23   15.60
   1   0  -5  728.33   15.50
   1   0  -5  688.83   15.30
  -2   0   5  559.34   12.40
  -2   0   5  562.34   12.30
  -2   0   5  576.24   12.90
  -2   0   5  546.35   12.10
   2   0  -5  575.94   12.20
   2   0  -5  555.14   12.70
   2   0  -5  573.24   12.30
   2   0  -5  575.44   12.60
  -3   0   5   14.00    1.20
  -3   0   5   12.00    2.10
  -3   0   5   12.80    1.30
   3   0  -5   12.80    1.30
   3   0  -5   13.70    1.40
   3   0  -5   11.30    2.00
  -4   0   5  930.51   21.30
   4   0  -5  946.51   21.20
   4   0  -5  937.91   19.70
   4   0  -5  941.91   20.10
  -5   0   5   82.09    3.90
  -5   0   5   88.19    4.70
  -5   0   5   76.69    3.60
   5   0  -5   82.59    3.50
   5   0  -5   84.29    4.70
  -6   0   5   15.50    2.40
  -6   0   5   11.00    3.10
   6   0  -5   14.80    3.60
   6   0  -5   14.10    2.50
  -7   0   5    5.00    3.20
   7   0  -5    4.40    3.80
   7   2   4   17.10    4.50
  -7  -2  -4   15.50    3.70
   6   2   4   29.30    4.30
  -6  -2  -4   27.00    3.70
  -6  -2  -4   24.80    2.60
   5   2   4    8.40    2.90
  -5  -2  -4   13.30    1.90
  -5  -2  -4   10.70    2.50
   4   2   4  119.39    5.00
   4   2   4  118.69    3.70
  -4  -2  -4  125.99    3.60
  -4  -2  -4  125.69    4.90
   3   2   4  286.97    6.60
   3   2   4  271.47    7.70
  -3  -2  -4  269.87    6.60
  -3  -2  -4  277.37    7.50
   2   2   4    3.50    1.00
   2   2   4    6.10    1.50
  -2  -2  -4    4.20    1.10
  -2  -2  -4    4.40    1.30
   1   2   4   78.19    3.20
   1   2   4   75.29    3.60
   1   2   4   75.29    2.60
  -1  -2  -4   77.59    2.90
  -1  -2  -4   75.69    2.60
   0   2   4   15.60    1.50
   0   2   4   14.70    1.10
   0   2   4   11.90    1.00
   0  -2  -4   13.70    1.00
   0  -2  -4   12.90    1.20
   0  -2  -4   14.20    1.30
   0  -2  -4   14.00    1.40
  -1   2   4  198.38    4.70
  -1   2   4  184.78    5.10
  -1   2   4  186.58    5.20
   1  -2  -4  196.88    4.90
   1  -2  -4  201.78    5.00
   1  -2  -4  195.98    5.20
  -2   2   4 1333.67   27.90
  -2   2   4 1352.56   29.00
  -2   2   4 1344.67   27.20
  -2   2   4 1399.86   28.30
   2  -2  -4 1387.36   28.50
   2  -2  -4 1379.56   27.10
   2  -2  -4 1327.57   28.00
   2  -2  -4 1359.76   28.60
  -3   2   4    4.70    1.70
  -3   2   4    2.90    1.40
  -3   2   4    5.00    1.00
   3  -2  -4    3.10    1.20
   3  -2  -4    6.10    1.70
   3  -2  -4    3.20    0.70
  -4   2   4  990.10   20.90
  -4   2   4 1052.19   22.00
  -4   2   4 1001.40   22.90
   4  -2  -4 1023.00   20.90
   4  -2  -4 1033.00   23.20
  -5   2   4    2.30    2.20
  -5   2   4    7.20    1.70
  -5   2   4    4.00    1.30
   5  -2  -4    0.70    1.30
   5  -2  -4    2.60    2.40
  -6   2   4   70.29    5.00
  -6   2   4   73.19    3.40
   6  -2  -4   65.59    4.90
  -7   2   4    3.90    3.60
   7  -2  -4    9.80    4.00
   6   4   3   26.90    4.70
  -6  -4  -3   19.50    3.50
   5   4   3   11.20    3.20
  -5  -4  -3    6.30    1.80
  -5  -4  -3   10.50    2.50
   4   4   3   12.40    2.60
  -4  -4  -3   13.40    2.60
  -4  -4  -3    9.30    1.40
   3   4   3   97.99    4.50
   3   4   3   96.49    3.30
  -3  -4  -3   94.29    3.20
  -3  -4  -3   99.29    4.10
   2   4   3  516.05   12.70
   2   4   3  516.15   11.50
  -2  -4  -3  512.95   12.00
  -2  -4  -3  486.65   11.50
   1   4   3  186.28    6.10
   1   4   3  175.58    4.50
   1   4   3  181.08    5.20
  -1  -4  -3  176.38    4.50
  -1  -4  -3  182.18    5.20
  -1  -4  -3  180.48    4.40
  -1  -4  -3  180.88    5.10
   0   4   3   31.70    1.60
   0   4   3   28.50    1.50
   0   4   3   30.00    2.10
   0  -4  -3   30.70    1.50
   0  -4  -3   31.80    1.60
   0  -4  -3   31.90    1.60
   0  -4  -3   31.80    2.10
  -1   4   3  197.98    5.50
  -1   4   3  189.08    4.60
  -1   4   3  193.38    5.80
   1  -4  -3  199.98    4.70
   1  -4  -3  190.38    6.20
   1  -4  -3  191.08    5.20
  -2   4   3   24.70    2.20
  -2   4   3   24.40    2.20
   2  -4  -3   22.50    2.30
  -3   4   3  142.29    5.10
  -3   4   3  146.99    5.40
   3  -4  -3  144.09    5.60
  -4   4   3   12.20    2.60
  -4   4   3    9.10    2.10
   4  -4  -3   11.60    2.60
  -5   4   3   43.00    4.00
  -5   4   3   42.20    3.10
   5  -4  -3   40.80    4.20
   5  -4  -3   38.40    3.20
  -6   4   3  254.07    9.50
  -6   4   3  252.57    9.00
   6  -4  -3  241.88    9.30
   6  -4  -3  243.28    8.10
  -7   4   3   14.60    4.70
   7  -4  -3   10.40    4.10
   6   6   2    2.10    4.40
  -6  -6  -2   12.90    3.60
   5   6   2   28.90    4.60
  -5  -6  -2   45.70    4.10
   4   6   2    4.50    3.20
  -4  -6  -2    1.50    2.10
   3   6   2   16.50    3.30
   3   6   2   20.00    2.10
  -3  -6  -2   16.80    2.10
  -3  -6  -2   22.50    2.60
   2   6   2   24.60    2.30
   2   6   2   31.30    3.50
  -2  -6  -2   23.60    1.80
  -2  -6  -2   30.80    2.30
  -2  -6  -2   32.60    2.50
   1   6   2  110.39    5.50
   1   6   2  115.09    4.20
   1   6   2  118.09    4.50
  -1  -6  -2  117.79    4.00
  -1  -6  -2  122.39    3.70
  -1  -6  -2  120.59    4.20
   0   6   2  465.35   11.80
   0   6   2  465.75   11.20
   0  -6  -2  471.85   10.90
  -1   6   2   10.50    2.00
  -1   6   2   10.50    2.10
   1  -6  -2    9.00    1.20
   1  -6  -2   11.80    2.40
  -2   6   2  658.93   15.70
  -2   6   2  661.43   16.10
   2  -6  -2  643.64   16.40
  -3   6   2   70.79    4.20
  -3   6   2   71.19    4.20
   3  -6  -2   68.39    4.30
  -4   6   2  156.98    6.30
  -4   6   2  157.98    6.90
   4  -6  -2  163.88    6.40
   4  -6  -2  158.68    6.90
  -5   6   2    3.60    3.10
  -5   6   2   -1.20    2.90
   5  -6  -2   -4.50    2.70
   5  -6  -2    2.30    3.00
  -6   6   2   39.90    5.10
  -6   6   2   23.90    4.60
   6  -6  -2   31.10    4.00
   6  -6  -2   38.10    5.70
   5   8   1   12.90    5.10
   4   8   1   12.40    4.00
  -4  -8  -1   18.90    3.30
   3   8   1   -0.70    2.50
   3   8   1   -1.00    3.90
  -3  -8  -1   -0.40    2.10
   2   8   1   51.69    3.40
   2   8   1   58.69    5.10
  -2  -8  -1   49.90    3.50
  -2  -8  -1   46.20    3.30
   1   8   1   53.19    4.40
   1   8   1   51.29    3.50
  -1  -8  -1   54.59    3.40
  -1  -8  -1   51.19    3.00
   0   8   1   90.09    4.30
   0   8   1  101.09    4.80
   0  -8  -1   97.99    4.70
   0  -8  -1   91.09    3.70
   0  -8  -1   89.79    6.60
  -1   8   1   16.80    2.90
  -1   8   1   16.10    3.10
   1  -8  -1   20.20    2.90
   1  -8  -1   14.10    1.80
  -2   8   1   15.30    2.80
   2  -8  -1   17.00    3.20
   2  -8  -1   12.60    2.80
  -3   8   1   69.19    5.10
  -3   8   1   71.19    4.70
   3  -8  -1   68.39    4.50
   3  -8  -1   71.59    5.00
  -4   8   1   25.40    4.30
  -4   8   1   40.90    4.80
   4  -8  -1   38.20    4.50
   4  -8  -1   33.00    4.10
  -5   8   1    1.30    3.90
  -5   8   1    0.50    4.00
   5  -8  -1   -2.60    4.00
   5  -8  -1    4.20    3.60
   3  10   0   17.00    5.70
   2  10   0    2.70    3.40
  -2 -10   0   -1.70    3.20
  -2 -10   0    5.10    3.00
   1  10   0   27.60    4.00
  -1 -10   0   26.50    3.60
  -1 -10   0   32.90    4.20
  -1 -10   0   32.10    4.70
   0  10   0   64.69    4.90
   0  10   0   62.09    5.00
   0 -10   0   68.59    4.80
   0 -10   0   76.19    5.00
   0 -10   0   68.39    4.60
  -1  10   0   18.60    3.70
  -1  10   0   21.60    4.20
   1 -10   0   15.20    3.30
  -2  10   0    4.10    3.60
  -2  10   0   -1.90    3.90
   2 -10   0    3.10    3.60
  -3  10   0   24.80    4.90
   3 -10   0   20.00    4.40
  -1 -11  11  109.69    6.00
  -4   9 -10   20.80    4.50
   3  -9  10  187.08    8.20
  -3   9 -10  196.88    8.20
   2  -9  10   29.70    4.10
   2  -9  10   19.10    3.50
  -2   9 -10   21.60    4.10
   1  -9  10   11.40    3.20
   1  -9  10    6.10    2.80
  -1   9 -10    5.30    2.20
  -1   9 -10    5.60    3.20
   0  -9  10   25.60    3.90
   0  -9  10   28.20    3.40
   0   9 -10   18.10    3.10
   0   9 -10   28.70    4.10
  -1  -9  10   18.30    3.60
  -1  -9  10   14.40    3.00
   1   9 -10   16.70    3.20
  -2  -9  10   33.90    3.70
  -2  -9  10   26.80    4.30
   2   9 -10   21.00    3.80
  -3  -9  10    1.10    3.00
  -3  -9  10    8.30    4.30
   3   9 -10    6.30    3.70
  -4  -9  10   16.30    4.90
   6  -7   9   14.30    4.30
  -6   7  -9   18.40    5.20
   5  -7   9   23.80    3.90
  -5   7  -9   29.20    4.50
   4  -7   9   20.70    3.30
   4  -7   9   23.70    2.70
  -4   7  -9   20.20    4.00
   3  -7   9    2.10    1.80
   3  -7   9    5.60    2.50
  -3   7  -9    7.10    1.70
  -3   7  -9    4.10    2.60
   2  -7   9   51.59    2.50
   2  -7   9   52.59    3.70
  -2   7  -9   55.69    2.80
   1  -7   9 1020.60   25.50
   1  -7   9 1085.39   24.40
  -1   7  -9 1067.59   24.40
  -1   7  -9 1058.09   22.90
   0  -7   9   12.90    2.70
   0  -7   9   12.10    2.40
   0   7  -9   11.10    2.80
   0   7  -9   12.00    2.10
  -1  -7   9  611.54   16.20
  -1  -7   9  624.84   15.30
   1   7  -9  637.94   15.20
  -2  -7   9   33.40    2.80
   2   7  -9   33.70    3.30
   2   7  -9   35.30    2.70
  -3  -7   9   72.89    3.90
  -3  -7   9   85.09    5.40
   3   7  -9   84.19    4.80
   3   7  -9   74.29    3.90
  -4  -7   9   -5.80    3.40
   4   7  -9    6.90    2.90
   4   7  -9   -4.60    2.90
  -5  -7   9   25.30    4.00
  -5  -7   9   19.70    4.60
   5   7  -9   27.60    4.90
  -6  -7   9   11.80    5.70
   7  -5   8    4.70    4.40
  -7   5  -8   -0.50    4.60
   6  -5   8   23.90    4.00
   6  -5   8   17.80    3.50
  -6   5  -8   21.70    3.70
   5  -5   8    6.30    2.60
   5  -5   8    7.40    2.60
  -5   5  -8    5.90    2.80
   4  -5   8   -0.90    1.70
   4  -5   8   -0.40    2.00
  -4   5  -8    4.30    2.20
  -4   5  -8    3.50    1.70
   3  -5   8  162.58    6.00
   3  -5   8  167.78    5.00
  -3   5  -8  168.08    6.10
  -3   5  -8  160.88    5.00
   2  -5   8  160.48    4.20
   2  -5   8  164.98    5.70
  -2   5  -8  158.18    4.90
  -2   5  -8  163.28    4.40
  -2   5  -8  161.38    5.60
   1  -5   8  683.73   15.90
   1  -5   8  675.83   15.90
  -1   5  -8  682.23   16.00
  -1   5  -8  694.23   15.20
   0  -5   8    9.70    2.00
   0  -5   8   15.00    1.90
   0   5  -8   13.20    1.90
   0   5  -8   14.00    2.30
  -1  -5   8   36.80    1.50
  -1  -5   8   42.50    3.10
  -1  -5   8   45.60    2.60
   1   5  -8   43.30    2.70
  -2  -5   8  159.28    6.20
  -2  -5   8  162.18    5.10
  -2  -5   8  156.88    4.30
   2   5  -8  162.98    5.50
   2   5  -8  153.98    4.60
  -3  -5   8   14.40    2.90
  -3  -5   8   18.00    1.80
  -3  -5   8    9.80    2.00
   3   5  -8   16.30    2.60
   3   5  -8   14.60    2.10
   3   5  -8   12.80    1.60
  -4  -5   8   21.20    4.00
  -4  -5   8   18.70    2.20
   4   5  -8   20.40    3.00
   4   5  -8   21.70    3.00
  -5  -5   8  148.29    6.70
  -5  -5   8  144.69    7.30
   5   5  -8  145.99    6.30
   5   5  -8  146.49    6.70
  -6  -5   8   30.60    5.00
  -6  -5   8   30.90    4.30
   6   5  -8   27.60    4.80
   6   5  -8   36.70    4.90
   7   5  -8   14.90    5.40
   7  -3   7   -1.90    3.70
  -7   3  -7    4.20    3.50
   6  -3   7   14.70    2.60
   6  -3   7   20.70    3.50
  -6   3  -7   16.70    2.70
  -6   3  -7   15.10    3.20
   5  -3   7   16.30    2.80
   5  -3   7   15.00    2.30
  -5   3  -7   11.70    2.40
  -5   3  -7   14.40    2.30
   4  -3   7   11.60    2.00
   4  -3   7   15.10    2.40
  -4   3  -7   11.40    2.30
  -4   3  -7   16.30    2.20
   3  -3   7  186.48    5.30
   3  -3   7  180.68    5.70
   3  -3   7  186.18    5.90
  -3   3  -7  183.28    5.60
  -3   3  -7  183.18    5.60
  -3   3  -7  169.88    5.00
   2  -3   7    8.80    1.30
   2  -3   7    9.00    1.70
   2  -3   7    8.10    1.00
  -2   3  -7    8.40    1.60
  -2   3  -7    8.60    1.50
   1  -3   7 3481.95   71.29
   1  -3   7 3525.45   69.49
   1  -3   7 3458.25   69.19
  -1   3  -7 3490.35   69.19
  -1   3  -7 3623.14   69.29
  -1   3  -7 3397.66   69.29
   0  -3   7  208.58    5.80
   0  -3   7  198.88    5.50
   0  -3   7  202.18    5.80
   0  -3   7  201.08    5.60
   0   3  -7  210.18    5.60
   0   3  -7  203.88    5.80
   0   3  -7  216.18    5.70
  -1  -3   7  339.77    9.00
  -1  -3   7  348.57    8.50
   1   3  -7  351.86    8.40
   1   3  -7  346.07    8.50
  -2  -3   7  103.79    3.60
  -2  -3   7  103.19    3.10
  -2  -3   7  100.49    4.40
   2   3  -7  104.29    3.20
   2   3  -7  103.39    3.80
   2   3  -7  102.79    3.30
  -3  -3   7   43.50    3.30
   3   3  -7   51.49    2.10
   3   3  -7   51.49    2.80
   3   3  -7   45.60    2.80
  -4  -3   7   55.59    4.00
   4   3  -7   53.39    3.20
   4   3  -7   53.39    3.50
   5   3  -7  136.09    6.40
   5   3  -7  139.89    6.00
  -6  -3   7   15.90    3.60
  -6  -3   7   17.20    3.20
   6   3  -7   21.20    3.80
   6   3  -7   19.00    3.70
  -7  -3   7   31.70    5.30
  -7  -3   7   21.60    4.30
   7   3  -7   38.10    5.90
   7   3  -7   25.90    4.50
   7  -1   6    0.50    3.50
  -7   1  -6    7.70    3.20
  -7   1  -6    8.60    3.20
   6  -1   6   17.30    3.40
  -6   1  -6   11.50    2.50
  -6   1  -6   14.70    2.80
   5  -1   6   59.59    3.20
   5  -1   6   55.89    3.90
  -5   1  -6   53.29    3.50
  -5   1  -6   54.99    3.10
  -5   1  -6   56.19    2.50
   4  -1   6   53.69    3.20
   4  -1   6   49.80    2.80
  -4   1  -6   54.89    2.30
  -4   1  -6   56.59    3.10
  -4   1  -6   55.79    2.70
   3  -1   6   69.09    2.50
   3  -1   6   72.29    3.10
   3  -1   6   69.09    3.00
  -3   1  -6   67.19    2.90
  -3   1  -6   69.39    3.10
  -3   1  -6   69.49    2.60
   2  -1   6   18.50    1.30
   2  -1   6   21.10    1.50
   2  -1   6   22.60    1.90
   2  -1   6   19.40    1.20
  -2   1  -6   21.30    1.30
  -2   1  -6   20.40    1.90
  -2   1  -6   20.50    1.30
  -2   1  -6   19.90    1.50
   1  -1   6 7294.37  150.18
   1  -1   6 7617.34  155.78
   1  -1   6 7303.57  150.18
   1  -1   6 7731.73  149.19
   1  -1   6 7926.31  150.28
  -1   1  -6 7758.42  149.29
  -1   1  -6 7874.91  150.98
  -1   1  -6 7815.02  149.59
  -1   1  -6 7671.53  150.58
   0  -1   6  257.27    6.40
   0  -1   6  262.87    7.30
   0  -1   6  258.17    6.30
   0   1  -6  248.78    6.20
   0   1  -6  261.77    6.50
   0   1  -6  260.47    5.70
   0   1  -6  263.67    6.50
   0   1  -6  255.97    5.70
  -1  -1   6  210.58    5.40
  -1  -1   6  203.98    5.70
  -1  -1   6  209.48    5.70
  -1  -1   6  217.58    5.00
   1   1  -6  216.38    5.50
   1   1  -6  219.78    5.70
   1   1  -6  211.48    5.00
   1   1  -6  218.78    5.60
  -2  -1   6    5.60    1.10
  -2  -1   6    5.30    1.60
  -2  -1   6    4.40    0.90
  -2  -1   6    2.80    0.90
   2   1  -6    6.20    1.20
   2   1  -6    3.30    1.00
   2   1  -6    4.50    1.10
   2   1  -6    3.50    1.10
  -3  -1   6  294.17    8.30
  -3  -1   6  300.17    7.10
   3   1  -6  297.77    7.20
   3   1  -6  290.57    7.50
   3   1  -6  302.17    7.90
  -4  -1   6  238.08    7.60
  -4  -1   6  225.28    5.60
   4   1  -6  224.88    6.60
   4   1  -6  231.78    5.80
   4   1  -6  235.48    7.20
  -5  -1   6   30.60    3.60
   5   1  -6   29.70    2.70
   5   1  -6   31.30    3.40
  -6  -1   6   12.20    3.30
  -6  -1   6   10.80    2.40
   6   1  -6   10.40    3.30
   6   1  -6   13.30    2.60
  -7  -1   6   34.60    5.70
  -7  -1   6   28.60    4.10
   7   1  -6   35.60    4.00
   7   1   5   23.40    4.50
  -7  -1  -5   30.90    4.40
   6   1   5    7.20    3.00
  -6  -1  -5    5.10    2.70
   5   1   5   12.10    2.60
  -5  -1  -5   14.30    2.70
  -5  -1  -5   11.60    2.00
   4   1   5  118.49    4.70
   4   1   5  116.39    3.60
   4   1   5  119.29    3.50
  -4  -1  -5  113.99    3.50
  -4  -1  -5  122.09    4.70
  -4  -1  -5  115.69    3.40
   3   1   5  226.38    5.80
   3   1   5  225.38    6.60
  -3  -1  -5  217.58    5.20
  -3  -1  -5  229.28    6.50
  -3  -1  -5  232.58    5.80
   2   1   5   37.00    2.20
   2   1   5   39.30    2.10
   2   1   5   35.30    2.00
  -2  -1  -5   39.80    2.00
  -2  -1  -5   35.90    2.00
  -2  -1  -5   40.00    2.20
   1   1   5  380.96    8.80
   1   1   5  388.66    8.90
   1   1   5  377.96    8.70
  -1  -1  -5  363.76    9.30
  -1  -1  -5  377.76    8.90
  -1  -1  -5  381.86    8.90
   0   1   5  611.64   13.30
   0   1   5  606.94   12.50
   0   1   5  601.84   13.00
   0  -1  -5  591.24   13.20
   0  -1  -5  628.84   13.10
   0  -1  -5  615.34   12.50
   0  -1  -5  601.34   13.30
  -1   1   5 9999.00  193.08
  -1   1   5 9586.54  196.18
  -1   1   5 9933.91  193.98
   1  -1  -5 9746.03  193.58
   1  -1  -5 9700.63  191.68
   1  -1  -5 9900.21  191.78
   1  -1  -5 9966.10  195.08
  -2   1   5   -0.50    1.30
  -2   1   5    0.60    1.10
  -2   1   5    2.00    0.70
  -2   1   5    0.20    0.90
   2  -1  -5    0.90    0.70
   2  -1  -5    0.70    0.90
   2  -1  -5    2.00    1.00
   2  -1  -5    1.50    1.30
  -3   1   5  297.87    8.20
  -3   1   5  297.47    7.00
  -3   1   5  296.67    7.40
   3  -1  -5  298.57    7.10
   3  -1  -5  297.67    7.40
   3  -1  -5  303.87    8.20
  -4   1   5  135.39    4.00
  -4   1   5  138.89    4.30
  -4   1   5  136.59    5.50
   4  -1  -5  143.09    4.20
   4  -1  -5  135.39    5.50
   4  -1  -5  139.69    4.30
  -5   1   5  259.07    8.80
  -5   1   5  268.67    7.10
  -5   1   5  263.37    7.20
   5  -1  -5  267.27    8.80
   5  -1  -5  263.37    7.90
   5  -1  -5  257.57    6.90
  -6   1   5    7.90    2.10
  -6   1   5   14.30    3.20
   6  -1  -5   12.80    2.20
   6  -1  -5    6.70    3.20
  -7   1   5    2.70    3.70
   7  -1  -5    3.30    3.80
  -7  -3  -4   12.60    3.70
  -6  -3  -4   11.10    3.10
   5   3   4   18.90    3.80
  -5  -3  -4   17.70    3.00
   4   3   4   18.20    3.10
  -4  -3  -4   17.10    2.60
   3   3   4   68.69    3.60
  -3  -3  -4   67.09    3.30
  -3  -3  -4   64.49    2.70
   2   3   4  178.88    5.80
   2   3   4  180.18    5.00
  -2  -3  -4  179.98    5.40
  -2  -3  -4  167.08    4.80
   1   3   4 1536.95   32.40
   1   3   4 1606.14   32.60
   1   3   4 1613.14   33.40
  -1  -3  -4 1656.63   32.60
  -1  -3  -4 1581.74   32.50
   0   3   4  177.08    4.40
   0   3   4  179.48    5.20
   0   3   4  182.48    4.70
   0  -3  -4  180.48    5.00
   0  -3  -4  171.88    5.40
   0  -3  -4  186.38    4.80
   0  -3  -4  186.58    4.40
  -1   3   4 1728.33   34.30
  -1   3   4 1673.93   35.20
  -1   3   4 1717.03   34.80
   1  -3  -4 1759.12   34.80
   1  -3  -4 1751.92   36.00
   1  -3  -4 1748.23   34.50
   1  -3  -4 1700.03   35.30
  -2   3   4   28.00    2.20
  -2   3   4   28.50    1.30
  -2   3   4   31.90    2.20
   2  -3  -4   34.20    2.40
  -3   3   4  362.56    9.70
  -3   3   4  374.66    9.40
   3  -3  -4  370.66   10.10
  -4   3   4   21.10    2.90
  -4   3   4   20.20    2.30
   4  -3  -4   23.50    3.10
  -5   3   4    9.30    2.80
  -5   3   4    7.20    2.00
   5  -3  -4    9.40    3.10
  -6   3   4   14.80    2.80
  -6   3   4   24.00    4.10
   6  -3  -4   18.60    2.70
  -7   3   4   24.60    4.50
   7  -3  -4   20.40    4.50
   6   5   3   27.10    5.10
  -6  -5  -3   29.00    4.30
   5   5   3   36.50    4.30
  -5  -5  -3   40.80    3.80
   4   5   3   27.00    1.90
   4   5   3   22.60    3.50
  -4  -5  -3   27.40    3.00
   3   5   3    7.00    1.50
   3   5   3    6.50    2.50
  -3  -5  -3   10.60    1.70
  -3  -5  -3   11.80    2.20
   2   5   3  132.09    5.50
   2   5   3  129.39    4.40
  -2  -5  -3  133.79    4.80
  -2  -5  -3  138.69    3.90
   1   5   3    7.40    2.00
   1   5   3    7.00    1.20
   1   5   3    6.20    1.50
  -1  -5  -3    6.20    1.40
  -1  -5  -3    7.30    1.10
  -1  -5  -3    5.40    1.00
   0   5   3   33.80    2.10
   0   5   3   32.80    2.60
   0   5   3   34.60    1.80
   0  -5  -3   32.10    1.70
   0  -5  -3   35.90    1.80
   0  -5  -3   35.70    2.00
  -1   5   3 1361.66   28.80
  -1   5   3 1365.36   27.10
  -1   5   3 1380.76   28.30
   1  -5  -3 1312.07   29.60
   1  -5  -3 1353.06   27.20
   1  -5  -3 1314.27   27.00
  -2   5   3  273.57    7.80
  -2   5   3  271.27    8.00
   2  -5  -3  268.07    8.30
  -3   5   3   98.39    4.80
  -3   5   3  102.59    4.50
   3  -5  -3  100.89    4.90
  -4   5   3   18.00    2.80
  -4   5   3   16.60    3.30
   4  -5  -3   20.10    5.50
  -5   5   3   11.10    2.50
  -5   5   3   11.60    3.10
   5  -5  -3   10.60    3.40
   5  -5  -3   10.00    2.60
  -6   5   3   41.80    4.20
  -6   5   3   49.10    5.30
   6  -5  -3   35.60    3.80
   6  -5  -3   33.90    5.00
   5   7   2   -5.80    4.00
  -5  -7  -2    8.90    3.30
   4   7   2   -1.50    3.30
  -4  -7  -2    2.10    2.60
   3   7   2   15.80    3.20
   3   7   2   10.30    2.20
  -3  -7  -2    9.70    2.00
  -3  -7  -2   14.60    2.70
  -3  -7  -2   12.70    2.50
   2   7   2   58.59    3.40
   2   7   2   57.69    6.50
  -2  -7  -2   59.89    3.50
  -2  -7  -2   60.69    3.30
   1   7   2  234.58    7.40
   1   7   2  230.58    8.60
   1   7   2  218.78    6.70
  -1  -7  -2  220.48    6.70
  -1  -7  -2  230.38    6.70
   0   7   2    2.30    2.20
   0   7   2    3.50    1.70
   0  -7  -2    5.20    1.40
  -1   7   2 1053.39   24.80
  -1   7   2 1048.30   23.30
   1  -7  -2 1052.79   23.10
   1  -7  -2 1038.10   24.80
  -2   7   2   39.10    3.50
  -2   7   2   36.80    3.30
   2  -7  -2   38.70    3.60
  -3   7   2   16.00    3.10
  -3   7   2   18.90    3.00
   3  -7  -2   16.30    3.00
   3  -7  -2   19.10    3.30
  -4   7   2   22.10    3.90
  -4   7   2   22.50    3.50
   4  -7  -2   21.20    3.50
   4  -7  -2   22.70    3.80
  -5   7   2   12.60    3.80
  -5   7   2    8.60    3.80
   5  -7  -2   16.30    4.30
   5  -7  -2   13.80    3.50
  -6   7   2   18.60    4.60
   6  -7  -2   23.60    4.40
   4   9   1    8.80    5.20
  -4  -9  -1    7.00    3.40
   3   9   1   11.80    4.60
   2   9   1   33.70    5.40
   2   9   1   34.80    3.70
  -2  -9  -1   30.20    3.50
  -2  -9  -1   35.20    3.40
   1   9   1   11.70    2.90
   1   9   1    9.00    2.60
  -1  -9  -1    9.30    2.30
  -1  -9  -1   13.00    2.60
  -1  -9  -1    6.80    2.50
   0   9   1   16.00    3.30
   0   9   1   18.90    3.00
   0  -9  -1   17.30    3.10
   0  -9  -1   19.50    3.50
   0  -9  -1   14.90    2.20
  -1   9   1    6.30    3.00
  -1   9   1   -0.60    2.60
   1  -9  -1   -0.70    2.70
   1  -9  -1   -1.30    2.90
  -2   9   1   44.10    4.00
  -2   9   1   37.60    4.20
   2  -9  -1   40.30    4.00
   2  -9  -1   40.70    4.50
  -3   9   1  238.38    8.80
  -3   9   1  231.98    9.20
   3  -9  -1  239.38    9.20
   3  -9  -1  234.78    9.40
  -4   9   1   26.20    5.20
   4  -9  -1   17.40    4.40
   1  11   0   81.39    6.50
  -1 -11   0   62.09    6.10
  -1 -11   0   82.09    6.80
   0 -11   0   26.90    5.00
  -1  11   0   30.80    4.90
   1 -11   0   25.50    5.20
  -2  11   0   -0.20    4.50
   2 -10  11   23.40    4.50
  -2  10 -11   24.10    4.90
   1 -10  11   12.80    3.60
   1 -10  11   13.60    3.80
  -1  10 -11   22.40    4.40
   0 -10  11   92.19    6.20
   0 -10  11   84.19    5.40
   0  10 -11   89.59    6.50
   0  10 -11  101.89    4.70
  -1 -10  11   19.70    4.40
  -1 -10  11   23.00    4.20
   1  10 -11   22.90    4.20
  -2 -10  11   -6.10    3.90
  -2 -10  11   -0.50    4.40
   2  10 -11    7.40    3.70
   5  -8  10    4.40    5.00
  -5   8 -10    3.30    4.00
   4  -8  10   23.50    3.90
  -4   8 -10   24.00    4.40
   3  -8  10   42.50    3.90
  -3   8 -10   39.60    4.40
   2  -8  10    1.00    2.60
   2  -8  10    4.20    2.70
  -2   8 -10    3.60    2.70
  -2   8 -10   -2.40    1.90
   1  -8  10   19.50    2.90
   1  -8  10   15.10    3.00
  -1   8 -10   16.40    3.30
  -1   8 -10   15.00    2.30
   0  -8  10  247.58    8.10
   0  -8  10  242.98    8.50
   0   8 -10  232.18    8.70
   0   8 -10  244.58    7.50
  -1  -8  10   29.90    3.20
  -1  -8  10   27.40    3.70
   1   8 -10   29.80    3.60
  -2  -8  10   50.39    4.50
  -2  -8  10   41.60    3.60
   2   8 -10   42.80    3.70
  -3  -8  10    7.40    2.80
  -3  -8  10    3.50    3.50
   3   8 -10    6.80    3.10
  -4  -8  10   21.60    4.90
  -4  -8  10   18.10    3.60
   4   8 -10   29.40    4.50
  -5  -8  10   18.20    5.40
   6  -6   9   29.10    4.40
   6  -6   9   24.30    4.80
  -6   6  -9   35.00    5.10
   5  -6   9    1.00    2.90
   5  -6   9    0.50    2.60
   4  -6   9  138.59    5.10
   4  -6   9  141.19    6.00
  -4   6  -9  158.68    6.50
  -4   6  -9  137.99    5.40
   3  -6   9   81.99    3.20
   3  -6   9   70.59    4.30
  -3   6  -9   76.09    3.40
  -3   6  -9   75.99    4.40
   2  -6   9  424.96    9.50
   2  -6   9  421.36   11.50
  -2   6  -9  430.46   11.60
  -2   6  -9  438.56   10.50
   1  -6   9    4.50    1.90
   1  -6   9    3.40    2.10
  -1   6  -9    5.90    1.60
  -1   6  -9    3.90    1.90
   0  -6   9 1230.08   26.50
   0  -6   9 1183.28   26.80
   0   6  -9 1212.38   27.00
   0   6  -9 1215.38   25.90
  -1  -6   9  108.29    4.50
  -1  -6   9  105.79    5.10
   1   6  -9  109.39    4.50
  -2  -6   9   12.70    1.60
  -2  -6   9   13.90    3.00
  -2  -6   9   13.20    2.10
   2   6  -9   14.40    2.60
  -3  -6   9    3.60    3.20
  -3  -6   9    3.20    1.90
   3   6  -9    6.90    2.80
  -4  -6   9    0.30    3.10
   4   6  -9    1.90    2.50
  -5  -6   9   25.40    5.00
  -5  -6   9   24.00    4.10
  -6  -6   9   27.20    4.80
  -6  -6   9   32.70    5.40
   6   6  -9   22.90    4.70
   6   6  -9   25.60    4.70
  -7   4  -8   10.40    4.10
   6  -4   8  223.18    7.90
   6  -4   8  225.98    8.60
  -6   4  -8  235.88    8.40
   5  -4   8    7.30    2.30
   5  -4   8    1.10    2.20
  -5   4  -8   10.10    2.50
  -5   4  -8    5.10    2.20
   4  -4   8   21.90    2.40
   4  -4   8   22.20    2.60
  -4   4  -8   25.30    2.60
   3  -4   8   85.09    3.20
   3  -4   8   84.59    3.80
  -3   4  -8   82.69    3.60
  -3   4  -8   77.99    3.00
  -3   4  -8   78.89    3.90
   2  -4   8   26.70    1.40
   2  -4   8   23.70    2.20
  -2   4  -8   23.10    1.40
  -2   4  -8   23.60    2.10
  -2   4  -8   25.80    2.20
   1  -4   8   87.69    3.70
   1  -4   8   85.59    3.60
  -1   4  -8   90.39    3.50
  -1   4  -8   88.79    3.80
   0  -4   8    4.40    1.40
   0  -4   8    5.30    1.50
   0   4  -8    2.90    1.30
   0   4  -8    3.30    1.30
  -1  -4   8  114.29    4.10
  -1  -4   8  118.29    4.70
   1   4  -8  116.89    4.20
  -2  -4   8 1070.29   23.70
  -2  -4   8 1074.89   21.60
  -2  -4   8 1075.29   22.50
   2   4  -8 1029.10   22.10
   2   4  -8 1033.90   21.70
   2   4  -8 1028.60   22.80
  -3  -4   8   87.09    3.50
  -3  -4   8   77.29    4.60
   3   4  -8   76.49    2.80
   3   4  -8   83.49    4.10
   3   4  -8   87.09    3.60
  -4  -4   8   44.40    4.10
   4   4  -8   47.00    3.40
   4   4  -8   42.40    3.30
  -5  -4   8   20.40    4.00
   5   4  -8   19.50    3.20
   5   4  -8   27.50    3.50
  -6  -4   8    9.60    3.30
   6   4  -8   15.30    3.30
   6   4  -8    9.30    3.70
  -7  -4   8   22.80    4.10
  -7  -4   8   21.30    5.00
   7   4  -8   22.50    4.60
   7   4  -8   12.40    5.00
   7  -2   7   18.00    3.90
  -7   2  -7   13.30    3.50
   6  -2   7   71.89    4.90
  -6   2  -7   64.79    4.30
  -6   2  -7   70.49    4.30
   5  -2   7    7.80    2.00
   5  -2   7    5.50    2.20
  -5   2  -7    9.30    2.00
  -5   2  -7    9.90    2.20
   4  -2   7 1314.07   27.80
   4  -2   7 1284.27   27.60
  -4   2  -7 1293.27   27.80
  -4   2  -7 1279.07   27.20
   3  -2   7   13.60    1.80
   3  -2   7   18.30    1.80
  -3   2  -7   15.90    2.00
  -3   2  -7   14.90    1.70
  -3   2  -7   19.20    1.80
   2  -2   7 2001.80   40.30
   2  -2   7 1964.20   39.40
   2  -2   7 1985.20   39.80
   2  -2   7 1943.51   40.00
  -2   2  -7 1937.81   40.10
  -2   2  -7 1947.01   40.60
  -2   2  -7 2047.70   40.30
  -2   2  -7 2004.40   39.50
   1  -2   7   89.99    2.40
   1  -2   7   89.89    3.00
   1  -2   7   90.69    3.50
   1  -2   7   93.09    3.10
   1  -2   7   94.19    3.30
  -1   2  -7   92.79    3.10
  -1   2  -7   92.59    3.50
  -1   2  -7   89.09    2.40
  -1   2  -7   90.89    3.30
   0  -2   7 1168.58   24.50
   0  -2   7 1176.78   24.70
   0  -2   7 1206.38   24.70
   0  -2   7 1164.98   24.60
   0   2  -7 1216.18   24.60
   0   2  -7 1194.78   24.60
   0   2  -7 1133.89   24.40
  -1  -2   7   21.10    1.00
  -1  -2   7   23.80    2.10
  -1  -2   7   17.70    1.50
  -1  -2   7   24.80    1.70
  -1  -2   7   21.40    2.10
   1   2  -7   20.80    1.10
   1   2  -7   22.30    1.60
   1   2  -7   23.70    1.70
   1   2  -7   23.10    1.80
  -2  -2   7  136.59    4.90
  -2  -2   7  138.39    4.40
  -2  -2   7  146.29    3.90
   2   2  -7  141.19    4.10
   2   2  -7  143.09    4.50
   2   2  -7  141.39    4.00
  -3  -2   7  223.28    7.20
   3   2  -7  226.18    5.80
   3   2  -7  233.68    6.50
   3   2  -7  228.78    6.50
  -4  -2   7   75.99    2.60
  -4  -2   7   78.89    4.50
   4   2  -7   75.29    3.90
   4   2  -7   76.09    3.70
   4   2  -7   69.79    2.60
  -5  -2   7   14.90    3.60
   5   2  -7   10.70    2.90
   5   2  -7   11.80    2.40
  -6  -2   7   45.00    4.50
  -6  -2   7   35.60    3.80
   6   2  -7   35.90    4.60
   6   2  -7   43.80    3.70
  -7  -2   7   22.80    4.50
  -7  -2   7   27.60    5.30
   7   2  -7   21.30    3.90
   7   2  -7   31.70    5.50
   7   0   6    0.30    3.70
  -7   0  -6    2.70    3.10
   6   0   6   56.59    4.70
  -6   0  -6   60.29    4.30
  -6   0  -6   64.59    3.50
   5   0   6   35.90    2.40
   5   0   6   30.70    3.40
  -5   0  -6   37.00    2.40
  -5   0  -6   32.20    3.20
   4   0   6  661.93   15.70
   4   0   6  662.53   14.90
   4   0   6  657.03   14.50
  -4   0  -6  665.63   15.60
  -4   0  -6  664.03   14.50
  -4   0  -6  661.93   14.30
   3   0   6    1.80    1.30
   3   0   6    0.40    1.20
   3   0   6    0.80    0.90
  -3   0  -6    0.30    1.30
  -3   0  -6   -0.60    1.00
  -3   0  -6    0.40    0.70
   2   0   6    3.40    0.60
   2   0   6    1.90    0.90
   2   0   6    2.90    1.40
  -2   0  -6    2.70    0.90
  -2   0  -6    3.20    1.00
  -2   0  -6    3.10    0.70
  -2   0  -6    3.40    1.20
   1   0   6  387.96    8.20
   1   0   6  370.96    9.90
   1   0   6  398.06    8.20
   1   0   6  394.46    9.10
   1   0   6  372.96    8.70
  -1   0  -6  387.76    8.70
  -1   0  -6  384.66    9.10
   0   0   6   64.69    2.60
   0   0   6   63.59    2.30
   0   0  -6   67.19    2.30
   0   0  -6   69.09    2.80
   0   0  -6   70.49    2.80
   0   0  -6   67.29    2.40
  -1   0   6   73.59    2.80
  -1   0   6   70.49    2.40
  -1   0   6   70.09    2.60
  -1   0   6   70.59    3.50
   1   0  -6   71.89    2.70
   1   0  -6   67.39    2.50
   1   0  -6   69.49    2.80
   1   0  -6   73.09    2.60
  -2   0   6  533.35   12.30
  -2   0   6  538.45   11.80
  -2   0   6  527.15   11.60
  -2   0   6  534.45   11.80
   2   0  -6  502.85   12.00
   2   0  -6  524.55   11.80
  -3   0   6  407.76   10.50
  -3   0   6  388.46    9.40
  -3   0   6  411.96    9.50
   3   0  -6  408.76    9.60
   3   0  -6  407.06    9.50
   3   0  -6  426.46   10.30
  -4   0   6    7.20    1.40
  -4   0   6    6.40    2.20
   4   0  -6    9.80    2.30
   4   0  -6    6.80    1.50
  -5   0   6   63.79    4.20
  -5   0   6   61.89    2.70
   5   0  -6   62.49    4.30
   5   0  -6   64.49    3.20
  -6   0   6    4.00    2.10
  -6   0   6    0.50    2.90
   6   0  -6    4.40    2.30
   6   0  -6    2.40    2.90
  -7   0   6   54.59    5.40
   7   0  -6   47.50    3.80
   7   0  -6   36.50    5.40
   7   2   5    6.90    4.30
  -7  -2  -5    0.00    3.60
   6   2   5   67.19    5.30
  -6  -2  -5   58.99    4.70
   5   2   5    4.10    3.00
  -5  -2  -5    6.10    2.60
   4   2   5  468.35   12.30
   4   2   5  485.55   10.70
  -4  -2  -5  481.55   12.20
  -4  -2  -5  470.35   10.60
   3   2   5   48.90    3.00
  -3  -2  -5   50.69    2.80
  -3  -2  -5   47.80    2.20
   2   2   5  108.79    4.10
   2   2   5  111.59    3.60
  -2  -2  -5  105.99    3.90
  -2  -2  -5  108.69    3.60
   1   2   5  216.68    5.80
   1   2   5  209.88    5.60
   1   2   5  226.08    6.20
  -1  -2  -5  222.58    5.80
  -1  -2  -5  203.98    5.90
  -1  -2  -5  210.38    5.70
   0   2   5 1862.21   38.40
   0   2   5 1852.41   37.50
   0   2   5 1939.11   38.20
   0  -2  -5 1934.41   37.50
   0  -2  -5 1896.41   38.50
   0  -2  -5 1890.31   38.90
   0  -2  -5 1970.60   38.20
  -1   2   5   42.20    2.10
  -1   2   5   43.20    1.80
  -1   2   5   41.80    2.40
   1  -2  -5   41.10    2.10
   1  -2  -5   41.80    2.40
   1  -2  -5   44.60    2.10
   1  -2  -5   43.10    2.00
  -2   2   5  562.74   12.00
  -2   2   5  534.45   12.60
  -2   2   5  574.14   12.90
   2  -2  -5  582.24   13.60
   2  -2  -5  533.55   12.70
   2  -2  -5  560.44   13.10
   2  -2  -5  554.54   11.90
  -3   2   5  206.08    6.50
  -3   2   5  205.08    5.10
  -3   2   5  207.08    5.90
   3  -2  -5  207.18    5.10
   3  -2  -5  204.38    6.50
  -4   2   5    2.60    1.10
  -4   2   5    3.90    1.70
  -4   2   5    5.90    2.00
   4  -2  -5    5.90    2.10
  -5   2   5   74.99    3.00
  -5   2   5   74.69    3.50
   5  -2  -5   64.99    5.40
   5  -2  -5   76.29    2.90
  -6   2   5    0.40    2.10
  -6   2   5    2.80    2.90
   6  -2  -5    4.80    3.00
  -7   2   5   25.40    5.10
   7  -2  -5   19.70    4.30
   6   4   4    4.80    3.80
  -6  -4  -4    7.70    3.30
   5   4   4    2.90    2.90
  -5  -4  -4    0.50    2.40
   4   4   4  616.94   16.10
   4   4   4  618.34   15.20
  -4  -4  -4  620.64   15.40
   3   4   4   76.89    4.30
   3   4   4   81.99    3.10
  -3  -4  -4   77.39    3.80
  -3  -4  -4   78.79    3.10
   2   4   4   48.20    2.50
   2   4   4   49.40    3.20
  -2  -4  -4   42.60    2.30
  -2  -4  -4   44.10    2.70
   1   4   4   30.70    2.80
   1   4   4   31.10    2.20
  -1  -4  -4   31.60    2.10
   0   4   4    3.70    0.90
   0   4   4    4.10    0.90
   0   4   4    3.80    1.40
   0  -4  -4    3.30    0.90
   0  -4  -4    5.00    1.20
  -1   4   4  278.97    7.70
  -1   4   4  282.77    6.50
  -1   4   4  288.37    7.20
   1  -4  -4  272.37    6.90
   1  -4  -4  273.77    8.20
   1  -4  -4  286.67    6.70
  -2   4   4  278.27    7.70
  -2   4   4  281.57    7.80
   2  -4  -4  274.07    8.20
  -3   4   4   49.20    3.10
  -3   4   4   44.40    3.30
   3  -4  -4   49.20    3.50
  -4   4   4   60.29    4.30
  -4   4   4   65.19    3.50
   4  -4  -4   66.09    4.30
  -5   4   4  108.49    5.90
  -5   4   4  112.69    4.80
   5  -4  -4  108.89    6.00
  -6   4   4   -2.60    2.80
  -6   4   4    2.10    3.10
   6  -4  -4    0.80    3.00
   6  -4  -4    0.20    3.40
   5   6   3    2.70    3.90
  -5  -6  -3   -2.00    2.70
   4   6   3    9.90    3.20
  -4  -6  -3    9.10    2.60
   3   6   3   41.10    2.70
   3   6   3   36.70    5.10
  -3  -6  -3   47.00    3.50
   2   6   3  610.64   16.10
   2   6   3  618.74   14.40
  -2  -6  -3  600.74   13.10
  -2  -6  -3  599.04   14.50
   1   6   3    1.70    1.60
   1   6   3    2.40    2.20
   1   6   3   -1.00    1.50
  -1  -6  -3    2.00    1.30
  -1  -6  -3    2.10    1.40
  -1  -6  -3    0.40    1.20
   0   6   3 1124.99   24.70
   0   6   3 1099.09   23.70
   0  -6  -3 1122.69   23.50
  -1   6   3  187.78    6.40
  -1   6   3  183.88    5.90
   1  -6  -3  184.88    4.70
   1  -6  -3  178.98    6.90
   1  -6  -3  190.88    4.90
  -2   6   3   58.59    3.70
  -2   6   3   58.69    3.50
   2  -6  -3   54.89    3.90
  -3   6   3    1.80    2.50
  -3   6   3    0.50    2.20
  -4   6   3   73.39    4.30
  -4   6   3   75.39    4.90
   4  -6  -3   71.09    4.80
  -5   6   3  107.49    5.50
  -5   6   3  106.69    6.10
   5  -6  -3  103.29    6.60
   5  -6  -3  100.69    5.40
  -6   6   3   22.30    4.40
  -6   6   3   26.50    4.10
   6  -6  -3   25.30    4.10
   6  -6  -3   15.60    4.60
   4   8   2   18.50    4.50
  -4  -8  -2    9.40    3.20
   3   8   2   24.10    4.60
  -3  -8  -2   24.30    2.70
  -3  -8  -2   21.70    3.50
   2   8   2  113.89    6.80
   2   8   2  114.29    4.90
  -2  -8  -2  108.99    4.90
  -2  -8  -2  109.99    4.80
  -2  -8  -2  107.89    5.00
   1   8   2    8.20    2.60
   1   8   2    3.60    2.10
  -1  -8  -2    5.90    1.90
  -1  -8  -2    7.10    2.10
   0   8   2   23.80    3.10
   0   8   2   27.40    2.80
   0  -8  -2   30.00    3.70
   0  -8  -2   24.40    2.40
  -1   8   2   31.10    3.10
  -1   8   2   32.30    3.50
   1  -8  -2   26.30    3.50
  -2   8   2  157.78    6.50
   2  -8  -2  167.48    6.70
   2  -8  -2  157.38    7.10
  -3   8   2   23.50    3.90
  -3   8   2   17.60    3.60
   3  -8  -2   20.50    3.70
   3  -8  -2   23.50    3.40
  -4   8   2    6.40    3.70
  -4   8   2   -0.50    3.20
   4  -8  -2   -1.20    3.20
   4  -8  -2    4.20    3.50
  -5   8   2   22.30    4.60
  -5   8   2   24.70    4.70
   5  -8  -2   24.10    4.10
   5  -8  -2   22.10    4.90
  -3 -10  -1    6.20    3.60
   2  10   1   42.40    4.30
  -2 -10  -1   51.99    4.40
  -2 -10  -1   38.00    4.10
   1  10   1   24.50    4.40
  -1 -10  -1   27.10    4.00
   0  10   1    7.10    3.50
   0  10   1    0.40    3.30
   0 -10  -1    4.70    3.60
   0 -10  -1   -3.00    3.10
   0 -10  -1   -4.80    3.10
  -1  10   1   20.60    4.20
  -1  10   1   17.40    3.90
   1 -10  -1   23.70    4.00
   1 -10  -1   23.40    4.10
  -2  10   1   54.29    5.00
   2 -10  -1   50.49    4.90
  -3  10   1   23.50    4.80
   3 -10  -1   33.60    5.00
   3  -9  11    8.10    3.70
  -3   9 -11    9.00    3.60
   2  -9  11   12.00    3.50
   2  -9  11    9.80    3.30
  -2   9 -11    9.20    3.60
   1  -9  11   27.20    3.70
   1  -9  11   28.60    4.00
  -1   9 -11   22.80    4.20
  -1   9 -11   30.20    3.20
   0  -9  11   52.69    4.60
   0  -9  11   37.90    4.00
   0   9 -11   38.90    4.10
   0   9 -11   45.00    4.70
  -1  -9  11   25.20    3.60
  -1  -9  11   21.50    4.30
   1   9 -11   21.10    3.50
  -2  -9  11    9.70    3.90
  -2  -9  11    0.40    3.20
   2   9 -11    2.70    3.00
  -3  -9  11   27.20    4.80
   3   9 -11   25.30    4.60
  -4  -9  11   23.40    6.40
   6  -7  10   -6.90    4.80
   5  -7  10    8.70    3.50
  -5   7 -10   13.00    3.90
   4  -7  10   21.70    3.60
  -4   7 -10   27.80    4.20
   3  -7  10  185.78    7.50
  -3   7 -10  179.18    7.30
  -3   7 -10  185.98    5.70
   2  -7  10    3.60    2.20
  -2   7 -10    1.70    2.20
  -2   7 -10   -1.20    1.70
   1  -7  10  231.98    7.90
   1  -7  10  237.48    9.30
  -1   7 -10  235.78    7.00
  -1   7 -10  228.98    9.30
   0  -7  10  107.99    4.90
   0  -7  10  105.89    5.30
   0   7 -10  106.39    4.50
   0   7 -10  106.69    5.40
  -1  -7  10   63.69    3.80
   1   7 -10   63.99    3.80
  -2  -7  10    2.60    2.50
  -2  -7  10    1.40    2.20
   2   7 -10    1.60    2.70
  -3  -7  10    2.10    2.20
  -3  -7  10    3.70    3.30
   3   7 -10   -0.60    2.40
  -4  -7  10   31.10    5.00
   4   7 -10   44.40    4.40
  -5  -7  10   18.80    4.10
  -5  -7  10   25.30    4.90
   5   7 -10   28.40    5.00
   7  -5   9   21.00    4.90
  -7   5  -9   14.70    4.50
   6  -5   9    7.70    3.40
   6  -5   9   13.20    3.60
  -6   5  -9   15.30    3.40
   5  -5   9    6.00    2.50
   5  -5   9    3.90    2.90
  -5   5  -9    3.90    2.80
   4  -5   9   29.90    2.70
  -4   5  -9   31.90    2.70
  -4   5  -9   30.80    3.30
   3  -5   9  151.88    5.90
   3  -5   9  165.68    4.80
  -3   5  -9  163.28    6.00
  -3   5  -9  160.48    5.20
  -3   5  -9  131.49    4.50
   2  -5   9   73.09    2.40
   2  -5   9   77.09    3.90
  -2   5  -9   78.29    2.50
  -2   5  -9   75.79    3.90
  -2   5  -9   76.49    3.40
   1  -5   9  253.27    7.60
   1  -5   9  254.47    7.70
  -1   5  -9  264.37    7.80
  -1   5  -9  262.17    7.20
   0  -5   9  184.58    6.20
   0  -5   9  190.68    6.00
   0   5  -9  188.58    5.80
   0   5  -9  183.98    6.30
  -1  -5   9  176.08    5.70
  -1  -5   9  167.38    6.30
   1   5  -9  178.48    5.80
  -2  -5   9   73.09    3.50
  -2  -5   9   75.69    4.50
  -2  -5   9   71.49    2.50
   2   5  -9   74.49    3.80
   2   5  -9   69.99    2.60
  -3  -5   9    7.90    1.90
  -3  -5   9   13.40    2.90
   3   5  -9    8.90    2.30
   3   5  -9   10.30    2.00
  -4  -5   9   38.10    4.20
  -4  -5   9   38.90    2.80
   4   5  -9   44.20    3.60
   4   5  -9   43.30    3.20
  -5  -5   9   46.10    5.20
   5   5  -9   50.69    4.10
   5   5  -9   45.80    4.40
  -6  -5   9   21.70    3.90
  -6  -5   9   27.60    5.10
   6   5  -9   24.00    4.30
   6   5  -9   33.50    4.70
   7   5  -9    7.30    5.30
   7  -3   8   30.30    5.40
  -7   3  -8   43.20    4.80
   6  -3   8   26.90    3.80
   6  -3   8   30.60    3.10
  -6   3  -8   31.30    3.60
   5  -3   8   71.19    3.90
   5  -3   8   70.79    4.20
  -5   3  -8   70.69    3.90
  -5   3  -8   64.09    4.10
   4  -3   8   25.00    2.60
   4  -3   8   28.20    2.50
  -4   3  -8   29.00    2.60
  -4   3  -8   25.90    2.70
   3  -3   8   52.59    3.00
   3  -3   8   51.09    2.50
  -3   3  -8   47.70    2.30
  -3   3  -8   53.09    3.00
  -3   3  -8   46.50    2.80
   2  -3   8   28.90    2.30
   2  -3   8   28.80    1.50
  -2   3  -8   32.30    2.20
  -2   3  -8   26.60    1.50
  -2   3  -8   30.10    2.30
   1  -3   8   15.60    1.80
   1  -3   8   19.90    1.90
   1  -3   8   15.60    2.00
  -1   3  -8   16.90    1.80
  -1   3  -8   15.30    1.90
   0  -3   8   28.10    2.20
   0  -3   8   24.20    2.10
   0   3  -8   24.10    1.70
   0   3  -8   25.10    2.10
   0   3  -8   26.10    2.00
  -1  -3   8 1289.07   27.40
  -1  -3   8 1289.17   26.90
   1   3  -8 1259.57   26.70
  -2  -3   8  199.68    5.00
  -2  -3   8  208.18    6.00
  -2  -3   8  204.88    6.70
   2   3  -8  204.28    5.50
   2   3  -8  203.98    5.20
   2   3  -8  194.98    6.00
  -3  -3   8   60.49    4.00
  -3  -3   8   66.39    2.90
   3   3  -8   64.49    2.60
   3   3  -8   66.79    3.10
   3   3  -8   67.29    3.30
  -4  -3   8   12.20    2.00
  -4  -3   8   13.00    2.80
   4   3  -8   10.20    2.20
   4   3  -8   15.00    2.50
   4   3  -8   11.20    1.60
  -5  -3   8   22.50    4.00
   5   3  -8   22.80    3.40
  -6  -3   8   37.60    5.20
  -6  -3   8   43.10    4.20
   6   3  -8   53.69    4.30
   6   3  -8   50.99    4.90
  -7  -3   8    4.30    4.80
  -7  -3   8    4.40    3.50
   7   3  -8   -6.30    4.60
   7  -1   7   -5.20    3.60
  -7   1  -7   -1.90    3.50
   6  -1   7   21.40    3.90
  -6   1  -7   32.70    3.30
   5  -1   7  758.22   18.30
   5  -1   7  754.42   17.50
  -5   1  -7  772.82   17.30
  -5   1  -7  761.92   18.30
   4  -1   7    7.60    2.00
   4  -1   7    2.80    1.70
  -4   1  -7    5.80    1.40
  -4   1  -7    5.60    1.90
   3  -1   7  644.84   14.50
   3  -1   7  629.54   14.20
   3  -1   7  603.74   13.50
  -3   1  -7  628.34   14.10
  -3   1  -7  640.24   14.50
  -3   1  -7  615.94   14.10
   2  -1   7  282.87    6.80
   2  -1   7  277.17    6.50
   2  -1   7  279.17    7.50
  -2   1  -7  284.77    7.40
  -2   1  -7  283.57    6.90
  -2   1  -7  283.87    7.20
  -2   1  -7  270.97    6.50
   1  -1   7 1179.18   23.10
   1  -1   7 1091.09   23.60
   1  -1   7 1081.19   22.80
   1  -1   7 1152.68   24.00
   1  -1   7 1103.99   23.00
  -1   1  -7 1160.18   22.90
  -1   1  -7 1136.89   23.80
  -1   1  -7 1129.19   23.00
  -1   1  -7 1164.18   23.90
   0  -1   7    1.00    0.80
   0  -1   7    2.60    0.90
   0  -1   7    1.30    1.50
   0  -1   7    0.50    0.90
   0   1  -7    0.20    0.70
   0   1  -7    0.30    1.20
   0   1  -7    1.30    0.70
   0   1  -7    1.70    0.70
   0   1  -7    0.50    1.00
  -1  -1   7  171.58    4.90
  -1  -1   7  178.38    5.40
  -1  -1   7  187.58    4.50
   1   1  -7  181.98    5.20
   1   1  -7  182.08    4.60
   1   1  -7  184.88    5.20
   1   1  -7  184.18    5.20
  -2  -1   7  307.67    8.50
  -2  -1   7  325.77    8.10
  -2  -1   7  318.37    7.60
   2   1  -7  338.37    8.00
   2   1  -7  331.57    8.10
   2   1  -7  335.17    8.10
  -3  -1   7  661.63   15.80
  -3  -1   7  670.03   14.60
   3   1  -7  669.03   15.10
   3   1  -7  659.23   14.90
   3   1  -7  657.73   14.60
  -4  -1   7    7.80    1.40
  -4  -1   7   12.20    2.90
   4   1  -7    9.30    1.80
   4   1  -7   14.70    2.40
   4   1  -7   11.60    1.80
  -5  -1   7   17.90    1.80
  -5  -1   7   21.30    4.00
   5   1  -7   17.00    2.60
   5   1  -7   20.90    3.30
  -6  -1   7   58.49    4.10
  -6  -1   7   58.99    4.90
   6   1  -7   61.99    4.30
   6   1  -7   54.39    5.00
  -7  -1   7   16.00    4.60
  -7  -1   7   10.90    3.30
   7   1  -7    5.60    4.20
   7   1  -7   17.40    3.50
   7   1   6    7.60    4.40
  -7  -1  -6    0.30    3.50
   6   1   6   31.50    4.10
  -6  -1  -6   28.60    3.80
   5   1   6  256.97    8.70
  -5  -1  -6  258.27    6.70
  -5  -1  -6  252.47    8.30
   4   1   6   32.50    2.20
   4   1   6   33.50    1.80
   4   1   6   33.20    3.00
  -4  -1  -6   35.90    3.00
  -4  -1  -6   32.00    2.00
  -4  -1  -6   33.60    1.60
   3   1   6  398.76    9.50
   3   1   6  403.96   10.20
  -3  -1  -6  406.46   10.10
  -3  -1  -6  396.56    9.40
   2   1   6  144.99    4.60
   2   1   6  144.29    4.50
  -2  -1  -6  148.89    4.50
  -2  -1  -6  148.39    5.00
   1   1   6  368.56    8.80
   1   1   6  359.76    8.60
   1   1   6  351.26    9.20
  -1  -1  -6  353.06    8.70
  -1  -1  -6  372.56    8.80
  -1  -1  -6  374.26    8.90
   0   1   6  259.17    6.00
   0   1   6  260.97    6.80
   0   1   6  263.07    6.50
   0  -1  -6  262.17    6.70
   0  -1  -6  261.37    5.90
   0  -1  -6  269.77    6.80
   0  -1  -6  260.87    6.70
  -1   1   6 2882.91   55.39
  -1   1   6 2803.22   55.39
  -1   1   6 2786.22   55.59
   1  -1  -6 2721.73   55.49
   1  -1  -6 2802.92   55.39
   1  -1  -6 2702.83   55.69
   1  -1  -6 2837.02   55.19
  -2   1   6  121.19    4.00
  -2   1   6  127.69    3.80
  -2   1   6  126.09    4.40
  -2   1   6  117.79    3.90
   2  -1  -6  129.19    4.40
   2  -1  -6  132.59    3.80
   2  -1  -6  120.89    4.10
   2  -1  -6  124.09    3.90
  -3   1   6  109.29    3.40
  -3   1   6  117.89    4.60
  -3   1   6  119.09    3.90
   3  -1  -6  113.09    4.50
   3  -1  -6  119.49    3.70
   3  -1  -6  116.39    3.80
  -4   1   6  230.18    7.60
  -4   1   6  229.58    6.50
   4  -1  -6  235.18    6.20
   4  -1  -6  238.98    7.70
  -5   1   6   28.30    2.30
  -5   1   6   33.40    4.70
   5  -1  -6   25.60    3.50
   5  -1  -6   27.20    2.30
  -6   1   6   44.80    3.00
  -6   1   6   37.50    4.30
  -7   1   6   28.00    5.00
   7  -1  -6   27.90    4.80
  -7  -3  -5    9.20    4.00
   6   3   5    0.40    3.50
  -6  -3  -5    0.20    2.90
   5   3   5  698.93   18.00
  -5  -3  -5  703.43   17.50
   4   3   5   44.20    2.20
   4   3   5   42.30    3.60
  -4  -3  -5   42.30    3.40
  -4  -3  -5   42.10    2.20
   3   3   5   31.50    2.00
   3   3   5   31.60    3.00
  -3  -3  -5   34.20    2.70
  -3  -3  -5   31.20    2.10
   2   3   5   22.90    1.90
   2   3   5   20.40    2.20
  -2  -3  -5   21.60    2.10
  -2  -3  -5   21.10    1.70
   1   3   5   42.60    2.70
   1   3   5   41.50    2.30
  -1  -3  -5   41.10    2.10
  -1  -3  -5   41.10    2.40
   0   3   5  290.17    6.90
   0   3   5  286.37    7.40
   0   3   5  276.77    6.50
   0  -3  -5  298.77    6.50
   0  -3  -5  281.17    7.60
   0  -3  -5  272.77    7.20
  -1   3   5   96.39    2.90
  -1   3   5   89.29    3.50
   1  -3  -5   93.49    3.10
   1  -3  -5   88.39    3.90
   1  -3  -5   96.59    3.10
  -2   3   5  129.69    4.50
  -2   3   5  126.49    4.40
  -2   3   5  127.99    3.40
   2  -3  -5  127.79    3.50
   2  -3  -5  124.09    4.80
  -3   3   5  568.34   13.60
  -3   3   5  551.04   13.20
   3  -3  -5  552.94   13.90
   3  -3  -5  531.45   11.60
  -4   3   5  100.29    4.20
  -4   3   5   97.59    4.70
   4  -3  -5   95.89    4.90
  -5   3   5   64.69    4.40
  -5   3   5   59.79    3.60
   5  -3  -5   59.99    4.60
  -6   3   5   10.80    3.30
  -6   3   5   11.30    2.50
   6  -3  -5    6.80    2.40
   6  -3  -5   10.40    3.60
  -7   3   5   18.30    4.30
   7  -3  -5   18.00    4.20
   6   5   4   -4.70    4.20
  -6  -5  -4   -2.10    3.40
   5   5   4  149.79    7.30
  -5  -5  -4  162.18    6.80
   4   5   4   65.19    2.90
   4   5   4   65.29    4.60
  -4  -5  -4   62.09    4.00
   3   5   4  219.78    6.30
   3   5   4  225.58    8.00
  -3  -5  -4  226.28    7.20
   2   5   4    3.60    1.40
   2   5   4    1.10    1.90
  -2  -5  -4    1.10    1.40
   1   5   4    2.60    2.00
   1   5   4    1.40    1.00
   1   5   4    3.10    1.50
  -1  -5  -4    0.50    0.90
  -1  -5  -4    1.70    1.20
  -1  -5  -4    3.00    0.90
   0   5   4  300.97    7.40
   0   5   4  299.77    8.30
   0  -5  -4  306.67    8.00
   0  -5  -4  305.57    7.60
   0  -5  -4  285.07    7.20
  -1   5   4  131.19    3.60
  -1   5   4  131.29    4.50
  -1   5   4  128.29    4.90
   1  -5  -4  135.09    3.80
   1  -5  -4  133.39    3.70
   1  -5  -4  130.39    5.40
  -2   5   4   27.40    2.60
  -2   5   4   26.80    2.60
   2  -5  -4   34.00    3.00
  -3   5   4  104.09    4.70
  -3   5   4  106.19    4.90
   3  -5  -4  103.59    5.10
  -4   5   4  188.08    8.70
   4  -5  -4  193.58    7.60
  -5   5   4  116.79    6.30
  -5   5   4  111.29    5.30
   5  -5  -4  119.39    5.30
   5  -5  -4  118.49    6.50
  -6   5   4    9.00    3.90
   6  -5  -4   13.20    4.00
   5   7   3    5.00    4.50
  -5  -7  -3    7.20    3.50
   4   7   3   21.00    4.40
  -4  -7  -3   17.10    3.10
   3   7   3  502.05   12.50
   3   7   3  503.15   15.00
  -3  -7  -3  514.95   13.40
   2   7   3   15.40    2.70
   2   7   3   21.70    3.80
  -2  -7  -3   13.20    2.50
  -2  -7  -3   18.80    2.30
   1   7   3  102.99    4.10
   1   7   3  111.69    4.80
   1   7   3  107.09    6.00
  -1  -7  -3  109.29    4.40
  -1  -7  -3  101.69    4.00
   0   7   3   82.29    3.80
   0   7   3   87.49    4.40
   0  -7  -3   82.89    3.50
  -1   7   3   99.69    5.10
  -1   7   3  102.59    4.40
   1  -7  -3  100.39    5.40
   1  -7  -3  105.09    3.60
  -2   7   3   37.70    3.20
  -2   7   3   36.10    3.60
   2  -7  -3   36.20    4.10
  -3   7   3    4.80    2.70
  -3   7   3    4.20    2.60
   3  -7  -3    3.20    2.70
  -4   7   3   64.39    5.10
  -4   7   3   72.99    4.80
   4  -7  -3   69.59    4.80
   4  -7  -3   77.89    5.10
  -5   7   3  113.29    6.50
  -5   7   3  105.19    5.90
   5  -7  -3  109.89    7.00
   5  -7  -3  102.99    6.00
  -6   7   3    5.80    4.50
   3   9   2   36.60    6.00
  -3  -9  -2   43.30    4.10
   2   9   2   42.40    5.90
   2   9   2   30.40    3.80
  -2  -9  -2   32.10    3.70
  -2  -9  -2   38.70    3.60
   1   9   2   75.39    4.60
  -1  -9  -2   63.09    3.90
  -1  -9  -2   68.69    4.20
   0   9   2   31.40    3.90
   0   9   2   26.50    3.40
   0  -9  -2   28.00    3.70
   0  -9  -2   23.20    4.00
  -1   9   2   54.39    4.50
  -1   9   2   53.39    4.10
   1  -9  -2   49.80    4.70
   1  -9  -2   50.49    4.10
  -2   9   2   41.10    4.40
  -2   9   2   41.20    4.00
   2  -9  -2   35.60    4.80
   2  -9  -2   38.00    4.20
  -3   9   2   29.30    4.40
  -3   9   2   34.20    4.30
   3  -9  -2   21.70    4.10
   3  -9  -2   31.10    4.60
  -4   9   2    8.40    4.40
   4  -9  -2    6.20    4.30
  -2  11   1   29.40    5.40
   1 -10  12   29.90    4.20
   1 -10  12   29.40    5.00
  -1  10 -12   31.80    4.70
   0 -10  12    5.10    4.10
   0 -10  12   12.60    3.70
   0  10 -12    3.60    3.30
   0  10 -12    3.30    4.30
  -1 -10  12    1.90    4.00
  -1 -10  12    4.20    4.20
   1  10 -12    1.10    3.40
  -2 -10  12   32.70    4.60
  -2 -10  12   22.80    5.60
   2  10 -12   25.20    4.30
   4  -8  11   27.00    4.30
  -4   8 -11   33.40    4.90
   3  -8  11   -0.40    3.00
  -3   8 -11    3.90    3.10
   2  -8  11    9.50    2.90
   2  -8  11   12.30    3.10
  -2   8 -11   11.20    3.40
   1  -8  11   86.49    4.90
   1  -8  11   87.89    4.90
  -1   8 -11   84.29    3.90
  -1   8 -11   83.69    5.30
   0  -8  11   44.40    3.60
   0  -8  11   52.99    4.40
   0   8 -11   41.40    4.20
   0   8 -11   41.40    3.30
  -1  -8  11    4.40    3.00
  -1  -8  11    1.70    2.60
   1   8 -11    1.70    2.40
  -2  -8  11   29.90    4.40
  -2  -8  11   19.90    3.40
   2   8 -11   24.70    3.90
  -3  -8  11   42.30    3.80
  -3  -8  11   46.80    5.20
   3   8 -11   39.60    4.30
  -4  -8  11   10.30    4.60
   4   8 -11   17.00    4.00
   6  -6  10   25.50    4.50
  -6   6 -10   27.50    4.80
   5  -6  10   21.80    3.30
   5  -6  10   19.20    3.70
  -5   6 -10   22.10    4.10
   4  -6  10  348.27    9.30
   4  -6  10  344.67   10.50
  -4   6 -10  353.46   10.80
  -4   6 -10  319.57    9.00
   3  -6  10   25.40    2.10
   3  -6  10   27.00    3.20
  -3   6 -10   28.90    2.50
  -3   6 -10   26.00    3.80
   2  -6  10   16.30    2.90
  -2   6 -10   18.80    3.00
  -2   6 -10   15.20    2.10
   1  -6  10  175.88    6.40
   1  -6  10  178.78    6.40
  -1   6 -10  180.48    6.60
  -1   6 -10  185.18    5.90
   0  -6  10   34.80    3.20
   0  -6  10   37.00    2.90
   0   6 -10   33.00    3.40
   0   6 -10   37.70    2.90
  -1  -6  10   55.69    3.40
  -1  -6  10   48.10    3.80
   1   6 -10   51.79    3.30
  -2  -6  10   -1.80    1.90
  -2  -6  10    2.10    2.60
   2   6 -10    2.50    2.10
   2   6 -10    0.90    1.40
  -3  -6  10   47.40    4.30
  -3  -6  10   38.60    3.20
   3   6 -10   43.90    2.90
   3   6 -10   44.00    3.60
  -4  -6  10   55.49    5.20
   4   6 -10   51.99    3.80
   4   6 -10   62.29    4.40
   5   6 -10   29.00    4.10
  -6  -6  10    9.00    5.10
   7  -4   9   12.50    4.40
  -7   4  -9    3.00    4.40
   6  -4   9   52.29    4.50
   6  -4   9   35.00    4.10
  -6   4  -9   44.10    4.40
   5  -4   9   17.60    3.30
   5  -4   9   21.50    3.10
  -5   4  -9   20.60    2.90
  -5   4  -9   25.80    3.10
   4  -4   9  263.67    7.50
   4  -4   9  268.97    8.30
  -4   4  -9  277.17    8.30
  -4   4  -9  259.77    7.90
   3  -4   9  105.89    4.60
   3  -4   9  109.79    3.60
  -3   4  -9  106.29    4.40
  -3   4  -9  103.69    4.20
  -3   4  -9   86.69    3.30
   2  -4   9   84.69    3.80
   2  -4   9   80.69    2.50
  -2   4  -9   82.79    3.80
  -2   4  -9   79.69    3.70
  -2   4  -9   81.39    2.50
   1  -4   9   57.19    3.10
   1  -4   9   53.49    3.00
  -1   4  -9   58.49    3.00
  -1   4  -9   55.49    3.10
   0  -4   9   91.79    3.90
   0  -4   9   90.79    3.90
   0   4  -9   95.99    3.80
   0   4  -9   91.39    4.00
  -1  -4   9  304.67    8.80
  -1  -4   9  313.57    8.40
   1   4  -9  313.77    8.30
  -2  -4   9    4.00    1.60
  -2  -4   9    2.00    1.90
   2   4  -9    4.90    1.00
   2   4  -9    4.20    1.50
  -3  -4   9   14.10    3.00
  -3  -4   9   15.40    2.10
   3   4  -9   13.10    1.80
   3   4  -9   17.00    2.00
   3   4  -9   13.50    2.40
  -4  -4   9  119.59    4.10
  -4  -4   9  124.89    6.40
   4   4  -9  126.79    5.60
   4   4  -9  124.99    5.00
  -5  -4   9   24.00    4.20
   5   4  -9   22.10    3.60
   5   4  -9   23.90    3.50
  -6  -4   9   -5.70    3.20
  -6  -4   9   -0.90    4.00
   6   4  -9    5.90    3.70
   6   4  -9   -0.20    3.20
  -7  -4   9    7.50    5.40
   7   4  -9   -1.90    4.90
   7  -2   8    2.10    3.90
   6  -2   8    6.10    2.90
  -6   2  -8    8.50    2.60
  -6   2  -8    3.60    2.90
   5  -2   8    7.00    2.50
  -5   2  -8    5.60    2.30
  -5   2  -8    8.30    2.00
   4  -2   8  628.34   15.20
   4  -2   8  646.64   15.10
  -4   2  -8  649.34   14.70
  -4   2  -8  649.14   15.40
   3  -2   8  122.59    4.20
   3  -2   8  126.69    4.60
  -3   2  -8  125.99    4.10
  -3   2  -8  124.09    4.70
   2  -2   8  424.16    9.90
   2  -2   8  438.66   10.70
   2  -2   8  424.66    9.60
  -2   2  -8  429.16    9.70
  -2   2  -8  436.26   10.70
  -2   2  -8  441.66   10.00
   1  -2   8   19.10    1.00
   1  -2   8   17.30    1.70
   1  -2   8   18.10    1.40
   1  -2   8   20.20    2.00
  -1   2  -8   15.40    1.60
  -1   2  -8   17.10    1.00
  -1   2  -8   18.40    2.00
   0  -2   8    3.50    1.40
   0  -2   8    0.80    1.10
   0  -2   8    2.10    1.40
   0  -2   8    3.80    1.10
   0   2  -8    0.50    1.00
   0   2  -8    2.20    1.00
   0   2  -8    2.30    1.20
  -1  -2   8  391.56    8.40
  -1  -2   8  399.16   10.00
  -1  -2   8  398.76    9.90
   1   2  -8  391.06    8.50
   1   2  -8  414.26   12.00
   1   2  -8  381.96    9.50
  -2  -2   8  204.98    5.90
  -2  -2   8  197.28    6.50
  -2  -2   8  208.28    5.20
   2   2  -8  207.08    5.30
   2   2  -8  199.58    5.60
   2   2  -8  206.18    5.90
  -3  -2   8    7.60    2.20
  -3  -2   8    9.20    1.80
   3   2  -8    8.50    1.70
   3   2  -8    8.90    1.60
   3   2  -8   10.50    1.90
  -4  -2   8   58.69    4.20
  -4  -2   8   56.19    2.70
   4   2  -8   57.49    3.30
   4   2  -8   59.49    3.60
   4   2  -8   57.49    2.50
  -5  -2   8   96.49    5.60
   5   2  -8   99.99    5.20
   5   2  -8   92.89    4.50
  -6  -2   8   30.70    4.60
  -6  -2   8   23.60    3.60
   6   2  -8   30.20    3.60
   6   2  -8   30.50    4.50
  -7  -2   8    5.40    3.30
  -7  -2   8    1.40    4.40
   7   2  -8   -4.80    3.90
   7   2  -8   -2.40    4.50
   7   0   7    6.80    4.00
  -7   0  -7   11.10    3.50
   6   0   7   12.20    3.00
  -6   0  -7   12.00    2.20
  -6   0  -7   10.20    3.00
   5   0   7   38.00    2.70
   5   0   7   41.60    3.40
  -5   0  -7   43.00    3.50
  -5   0  -7   37.80    2.50
   4   0   7  587.34   13.10
   4   0   7  599.64   13.90
   4   0   7  602.34   14.50
  -4   0  -7  593.54   14.50
  -4   0  -7  587.14   13.30
   3   0   7  296.47    6.70
   3   0   7  298.07    7.90
   3   0   7  291.17    7.90
  -3   0  -7  287.57    6.70
  -3   0  -7  290.87    8.00
  -3   0  -7  289.97    7.50
   2   0   7  221.18    5.90
   2   0   7  217.28    6.20
  -2   0  -7  219.58    6.00
  -2   0  -7  222.98    6.20
  -2   0  -7  209.38    5.80
  -2   0  -7  209.28    4.90
   1   0   7   44.70    2.20
   1   0   7   48.00    2.10
   1   0   7   46.20    1.70
   1   0   7   48.70    1.70
   1   0   7   49.20    2.80
  -1   0  -7   51.99    2.50
  -1   0  -7   49.20    2.00
  -1   0  -7   48.60    2.60
   0   0   7   10.70    1.90
   0   0   7   16.70    1.40
   0   0   7   12.90    1.20
   0   0  -7   13.10    1.20
   0   0  -7   14.00    1.20
   0   0  -7   12.20    1.80
   0   0  -7   15.70    1.80
  -1   0   7  118.19    4.20
  -1   0   7  122.49    4.00
  -1   0   7  124.59    4.00
   1   0  -7  122.09    3.70
   1   0  -7  124.79    4.10
   1   0  -7  119.99    3.80
   1   0  -7  124.39    4.10
  -2   0   7  274.87    7.50
  -2   0   7  276.17    7.20
  -2   0   7  267.77    6.80
  -2   0   7  271.37    6.90
   2   0  -7  279.17    7.20
   2   0  -7  285.57    7.10
   2   0  -7  276.97    7.10
  -3   0   7  131.89    5.10
  -3   0   7  126.79    4.20
   3   0  -7  124.29    4.10
   3   0  -7  130.79    4.70
   3   0  -7  123.19    4.10
  -4   0   7   61.99    4.10
  -4   0   7   67.09    2.90
   4   0  -7   59.99    2.90
   4   0  -7   66.69    3.10
   4   0  -7   64.19    3.90
  -5   0   7   11.60    1.90
   5   0  -7   13.80    2.20
   5   0  -7   11.80    2.90
  -6   0   7   35.30    4.60
  -6   0   7   35.00    3.40
   6   0  -7   42.00    3.20
   6   0  -7   37.50    4.60
  -7   0   7   24.10    4.50
   7   0  -7   23.20    4.50
   7   2   6   11.70    4.50
  -7  -2  -6    6.40    3.80
   6   2   6   15.10    3.70
  -6  -2  -6    8.60    3.00
   5   2   6   24.20    3.70
  -5  -2  -6   19.40    3.10
   4   2   6   16.90    2.90
  -4  -2  -6   14.20    1.70
  -4  -2  -6   22.00    2.70
   3   2   6   23.50    1.90
   3   2   6   22.20    2.50
  -3  -2  -6   23.30    2.30
  -3  -2  -6   24.10    1.80
   2   2   6 1346.97   28.70
   2   2   6 1345.97   28.00
  -2  -2  -6 1355.06   28.30
  -2  -2  -6 1375.56   28.50
   1   2   6  322.17    8.40
   1   2   6  321.47    8.10
  -1  -2  -6  323.07    8.00
  -1  -2  -6  312.17    8.00
   0   2   6    3.80    0.80
   0   2   6    3.20    1.40
   0   2   6    1.70    0.80
   0  -2  -6    2.20    1.20
   0  -2  -6    3.70    1.20
   0  -2  -6    3.40    0.80
   0  -2  -6    3.00    1.00
  -1   2   6   42.50    1.90
  -1   2   6   46.50    2.20
  -1   2   6   42.70    2.50
   1  -2  -6   44.50    2.60
   1  -2  -6   41.90    2.60
   1  -2  -6   43.90    2.20
   1  -2  -6   44.40    2.00
   1  -2  -6   47.10    2.20
  -2   2   6   81.69    2.80
  -2   2   6   80.69    3.40
  -2   2   6   77.39    3.30
   2  -2  -6   78.99    2.70
   2  -2  -6   78.49    3.60
  -3   2   6  280.57    6.80
  -3   2   6  275.87    7.60
  -3   2   6  286.07    8.10
   3  -2  -6  276.07    6.70
   3  -2  -6  276.17    8.20
  -4   2   6   37.90    3.30
  -4   2   6   37.10    2.70
  -4   2   6   37.30    2.00
   4  -2  -6   38.40    2.00
   4  -2  -6   37.50    3.40
  -5   2   6    8.70    2.20
  -5   2   6   15.00    2.90
  -5   2   6    8.80    1.80
   5  -2  -6    7.70    3.10
   5  -2  -6    9.80    1.70
  -6   2   6   56.99    3.30
  -6   2   6   51.99    4.80
   6  -2  -6   56.89    4.90
   7  -2  -6   25.60    5.20
   6   4   5   39.90    5.30
  -6  -4  -5   45.00    4.70
   5   4   5   51.89    4.50
  -5  -4  -5   40.30    3.90
   4   4   5   90.49    3.30
  -4  -4  -5   75.99    6.30
   3   4   5    2.30    2.10
   3   4   5    3.60    1.40
  -3  -4  -5    5.30    1.60
  -3  -4  -5    5.50    1.80
   2   4   5   40.20    3.10
   2   4   5   40.00    2.50
  -2  -4  -5   44.10    2.80
   1   4   5  222.38    7.30
   1   4   5  222.28    6.40
  -1  -4  -5  222.08    6.30
   0   4   5  394.46   10.00
   0   4   5  394.96    9.20
   0   4   5  393.16    8.90
   0  -4  -5  413.76    9.50
   0  -4  -5  391.86    8.90
  -1   4   5    2.90    0.90
  -1   4   5    1.30    1.30
  -1   4   5    2.40    1.50
   1  -4  -5    2.00    0.90
   1  -4  -5    2.30    1.60
   1  -4  -5    2.20    1.10
  -2   4   5  236.48    6.80
  -2   4   5  229.98    5.40
  -2   4   5  235.08    7.00
   2  -4  -5  227.18    7.50
   2  -4  -5  231.88    5.60
  -3   4   5  142.49    5.30
  -3   4   5  138.39    5.40
   3  -4  -5  137.79    5.80
  -4   4   5   32.70    3.00
  -4   4   5   44.70    3.90
   4  -4  -5   40.00    3.90
  -5   4   5    3.10    2.80
  -5   4   5    3.90    2.40
   5  -4  -5    7.40    3.20
  -6   4   5   17.90    3.40
  -6   4   5   12.40    3.60
   6  -4  -5    8.70    2.90
   6  -4  -5    3.40    3.50
   5   6   4   26.50    4.60
  -5  -6  -4   28.50    4.00
   4   6   4   49.30    4.60
  -4  -6  -4   57.29    4.20
   3   6   4   25.90    2.40
   3   6   4   24.00    3.30
  -3  -6  -4   26.50    3.20
   2   6   4  356.66    9.50
   2   6   4  342.47   11.00
  -2  -6  -4  352.66    9.80
   1   6   4   98.69    5.20
   1   6   4   87.39    3.80
   1   6   4  104.19    4.40
  -1  -6  -4   94.69    4.00
  -1  -6  -4   91.59    3.50
  -1  -6  -4   97.69    3.10
   0   6   4   14.40    1.90
   0   6   4   12.30    2.30
   0  -6  -4   12.30    1.80
  -1   6   4  166.78    5.50
  -1   6   4  173.38    4.50
  -1   6   4  171.98    6.30
   1  -6  -4  175.38    4.90
   1  -6  -4  166.08    6.80
   1  -6  -4  163.38    4.50
  -2   6   4   10.10    2.50
  -2   6   4    8.60    2.20
   2  -6  -4    9.80    2.60
  -3   6   4  105.09    5.30
  -3   6   4  109.89    5.10
   3  -6  -4  105.89    5.70
  -4   6   4  174.48    7.20
  -4   6   4  167.08    6.70
   4  -6  -4  165.08    7.30
  -5   6   4   24.50    3.60
  -5   6   4   24.20    4.30
   5  -6  -4   26.50    3.80
   5  -6  -4   26.70    4.50
  -6   6   4    4.70    3.80
  -6   6   4    6.30    4.30
   6  -6  -4    7.90    4.60
   6  -6  -4    1.10    3.70
   4   8   3   22.90    4.90
  -4  -8  -3   21.70    3.80
   3   8   3   41.50    5.50
  -3  -8  -3   31.20    3.70
  -3  -8  -3   32.90    2.80
   2   8   3    5.60    2.80
   2   8   3    7.00    3.80
  -2  -8  -3    7.10    2.30
   1   8   3   44.20    3.60
   1   8   3   29.80    2.80
  -1  -8  -3   36.70    3.00
  -1  -8  -3   34.60    2.80
   0   8   3   40.20    3.70
   0   8   3   37.70    3.30
   0  -8  -3   41.20    2.80
   0  -8  -3   45.10    4.30
  -1   8   3   49.40    4.10
  -1   8   3   53.29    3.60
   1  -8  -3   52.99    4.40
  -2   8   3    5.30    2.80
  -2   8   3    2.30    3.10
   2  -8  -3    7.80    2.90
  -3   8   3   15.70    3.30
  -3   8   3   22.60    3.50
   3  -8  -3   20.70    3.90
   3  -8  -3   18.20    3.30
  -4   8   3   52.49    4.70
  -4   8   3   44.20    4.80
   4  -8  -3   46.60    5.10
   4  -8  -3   44.40    4.70
  -5   8   3   11.50    6.00
  -3 -10  -2   34.90    4.80
  -2 -10  -2   -5.70    3.60
   1  10   2   -4.30    3.50
  -1 -10  -2    0.30    3.20
  -1 -10  -2    5.40    4.00
   0  10   2    1.90    3.60
   0 -10  -2    3.50    3.40
   0 -10  -2   11.70    4.00
  -1  10   2   66.59    4.80
  -1  10   2   64.19    5.20
   1 -10  -2   57.59    5.50
   1 -10  -2   58.49    4.80
  -2  10   2   -3.30    3.80
   2 -10  -2   -6.30    4.20
  -3  10   2    3.00    4.20
   3  -9  12   27.50    4.70
   3  -9  12   28.60    4.50
  -3   9 -12   20.70    4.50
   2  -9  12   39.60    4.50
   2  -9  12   38.50    4.30
  -2   9 -12   35.20    4.80
   1  -9  12   20.60    4.20
   1  -9  12   24.90    3.70
  -1   9 -12   24.00    4.40
  -1   9 -12   25.40    3.90
   0  -9  12   11.10    3.20
   0  -9  12    4.60    3.40
   0   9 -12    3.40    3.50
   0   9 -12    9.80    2.90
  -1  -9  12   46.20    5.10
  -1  -9  12   51.19    4.30
   1   9 -12   47.20    4.20
  -2  -9  12   30.60    5.20
  -2  -9  12   22.10    4.10
   2   9 -12   20.00    4.00
  -3  -9  12   17.40    4.70
   3   9 -12    9.10    4.00
   5  -7  11   34.70    4.60
  -5   7 -11   42.10    5.00
   4  -7  11    3.60    3.00
  -4   7 -11    6.00    3.20
   3  -7  11   16.90    3.20
  -3   7 -11   16.80    3.40
  -3   7 -11   14.70    2.40
   2  -7  11   80.79    4.50
   2  -7  11   78.89    4.90
  -2   7 -11   81.59    3.70
  -2   7 -11   74.89    4.80
   1  -7  11   82.39    4.50
   1  -7  11   87.59    4.80
  -1   7 -11   83.79    4.00
  -1   7 -11   77.79    4.80
   0  -7  11   31.30    3.60
   0  -7  11   37.90    3.90
   0   7 -11   30.00    3.90
   0   7 -11   27.40    2.80
  -1  -7  11    2.80    2.20
  -1  -7  11    6.20    2.80
   1   7 -11    8.90    2.40
  -2  -7  11   47.80    4.70
  -2  -7  11   49.70    3.60
   2   7 -11   52.39    4.00
  -3  -7  11   24.30    3.50
  -3  -7  11   28.60    4.50
   3   7 -11   22.00    3.60
  -4  -7  11   29.40    4.80
   4   7 -11   21.40    4.10
  -5  -7  11   -3.20    4.50
  -5  -7  11   -0.10    3.60
   5   7 -11    1.10    3.90
  -7   5 -10   -7.10    4.70
   6  -5  10   12.50    3.50
   6  -5  10    3.10    3.70
  -6   5 -10    6.60    3.60
   5  -5  10   58.09    4.00
   5  -5  10   55.59    4.30
  -5   5 -10   58.19    4.40
   4  -5  10   63.89    3.30
   4  -5  10   57.19    4.10
  -4   5 -10   65.89    4.40
  -4   5 -10   61.39    3.50
   3  -5  10    4.90    1.40
   3  -5  10    5.30    2.20
  -3   5 -10    6.10    1.90
  -3   5 -10    3.30    1.90
   2  -5  10   13.70    2.40
  -2   5 -10   13.70    2.50
  -2   5 -10   15.60    2.10
   1  -5  10  235.38    7.50
   1  -5  10  237.08    7.40
  -1   5 -10  245.58    7.50
  -1   5 -10  241.68    7.10
   0  -5  10  261.57    8.00
   0  -5  10  269.87    7.90
   0   5 -10  262.57    8.20
   0   5 -10  272.37    7.70
  -1  -5  10    0.30    1.80
  -1  -5  10    0.20    1.60
   1   5 -10    0.50    1.60
  -2  -5  10   26.50    3.30
  -2  -5  10   23.60    1.50
  -2  -5  10   23.10    2.50
   2   5 -10   20.30    2.50
   2   5 -10   21.00    1.50
  -3  -5  10   72.29    3.80
  -3  -5  10   72.99    4.70
   3   5 -10   73.49    4.30
   3   5 -10   73.69    3.40
  -4  -5  10   45.00    4.70
  -4  -5  10   48.00    3.10
   4   5 -10   45.30    3.30
   4   5 -10   40.00    3.70
  -5  -5  10    1.70    3.70
   5   5 -10    7.90    2.80
   5   5 -10    6.20    3.00
  -6  -5  10   -5.80    3.60
  -6  -5  10   -1.20    4.70
   6   5 -10   -6.20    4.00
   6   5 -10    3.20    3.70
   7  -3   9   10.40    4.10
   6  -3   9   -0.40    3.00
  -6   3  -9    6.60    2.90
  -6   3  -9    3.30    3.10
   5  -3   9   31.80    3.20
   5  -3   9   32.90    3.20
  -5   3  -9   38.40    3.00
  -5   3  -9   35.40    3.40
   4  -3   9   90.49    4.40
   4  -3   9   98.29    4.10
  -4   3  -9   92.09    4.40
  -4   3  -9   98.09    4.20
   3  -3   9   39.50    2.20
   3  -3   9   41.60    2.90
  -3   3  -9   34.10    2.60
  -3   3  -9   36.60    2.10
  -3   3  -9   36.50    2.90
   2  -3   9   -1.50    1.40
   2  -3   9   -1.40    0.80
  -2   3  -9    0.80    0.90
  -2   3  -9   -0.10    1.10
  -2   3  -9    0.80    1.50
   1  -3   9  107.19    4.30
   1  -3   9  105.49    3.90
  -1   3  -9  103.69    3.90
  -1   3  -9  104.59    4.10
   0  -3   9  291.67    7.90
   0  -3   9  286.37    7.90
   0   3  -9  295.47    7.80
  -1  -3   9  165.58    5.60
  -1  -3   9  160.08    5.30
   1   3  -9  160.18    5.20
  -2  -3   9   11.40    2.30
  -2  -3   9    7.50    1.20
  -2  -3   9   10.90    2.10
   2   3  -9    9.50    1.20
   2   3  -9    9.30    1.80
   2   3  -9    9.10    1.60
  -3  -3   9   81.79    3.50
  -3  -3   9   77.49    4.50
   3   3  -9   80.19    3.50
   3   3  -9   81.79    3.00
   3   3  -9   81.39    3.80
  -4  -3   9   83.89    5.10
  -4  -3   9   90.29    3.50
   4   3  -9   91.49    4.40
   4   3  -9   91.69    4.40
  -5  -3   9   22.80    4.30
   5   3  -9   21.90    3.00
   5   3  -9   20.30    3.40
  -6  -3   9    3.00    4.10
  -6  -3   9   -0.80    2.90
   6   3  -9    1.50    2.90
   6   3  -9    3.10    3.60
  -7  -3   9   20.00    4.20
   7   3  -9   23.60    4.60
   7   3  -9   20.30    5.10
   7  -1   8   72.99    5.50
  -7   1  -8   59.49    5.10
   6  -1   8    6.40    3.10
  -6   1  -8    1.40    2.70
  -6   1  -8    8.20    2.30
   5  -1   8   99.59    4.50
   5  -1   8  109.29    5.00
  -5   1  -8   96.49    3.90
  -5   1  -8   98.99    4.90
   4  -1   8  166.88    5.80
   4  -1   8  163.38    5.60
  -4   1  -8  162.58    6.00
  -4   1  -8  167.78    4.90
   3  -1   8   53.29    2.20
   3  -1   8   55.39    2.90
   3  -1   8   57.19    3.20
  -3   1  -8   55.49    3.20
   2  -1   8   45.60    2.40
   2  -1   8   49.60    2.90
   2  -1   8   44.20    1.90
  -2   1  -8   48.50    2.10
  -2   1  -8   45.70    1.90
  -2   1  -8   46.00    2.70
  -2   1  -8   47.00    2.70
   1  -1   8    2.90    0.90
   1  -1   8    2.10    1.50
   1  -1   8    3.40    0.90
   1  -1   8    1.50    0.90
  -1   1  -8    3.50    0.80
  -1   1  -8    2.90    1.20
  -1   1  -8    0.70    1.30
   0  -1   8  349.87    8.40
   0  -1   8  348.27    8.30
   0  -1   8  331.67    8.60
   0  -1   8  350.76    9.00
   0   1  -8  358.66    7.80
   0   1  -8  341.57    8.20
   0   1  -8  349.27    8.80
   0   1  -8  363.06    7.80
  -1  -1   8  465.65   11.20
  -1  -1   8  459.35   11.00
   1   1  -8  463.85   10.10
   1   1  -8  462.95   11.00
   1   1  -8  448.46   10.80
   1   1  -8  457.15   10.90
  -2  -1   8   96.69    3.10
  -2  -1   8   96.39    3.70
  -2  -1   8   97.59    4.20
   2   1  -8   99.79    3.70
   2   1  -8  103.59    3.60
  -3  -1   8    3.40    2.00
  -3  -1   8    2.60    1.40
   3   1  -8    1.60    1.30
   3   1  -8    4.40    1.70
   3   1  -8    3.40    1.40
  -4  -1   8  117.39    4.00
  -4  -1   8  122.09    5.70
   4   1  -8  118.19    4.50
   4   1  -8  113.59    3.90
   4   1  -8  125.69    5.10
  -5  -1   8   81.89    3.20
  -5  -1   8   87.69    5.40
   5   1  -8   85.09    4.00
   5   1  -8   82.19    4.80
  -6  -1   8    5.20    3.40
  -6  -1   8   11.90    3.80
   6   1  -8   13.80    2.80
   6   1  -8    8.30    3.30
   7   1  -8    3.50    4.40
   7   1   7   36.70    6.00
  -7  -1  -7   27.50    4.60
   6   1   7   25.70    4.40
  -6  -1  -7   18.70    3.70
   5   1   7   30.60    2.10
  -5  -1  -7   31.80    2.10
   4   1   7   50.39    2.70
   4   1   7   55.99    3.60
  -4  -1  -7   49.30    2.40
  -4  -1  -7   48.90    3.50
   3   1   7  231.88    6.50
   3   1   7  233.68    6.90
  -3  -1  -7  231.98    7.00
  -3  -1  -7  229.58    6.30
   2   1   7  236.78    6.60
   2   1   7  242.18    6.70
  -2  -1  -7  237.98    6.60
  -2  -1  -7  241.18    6.80
   1   1   7    4.70    1.50
   1   1   7    3.60    1.20
  -1  -1  -7    1.70    1.30
  -1  -1  -7    3.10    1.30
  -1  -1  -7    3.80    1.00
   0   1   7   30.30    1.60
   0   1   7   29.90    1.80
   0   1   7   28.10    2.20
   0  -1  -7   32.00    2.10
   0  -1  -7   33.80    1.90
   0  -1  -7   28.80    2.00
   0  -1  -7   30.50    1.50
  -1   1   7  560.94   13.00
  -1   1   7  572.94   12.60
  -1   1   7  570.84   12.70
   1  -1  -7  553.24   12.90
   1  -1  -7  572.94   12.50
   1  -1  -7  549.15   12.80
   1  -1  -7  572.84   12.80
  -2   1   7  101.59    3.80
  -2   1   7  104.79    3.40
  -2   1   7  103.49    4.00
   2  -1  -7   99.79    3.90
   2  -1  -7   95.79    3.50
   2  -1  -7  103.69    3.50
  -3   1   7    2.00    1.10
  -3   1   7    1.10    1.70
  -3   1   7   -0.90    1.30
   3  -1  -7   -0.40    1.00
   3  -1  -7    1.10    1.50
  -4   1   7   13.10    2.90
  -4   1   7   12.70    2.00
   4  -1  -7   14.00    2.70
   4  -1  -7    9.50    1.60
  -5   1   7   61.69    4.60
  -5   1   7   54.49    3.10
   5  -1  -7   59.19    5.30
   5  -1  -7   63.49    3.10
  -6   1   7   64.09    5.10
  -6   1   7   60.79    3.50
   6  -1  -7   61.29    4.90
   6  -1  -7   67.99    3.60
  -7   1   7    3.80    3.80
   7  -1  -7   -1.80    4.20
   6   3   6    5.60    3.90
  -6  -3  -6   14.00    3.40
   5   3   6   -2.20    2.80
  -5  -3  -6    3.50    2.70
   4   3   6    8.90    1.80
   4   3   6   14.90    2.90
  -4  -3  -6    9.10    2.30
  -4  -3  -6    5.20    2.20
   3   3   6  124.69    5.20
   3   3   6  131.49    4.30
  -3  -3  -6  129.29    4.40
  -3  -3  -6  119.89    5.00
   2   3   6  227.68    6.40
   2   3   6  223.58    7.00
  -2  -3  -6  222.38    6.30
  -2  -3  -6  220.28    6.60
   1   3   6  312.97    8.80
   1   3   6  308.27    8.10
  -1  -3  -6  309.17    8.00
   0   3   6    1.50    1.30
   0   3   6    0.90    0.70
   0   3   6    2.10    1.00
   0  -3  -6    1.50    1.20
   0  -3  -6    1.70    0.80
  -1   3   6  118.49    3.60
  -1   3   6  111.99    4.20
  -1   3   6  121.49    4.00
   1  -3  -6  123.59    3.70
   1  -3  -6  120.39    4.70
  -2   3   6  338.07    8.00
  -2   3   6  348.87    9.20
  -2   3   6  360.16    9.10
   2  -3  -6  351.06    8.20
   2  -3  -6  353.26    9.70
  -3   3   6  147.09    4.00
  -3   3   6  146.89    5.20
  -3   3   6  153.18    5.60
   3  -3  -6  148.09    5.90
   3  -3  -6  152.58    4.00
  -4   3   6    2.00    2.20
  -4   3   6    2.90    1.90
   4  -3  -6    3.40    2.10
  -5   3   6   40.00    3.00
  -5   3   6   35.30    3.90
   5  -3  -6   37.20    4.30
  -6   3   6   41.30    4.70
  -6   3   6   54.29    3.80
   6  -3  -6   45.10    4.90
   6   5   5   25.60    5.30
  -6  -5  -5   22.90    4.50
   5   5   5   -2.50    3.30
  -5  -5  -5    7.20    2.70
   4   5   5    1.40    2.90
   4   5   5    7.00    2.40
  -4  -5  -5    1.80    2.10
   3   5   5   49.80    4.30
   3   5   5   52.79    2.90
  -3  -5  -5   51.89    3.50
   2   5   5   81.59    3.60
   2   5   5   76.09    4.60
  -2  -5  -5   78.39    3.80
   1   5   5  273.27    8.90
   1   5   5  265.97    7.70
  -1  -5  -5  271.77    7.50
   0   5   5   92.69    4.20
   0   5   5   94.39    3.40
   0  -5  -5   94.09    3.10
   0  -5  -5  100.39    3.60
  -1   5   5   72.49    3.20
  -1   5   5   60.49    2.40
  -1   5   5   69.49    3.70
   1  -5  -5   70.39    4.20
   1  -5  -5   69.59    2.80
  -2   5   5   59.09    3.60
  -2   5   5   60.99    3.50
   2  -5  -5   61.19    4.00
  -3   5   5   76.39    4.20
  -3   5   5   88.59    4.50
   3  -5  -5   85.99    4.90
  -4   5   5   53.09    4.30
  -4   5   5   60.29    3.90
   4  -5  -5   65.09    4.50
  -5   5   5    0.00    2.70
  -5   5   5   -0.80    3.20
   5  -5  -5    1.60    3.50
  -6   5   5   27.90    5.20
  -6   5   5   30.00    4.10
   6  -5  -5   25.00    4.20
   6  -5  -5   31.90    5.20
   5   7   4   21.60    4.60
  -5  -7  -4   17.60    3.90
   4   7   4   27.40    4.50
  -4  -7  -4   20.40    3.80
   3   7   4   74.79    3.90
   3   7   4   86.19    6.10
  -3  -7  -4   74.89    4.60
   2   7   4   32.60    2.80
   2   7   4   32.30    4.40
  -2  -7  -4   31.70    3.00
   1   7   4   46.80    3.40
   1   7   4   36.50    2.60
  -1  -7  -4   35.10    2.50
  -1  -7  -4   42.00    2.80
   0   7   4   92.19    3.90
   0   7   4   91.09    6.70
   0  -7  -4   92.69    3.80
  -1   7   4   48.00    3.70
  -1   7   4   48.30    3.20
   1  -7  -4   39.10    4.40
   1  -7  -4   44.10    2.50
  -2   7   4   20.40    3.00
  -2   7   4   18.80    3.20
   2  -7  -4   22.70    3.40
  -3   7   4  123.79    6.00
  -3   7   4  124.89    5.90
   3  -7  -4  121.89    6.60
  -4   7   4   48.10    4.90
  -4   7   4   53.49    4.30
   4  -7  -4   54.19    5.00
  -5   7   4    5.40    3.90
  -5   7   4    5.20    3.50
   5  -7  -4    8.40    3.70
   5  -7  -4    6.30    4.20
   3   9   3    7.40    5.00
  -3  -9  -3    3.80    3.10
   2   9   3    1.70    3.30
  -2  -9  -3   -1.60    2.70
  -2  -9  -3   -1.90    2.90
   1   9   3   74.79    4.80
  -1  -9  -3   75.69    4.30
   0   9   3   69.69    4.70
   0   9   3   61.09    4.60
   0  -9  -3   58.29    5.00
  -1   9   3   14.60    3.70
  -1   9   3   17.00    3.30
   1  -9  -3   18.10    3.30
   1  -9  -3   14.30    3.70
  -2   9   3   -2.10    2.90
  -2   9   3   -1.80    3.20
   2  -9  -3    1.10    3.00
   2  -9  -3   -2.80    3.50
  -3   9   3   17.00    3.90
  -3   9   3   21.10    4.20
   3  -9  -3   12.70    4.30
   3  -9  -3   11.30    3.60
  -4   9   3   36.50    5.80
   1 -10  13    0.80    6.50
  -1  10 -13    3.60    5.30
   0 -10  13   58.39    5.60
   0 -10  13   53.29    5.20
   0  10 -13   61.69    4.70
  -1 -10  13    8.70    5.70
  -1 -10  13    3.00    4.20
   1  10 -13    5.30    3.70
  -2 -10  13   18.00    4.60
   2  10 -13   17.80    4.40
   4  -8  12   15.90    3.90
  -4   8 -12   17.60    4.00
   3  -8  12   27.40    4.00
  -3   8 -12   31.80    4.50
   2  -8  12   39.80    4.00
   2  -8  12   35.60    4.30
  -2   8 -12   33.90    4.60
  -2   8 -12   44.00    3.30
   1  -8  12   17.10    3.10
   1  -8  12   15.60    3.20
  -1   8 -12   18.10    3.50
  -1   8 -12   11.20    2.50
   0  -8  12   23.20    3.90
   0  -8  12   29.50    3.60
   0   8 -12   18.90    3.80
  -1  -8  12   23.00    4.00
  -1  -8  12   21.50    3.10
   1   8 -12   19.80    3.20
  -2  -8  12  117.49    5.80
  -2  -8  12  110.29    6.60
   2   8 -12  119.09    6.00
  -3  -8  12   10.60    3.40
  -3  -8  12   16.30    4.20
   3   8 -12   19.20    3.50
   4   8 -12   -5.10    3.80
   6  -6  11   21.20    4.80
  -6   6 -11   18.30    4.70
   5  -6  11   13.60    3.50
  -5   6 -11   13.40    3.70
   4  -6  11    5.70    3.00
  -4   6 -11    7.40    2.20
  -4   6 -11    8.00    2.80
   3  -6  11   11.20    1.90
   3  -6  11   14.30    2.90
  -3   6 -11   14.30    2.50
  -3   6 -11   10.40    3.00
   2  -6  11  119.29    5.40
   2  -6  11  127.99    5.50
  -2   6 -11  123.99    5.60
  -2   6 -11  123.89    4.80
   1  -6  11  129.99    5.50
   1  -6  11  125.29    5.40
  -1   6 -11  128.79    5.70
  -1   6 -11  131.59    5.00
   0  -6  11   27.50    3.10
   0  -6  11   32.10    3.00
   0   6 -11   28.70    3.30
   0   6 -11   29.70    3.00
  -1  -6  11   28.70    3.00
  -1  -6  11   26.00    3.40
   1   6 -11   23.70    2.70
  -2  -6  11   69.49    3.90
   2   6 -11   68.09    4.10
  -3  -6  11   68.69    5.00
  -3  -6  11   58.59    3.90
   3   6 -11   60.09    4.40
   3   6 -11   64.79    3.50
  -4  -6  11   28.50    4.80
   4   6 -11   35.70    3.90
  -5  -6  11   12.00    4.40
   5   6 -11    8.50    3.40
   7  -4  10    4.40    4.60
   6  -4  10   14.70    3.60
   6  -4  10   10.20    3.50
  -6   4 -10   15.10    3.30
   5  -4  10   34.00    3.50
   5  -4  10   37.90    3.70
  -5   4 -10   43.00    3.90
  -5   4 -10   32.10    3.60
   4  -4  10   28.30    3.00
   4  -4  10   26.60    2.70
  -4   4 -10   28.80    3.10
  -4   4 -10   25.00    3.00
   3  -4  10   13.00    1.80
   3  -4  10   12.60    2.50
  -3   4 -10   12.50    2.40
  -3   4 -10    9.70    1.80
   2  -4  10  278.97    6.50
   2  -4  10  290.27    8.60
  -2   4 -10  289.97    8.10
  -2   4 -10  290.77    8.20
   1  -4  10  164.48    5.60
   1  -4  10  166.78    5.80
  -1   4 -10  169.38    5.70
  -1   4 -10  166.08    5.60
   0  -4  10    8.20    1.90
   0  -4  10    7.70    2.00
   0   4 -10    8.00    1.80
  -1  -4  10   13.20    2.20
  -1  -4  10   13.10    2.30
   1   4 -10   13.20    2.00
  -2  -4  10  322.97    9.50
  -2  -4  10  316.27    7.10
  -2  -4  10  312.27    8.70
   2   4 -10  308.07    8.80
   2   4 -10  314.27    7.30
  -3  -4  10  113.19    4.50
  -3  -4  10  108.69    5.60
   3   4 -10  110.19    4.10
   3   4 -10  112.39    4.90
  -4  -4  10   78.49    5.30
  -4  -4  10   80.09    3.60
   4   4 -10   84.99    4.60
   4   4 -10   79.59    4.10
  -5  -4  10    2.80    3.40
   5   4 -10    3.30    2.90
   5   4 -10    1.70    2.60
  -6  -4  10    4.60    4.50
  -6  -4  10    5.40    3.30
   6   4 -10    3.80    3.40
   7   4 -10   14.20    5.40
   7  -2   9    7.80    3.90
   6  -2   9    1.80    3.00
  -6   2  -9    3.20    2.60
  -6   2  -9    2.80    3.00
   5  -2   9   60.59    3.70
   5  -2   9   53.99    3.90
  -5   2  -9   59.29    3.40
  -5   2  -9   61.79    4.20
   4  -2   9   23.90    2.70
   4  -2   9   19.30    2.40
  -4   2  -9   19.10    2.80
  -4   2  -9   18.70    2.20
   3  -2   9   28.40    2.10
   3  -2   9   26.40    2.60
  -3   2  -9   28.90    2.10
  -3   2  -9   26.00    2.70
   2  -2   9    3.70    1.20
   2  -2   9    4.10    0.90
   2  -2   9    2.90    1.20
   2  -2   9    3.20    1.70
  -2   2  -9    4.70    1.00
  -2   2  -9    3.00    1.70
  -2   2  -9    2.40    1.30
   1  -2   9  192.58    6.00
   1  -2   9  189.48    5.30
   1  -2   9  184.68    4.60
   1  -2   9  198.48    5.50
  -1   2  -9  197.78    5.40
  -1   2  -9  192.48    4.50
  -1   2  -9  197.28    6.00
   0  -2   9  103.59    3.60
   0  -2   9  111.59    4.00
   0  -2   9  109.79    4.30
   0   2  -9  103.79    3.60
   0   2  -9  108.09    4.10
  -1  -2   9  111.29    4.40
  -1  -2   9  113.49    4.40
   1   2  -9  110.59    3.10
   1   2  -9  113.59    4.20
  -2  -2   9   36.60    1.80
  -2  -2   9   35.00    2.80
  -2  -2   9   36.80    2.60
   2   2  -9   35.10    2.10
   2   2  -9   38.80    1.90
   2   2  -9   36.00    2.50
  -3  -2   9  182.68    5.60
  -3  -2   9  171.88    6.50
   3   2  -9  183.68    5.60
   3   2  -9  173.28    5.10
   3   2  -9  179.58    5.80
  -4  -2   9  192.58    5.70
  -4  -2   9  192.08    7.40
   4   2  -9  192.08    6.40
   4   2  -9  186.88    6.30
   4   2  -9  175.48    5.20
  -5  -2   9   23.60    3.90
  -5  -2   9   25.40    2.20
   5   2  -9   29.80    3.60
   5   2  -9   25.50    3.10
  -6  -2   9   -1.80    2.90
  -6  -2   9   -0.70    3.60
   6   2  -9    0.50    3.50
   6   2  -9    0.10    2.70
  -7  -2   9   25.90    5.20
  -7  -2   9   24.90    4.10
   7   2  -9   32.20    5.10
   7   2  -9   24.00    5.40
   7   0   8   16.50    4.90
  -7   0  -8   11.50    4.00
   6   0   8   -5.20    3.00
  -6   0  -8    0.60    2.60
   5   0   8   15.10    3.00
   5   0   8   12.00    2.40
  -5   0  -8   14.70    2.00
  -5   0  -8   14.20    2.80
   4   0   8   66.19    3.40
   4   0   8   67.49    2.50
   4   0   8   64.89    3.70
  -4   0  -8   58.99    2.60
  -4   0  -8   63.29    3.80
   3   0   8  220.08    6.60
   3   0   8  220.88    5.20
   3   0   8  216.48    6.40
  -3   0  -8  212.68    5.20
  -3   0  -8  218.08    6.80
   2   0   8   17.00    1.00
   2   0   8   16.40    1.70
   2   0   8   19.50    2.10
  -2   0  -8   16.90    1.50
  -2   0  -8   17.20    2.10
  -2   0  -8   16.40    1.70
   1   0   8  123.49    3.40
   1   0   8  127.39    3.90
   1   0   8  126.59    3.30
   1   0   8  124.69    4.50
  -1   0  -8  129.39    4.50
  -1   0  -8  120.79    3.80
  -1   0  -8  124.69    4.20
   0   0   8  264.77    7.70
   0   0   8  257.77    7.30
   0   0   8  268.07    6.70
   0   0  -8  268.57    7.30
   0   0  -8  280.77    6.60
   0   0  -8  270.47    7.30
   0   0  -8  288.47    6.90
  -1   0   8  120.79    4.20
  -1   0   8  117.29    4.30
  -1   0   8  112.19    4.30
   1   0  -8  118.79    4.10
   1   0  -8  121.99    4.20
   1   0  -8  118.99    3.80
   1   0  -8  118.99    3.80
  -2   0   8    0.80    1.00
  -2   0   8    1.60    1.60
  -2   0   8    2.20    1.40
   2   0  -8    1.70    1.30
   2   0  -8    0.10    1.10
   2   0  -8    2.80    1.30
  -3   0   8   64.29    3.80
  -3   0   8   59.59    3.10
   3   0  -8   62.79    3.30
   3   0  -8   63.89    2.90
  -4   0   8  320.97    9.80
  -4   0   8  312.67    8.30
   4   0  -8  315.67    8.50
   4   0  -8  334.47    9.60
  -5   0   8   45.80    4.40
  -5   0   8   49.20    2.90
   5   0  -8   48.60    4.10
   5   0  -8   43.50    3.00
  -6   0   8   10.20    3.60
   6   0  -8   12.10    4.00
   6   0  -8   12.60    2.50
  -7   0   8    9.40    4.60
   7   0  -8    0.50    4.30
  -7  -2  -7   13.50    4.10
   6   2   7    8.50    3.80
  -6  -2  -7   10.00    3.30
   5   2   7   -1.80    2.80
  -5  -2  -7   -3.40    2.30
   4   2   7   31.10    3.30
   4   2   7   31.20    2.30
  -4  -2  -7   28.50    3.00
  -4  -2  -7   23.50    2.20
   3   2   7  157.68    5.80
   3   2   7  158.88    5.00
  -3  -2  -7  161.48    5.70
  -3  -2  -7  150.48    4.90
   2   2   7   48.30    2.70
   2   2   7   44.60    2.80
  -2  -2  -7   46.00    2.50
  -2  -2  -7   50.99    2.90
   1   2   7    1.00    1.40
   1   2   7    0.40    1.30
  -1  -2  -7   -0.30    1.10
   0   2   7  214.58    6.30
   0   2   7  211.88    5.10
   0   2   7  201.78    5.70
   0  -2  -7  220.28    5.10
   0  -2  -7  213.58    6.00
  -1   2   7  148.29    5.00
  -1   2   7  146.89    4.40
   1  -2  -7  156.48    4.70
   1  -2  -7  155.58    5.20
   1  -2  -7  153.78    4.40
  -2   2   7   22.20    1.70
  -2   2   7   21.20    2.10
  -2   2   7   21.60    2.20
   2  -2  -7   24.70    1.90
   2  -2  -7   22.60    2.30
  -3   2   7    7.80    2.20
  -3   2   7    4.30    1.30
  -3   2   7    7.30    1.80
   3  -2  -7    5.80    1.20
   3  -2  -7    6.50    2.10
  -4   2   7   75.09    3.70
  -4   2   7   71.99    4.50
   4  -2  -7   72.59    4.50
   4  -2  -7   73.39    2.90
  -5   2   7  112.49    4.60
  -5   2   7  109.29    5.70
   5  -2  -7  102.89    3.90
   5  -2  -7  109.69    6.00
  -6   2   7   79.19    5.40
   6  -2  -7   67.89    5.50
  -7   2   7    6.90    4.30
   7  -2  -7    5.50    4.20
   6   4   6   11.10    4.20
  -6  -4  -6    5.00    3.30
   5   4   6    1.00    3.10
  -5  -4  -6    1.20    2.80
   4   4   6    0.80    2.50
   4   4   6    0.90    1.60
  -4  -4  -6    0.80    2.30
   3   4   6   89.39    3.60
   3   4   6   89.89    4.70
  -3  -4  -6   87.79    4.30
   2   4   6  177.88    6.50
   2   4   6  178.08    5.60
  -2  -4  -6  179.38    5.90
   1   4   6   33.20    2.40
   1   4   6   34.80    3.00
  -1  -4  -6   31.10    2.40
   0   4   6   22.20    1.40
   0   4   6   24.70    2.40
   0  -4  -6   23.30    2.10
   0  -4  -6   24.60    1.50
  -1   4   6  253.57    6.40
  -1   4   6  255.97    7.50
  -1   4   6  258.57    6.90
   1  -4  -6  254.07    8.10
   1  -4  -6  257.37    6.70
   1  -4  -6  267.07    6.80
  -2   4   6  180.98    5.90
  -2   4   6  179.28    4.60
  -2   4   6  179.28    6.10
   2  -4  -6  180.78    4.90
   2  -4  -6  180.18    6.50
  -3   4   6    8.10    2.30
  -3   4   6   10.40    2.40
   3  -4  -6    8.10    2.50
  -4   4   6   54.19    4.10
  -4   4   6   49.50    3.60
   4  -4  -6   47.70    4.80
  -5   4   6   68.39    4.20
  -5   4   6   73.29    5.20
   5  -4  -6   75.29    5.20
  -6   4   6   39.80    5.30
   6  -4  -6   34.60    5.40
   6  -4  -6   42.60    3.60
   5   6   5   18.60    4.50
  -5  -6  -5   32.80    4.20
   4   6   5   -3.80    3.20
  -4  -6  -5   -1.40    2.50
   3   6   5   15.50    3.30
   3   6   5   13.80    2.40
  -3  -6  -5   15.20    2.70
   2   6   5   92.69    4.20
  -2  -6  -5   78.09    4.30
   1   6   5   56.29    2.50
   1   6   5   61.29    4.40
   1   6   5   55.09    3.60
  -1  -6  -5   60.39    3.40
   0   6   5   -0.30    2.00
   0   6   5   -1.80    1.40
   0  -6  -5    2.30    1.30
  -1   6   5    2.30    1.50
  -1   6   5    2.10    1.80
  -1   6   5    4.20    1.70
   1  -6  -5    1.50    1.40
   1  -6  -5    3.00    2.10
  -2   6   5   94.59    4.90
  -2   6   5  102.09    4.50
   2  -6  -5   92.39    5.40
  -3   6   5  112.69    5.30
  -3   6   5  110.69    5.20
   3  -6  -5   97.59    5.70
  -4   6   5    8.00    2.90
  -4   6   5   10.70    3.30
   4  -6  -5    5.80    3.10
  -5   6   5   20.60    3.90
  -5   6   5   22.20    4.30
   5  -6  -5   22.40    4.60
  -6   6   5   51.29    5.20
   6  -6  -5   56.39    5.20
   4   8   4   10.30    4.80
  -4  -8  -4   12.20    3.50
   3   8   4   10.80    4.40
   2   8   4   33.40    3.40
   2   8   4   37.80    5.20
  -2  -8  -4   23.60    3.20
   1   8   4   52.19    4.10
  -1  -8  -4   60.29    3.70
   0   8   4   44.80    3.20
   0   8   4   45.10    3.80
   0  -8  -4   44.30    3.00
   0  -8  -4   45.50    4.10
  -1   8   4    6.30    2.30
  -1   8   4    3.90    2.90
   1  -8  -4    2.00    2.70
  -2   8   4   36.40    3.90
  -2   8   4   39.60    4.00
   2  -8  -4   39.30    4.20
  -3   8   4   52.69    4.80
  -3   8   4   57.09    4.70
   3  -8  -4   61.49    5.40
  -4   8   4   10.80    3.60
  -4   8   4   12.50    3.90
   4  -8  -4   18.60    4.20
   4  -8  -4    8.40    3.70
  -2 -10  -3   17.10    3.50
  -2 -10  -3   12.40    3.70
   1  10   3   40.80    4.60
  -1 -10  -3   31.50    4.30
  -1 -10  -3   26.20    4.80
   0  10   3   24.30    4.50
   0 -10  -3   21.60    4.70
   0 -10  -3   22.60    4.40
   1 -10  -3    1.50    4.20
  -2  10   3    6.60    3.90
   2 -10  -3    6.40    4.60
  -3  10   3   22.60    4.50
   3  -9  13   20.90    4.70
  -3   9 -13   21.70    4.30
   2  -9  13   -2.70    3.50
   2  -9  13   -0.70    3.80
  -2   9 -13   -4.00    3.70
   1  -9  13    2.60    3.40
   1  -9  13    6.80    3.40
  -1   9 -13    1.20    3.50
  -1   9 -13    3.40    2.80
   0  -9  13   19.10    3.60
   0  -9  13   11.60    3.80
   0   9 -13   10.60    3.20
  -1  -9  13  120.29    6.00
  -1  -9  13  114.99    6.80
   1   9 -13  113.99    6.00
  -2  -9  13   -3.90    3.80
  -2  -9  13    3.00    4.30
   2   9 -13    2.40    3.50
  -3  -9  13    3.20    5.00
   3   9 -13    1.30    4.00
   5  -7  12   -3.30    4.00
  -5   7 -12    0.30    3.80
   4  -7  12   13.90    3.60
  -4   7 -12   13.90    3.70
   3  -7  12   83.39    5.10
  -3   7 -12   74.09    5.00
  -3   7 -12   69.19    3.90
   2  -7  12   39.60    3.80
   2  -7  12   27.50    3.90
  -2   7 -12   37.40    3.90
  -2   7 -12   30.80    3.00
   1  -7  12    5.10    2.40
   1  -7  12    0.90    2.50
  -1   7 -12    0.90    2.50
  -1   7 -12    2.90    2.20
   0  -7  12   33.20    3.40
   0  -7  12   31.80    3.80
   0   7 -12   26.40    3.70
   0   7 -12   33.50    3.40
  -1  -7  12   80.79    5.20
  -1  -7  12   79.39    4.70
   1   7 -12   73.99    6.40
  -2  -7  12   37.40    4.50
  -2  -7  12   39.70    3.50
   2   7 -12   44.50    3.90
  -3  -7  12   14.30    3.90
   3   7 -12    8.80    3.20
  -4  -7  12    1.10    4.10
   4   7 -12    4.10    3.40
  -5  -7  12   24.80    5.00
   6  -5  11   14.20    4.00
  -6   5 -11   17.60    4.00
   5  -5  11   26.40    3.40
   5  -5  11   20.50    3.60
  -5   5 -11   24.90    3.90
   4  -5  11    3.30    2.00
   4  -5  11    0.10    2.50
  -4   5 -11    4.30    2.20
  -4   5 -11    6.30    3.00
   3  -5  11  200.98    5.40
   3  -5  11  190.88    8.10
  -3   5 -11  203.28    7.00
  -3   5 -11  198.68    6.60
   2  -5  11   65.39    4.00
   2  -5  11   65.79    3.90
  -2   5 -11   65.99    4.00
  -2   5 -11   68.29    3.60
   1  -5  11   21.60    2.60
   1  -5  11   18.30    2.80
  -1   5 -11   18.90    2.70
  -1   5 -11   20.60    2.50
   0  -5  11    0.40    1.80
   0  -5  11   -0.10    1.90
   0   5 -11    2.10    1.70
  -1  -5  11  104.89    4.60
  -1  -5  11   96.69    5.00
   1   5 -11  107.99    4.70
  -2  -5  11  150.88    6.50
  -2  -5  11  142.59    5.50
   2   5 -11  140.29    5.50
  -3  -5  11   96.79    4.50
  -3  -5  11  103.89    6.50
   3   5 -11  103.39    5.60
   3   5 -11  101.19    4.00
  -4  -5  11    6.40    2.20
   4   5 -11    0.30    2.40
   4   5 -11    0.60    2.30
  -5  -5  11    9.70    4.10
   5   5 -11    9.90    3.10
  -6  -5  11   26.10    4.40
  -6  -5  11   26.30    5.40
   6   5 -11   31.30    4.50
   7  -3  10   16.60    4.80
   6  -3  10   24.60    3.90
  -6   3 -10   19.50    3.90
  -6   3 -10   21.90    3.70
   5  -3  10   45.80    3.60
   5  -3  10   42.80    3.80
  -5   3 -10   47.10    3.50
  -5   3 -10   46.30    3.80
   4  -3  10   16.00    2.60
   4  -3  10   11.50    2.30
  -4   3 -10   11.90    2.40
  -4   3 -10   14.90    2.70
   3  -3  10   87.89    4.30
   3  -3  10   89.89    3.30
  -3   3 -10   85.79    4.30
  -3   3 -10   91.19    3.90
  -3   3 -10   82.59    3.30
   2  -3  10   37.10    1.60
   2  -3  10   40.50    3.00
   2  -3  10   32.60    2.50
  -2   3 -10   32.90    1.60
  -2   3 -10   34.00    2.50
  -2   3 -10   34.90    2.80
   1  -3  10  279.37    8.10
   1  -3  10  278.07    7.60
  -1   3 -10  285.67    7.70
  -1   3 -10  283.77    8.00
   0  -3  10   52.79    3.00
   0  -3  10   51.19    3.10
   0   3 -10   48.30    2.90
  -1  -3  10  183.18    6.20
  -1  -3  10  180.68    6.00
   1   3 -10  181.48    6.00
  -2  -3  10  133.79    3.70
  -2  -3  10  140.19    5.10
  -2  -3  10  143.99    5.60
   2   3 -10  138.49    5.10
   2   3 -10  137.39    3.90
  -3  -3  10  147.39    5.20
  -3  -3  10  143.59    6.20
   3   3 -10  145.09    5.40
   3   3 -10  148.49    4.80
  -4  -3  10   19.60    4.70
  -4  -3  10   12.30    2.40
   4   3 -10   14.60    2.50
   4   3 -10   16.70    2.70
  -5  -3  10    2.70    3.40
   5   3 -10    2.00    2.80
   5   3 -10    3.70    2.30
  -6  -3  10   28.30    5.60
   6   3 -10   33.20    4.30
   6   3 -10   28.90    4.70
  -7  -3  10   11.20    4.20
   7   3 -10   23.00    4.50
   7   3 -10   20.20    5.40
   7  -1   9    6.70    4.20
  -7   1  -9    4.10    4.10
   6  -1   9   16.30    3.60
  -6   1  -9   12.20    3.30
   5  -1   9   64.79    4.40
   5  -1   9   58.39    3.80
  -5   1  -9   58.89    4.40
  -5   1  -9   67.19    3.10
   4  -1   9  105.69    4.80
   4  -1   9  104.09    4.70
  -4   1  -9  102.99    5.00
  -4   1  -9  106.59    3.70
   3  -1   9   10.30    1.90
   3  -1   9    9.80    1.30
   3  -1   9   11.70    2.40
  -3   1  -9    8.70    2.20
   2  -1   9   78.79    3.10
   2  -1   9   74.29    2.50
   2  -1   9   76.69    2.60
   2  -1   9   75.89    3.70
  -2   1  -9   78.29    2.60
  -2   1  -9   76.59    3.70
  -2   1  -9   74.99    2.70
   1  -1   9   54.49    2.20
   1  -1   9   58.09    2.30
   1  -1   9   52.09    2.20
   1  -1   9   57.99    3.20
  -1   1  -9   56.99    3.10
  -1   1  -9   57.29    2.10
   0  -1   9  269.27    6.80
   0  -1   9  266.67    7.60
   0   1  -9  271.77    7.50
   0   1  -9  278.17    6.40
   0   1  -9  254.87    6.30
   0   1  -9  269.27    6.80
  -1  -1   9   69.09    3.30
  -1  -1   9   71.69    3.50
   1   1  -9   70.29    3.30
   1   1  -9   69.19    2.50
   1   1  -9   68.09    4.00
  -2  -1   9  100.49    4.30
  -2  -1   9  104.29    3.40
  -2  -1   9  103.79    4.10
   2   1  -9  104.99    3.80
   2   1  -9  104.59    4.00
  -3  -1   9  354.56    9.20
  -3  -1   9  345.77   10.00
   3   1  -9  357.96    9.30
   3   1  -9  361.96    9.40
  -4  -1   9  172.08    5.50
  -4  -1   9  171.68    6.90
   4   1  -9  170.48    5.90
   4   1  -9  178.18    6.40
  -5  -1   9    4.60    1.80
  -5  -1   9    7.50    3.30
   5   1  -9    7.00    2.20
   5   1  -9    6.50    3.00
  -6  -1   9   32.00    4.80
   6   1  -9   34.90    4.60
   6   1  -9   30.80    3.60
  -7  -1   9   22.20    5.00
  -7  -1   9   15.90    3.70
   7   1  -9   12.70    4.60
   7   1   8   10.30    4.60
  -7  -1  -8    4.30    3.80
   6   1   8   13.00    3.60
  -6  -1  -8    2.50    2.80
   5   1   8  127.99    4.40
   5   1   8  134.39    6.30
  -5  -1  -8  130.79    6.10
   4   1   8   98.39    4.90
   4   1   8   96.49    4.00
  -4  -1  -8  104.09    4.80
   3   1   8    3.90    1.70
   3   1   8    2.10    1.60
  -3  -1  -8    1.90    1.70
   2   1   8   -0.30    1.30
   2   1   8    1.20    1.50
  -2  -1  -8    2.70    1.50
   1   1   8  236.88    6.80
   1   1   8  236.48    6.60
  -1  -1  -8  242.28    6.70
  -1  -1  -8  220.08    6.30
   0   1   8  188.78    4.90
   0   1   8  182.18    5.80
   0  -1  -8  192.18    5.50
   0  -1  -8  194.08    5.80
   0  -1  -8  190.98    4.80
  -1   1   8   71.49    3.30
  -1   1   8   75.39    3.20
  -1   1   8   69.99    3.20
   1  -1  -8   73.79    2.70
   1  -1  -8   72.99    3.00
   1  -1  -8   71.59    3.10
   1  -1  -8   74.79    3.20
  -2   1   8   30.10    2.50
  -2   1   8   26.60    2.20
   2  -1  -8   30.50    2.30
   2  -1  -8   29.20    2.00
  -3   1   8  179.18    5.80
  -3   1   8  178.78    6.30
   3  -1  -8  183.78    6.20
   3  -1  -8  183.08    5.40
  -4   1   8   56.99    4.00
  -4   1   8   60.29    3.20
   4  -1  -8   56.59    4.00
   4  -1  -8   58.49    2.80
  -5   1   8  108.19    4.40
  -5   1   8  108.89    5.80
   5  -1  -8  107.29    4.30
   5  -1  -8  106.09    5.80
  -6   1   8   -4.00    3.40
   6  -1  -8   -0.70    2.20
   6  -1  -8    4.30    3.40
  -7   1   8   25.20    4.50
   7  -1  -8   15.80    4.60
   6   3   7    8.70    4.10
  -6  -3  -7    1.50    3.20
   5   3   7   15.20    3.50
  -5  -3  -7    7.90    2.90
   4   3   7   56.99    5.00
   4   3   7   73.99    3.30
  -4  -3  -7   72.29    6.20
   3   3   7  111.09    4.10
   3   3   7  104.29    5.00
  -3  -3  -7  112.99    4.80
   2   3   7   37.00    2.50
   2   3   7   34.30    2.80
  -2  -3  -7   38.70    2.80
   1   3   7   33.60    2.70
   1   3   7   29.40    2.30
  -1  -3  -7   32.50    2.40
   0   3   7  300.57    7.00
   0   3   7  303.37    8.30
   0  -3  -7  307.47    7.00
   0  -3  -7  312.17    8.00
  -1   3   7   85.39    3.80
  -1   3   7   83.19    3.00
  -1   3   7   91.19    3.30
   1  -3  -7   84.99    4.10
   1  -3  -7   90.69    3.50
   1  -3  -7   87.59    3.10
  -2   3   7   49.90    3.00
  -2   3   7   47.30    2.20
  -2   3   7   51.09    2.90
   2  -3  -7   47.60    3.40
   2  -3  -7   46.40    2.40
  -3   3   7   20.70    2.60
  -3   3   7   17.90    2.40
  -3   3   7   13.70    1.70
   3  -3  -7   16.60    2.80
  -4   3   7  158.68    6.50
  -4   3   7  154.68    5.80
   4  -3  -7  154.08    4.40
   4  -3  -7  155.28    6.60
  -5   3   7  131.39    6.60
  -5   3   7  132.79    5.50
   5  -3  -7  142.89    6.90
  -6   3   7   15.20    3.10
  -6   3   7   16.40    3.90
   6  -3  -7    7.90    3.90
   5   5   6   -4.10    3.60
  -5  -5  -6   -4.00    2.90
   4   5   6   19.80    3.80
  -4  -5  -6   18.70    3.50
   3   5   6   68.59    4.60
   3   5   6   73.19    3.50
   2   5   6   49.30    3.00
   2   5   6   46.70    3.90
  -2  -5  -6   49.60    3.30
   1   5   6   11.80    2.20
   1   5   6   14.40    2.90
  -1  -5  -6   10.70    1.90
   0   5   6   52.09    2.90
   0   5   6   52.89    3.40
   0  -5  -6   54.99    2.90
   0  -5  -6   52.69    2.30
  -1   5   6  230.88    6.60
  -1   5   6  212.98    5.80
  -1   5   6  227.08    7.30
   1  -5  -6  236.88    8.20
   1  -5  -6  237.28    6.40
  -2   5   6   64.19    3.70
  -2   5   6   66.29    4.00
  -2   5   6   68.39    2.30
   2  -5  -6   65.59    4.40
   2  -5  -6   70.99    2.60
  -3   5   6   11.30    2.70
   3  -5  -6   11.80    5.10
  -4   5   6   25.60    3.40
  -4   5   6   32.60    3.80
   4  -5  -6   40.30    4.10
  -5   5   6   71.79    5.50
  -5   5   6   76.19    4.60
   5  -5  -6   77.09    6.10
  -6   5   6   28.20    5.60
  -6   5   6   26.80    4.50
   6  -5  -6   19.30    4.90
   6  -5  -6   30.30    4.50
   4   7   5   -3.50    3.80
  -4  -7  -5   -1.10    2.80
   3   7   5   36.00    5.10
   3   7   5   40.90    3.20
  -3  -7  -5   27.30    3.60
   2   7   5   47.80    4.60
   2   7   5   38.80    3.30
  -2  -7  -5   38.90    3.70
   1   7   5   18.30    3.30
  -1  -7  -5   20.40    2.10
  -1  -7  -5   22.90    2.60
   0   7   5    5.00    2.40
   0   7   5    1.00    1.90
   0  -7  -5    2.80    2.40
   0  -7  -5    2.90    1.60
  -1   7   5   24.70    3.20
  -1   7   5   29.30    2.80
   1  -7  -5   26.90    2.30
   1  -7  -5   23.90    3.50
  -2   7   5   91.59    4.70
  -2   7   5   87.79    4.90
   2  -7  -5   89.59    5.50
  -3   7   5   47.90    4.30
  -3   7   5   53.89    4.30
   3  -7  -5   45.40    4.90
  -4   7   5   -0.70    3.30
  -4   7   5    8.30    3.40
   4  -7  -5    4.00    3.70
  -5   7   5   63.89    5.70
  -5   7   5   69.19    6.20
   5  -7  -5   77.69    6.30
   5  -7  -5   83.09    5.60
   3   9   4    5.80    6.60
  -3  -9  -4    5.00    3.30
   2   9   4   32.70    4.30
  -2  -9  -4   33.70    3.90
   1   9   4   31.70    4.00
  -1  -9  -4   27.60    3.60
   0   9   4    3.60    3.10
   0  -9  -4   -5.10    3.40
  -1   9   4   11.90    3.10
  -1   9   4   10.70    3.50
   1  -9  -4   15.00    3.70
  -2   9   4   41.10    4.80
  -2   9   4   53.29    4.30
   2  -9  -4   48.30    5.20
  -3   9   4   17.40    4.00
   3  -9  -4   12.80    4.60
  -4   9   4    8.80    4.60
   0  10 -14   28.80    4.00
  -1 -10  14   -5.40    4.30
   1  10 -14    1.60    4.20
  -2 -10  14    9.10    4.80
  -4   8 -13   32.70    5.10
   3  -8  13    7.90    3.70
   3  -8  13   13.60    3.90
  -3   8 -13    9.70    3.70
   2  -8  13   30.50    4.30
   2  -8  13   29.90    4.20
  -2   8 -13   29.40    3.50
  -2   8 -13   31.70    4.40
   1  -8  13   22.40    4.10
   1  -8  13   19.00    3.70
  -1   8 -13   29.20    4.20
   0  -8  13  110.19    5.70
   0  -8  13  104.59    6.10
   0   8 -13  106.59    5.20
  -1  -8  13   21.10    4.10
  -1  -8  13   21.20    3.50
   1   8 -13   25.90    3.60
  -2  -8  13   15.50    3.70
  -2  -8  13    8.90    3.80
   2   8 -13   11.80    3.30
  -3  -8  13   -1.70    4.10
   3   8 -13    5.20    3.60
  -4  -8  13   19.70    5.10
   6  -6  12   -0.10    4.50
  -6   6 -12   12.50    4.60
   5  -6  12    1.60    3.50
  -5   6 -12    7.90    3.40
   4  -6  12   95.69    6.00
  -4   6 -12  104.09    4.60
  -4   6 -12  113.59    5.60
   3  -6  12   66.49    4.60
  -3   6 -12   69.99    3.90
  -3   6 -12   71.69    4.50
   2  -6  12   13.30    3.10
   2  -6  12   16.70    3.00
  -2   6 -12   13.00    2.50
  -2   6 -12   11.30    3.10
   1  -6  12   14.40    2.70
   1  -6  12   13.40    2.80
  -1   6 -12   12.80    2.40
  -1   6 -12   12.60    2.70
   0  -6  12   16.20    3.10
   0  -6  12   13.70    2.60
  -1  -6  12  125.49    6.50
  -1  -6  12  131.49    5.70
   1   6 -12  132.59    5.50
  -2  -6  12   47.60    4.40
  -2  -6  12   44.10    3.60
   2   6 -12   48.80    3.80
  -3  -6  12   -0.80    2.90
  -3  -6  12    5.70    2.60
   3   6 -12    2.20    2.60
  -4  -6  12   11.90    4.10
   4   6 -12   12.00    3.30
  -5  -6  12   32.80    5.80
   5   6 -12   44.50    4.80
   6  -4  11    4.20    3.50
   6  -4  11    3.80    3.60
   5  -4  11    3.20    2.90
   5  -4  11    0.50    2.60
  -5   4 -11    3.30    2.80
   4  -4  11   55.79    3.20
   4  -4  11   51.19    4.90
  -4   4 -11   55.49    3.70
  -4   4 -11   61.79    3.80
   3  -4  11   15.90    2.90
   3  -4  11   21.20    1.80
  -3   4 -11   18.10    2.70
  -3   4 -11   15.70    2.70
   2  -4  11  550.24   13.50
   2  -4  11  549.74   14.00
  -2   4 -11  546.05   13.60
  -2   4 -11  549.15   13.50
   1  -4  11   13.80    2.60
   1  -4  11   12.60    2.20
  -1   4 -11   12.90    2.20
  -1   4 -11   12.30    2.20
   0  -4  11   53.59    3.40
   0  -4  11   54.19    3.40
   0   4 -11   51.89    3.30
  -1  -4  11  175.88    6.10
  -1  -4  11  170.18    6.40
   1   4 -11  171.68    6.00
  -2  -4  11  147.99    6.20
  -2  -4  11  139.29    3.70
  -2  -4  11  146.69    5.60
   2   4 -11  148.59    4.00
   2   4 -11  141.19    5.60
  -3  -4  11   21.90    2.70
  -3  -4  11   17.80    3.60
   3   4 -11   21.60    2.80
   3   4 -11   17.70    2.20
  -4  -4  11    3.60    2.90
  -4  -4  11    1.90    2.20
   4   4 -11    3.20    2.40
   4   4 -11    2.90    2.30
  -5  -4  11   32.10    4.90
   5   4 -11   43.50    4.20
   5   4 -11   38.90    4.00
  -6  -4  11   12.80    5.10
   6   4 -11   22.30    4.70
   6   4 -11   21.10    3.80
   7  -2  10    3.40    4.50
   6  -2  10   20.40    3.80
  -6   2 -10   15.10    3.40
   5  -2  10   17.60    3.00
   5  -2  10   17.70    3.00
  -5   2 -10   21.00    2.60
  -5   2 -10   16.60    3.30
   4  -2  10   28.70    3.10
   4  -2  10   33.00    2.80
  -4   2 -10   24.50    3.10
  -4   2 -10   30.20    2.50
   3  -2  10   58.49    3.60
   3  -2  10   61.29    2.90
  -3   2 -10   60.99    3.70
  -3   2 -10   58.59    2.80
   2  -2  10  357.76    9.80
   2  -2  10  339.87    8.50
   2  -2  10  362.96    8.30
   2  -2  10  355.56    8.70
  -2   2 -10  363.26    8.80
  -2   2 -10  336.77    8.20
  -2   2 -10  361.26    9.80
   1  -2  10   80.99    3.30
   1  -2  10   82.89    3.90
   1  -2  10   72.89    3.00
   1  -2  10   74.79    2.50
  -1   2 -10   83.19    2.40
  -1   2 -10   85.19    3.70
   0  -2  10   34.90    2.80
   0  -2  10   33.50    2.50
   0   2 -10   32.60    2.50
  -1  -2  10   83.09    3.80
  -1  -2  10   83.69    3.90
   1   2 -10   83.39    2.60
   1   2 -10   81.39    2.50
   1   2 -10   82.39    3.70
  -2  -2  10  166.28    6.20
  -2  -2  10  166.48    4.60
  -2  -2  10  171.08    5.70
   2   2 -10  173.78    4.80
   2   2 -10  173.18    5.80
  -3  -2  10  212.08    6.50
  -3  -2  10  200.48    7.40
   3   2 -10  216.88    6.40
   3   2 -10  219.18    6.80
  -4  -2  10   -0.20    2.70
  -4  -2  10    3.40    1.90
   4   2 -10   -0.30    1.80
   4   2 -10   -2.50    2.00
  -5  -2  10   26.10    3.00
  -5  -2  10   24.30    4.40
   5   2 -10   18.60    3.00
   5   2 -10   22.80    3.40
  -6  -2  10    6.10    4.10
   6   2 -10   12.20    3.70
   6   2 -10    4.70    3.00
  -7  -2  10   20.30    4.30
   7   2 -10   31.20    6.40
   7   2 -10   20.80    4.10
   7   0   9    1.50    4.60
  -7   0  -9   -0.30    3.80
   6   0   9   53.99    5.00
  -6   0  -9   49.10    4.60
   5   0   9   30.30    2.90
  -5   0  -9   35.80    2.90
  -5   0  -9   38.40    3.70
   4   0   9   13.70    2.70
   4   0   9   13.50    2.40
  -4   0  -9    8.10    1.30
  -4   0  -9   11.00    2.50
   3   0   9    2.30    1.80
   3   0   9    4.30    1.70
  -3   0  -9    3.30    1.90
   2   0   9  215.28    6.70
   2   0   9  211.38    6.10
  -2   0  -9  211.38    6.60
   1   0   9  272.27    6.30
   1   0   9  277.27    8.00
   1   0   9  278.87    7.80
   1   0   9  272.17    6.50
  -1   0  -9  265.17    6.90
  -1   0  -9  274.27    7.70
   0   0   9  565.74   12.50
   0   0   9  538.35   13.40
   0   0   9  557.04   12.50
   0   0  -9  589.14   12.80
   0   0  -9  572.04   13.40
   0   0  -9  570.54   12.50
  -1   0   9   13.10    1.90
  -1   0   9   12.40    2.00
   1   0  -9   11.00    1.50
   1   0  -9   10.00    1.80
   1   0  -9   10.20    1.50
  -2   0   9  177.88    5.80
  -2   0   9  178.08    5.90
   2   0  -9  181.88    5.60
   2   0  -9  181.58    5.70
  -3   0   9  304.07    9.10
  -3   0   9  315.07    8.50
   3   0  -9  305.77    8.70
   3   0  -9  308.97    8.30
  -4   0   9   37.50    2.60
  -4   0   9   27.30    3.50
   4   0  -9   33.70    2.60
  -5   0   9   -4.00    2.80
  -5   0   9   -0.80    2.00
   5   0  -9   -0.30    1.80
  -6   0   9   14.80    4.20
   6   0  -9   18.80    3.30
   6   0  -9   22.60    4.70
   7   0  -9   34.90    5.90
   6   2   8   19.70    4.20
  -6  -2  -8   25.00    4.00
   5   2   8   13.10    3.20
  -5  -2  -8   14.90    3.10
   4   2   8   27.70    3.50
   4   2   8   28.90    2.40
  -4  -2  -8   27.70    3.00
   3   2   8   23.30    2.20
   3   2   8   21.90    2.60
  -3  -2  -8   21.80    2.80
   2   2   8  344.47    9.00
   2   2   8  351.26    9.50
  -2  -2  -8  348.07    9.30
   1   2   8  246.78    7.10
   1   2   8  242.68    7.30
  -1  -2  -8  243.18    7.00
   0   2   8  250.97    5.90
   0   2   8  242.98    7.20
   0  -2  -8  244.18    6.90
   0  -2  -8  240.48    5.80
  -1   2   8    0.50    1.40
   1  -2  -8    2.10    1.40
   1  -2  -8    2.70    1.10
   1  -2  -8    1.00    1.20
  -2   2   8    4.60    1.60
  -2   2   8    3.90    1.40
  -2   2   8    2.00    1.60
   2  -2  -8    2.20    1.20
   2  -2  -8    3.20    1.60
  -3   2   8  117.99    5.00
  -3   2   8  116.79    4.50
   3  -2  -8  119.69    5.10
   3  -2  -8  117.19    4.00
  -4   2   8  129.39    6.00
  -4   2   8  130.79    5.00
   4  -2  -8  125.49    5.80
   4  -2  -8  126.29    4.20
  -5   2   8   14.80    3.10
  -5   2   8   16.50    2.80
   5  -2  -8   17.10    2.20
   5  -2  -8   19.60    3.70
  -6   2   8    4.10    3.30
   6  -2  -8    3.20    3.60
   6   4   7   -0.30    4.40
   5   4   7   26.40    4.50
  -5  -4  -7   22.40    3.70
   4   4   7   15.80    2.30
   4   4   7   18.20    3.50
  -4  -4  -7   18.30    3.10
   3   4   7   45.90    2.70
   3   4   7   36.90    3.80
  -3  -4  -7   40.40    3.50
   2   4   7    3.10    1.60
   2   4   7    2.50    2.10
  -2  -4  -7    4.20    1.70
   1   4   7  105.19    5.00
   1   4   7  103.89    4.40
  -1  -4  -7  109.19    4.30
   0   4   7  358.86    9.80
   0   4   7  361.66    8.30
   0  -4  -7  375.66    9.40
   0  -4  -7  368.26    8.40
  -1   4   7  263.27    7.00
  -1   4   7  245.98    7.70
   1  -4  -7  263.47    8.40
   1  -4  -7  264.87    7.10
  -2   4   7    5.60    1.90
  -2   4   7    5.70    1.20
  -2   4   7    4.50    1.90
   2  -4  -7    5.90    1.30
   2  -4  -7    4.90    1.90
  -3   4   7  120.59    5.30
  -3   4   7  125.59    5.40
   3  -4  -7  113.09    5.40
  -4   4   7   68.29    5.70
   4  -4  -7   62.69    4.60
  -5   4   7   43.70    3.70
  -5   4   7   56.49    4.80
   5  -4  -7   37.80    4.60
  -6   4   7    0.80    3.40
  -6   4   7    6.80    4.10
   6  -4  -7   -2.00    4.00
   5   6   6    0.20    4.40
   4   6   6   21.40    3.90
  -4  -6  -6   14.20    3.10
   3   6   6   35.50    3.10
   3   6   6   33.40    4.30
  -3  -6  -6   34.40    3.50
   2   6   6   15.20    3.40
   2   6   6   10.50    2.50
  -2  -6  -6   13.10    2.40
   1   6   6   13.20    2.70
  -1  -6  -6   14.20    2.20
   0   6   6  197.18    7.10
   0   6   6  185.58    5.60
   0  -6  -6  197.08    6.10
  -1   6   6   77.19    3.60
  -1   6   6   77.69    4.50
   1  -6  -6   84.09    5.10
   1  -6  -6   75.89    3.40
  -2   6   6   80.89    4.60
  -2   6   6   89.89    4.20
   2  -6  -6   68.69    4.80
  -3   6   6   -1.50    2.40
  -3   6   6   -0.60    2.50
   3  -6  -6   -3.40    2.80
  -4   6   6   49.60    4.40
  -4   6   6   51.69    4.10
   4  -6  -6   47.90    4.90
  -5   6   6   39.60    5.30
  -5   6   6   38.80    4.20
   5  -6  -6   30.70    5.50
  -6   6   6    5.90    4.30
   6  -6  -6   13.00    4.30
  -4  -8  -5   -4.90    3.50
   3   8   5   52.29    5.90
  -3  -8  -5   48.70    4.30
   2   8   5    3.50    4.00
   2   8   5    8.80    2.90
  -2  -8  -5    8.50    2.70
   1   8   5    4.60    2.70
  -1  -8  -5    2.20    2.20
   0   8   5    7.10    2.80
   0  -8  -5    5.70    3.40
   0  -8  -5    6.50    2.00
  -1   8   5   87.39    5.20
  -1   8   5   88.19    4.50
   1  -8  -5   82.79    5.60
  -2   8   5  104.19    5.40
  -2   8   5  105.19    5.70
   2  -8  -5  101.89    6.20
  -3   8   5   17.60    3.60
  -3   8   5   10.00    3.60
   3  -8  -5    8.20    4.10
  -4   8   5   18.70    5.00
   4  -8  -5   22.90    4.90
   4  -8  -5   27.70    5.50
  -2 -10  -4   22.40    5.30
   1  10   4   23.60    4.50
  -1 -10  -4   15.70    3.90
   0 -10  -4    3.20    4.70
   1 -10  -4   23.50    5.70
  -3  10   4   35.30    5.00
   2  -9  14   20.40    4.60
  -2   9 -14   14.10    4.50
   1  -9  14   14.20    3.90
   1  -9  14   26.00    4.80
  -1   9 -14   21.20    3.80
  -1   9 -14   18.20    4.40
   0  -9  14   24.00    4.60
   0   9 -14   20.70    3.90
  -1  -9  14   -3.10    4.10
  -1  -9  14    9.60    3.80
   1   9 -14   10.40    3.60
  -2  -9  14   20.50    4.20
  -2  -9  14   15.20    4.80
   2   9 -14   11.10    3.90
  -5   7 -13   11.00    4.10
   4  -7  13   22.30    4.30
  -4   7 -13   32.50    4.60
   3  -7  13   26.90    4.10
   3  -7  13   18.70    3.80
  -3   7 -13   21.60    3.20
  -3   7 -13   21.60    4.00
   2  -7  13   -1.50    2.60
   2  -7  13    1.70    2.80
  -2   7 -13   -2.30    2.30
  -2   7 -13    8.10    3.00
   1  -7  13   45.90    4.10
   1  -7  13   57.19    4.40
  -1   7 -13   48.30    3.60
  -1   7 -13   48.60    4.30
   0  -7  13   74.19    5.00
   0  -7  13   83.79    4.80
  -1  -7  13   15.40    3.20
  -1  -7  13   16.70    3.30
   1   7 -13   14.30    2.80
  -2  -7  13    0.60    2.70
  -2  -7  13    1.60    3.10
   2   7 -13    4.50    2.60
  -3  -7  13   35.00    4.90
   3   7 -13   44.90    4.50
  -4  -7  13   36.70    5.60
   4   7 -13   44.00    4.70
   6  -5  12   -3.60    4.10
  -6   5 -12    7.00    4.00
  -5   5 -12   15.90    3.30
   4  -5  12   47.20    4.00
   4  -5  12   49.20    4.20
  -4   5 -12   57.89    4.70
  -4   5 -12   52.99    3.80
   3  -5  12   41.20    3.70
  -3   5 -12   44.60    3.50
  -3   5 -12   39.70    3.40
   2  -5  12    2.70    2.10
  -2   5 -12    7.80    2.10
  -2   5 -12    5.40    2.30
   1  -5  12    9.50    2.50
   1  -5  12   14.90    2.70
  -1   5 -12   13.70    2.50
  -1   5 -12   13.00    2.60
   0  -5  12  136.89    5.60
   0  -5  12  132.29    5.70
   0   5 -12  129.29    5.30
  -1  -5  12   44.70    3.80
  -1  -5  12   46.50    3.50
   1   5 -12   50.39    3.50
  -2  -5  12   21.00    2.90
  -2  -5  12   22.60    3.50
   2   5 -12   19.40    3.00
  -3  -5  12    4.20    2.40
  -3  -5  12    7.40    3.10
   3   5 -12    4.10    2.40
  -4  -5  12   50.19    3.50
  -4  -5  12   43.40    4.80
   4   5 -12   48.70    4.00
   4   5 -12   48.60    4.20
  -5  -5  12   92.89    6.60
   5   5 -12   86.99    5.40
   7  -3  11   33.40    5.50
   6  -3  11    5.10    3.30
  -6   3 -11   -3.90    3.40
   5  -3  11   23.60    3.20
   5  -3  11   19.10    3.80
  -5   3 -11   19.00    3.00
  -5   3 -11   20.40    3.30
   4  -3  11   31.90    2.80
   4  -3  11   30.40    3.40
  -4   3 -11   41.30    2.90
  -4   3 -11   36.50    3.50
   3  -3  11  313.87    8.00
   3  -3  11  319.27    9.50
  -3   3 -11  312.57    9.40
  -3   3 -11  312.47    8.40
   2  -3  11   32.90    2.60
   2  -3  11   28.00    3.00
   2  -3  11   32.10    1.60
  -2   3 -11   31.60    2.90
  -2   3 -11   32.70    2.50
  -2   3 -11   29.60    1.60
   1  -3  11    0.70    1.60
   1  -3  11   -2.40    1.60
  -1   3 -11    0.80    1.70
  -1   3 -11    2.60    1.50
   0  -3  11   86.79    4.20
   0  -3  11   89.89    4.10
   0   3 -11   91.09    4.10
  -1  -3  11  293.57    8.60
  -1  -3  11  296.47    8.70
   1   3 -11  289.57    8.40
  -2  -3  11  109.19    3.20
  -2  -3  11  120.49    4.90
  -2  -3  11  112.49    5.20
   2   3 -11  113.49    3.40
   2   3 -11  113.49    4.70
  -3  -3  11    4.80    1.90
  -3  -3  11    1.30    2.50
   3   3 -11    6.20    1.70
   3   3 -11    7.00    2.10
  -4  -3  11   47.20    3.20
  -4  -3  11   46.90    4.60
   4   3 -11   47.70    3.50
  -5  -3  11   29.00    4.70
   5   3 -11   25.00    3.70
   5   3 -11   31.20    3.80
  -6  -3  11   29.40    6.00
   6   3 -11   30.50    5.20
   6   3 -11   29.30    4.50
  -7  -3  11    1.40    4.50
   7   3 -11   -2.00    5.40
   7  -1  10   38.20    5.60
  -7   1 -10   38.70    5.70
  -6   1 -10   18.30    3.50
   5  -1  10   -1.50    2.30
   5  -1  10    0.50    2.50
  -5   1 -10   -0.40    2.50
  -5   1 -10    1.80    1.80
   4  -1  10   34.40    3.00
   4  -1  10   26.40    3.00
  -4   1 -10   28.50    2.00
  -4   1 -10   21.50    3.10
   3  -1  10   12.00    1.60
   3  -1  10   13.00    2.10
   3  -1  10   16.30    2.80
  -3   1 -10   11.40    2.20
  -3   1 -10   14.30    2.50
   2  -1  10  166.28    4.70
   2  -1  10  169.68    4.60
   2  -1  10  171.88    5.10
   2  -1  10  175.88    6.10
  -2   1 -10  170.68    4.70
  -2   1 -10  168.08    4.90
  -2   1 -10  174.88    6.00
   1  -1  10   75.99    3.70
   1  -1  10   73.19    2.70
   1  -1  10   75.09    2.90
   1  -1  10   72.39    2.70
  -1   1 -10   77.39    3.70
  -1   1 -10   74.39    2.60
   0  -1  10    2.00    1.70
   0  -1  10    2.00    1.20
   0  -1  10    1.50    1.30
   0   1 -10    2.70    0.80
   0   1 -10    1.90    1.40
   0   1 -10    1.00    1.20
  -1  -1  10  225.18    6.90
  -1  -1  10  229.18    6.80
   1   1 -10  217.28    6.70
   1   1 -10  226.58    5.80
   1   1 -10  226.88    5.80
  -2  -1  10  300.27    7.60
  -2  -1  10  308.47    8.80
  -2  -1  10  307.47    8.90
   2   1 -10  312.37    8.50
   2   1 -10  316.07    8.00
  -3  -1  10   22.20    3.30
  -3  -1  10   27.50    2.60
   3   1 -10   26.30    2.50
   3   1 -10   20.50    2.60
  -4  -1  10   14.30    3.50
  -4  -1  10   11.80    2.30
   4   1 -10   13.50    2.80
   4   1 -10   12.40    2.40
  -5  -1  10   54.29    3.10
  -5  -1  10   48.40    4.80
   5   1 -10   54.29    3.60
   5   1 -10   51.29    4.40
  -6  -1  10   76.19    6.20
   6   1 -10   83.29    4.80
   6   1 -10   76.59    5.90
   7   1 -10   -1.30    3.70
   7   1 -10    4.30    4.80
  -7  -1  -9   27.90    4.70
  -6  -1  -9    6.00    3.40
   5   1   9   79.49    3.50
   5   1   9   74.09    5.10
  -5  -1  -9   78.29    4.80
   4   1   9    3.90    1.90
   4   1   9   -0.90    2.10
  -4  -1  -9   -1.10    2.10
   3   1   9   52.39    3.40
   3   1   9   49.50    3.20
  -3  -1  -9   48.90    3.50
   2   1   9  171.88    5.90
   2   1   9  176.88    5.70
  -2  -1  -9  173.48    5.90
   1   1   9  221.68    6.80
   1   1   9  222.58    6.60
  -1  -1  -9  222.18    6.70
   0   1   9    8.30    1.20
   0   1   9   10.80    1.90
   0  -1  -9    7.70    1.30
   0  -1  -9   10.30    1.90
  -1   1   9   75.79    3.30
  -1   1   9   76.19    3.60
   1  -1  -9   72.29    2.80
   1  -1  -9   76.99    3.40
   1  -1  -9   75.89    3.30
  -2   1   9  283.97    8.00
  -2   1   9  287.47    8.10
   2  -1  -9  271.77    7.50
   2  -1  -9  277.77    8.00
  -3   1   9  196.28    6.80
  -3   1   9  193.98    6.30
   3  -1  -9  200.28    6.00
   3  -1  -9  186.58    6.60
  -4   1   9   20.60    3.40
  -4   1   9   14.30    2.50
   4  -1  -9   21.10    3.20
   4  -1  -9   18.00    2.10
  -5   1   9   12.20    3.10
  -5   1   9    9.90    2.20
   5  -1  -9    8.70    3.30
  -6   1   9   56.39    5.50
   6  -1  -9   65.49    5.60
   6  -1  -9   60.19    4.50
   7  -1  -9   20.40    4.90
   6   3   8   11.50    4.30
  -6  -3  -8    6.70    3.60
   5   3   8   59.39    4.80
  -5  -3  -8   60.49    4.60
   4   3   8   15.00    2.40
   4   3   8   20.00    3.20
  -4  -3  -8   15.60    3.10
   3   3   8    1.20    1.60
   3   3   8    1.10    2.10
  -3  -3  -8    1.80    1.80
   2   3   8   75.69    4.20
   2   3   8   76.69    3.70
  -2  -3  -8   79.39    3.90
   1   3   8  118.39    4.60
   1   3   8  121.19    5.10
  -1  -3  -8  123.29    4.60
   0   3   8  169.68    4.60
   0   3   8  181.38    6.00
   0  -3  -8  186.28    5.80
   0  -3  -8  188.68    4.70
  -1   3   8    6.70    2.00
  -1   3   8    8.90    1.70
   1  -3  -8    8.80    1.50
   1  -3  -8    7.60    2.00
   1  -3  -8    8.40    1.70
  -2   3   8   88.09    3.50
  -2   3   8   98.89    4.10
  -2   3   8   98.09    4.30
   2  -3  -8   94.69    3.60
   2  -3  -8   95.19    4.70
  -3   3   8   85.39    3.20
  -3   3   8   96.79    4.50
  -3   3   8  103.79    4.60
   3  -3  -8   94.19    3.50
   3  -3  -8  102.99    5.10
  -4   3   8   91.39    4.60
  -4   3   8   92.99    5.00
   4  -3  -8   88.39    3.30
  -5   3   8   31.90    4.30
   5  -3  -8   22.20    4.40
  -6   3   8   19.30    4.00
  -6   3   8   10.80    3.30
   6  -3  -8   13.90    4.50
   5   5   7   11.50    4.00
  -5  -5  -7    9.90    3.30
   4   5   7   25.60    4.00
  -4  -5  -7   42.40    3.80
   3   5   7   40.30    2.90
   3   5   7   41.20    4.10
  -3  -5  -7   53.49    3.90
   2   5   7   10.70    2.20
   2   5   7    9.90    2.80
  -2  -5  -7   10.80    2.30
   1   5   7  174.48    6.20
   1   5   7  183.48    7.20
  -1  -5  -7  183.48    6.10
   0   5   7  232.18    7.50
   0   5   7  215.98    6.70
   0  -5  -7  240.38    6.90
   0  -5  -7  224.18    5.80
  -1   5   7    6.70    1.80
  -1   5   7    8.30    2.40
   1  -5  -7    4.30    2.20
   1  -5  -7    5.70    1.50
  -2   5   7   19.10    4.50
  -2   5   7   13.90    2.50
   2  -5  -7   14.80    1.90
   2  -5  -7   13.80    2.90
  -3   5   7  106.99    5.20
  -3   5   7  110.49    5.30
   3  -5  -7  102.19    5.80
  -4   5   7  105.89    5.50
  -4   5   7  112.79    5.80
   4  -5  -7  104.19    5.90
  -5   5   7   22.20    3.50
  -5   5   7   25.30    4.20
   5  -5  -7   19.70    4.30
  -6   5   7    2.70    4.40
  -6   5   7    0.60    4.10
   4   7   6   29.10    4.90
  -4  -7  -6   23.70    3.60
   3   7   6   21.90    3.50
   3   7   6   22.20    4.60
  -3  -7  -6   22.20    3.40
   2   7   6    2.90    3.50
   2   7   6   -0.80    2.50
  -2  -7  -6   -2.40    2.20
   1   7   6    9.10    2.70
  -1  -7  -6    6.20    2.10
   0   7   6   71.59    4.50
   0   7   6   70.89    3.40
   0  -7  -6   73.99    5.10
   0  -7  -6   76.89    4.00
  -1   7   6  110.39    4.70
  -1   7   6  120.19    5.80
   1  -7  -6  107.39    5.80
   1  -7  -6  108.39    4.30
  -2   7   6    9.80    2.60
   2  -7  -6    9.90    3.10
  -3   7   6   21.50    3.90
  -3   7   6   19.90    3.60
   3  -7  -6   25.30    4.60
  -4   7   6   55.79    4.90
  -4   7   6   45.50    4.80
   4  -7  -6   39.80    5.00
  -5   7   6   33.10    5.60
  -5   7   6   29.70    4.70
  -3  -9  -5   23.90    4.50
   2   9   5   22.20    3.90
  -2  -9  -5   26.30    3.90
   1   9   5    9.00    3.60
  -1  -9  -5    4.20    2.90
   0   9   5   48.10    4.70
   0  -9  -5   50.69    5.00
  -1   9   5   32.20    4.70
   1  -9  -5   35.60    4.70
  -2   9   5   34.90    4.00
  -2   9   5   29.50    4.80
   2  -9  -5   24.60    5.20
   0  10 -15   18.60    4.30
   1  10 -15   -4.50    4.30
   4  -8  14    6.30    4.30
  -4   8 -14   -6.20    4.20
   3  -8  14    6.00    3.90
   3  -8  14   -0.60    3.80
  -3   8 -14    6.40    4.10
   2  -8  14    0.60    3.40
   2  -8  14    7.80    3.50
  -2   8 -14   -0.30    2.90
   1  -8  14   61.99    5.20
   1  -8  14   51.09    4.60
  -1   8 -14   52.09    4.20
  -1   8 -14   45.70    4.90
   0  -8  14   66.79    5.10
   0  -8  14   78.99    5.10
   0   8 -14   71.29    4.60
  -1  -8  14   10.70    3.30
  -1  -8  14    6.70    3.60
   1   8 -14   12.50    3.30
  -2  -8  14  146.89    7.70
  -2  -8  14  137.79    7.00
   2   8 -14  150.18    7.20
  -3  -8  14   34.70    5.20
   3   8 -14   35.50    4.80
  -6   6 -13    9.80    4.70
   5  -6  13   23.10    4.60
  -5   6 -13   24.00    4.20
   4  -6  13   28.40    4.30
  -4   6 -13   33.60    4.00
  -4   6 -13   38.00    3.50
   3  -6  13   23.30    3.80
   3  -6  13   27.80    3.60
  -3   6 -13   29.60    3.30
  -3   6 -13   24.60    3.70
   2  -6  13   72.39    5.20
   2  -6  13   72.09    4.40
  -2   6 -13   80.59    4.80
  -2   6 -13   71.79    4.20
   1  -6  13  126.69    7.00
   1  -6  13  131.59    5.90
  -1   6 -13  129.39    5.70
   0  -6  13   19.00    3.20
   0   6 -13   21.70    3.00
  -1  -6  13   24.20    3.50
  -2  -6  13   -0.60    2.50
   2   6 -13   -3.50    2.20
  -3  -6  13   52.49    4.10
  -3  -6  13   60.19    5.20
   3   6 -13   53.89    4.40
  -4  -6  13  372.66   12.80
   4   6 -13  364.86   11.80
  -5  -6  13   -7.30    4.60
   5   6 -13    6.50    3.80
   6  -4  12   -2.20    4.50
   5  -4  12   31.70    3.40
   5  -4  12   32.20    4.00
  -5   4 -12   38.90    4.90
   4  -4  12   55.59    3.30
   4  -4  12   58.89    4.40
  -4   4 -12   50.89    3.80
  -4   4 -12   55.69    3.70
   3  -4  12   17.50    2.00
   3  -4  12   17.20    2.70
  -3   4 -12   20.70    2.90
  -3   4 -12   16.40    2.70
   2  -4  12   39.30    3.10
   2  -4  12   39.90    3.50
  -2   4 -12   38.10    3.20
  -2   4 -12   33.30    3.40
   1  -4  12   59.49    3.60
   1  -4  12   62.59    3.90
  -1   4 -12   62.49    3.80
  -1   4 -12   61.09    3.70
   0  -4  12   89.09    4.40
   0  -4  12   89.99    4.60
   0   4 -12   87.09    4.40
  -1  -4  12  100.09    4.70
  -1  -4  12   95.49    5.00
   1   4 -12  102.09    4.70
  -2  -4  12   36.50    3.50
  -2  -4  12   33.10    3.20
   2   4 -12   38.20    3.30
  -3  -4  12   35.50    3.30
   3   4 -12   39.80    2.60
  -4  -4  12  305.57   10.60
  -4  -4  12  298.57    8.70
   4   4 -12  303.47    9.70
   4   4 -12  305.37    8.60
  -5  -4  12   29.10    4.60
   5   4 -12   30.80    4.00
   5   4 -12   22.60    3.80
  -6  -4  12    2.50    5.00
   6   4 -12    3.10    3.80
   7  -2  11   14.90    5.10
  -6   2 -11    6.10    3.50
   5  -2  11   12.50    3.10
   5  -2  11   16.00    3.20
  -5   2 -11    8.70    3.10
  -5   2 -11   14.00    2.60
   4  -2  11   77.89    3.70
   4  -2  11   69.99    4.40
  -4   2 -11   71.39    4.50
  -4   2 -11   69.99    3.40
   3  -2  11  149.88    4.80
   3  -2  11  143.79    5.90
   3  -2  11  142.79    4.80
  -3   2 -11  140.59    5.90
  -3   2 -11  146.39    4.70
   2  -2  11   56.19    3.80
   2  -2  11   57.99    2.70
   2  -2  11   55.19    2.80
  -2   2 -11   54.89    2.80
  -2   2 -11   57.39    3.70
  -2   2 -11   51.99    2.30
   1  -2  11   20.80    2.10
   1  -2  11   20.70    1.30
   1  -2  11   22.50    2.70
  -1   2 -11   19.50    1.30
  -1   2 -11   24.00    2.50
   0  -2  11   75.29    3.60
   0  -2  11   74.39    4.00
   0   2 -11   79.99    3.90
  -1  -2  11  200.68    6.70
  -1  -2  11  212.18    6.70
   1   2 -11  211.88    5.20
   1   2 -11  206.08    6.70
   1   2 -11  206.68    5.10
  -2  -2  11   11.60    1.50
  -2  -2  11   12.60    2.40
  -2  -2  11   15.30    2.80
   2   2 -11    8.60    2.10
  -3  -2  11    2.50    1.90
  -3  -2  11    3.30    2.60
   3   2 -11    2.90    1.80
   3   2 -11    3.10    1.90
  -4  -2  11  334.07   11.50
  -4  -2  11  357.16    9.50
   4   2 -11  351.06    9.90
   4   2 -11  354.56   10.10
  -5  -2  11   59.49    5.10
   5   2 -11   60.59    4.30
   5   2 -11   57.99    4.30
  -6  -2  11   64.39    6.00
   6   2 -11   71.99    4.80
   6   2 -11   68.79    5.50
  -7  -2  11   -4.20    4.40
   7   2 -11   10.30    4.10
   7   2 -11   -2.70    5.30
   7   0  10   14.00    5.70
  -7   0 -10   15.00    4.80
   6   0  10   20.00    4.20
  -6   0 -10   19.10    3.70
   5   0  10   -2.00    2.30
   5   0  10   -1.30    2.80
  -5   0 -10   -3.70    2.70
   4   0  10   10.10    2.40
   4   0  10    8.80    2.60
  -4   0 -10   12.80    2.80
   3   0  10  142.39    5.50
   3   0  10  141.39    5.30
  -3   0 -10  142.39    5.80
   2   0  10  115.19    4.80
   2   0  10  113.89    4.30
  -2   0 -10  110.49    4.80
   1   0  10   34.00    2.80
   1   0  10   36.20    1.70
   1   0  10   37.20    2.30
   1   0  10   33.30    1.70
  -1   0 -10   35.50    2.80
  -1   0 -10   33.60    1.90
   0   0  10    2.10    1.10
   0   0  10    3.30    1.80
   0   0  10    3.60    1.40
   0   0 -10    3.60    1.20
   0   0 -10    3.20    1.20
   0   0 -10    1.30    1.20
   0   0 -10    2.00    1.60
  -1   0  10  125.69    4.90
  -1   0  10  129.89    4.70
   1   0 -10  133.79    4.80
   1   0 -10  131.39    4.30
   1   0 -10  127.99    4.20
  -2   0  10  128.19    5.10
  -2   0  10  124.19    4.90
   2   0 -10  126.99    4.60
   2   0 -10  133.09    4.80
  -3   0  10   95.19    4.40
  -3   0  10   95.19    4.90
   3   0 -10   99.59    4.50
   3   0 -10  104.09    4.10
  -4   0  10  476.15   12.10
  -4   0  10  475.65   13.50
   4   0 -10  473.35   12.00
   4   0 -10  475.05   12.80
  -5   0  10   71.89    5.40
  -5   0  10   78.79    4.00
   5   0 -10   80.69    5.20
   5   0 -10   79.59    4.10
  -6   0  10   83.79    6.00
   6   0 -10   70.89    4.60
   6   0 -10   79.49    5.90
   7   0 -10   15.60    4.90
   6   2   9   67.99    5.60
  -6  -2  -9   61.09    5.30
   5   2   9    7.50    3.10
  -5  -2  -9    4.40    2.80
   4   2   9    2.30    2.00
   4   2   9   -4.20    2.40
  -4  -2  -9    0.50    2.20
   3   2   9   53.39    3.20
   3   2   9   55.89    3.70
  -3  -2  -9   54.39    3.80
   2   2   9  224.38    7.10
   2   2   9  224.58    6.90
  -2  -2  -9  221.98    7.20
   1   2   9  108.09    4.60
   1   2   9  112.49    4.60
  -1  -2  -9  107.59    4.40
   0   2   9    2.20    0.90
   0   2   9    2.60    1.80
   0  -2  -9    2.10    1.60
   0  -2  -9    0.90    1.00
  -1   2   9  194.28    5.70
  -1   2   9  198.98    6.60
   1  -2  -9  185.48    5.30
   1  -2  -9  193.78    6.40
   1  -2  -9  196.98    6.00
  -2   2   9   16.70    2.40
  -2   2   9   16.70    2.40
   2  -2  -9   18.20    2.40
   2  -2  -9   15.20    2.00
  -3   2   9   58.19    3.90
  -3   2   9   57.59    3.30
   3  -2  -9   55.09    2.80
   3  -2  -9   57.39    3.90
  -4   2   9   -0.40    2.70
  -4   2   9    2.00    2.20
   4  -2  -9    1.40    2.50
   4  -2  -9    1.40    1.50
  -5   2   9   60.09    4.00
  -5   2   9   46.60    4.60
   5  -2  -9   59.89    5.10
   5  -2  -9   55.09    3.10
  -6   2   9  204.88    8.60
   6  -2  -9  202.38    9.00
   5   4   8   22.60    4.50
  -5  -4  -8   24.30    3.90
   4   4   8   24.60    3.80
   4   4   8   22.00    2.60
  -4  -4  -8   26.90    3.50
   3   4   8    7.70    2.00
   2   4   8  129.59    5.90
   2   4   8  123.39    5.00
  -2  -4  -8  129.19    5.20
   1   4   8  201.88    6.70
   1   4   8  198.08    7.30
  -1  -4  -8  203.98    6.60
   0   4   8    2.80    1.00
   0   4   8    2.10    1.70
   0  -4  -8    3.80    1.20
   0  -4  -8    2.20    1.50
  -1   4   8    3.80    2.00
  -1   4   8    2.60    1.40
   1  -4  -8    2.80    2.00
  -2   4   8   59.19    3.40
  -2   4   8   64.89    3.90
   2  -4  -8   62.99    3.00
   2  -4  -8   61.89    4.20
  -3   4   8  187.78    6.80
  -3   4   8  175.78    7.70
   3  -4  -8  183.88    5.20
   3  -4  -8  171.78    7.30
  -4   4   8    0.20    2.50
  -4   4   8    2.50    2.80
   4  -4  -8    1.90    2.80
  -5   4   8   -2.30    2.80
  -5   4   8    9.00    3.50
   5  -4  -8    2.40    3.70
  -6   4   8  121.79    7.30
  -6   4   8  103.39    5.90
   6  -4  -8   89.09    7.40
  -5  -6  -7   28.30    4.80
   4   6   7   39.30    4.90
  -4  -6  -7   35.00    4.10
   3   6   7   -2.50    3.20
   3   6   7   -1.80    2.50
  -3  -6  -7    2.70    2.30
   2   6   7   32.70    3.10
   2   6   7   28.20    4.10
  -2  -6  -7   31.60    5.40
   1   6   7   93.69    5.80
  -1  -6  -7   98.29    4.50
   0   6   7   75.69    3.30
   0   6   7   77.09    4.40
   0  -6  -7   77.59    5.00
   0  -6  -7   79.39    3.80
  -1   6   7    8.90    1.90
  -1   6   7    7.90    2.60
   1  -6  -7    4.40    2.80
   1  -6  -7    5.50    1.70
  -2   6   7   26.20    3.50
  -2   6   7   26.10    2.90
   2  -6  -7   32.80    2.20
   2  -6  -7   33.60    3.80
  -3   6   7  105.09    5.60
  -3   6   7  101.89    7.60
   3  -6  -7  104.59    6.20
  -4   6   7   29.10    4.30
  -4   6   7   26.90    4.00
   4  -6  -7   30.10    4.60
  -5   6   7   -1.70    3.90
  -5   6   7    2.90    3.70
   5  -6  -7    1.10    4.30
   6  -6  -7   52.99    6.90
   3   8   6   26.30    5.30
  -3  -8  -6   22.50    3.90
   2   8   6    1.10    2.80
   2   8   6   -2.40    4.20
  -2  -8  -6   -4.70    2.70
   1   8   6   48.10    4.00
  -1  -8  -6   39.30    3.60
   0   8   6   35.00    3.80
   0  -8  -6   29.70    3.20
   0  -8  -6   28.10    4.40
  -1   8   6   20.70    3.00
  -1   8   6   31.50    3.90
   1  -8  -6   28.70    4.20
  -2   8   6   -3.40    2.90
  -2   8   6   -1.10    3.10
   2  -8  -6    9.10    3.60
  -3   8   6   24.10    4.60
  -3   8   6   32.00    4.30
   3  -8  -6   20.40    4.60
  -4   8   6   60.79    5.70
   2  -9  15   22.40    4.90
  -2   9 -15   25.40    5.00
   1  -9  15   79.99    6.40
   1  -9  15   83.49    6.10
  -1   9 -15   71.49    6.30
  -1   9 -15   79.59    5.10
   0  -9  15    8.00    4.10
   0  -9  15   -1.40    3.80
   0   9 -15    5.70    3.40
  -1  -9  15   58.39    5.90
  -1  -9  15   45.40    5.30
   1   9 -15   46.50    5.10
  -2  -9  15   16.00    5.10
  -5   7 -14    5.20    4.50
   4  -7  14   -0.60    3.80
   4  -7  14    3.10    3.70
  -4   7 -14    2.10    3.70
   3  -7  14   22.30    4.10
   3  -7  14   24.20    4.00
  -3   7 -14   20.50    4.00
   2  -7  14   66.69    4.80
   2  -7  14   63.49    4.70
  -2   7 -14   54.59    4.90
   1  -7  14  169.78    7.30
   1  -7  14  168.48    7.40
  -1   7 -14  159.98    7.20
  -1   7 -14  175.98    7.50
   0  -7  14    8.30    3.10
   0  -7  14    6.50    3.00
   0   7 -14   14.40    2.90
  -1  -7  14    9.80    3.20
  -1  -7  14   10.80    3.20
  -2  -7  14   55.19    5.10
  -2  -7  14   46.70    4.30
   2   7 -14   49.90    4.40
  -3  -7  14   55.39    4.90
  -3  -7  14   40.90    5.10
   3   7 -14   55.59    4.90
  -4  -7  14   -0.90    4.50
   4   7 -14    0.10    3.70
   6  -5  13   -1.80    4.70
   5  -5  13   12.00    3.70
  -5   5 -13   18.20    3.40
   4  -5  13   48.90    4.50
  -4   5 -13   45.00    3.90
  -4   5 -13   42.00    4.00
   3  -5  13  162.38    6.50
   3  -5  13  162.58    6.80
  -3   5 -13  165.58    6.30
  -3   5 -13  158.78    6.30
   2  -5  13   38.80    3.50
   2  -5  13   43.40    3.90
  -2   5 -13   37.60    3.60
  -2   5 -13   40.00    3.40
   1  -5  13   30.50    3.30
   1  -5  13   28.60    4.50
  -1   5 -13   23.90    3.20
  -1   5 -13   26.40    3.00
   0  -5  13  102.79    5.10
   0  -5  13   93.69    5.00
   0   5 -13  101.29    4.90
  -1  -5  13  185.38    7.40
  -1  -5  13  184.48    6.90
   1   5 -13  188.48    6.90
  -2  -5  13   41.90    4.30
  -2  -5  13   47.50    3.80
   2   5 -13   52.29    3.80
  -3  -5  13  418.76   11.80
  -3  -5  13  442.76   13.10
   3   5 -13  420.96   12.30
  -4  -5  13    5.00    3.90
  -4  -5  13    0.60    2.80
   4   5 -13    1.60    3.00
  -5  -5  13   40.40    5.70
   5   5 -13   47.70    4.80
   6  -3  12   10.00    3.80
  -6   3 -12   16.50    4.20
   5  -3  12    4.50    2.90
   5  -3  12   -5.50    3.10
  -5   3 -12   -2.60    2.90
  -5   3 -12    1.70    2.50
   4  -3  12   51.19    3.20
  -4   3 -12   47.70    4.10
  -4   3 -12   50.39    3.30
   3  -3  12   55.99    3.30
   3  -3  12   53.09    2.90
   3  -3  12   49.20    3.90
  -3   3 -12   56.49    3.20
  -3   3 -12   55.89    4.00
   2  -3  12   14.50    2.80
   2  -3  12   21.10    1.50
   2  -3  12   19.40    2.30
  -2   3 -12   19.60    2.30
  -2   3 -12   16.90    1.50
  -2   3 -12   16.50    2.60
   1  -3  12  637.74   15.30
   1  -3  12  650.03   16.20
  -1   3 -12  666.23   16.00
   0  -3  12  192.98    6.80
   0  -3  12  195.28    6.40
   0   3 -12  189.08    6.50
  -1  -3  12   13.00    2.70
  -1  -3  12   13.10    2.60
   1   3 -12   12.20    2.40
  -2  -3  12    9.50    2.70
  -2  -3  12   13.20    2.60
  -2  -3  12    7.40    1.50
   2   3 -12    9.60    2.20
   2   3 -12    8.50    1.40
  -3  -3  12   28.60    2.90
  -3  -3  12   19.10    3.50
   3   3 -12   22.00    3.00
   3   3 -12   23.00    2.30
  -4  -3  12   70.49    4.00
  -4  -3  12   78.79    5.20
   4   3 -12   80.69    4.10
   4   3 -12   82.29    4.70
  -5  -3  12   40.40    5.30
   5   3 -12   47.20    4.30
   5   3 -12   53.29    4.50
  -6  -3  12    8.40    5.00
   6   3 -12   17.10    3.60
   6   3 -12   11.40    4.40
   7   3 -12   27.20    7.40
   7  -1  11    6.90    4.90
  -7   1 -11    3.60    4.90
   6  -1  11   13.10    3.70
  -6   1 -11    6.70    3.80
   5  -1  11   34.60    3.60
  -5   1 -11   24.80    3.90
   4  -1  11  154.88    6.20
   4  -1  11  158.38    5.70
  -4   1 -11  157.78    4.80
  -4   1 -11  166.58    6.60
   3  -1  11   11.60    1.70
   3  -1  11   14.90    2.80
   3  -1  11   11.50    2.20
  -3   1 -11   14.90    3.00
  -3   1 -11   16.90    1.80
   2  -1  11    9.40    2.30
   2  -1  11    3.90    1.50
   2  -1  11    4.70    1.30
   2  -1  11    2.30    1.30
  -2   1 -11    5.20    2.00
  -2   1 -11    1.50    1.50
   1  -1  11   19.90    2.50
   1  -1  11   18.00    1.70
   1  -1  11   13.90    2.00
  -1   1 -11   19.10    1.50
  -1   1 -11   18.40    2.40
   0  -1  11  113.29    4.90
   0  -1  11  109.09    4.10
   0   1 -11  110.49    3.40
   0   1 -11  103.89    4.10
   0   1 -11  110.09    3.40
   0   1 -11  103.89    4.50
  -1  -1  11 1053.79   22.90
  -1  -1  11 1041.40   23.20
   1   1 -11 1043.00   22.00
   1   1 -11 1056.19   21.80
   1   1 -11 1001.10   22.90
  -2  -1  11   13.50    2.60
  -2  -1  11   14.70    2.70
   2   1 -11   15.00    2.00
   2   1 -11   15.50    2.30
  -3  -1  11  559.44   14.90
  -3  -1  11  569.34   14.20
   3   1 -11  574.24   14.20
   3   1 -11  582.54   13.90
  -4  -1  11   22.40    6.20
  -4  -1  11   18.30    2.60
   4   1 -11   20.70    2.70
   4   1 -11   19.90    3.10
  -5  -1  11    9.90    3.70
  -5  -1  11   19.10    2.80
   5   1 -11   18.20    3.60
  -6  -1  11    6.60    4.20
   6   1 -11    5.30    3.80
   6   1 -11   10.20    3.20
   7   1 -11    8.60    5.00
   6   1  10    0.70    3.90
  -6  -1 -10   -4.80    3.50
   5   1  10    5.70    2.60
   5   1  10   -0.60    2.90
  -5  -1 -10    1.50    2.70
   4   1  10   51.59    3.30
   4   1  10   49.99    4.00
  -4  -1 -10   47.70    4.20
   3   1  10   56.99    3.80
   3   1  10   57.79    3.70
  -3  -1 -10   65.19    4.00
   2   1  10   96.19    4.50
   2   1  10   99.59    4.30
  -2  -1 -10   99.39    4.60
   1   1  10    2.40    1.60
   1   1  10    3.50    1.80
  -1  -1 -10    4.60    1.80
   0   1  10   97.19    3.30
   0   1  10   96.89    4.40
   0  -1 -10  105.59    3.30
   0  -1 -10   99.29    4.30
  -1   1  10  435.56   10.60
  -1   1  10  419.26   11.20
   1  -1 -10  437.56   10.90
   1  -1 -10  435.36   10.90
  -2   1  10  145.89    5.50
  -2   1  10  144.69    5.40
   2  -1 -10  138.89    5.00
   2  -1 -10  141.29    5.30
  -3   1  10   14.20    2.70
  -3   1  10   14.40    2.60
   3  -1 -10   14.40    2.10
   3  -1 -10   14.20    2.70
  -4   1  10   44.20    3.10
  -4   1  10   44.30    4.10
   4  -1 -10   45.00    2.80
   4  -1 -10   49.50    4.10
  -5   1  10  202.18    8.30
  -5   1  10  205.28    6.80
   5  -1 -10  182.18    8.00
   5  -1 -10  202.78    6.50
  -6   1  10   19.40    4.70
   6  -1 -10   20.80    4.50
   6   3   9    1.90    4.30
  -6  -3  -9   14.40    4.00
   5   3   9   -0.40    3.30
  -5  -3  -9    4.10    2.80
   4   3   9   16.10    3.30
   4   3   9   17.30    2.70
  -4  -3  -9   12.50    3.00
   3   3   9  101.99    4.40
   3   3   9  101.59    5.30
  -3  -3  -9   95.89    4.90
   2   3   9  129.09    5.60
   2   3   9  126.99    5.10
  -2  -3  -9  125.29    5.20
   1   3   9    2.10    1.90
   1   3   9   -0.50    1.70
  -1  -3  -9   -0.90    1.70
   0   3   9   15.30    2.40
   0   3   9   13.90    1.30
   0  -3  -9   15.20    2.20
   0  -3  -9   12.10    1.40
  -1   3   9   99.89    3.80
  -1   3   9   95.89    4.60
   1  -3  -9  100.89    4.70
   1  -3  -9  100.59    4.20
  -2   3   9  128.49    5.00
  -2   3   9  125.89    5.30
   2  -3  -9  129.29    4.50
   2  -3  -9  128.59    5.60
  -3   3   9   32.30    3.10
   3  -3  -9   27.70    2.30
   3  -3  -9   30.90    3.50
  -4   3   9    9.40    2.80
   4  -3  -9   10.20    1.70
   4  -3  -9    8.30    3.20
  -5   3   9  214.88    7.80
  -5   3   9  236.68    8.90
   5  -3  -9  217.08    8.90
  -6   3   9   32.00    5.40
  -6   3   9   22.80    3.90
   5   5   8    4.10    4.20
  -5  -5  -8    5.40    3.50
   4   5   8   -2.30    3.30
  -4  -5  -8    0.70    2.60
   3   5   8   30.30    3.00
   3   5   8   27.20    4.00
  -3  -5  -8   33.40    3.40
   2   5   8   65.29    3.80
   2   5   8   70.49    4.90
  -2  -5  -8   67.49    3.90
   1   5   8  113.79    5.80
   1   5   8  115.59    5.10
  -1  -5  -8  113.19    4.90
   0   5   8   62.19    4.00
   0   5   8   50.39    3.60
   0  -5  -8   62.19    3.40
  -1   5   8  194.78    6.00
   1  -5  -8  209.68    7.80
   1  -5  -8  203.58    6.30
  -2   5   8  149.39    5.50
  -2   5   8  148.29    6.20
   2  -5  -8  144.69    4.70
  -3   5   8    7.50    2.60
  -3   5   8    6.10    2.60
   3  -5  -8    2.60    2.80
  -4   5   8    9.40    3.00
  -4   5   8    8.10    3.00
   4  -5  -8   11.90    3.30
  -5   5   8   58.79    5.70
  -5   5   8   55.29    4.60
   5  -5  -8   57.69    5.80
  -6   5   8   15.80    4.40
   4   7   7    7.30    4.70
  -4  -7  -7    8.70    3.40
   3   7   7    6.80    4.20
   3   7   7    1.40    2.90
  -3  -7  -7   -1.00    2.90
   2   7   7   54.49    5.30
   2   7   7   53.39    4.00
  -2  -7  -7   47.30    4.00
   1   7   7   40.60    3.80
  -1  -7  -7   43.30    3.30
   0   7   7   18.20    3.50
   0  -7  -7   26.20    4.00
   0  -7  -7   21.80    2.70
  -1   7   7   14.00    2.70
  -1   7   7   17.50    3.20
   1  -7  -7   18.00    3.60
   1  -7  -7   14.70    2.10
  -2   7   7   57.29    4.10
  -2   7   7   60.99    4.70
   2  -7  -7   56.99    5.00
  -3   7   7  118.19    6.10
  -3   7   7  120.89    5.90
   3  -7  -7  106.19    7.20
  -4   7   7   14.50    4.00
  -4   7   7   17.10    4.10
   4  -7  -7    7.80    4.50
  -5   7   7   70.79    6.70
  -3  -9  -6    0.60    4.30
   2   9   6    2.30    4.00
  -2  -9  -6    4.10    3.60
   1   9   6   16.90    4.00
   0   9   6   46.90    5.00
   0  -9  -6   43.50    5.50
  -1   9   6    4.40    3.90
   1  -9  -6    6.30    4.10
   2  -9  -6    1.30    4.40
  -3   9   6   40.50    5.50
   0  10 -16   26.80    4.60
   4  -8  15   18.10    6.20
   3  -8  15   27.20    5.20
  -3   8 -15   25.60    5.00
   2  -8  15  247.68    9.50
   2  -8  15  242.28    9.30
  -2   8 -15  232.38    9.40
  -2   8 -15  245.48    8.30
   1  -8  15    4.20    3.90
   1  -8  15    2.20    3.70
  -1   8 -15   -0.30    3.60
  -1   8 -15    7.80    3.10
   0  -8  15  114.69    6.80
   0  -8  15  107.29    6.10
   0   8 -15  107.69    5.60
  -1  -8  15   38.90    4.90
  -1  -8  15   36.90    5.20
   1   8 -15   45.80    4.40
  -2  -8  15    7.70    4.20
   2   8 -15    7.50    3.60
  -3  -8  15   10.80    4.80
   3   8 -15   -4.20    4.00
   5  -6  14   18.30    4.80
  -5   6 -14   13.00    4.00
   4  -6  14   26.40    4.40
   4  -6  14   29.70    4.90
  -4   6 -14   24.60    4.20
  -4   6 -14   35.80    3.90
   3  -6  14    8.60    3.50
   3  -6  14   18.50    3.50
  -3   6 -14   14.00    3.50
  -3   6 -14   16.90    3.50
   2  -6  14   92.49    5.40
   2  -6  14   98.79    5.30
  -2   6 -14   91.29    5.30
  -2   6 -14   83.79    4.80
   1  -6  14   57.39    4.50
   1  -6  14   51.79    4.30
  -1   6 -14   57.09    4.50
  -1   6 -14   57.69    4.30
   0  -6  14   92.59    5.40
   0  -6  14   94.69    5.20
   0   6 -14   81.49    5.80
  -1  -6  14   52.09    4.30
  -1  -6  14   48.30    4.50
   1   6 -14   47.80    4.10
  -2  -6  14  218.28    7.90
  -2  -6  14  221.38    8.70
   2   6 -14  217.28    8.10
  -3  -6  14   21.80    4.40
   3   6 -14   25.40    3.80
  -4  -6  14  119.89    7.30
   4   6 -14  119.99    6.50
   5  -4  13   18.90    3.80
  -5   4 -13   10.70    3.30
  -5   4 -13   15.50    3.10
   4  -4  13    0.70    2.20
   4  -4  13   -3.10    3.00
  -4   4 -13   -0.20    2.40
  -4   4 -13    1.80    3.00
   3  -4  13    4.00    2.80
   3  -4  13    6.80    2.40
   3  -4  13   10.10    1.70
  -3   4 -13    7.60    2.20
  -3   4 -13    7.80    2.40
   2  -4  13  317.37    9.10
  -2   4 -13  312.67    9.10
  -2   4 -13  317.27    9.60
   1  -4  13  120.39    5.60
   1  -4  13  119.29    5.10
  -1   4 -13  124.79    5.30
   0  -4  13  199.08    7.40
   0  -4  13  197.18    7.00
   0   4 -13  200.78    7.00
  -1  -4  13   19.30    3.20
  -1  -4  13   17.10    3.00
   1   4 -13   16.10    2.70
  -2  -4  13   39.70    3.80
  -2  -4  13   35.70    3.40
   2   4 -13   37.20    3.40
  -3  -4  13   81.29    4.30
  -3  -4  13   88.89    5.40
   3   4 -13   88.09    4.70
   3   4 -13   77.19    3.30
  -4  -4  13   21.30    3.50
  -4  -4  13   24.70    4.40
   4   4 -13   28.60    3.10
   4   4 -13   21.70    3.70
  -5  -4  13    1.40    4.20
   5   4 -13    0.70    3.30
   6   4 -13   46.00    5.20
   7  -2  12   -1.30    4.80
   6  -2  12    4.00    3.70
  -6   2 -12   -1.20    4.00
   5  -2  12   28.70    3.90
   5  -2  12   37.20    4.10
  -5   2 -12   38.60    4.30
   4  -2  12   19.50    2.90
   4  -2  12   19.90    3.30
  -4   2 -12   15.40    2.20
  -4   2 -12   20.20    3.70
   3  -2  12    1.90    1.80
   3  -2  12    0.00    2.40
   3  -2  12   -0.50    1.60
  -3   2 -12    2.00    2.30
  -3   2 -12    2.30    1.70
   2  -2  12  415.16   10.70
   2  -2  12  426.26   11.80
   2  -2  12  419.96   10.40
  -2   2 -12  427.66   10.30
  -2   2 -12  426.56   11.60
  -2   2 -12  395.66    9.50
   1  -2  12  202.38    7.00
   1  -2  12  196.18    6.10
  -1   2 -12  192.28    4.90
  -1   2 -12  204.98    6.90
   0  -2  12  589.34   14.80
   0  -2  12  595.34   14.10
   0   2 -12  586.44   12.50
   0   2 -12  593.64   14.70
  -1  -2  12    1.80    2.10
  -1  -2  12    4.60    2.00
   1   2 -12    2.50    1.20
   1   2 -12    1.10    1.80
   1   2 -12    4.70    1.10
  -2  -2  12   13.00    2.80
  -2  -2  12   14.30    2.60
   2   2 -12   12.90    2.30
   2   2 -12   10.60    1.90
  -3  -2  12  193.88    7.50
  -3  -2  12  178.98    6.50
   3   2 -12  183.38    5.90
   3   2 -12  183.98    6.70
  -4  -2  12    5.10    2.40
  -4  -2  12   -0.10    2.90
   4   2 -12    2.90    2.40
  -5  -2  12    2.60    3.60
   5   2 -12    3.90    2.70
  -6  -2  12   46.70    6.40
   6   2 -12   65.79    4.80
   6   2 -12   56.69    5.70
   7   2 -12   23.50    6.30
   7   2 -12   21.70    4.60
   6   0  11   21.60    4.10
  -6   0 -11   20.20    4.10
   5   0  11   23.80    4.00
   5   0  11   20.70    3.10
  -5   0 -11   25.50    4.30
   4   0  11   33.90    3.50
   4   0  11   32.50    3.20
  -4   0 -11   28.10    3.60
   3   0  11   34.90    3.20
   3   0  11   35.20    2.80
  -3   0 -11   35.40    3.50
   2   0  11    2.20    1.60
   2   0  11    2.70    2.10
  -2   0 -11    1.50    1.80
   1   0  11   70.69    2.50
   1   0  11   77.29    2.70
   1   0  11   75.09    3.40
   1   0  11   74.89    4.10
  -1   0 -11   74.79    4.10
   0   0  11 3249.57   65.59
   0   0  11 3163.78   66.89
   0   0  11 3362.66   65.79
   0   0 -11 3258.37   65.89
   0   0 -11 3429.16   66.09
   0   0 -11 3297.37   66.79
   0   0 -11 3365.26   65.69
  -1   0  11   12.10    2.40
  -1   0  11   13.10    2.30
   1   0 -11   13.70    2.20
   1   0 -11   11.80    1.90
  -2   0  11   71.09    4.10
  -2   0  11   73.39    4.00
   2   0 -11   70.89    3.70
   2   0 -11   72.09    3.50
  -3   0  11   15.90    3.20
  -3   0  11   11.10    2.50
   3   0 -11   12.50    2.30
   3   0 -11   11.50    2.40
  -4   0  11   54.49    6.00
  -4   0  11   50.19    3.40
   4   0 -11   53.59    4.10
   4   0 -11   51.69    3.30
  -5   0  11   52.39    3.70
  -5   0  11   53.49    4.90
   5   0 -11   47.50    4.60
   5   0 -11   44.00    3.70
  -6   0  11   24.40    4.80
   6   0 -11   18.40    3.20
   6   0 -11   22.60    4.60
  -6  -2 -10   11.90    3.70
   5   2  10    5.70    3.50
  -5  -2 -10    6.40    3.20
   4   2  10   26.50    3.60
   4   2  10   30.90    3.00
  -4  -2 -10   24.20    3.60
   3   2  10   84.29    4.30
   3   2  10   84.79    4.60
  -3  -2 -10   83.99    4.70
   2   2  10   86.79    4.40
   2   2  10   89.89    4.40
  -2  -2 -10   93.19    4.60
   1   2  10   49.00    3.50
   1   2  10   52.09    3.40
  -1  -2 -10   54.89    3.40
   0   2  10  324.17    9.40
   0   2  10  339.87    7.90
   0  -2 -10  344.67    9.30
   0  -2 -10  335.67    7.90
  -1   2  10  230.78    7.60
  -1   2  10  227.68    6.50
   1  -2 -10  230.08    6.90
   1  -2 -10  231.98    7.20
  -2   2  10  863.01   19.80
  -2   2  10  854.11   19.20
   2  -2 -10  843.02   19.70
   2  -2 -10  813.02   18.80
  -3   2  10   64.09    3.80
  -3   2  10   61.49    4.10
   3  -2 -10   63.39    3.20
   3  -2 -10   58.49    4.10
  -4   2  10   79.89    5.60
  -4   2  10   94.29    4.60
   4  -2 -10   84.19    3.70
  -5   2  10   52.29    5.00
  -5   2  10   53.19    4.80
   5  -2 -10   49.60    5.20
   5  -2 -10   47.20    3.10
  -6   2  10  119.99    6.90
   6  -2 -10  115.69    7.10
   5   4   9    1.50    3.70
  -5  -4  -9   -4.10    3.10
   4   4   9    2.30    2.20
   4   4   9    0.90    2.90
  -4  -4  -9    0.40    2.50
   3   4   9   26.00    3.10
   3   4   9   31.30    3.60
  -3  -4  -9   33.30    3.40
   2   4   9   51.79    4.20
   2   4   9   53.69    3.50
  -2  -4  -9   51.99    3.90
   1   4   9   14.50    2.90
   1   4   9   14.60    2.60
  -1  -4  -9   13.00    2.40
   0   4   9  931.71   19.60
   0   4   9  929.11   21.80
   0  -4  -9  963.60   21.30
   0  -4  -9  954.20   19.80
  -1   4   9   84.59    4.40
  -1   4   9   81.49    3.50
   1  -4  -9   84.49    4.80
   1  -4  -9   82.09    3.80
  -2   4   9  132.69    5.20
   2  -4  -9  137.89    6.20
   2  -4  -9  133.59    4.80
  -3   4   9   10.20    2.80
  -3   4   9   13.90    2.70
   3  -4  -9    6.70    3.00
   3  -4  -9    9.20    1.70
  -4   4   9   12.00    3.00
  -4   4   9   12.90    3.20
   4  -4  -9   11.90    3.20
  -5   4   9   45.20    5.00
  -5   4   9   43.80    4.30
   5  -4  -9   35.00    5.60
  -6   4   9   10.20    4.80
   6  -4  -9    8.00    5.20
   4   6   8   -3.50    4.00
  -4  -6  -8   -0.60    3.00
   3   6   8   25.60    4.80
  -3  -6  -8   28.60    3.80
   2   6   8   66.49    5.20
   2   6   8   58.69    4.00
  -2  -6  -8   56.59    4.00
  -1  -6  -8   21.00    2.90
   0   6   8   96.59    3.70
   0   6   8  113.29    5.40
   0  -6  -8  107.29    4.60
   0  -6  -8  107.69    5.80
  -1   6   8   67.49    4.30
  -1   6   8   60.59    3.30
   1  -6  -8   67.99    4.60
   1  -6  -8   60.19    3.40
  -2   6   8  285.07    9.60
  -2   6   8  270.47    8.40
   2  -6  -8  278.17    9.90
  -3   6   8   36.80    4.00
  -3   6   8   33.70    3.90
   3  -6  -8   30.00    4.50
  -4   6   8   -1.10    3.20
   4  -6  -8   -5.70    3.60
  -5   6   8   26.20    4.90
  -5   6   8   24.80    4.50
   5  -6  -8   34.10    6.30
  -3  -8  -7    4.90    3.30
   2   8   7    6.70    3.40
  -2  -8  -7    6.20    3.00
   1   8   7   34.40    4.20
  -1  -8  -7   39.80    3.90
   0   8   7   23.00    4.00
   0  -8  -7   16.00    3.90
   0  -8  -7   18.10    2.90
  -1   8   7   19.90    3.70
   1  -8  -7   18.10    3.80
  -2   8   7  239.38    9.50
  -2   8   7  250.57    8.30
   2  -8  -7  253.57   10.00
  -3   8   7   32.00    4.70
   3  -8  -7   27.80    5.60
  -4   8   7   13.30    4.50
   1  -9  16  145.69    9.90
  -1   9 -16  129.39    6.30
   0  -9  16   18.00    5.10
   0  -9  16    8.10    6.80
   0   9 -16   24.10    4.50
  -1  -9  16   28.90    5.20
   1   9 -16   30.30    5.20
  -2  -9  16   -4.20    4.80
   5  -7  15   63.59    6.70
  -5   7 -15   52.89    7.90
   4  -7  15    7.00    4.30
  -4   7 -15   11.00    4.00
   3  -7  15   68.79    5.50
   3  -7  15   72.09    5.80
  -3   7 -15   71.19    4.70
  -3   7 -15   79.69    5.60
   2  -7  15   33.20    4.40
   2  -7  15   21.40    4.30
  -2   7 -15   31.20    4.40
  -2   7 -15   26.20    3.60
   1  -7  15  140.79    6.70
   1  -7  15  142.79    7.00
  -1   7 -15  129.99    6.20
   0  -7  15   38.70    4.40
   0  -7  15   39.10    4.40
   0   7 -15   36.90    4.10
  -1  -7  15   84.89    5.90
  -1  -7  15   87.79    5.60
   1   7 -15   76.69    5.10
  -2  -7  15   21.90    4.20
  -2  -7  15   25.50    4.20
   2   7 -15   24.50    4.20
  -3  -7  15    1.90    4.00
  -3  -7  15   -2.50    3.60
   3   7 -15   -0.10    3.60
   5  -5  14   32.60    5.10
  -5   5 -14   43.00    4.70
   4  -5  14    8.30    3.00
  -4   5 -14    2.50    3.10
   3  -5  14    6.00    3.40
   3  -5  14   12.40    3.50
  -3   5 -14    6.70    3.70
   2  -5  14   43.20    4.00
   2  -5  14   50.19    3.80
  -2   5 -14   43.30    3.90
  -2   5 -14   44.60    3.90
   1  -5  14    9.80    2.90
   1  -5  14   15.80    2.80
  -1   5 -14   11.40    2.60
   0  -5  14    4.10    2.50
   0  -5  14    4.00    2.60
   0   5 -14    7.30    2.80
   1   5 -14  777.12   19.50
  -2  -5  14   58.29    4.70
  -2  -5  14   61.49    4.30
   2   5 -14   57.69    4.40
  -3  -5  14    4.00    3.50
  -3  -5  14   13.30    3.10
   3   5 -14    7.50    2.80
  -4  -5  14    8.30    4.00
   4   5 -14    3.90    3.20
  -5  -5  14   -2.50    4.50
   5   5 -14   -0.40    3.80
  -6   3 -13    9.40    4.30
   5  -3  13  230.88    8.80
   5  -3  13  262.87    8.40
  -5   3 -13  236.08    9.10
   4  -3  13   -2.10    2.30
   4  -3  13    1.20    3.00
  -4   3 -13   -3.70    2.10
  -4   3 -13   -1.50    2.60
   3  -3  13   37.70    3.00
   3  -3  13   36.10    2.60
   3  -3  13   34.20    4.20
  -3   3 -13   40.70    3.00
  -3   3 -13   40.10    3.70
   2  -3  13  127.09    4.80
   2  -3  13  125.29    5.80
   2  -3  13  120.49    3.70
  -2   3 -13  126.29    5.70
  -2   3 -13  125.09    4.80
   1  -3  13   85.79    4.10
   1  -3  13   87.99    5.00
  -1   3 -13   93.79    4.80
   0  -3  13   13.70    2.70
   0  -3  13   14.40    2.90
   0   3 -13   11.80    2.60
  -1  -3  13   76.89    4.40
  -1  -3  13   80.09    4.50
   1   3 -13   72.69    4.30
  -2  -3  13  207.78    7.60
  -2  -3  13  205.18    7.30
   2   3 -13  197.58    7.20
   2   3 -13  197.98    5.20
  -3  -3  13  101.79    6.90
  -3  -3  13  115.49    5.00
   3   3 -13  104.29    4.10
   3   3 -13  108.09    7.50
  -4  -3  13    5.30    2.70
  -4  -3  13    4.50    3.40
   4   3 -13   10.30    2.70
  -5  -3  13    2.70    4.00
   5   3 -13   10.80    3.60
   5   3 -13    2.20    3.20
   6   3 -13   42.50    4.90
   6  -1  12    7.80    4.00
  -6   1 -12   -1.90    4.00
   5  -1  12  123.29    5.80
   5  -1  12  118.49    6.90
  -5   1 -12  121.89    6.80
   4  -1  12   27.30    3.10
   4  -1  12   24.60    3.30
  -4   1 -12   18.50    3.50
  -4   1 -12   20.70    2.00
   3  -1  12  110.99    4.60
   3  -1  12  100.99    4.00
   3  -1  12  107.89    5.20
  -3   1 -12  109.79    5.40
  -3   1 -12  107.09    3.80
   2  -1  12  101.39    4.20
   2  -1  12   99.89    3.30
   2  -1  12  109.39    5.10
   2  -1  12  104.69    3.90
  -2   1 -12  100.19    4.90
   1  -1  12  399.56   10.90
   1  -1  12  364.26    9.10
   1  -1  12  394.56    9.50
  -1   1 -12  395.56   10.70
  -1   1 -12  366.16    9.00
   0  -1  12   43.00    2.80
   0  -1  12   39.70    3.50
   0   1 -12   37.80    3.10
   0   1 -12   38.50    2.00
   0   1 -12   40.00    2.00
  -1  -1  12  652.03   15.20
  -1  -1  12  628.84   15.50
   1   1 -12  619.54   14.20
   1   1 -12  620.34   15.30
   1   1 -12  619.24   14.00
  -2  -1  12  135.39    5.70
  -2  -1  12  138.09    5.80
   2   1 -12  132.19    5.30
   2   1 -12  134.19    4.70
  -3  -1  12   32.50    3.70
  -3  -1  12   30.20    3.20
   3   1 -12   27.20    2.80
   3   1 -12   27.70    2.80
  -4  -1  12   40.70    4.60
  -4  -1  12   43.80    3.40
   4   1 -12   38.30    3.70
   4   1 -12   37.20    3.30
  -5  -1  12    3.70    3.70
  -5  -1  12   12.40    2.70
   5   1 -12   14.30    3.40
   5   1 -12    6.90    2.60
  -6  -1  12   28.20    5.20
   6   1 -12   27.00    4.50
   6   1 -12   25.80    4.20
   6   1  11    4.20    4.10
  -6  -1 -11    3.70    3.80
   5   1  11   84.79    5.70
  -5  -1 -11   95.09    5.90
   4   1  11   36.10    3.20
   4   1  11   35.70    3.70
  -4  -1 -11   33.90    3.90
   3   1  11  178.88    6.70
   3   1  11  193.08    6.90
  -3  -1 -11  182.68    7.10
   2   1  11   26.00    3.00
   2   1  11   34.10    3.00
  -2  -1 -11   28.40    3.10
   1   1  11  190.58    6.60
   1   1  11  188.68    6.30
  -1  -1 -11  186.68    6.50
   0   1  11   99.79    4.60
   0   1  11  106.99    4.90
   0  -1 -11  115.09    4.80
   0  -1 -11  112.89    4.40
   0  -1 -11  111.29    3.60
  -1   1  11   55.09    3.60
  -1   1  11   52.39    3.10
   1  -1 -11   57.39    3.20
   1  -1 -11   57.79    3.30
  -2   1  11   19.50    2.70
  -2   1  11   21.10    2.90
   2  -1 -11   27.00    2.70
   2  -1 -11   22.00    2.50
  -3   1  11   67.79    4.20
  -3   1  11   67.59    4.30
   3  -1 -11   67.39    3.60
   3  -1 -11   64.89    3.90
  -4   1  11  124.99    5.20
  -4   1  11  115.09    6.00
   4  -1 -11  119.39    5.90
   4  -1 -11  125.89    4.80
  -5   1  11    7.70    2.80
  -5   1  11    8.60    3.60
   5  -1 -11    8.40    2.50
  -6   1  11    5.10    4.60
   6  -1 -11    2.90    4.10
   6   3  10    1.50    4.50
   5   3  10   65.59    5.40
  -5  -3 -10   63.69    5.20
   4   3  10   30.60    3.80
   4   3  10   34.60    3.20
  -4  -3 -10   32.10    3.70
   3   3  10  103.99    4.90
   3   3  10  103.69    6.30
  -3  -3 -10  104.89    5.20
   2   3  10   -0.70    2.30
   2   3  10   -0.10    2.20
  -2  -3 -10    2.40    2.00
   1   3  10    0.70    2.00
   1   3  10    3.60    2.10
  -1  -3 -10    2.00    1.90
   0   3  10  260.87    8.30
   0   3  10  259.37    6.30
   0  -3 -10  256.07    7.80
   0  -3 -10  249.18    6.30
  -1   3  10  167.48    6.40
  -1   3  10  164.58    5.20
   1  -3 -10  163.48    5.70
   1  -3 -10  164.78    6.30
  -2   3  10   11.90    2.40
  -2   3  10   12.60    2.50
   2  -3 -10   14.20    2.90
   2  -3 -10   11.70    1.90
  -3   3  10  195.38    7.00
   3  -3 -10  182.78    7.30
   3  -3 -10  182.68    5.90
  -4   3  10  109.39    5.70
  -4   3  10  105.49    5.30
   4  -3 -10  105.89    4.00
   4  -3 -10  112.09    6.10
  -5   3  10   13.50    3.30
  -5   3  10   16.30    4.00
   5  -3 -10   15.00    4.20
  -6   3  10   18.30    4.70
   6  -3 -10    7.80    4.70
   5   5   9   -5.90    4.30
  -5  -5  -9   -2.60    3.50
   4   5   9    5.40    3.70
  -4  -5  -9    8.90    3.90
   3   5   9  428.86   13.70
   3   5   9  439.06   11.80
  -3  -5  -9  448.26   12.60
   2   5   9   11.30    3.30
   2   5   9   10.20    2.70
  -2  -5  -9   10.40    2.50
  -1  -5  -9  262.67    8.30
   0   5   9   29.40    3.40
   0   5   9   28.10    3.00
   0  -5  -9   22.40    2.70
  -1   5   9    4.40    1.70
  -1   5   9    4.90    2.40
   1  -5  -9    1.70    2.80
   1  -5  -9   -1.30    1.80
  -2   5   9   41.30    3.70
  -2   5   9   44.60    3.30
   2  -5  -9   42.60    2.80
   2  -5  -9   46.80    4.10
  -3   5   9   28.40    3.60
  -3   5   9   24.00    3.50
   3  -5  -9   24.20    4.10
  -4   5   9   59.99    4.80
  -4   5   9   59.09    4.70
   4  -5  -9   62.99    5.50
  -5   5   9   32.50    4.70
  -5   5   9   28.40    4.10
   5  -5  -9   28.10    5.20
  -6   5   9   16.70    4.70
  -4  -7  -8    7.50    4.40
   3   7   8   33.60    4.10
   3   7   8   34.50    5.30
  -3  -7  -8   30.90    4.20
   2   7   8   21.90    3.40
   2   7   8   26.70    5.00
  -2  -7  -8   16.20    3.30
   1   7   8   55.19    4.70
  -1  -7  -8   65.09    4.20
   0   7   8   28.00    4.10
   0  -7  -8   29.90    4.50
   0  -7  -8   38.70    3.30
  -1   7   8  276.17    9.70
   1  -7  -8  279.97   10.30
  -2   7   8   53.99    4.50
  -2   7   8   50.69    4.20
   2  -7  -8   57.19    5.10
  -3   7   8   51.09    4.70
  -3   7   8   68.89    4.90
   3  -7  -8   48.80    5.90
  -4   7   8    3.10    4.00
  -4   7   8   10.70    4.30
   4  -7  -8    0.50    4.40
   2   9   7   16.70    4.60
  -2  -9  -7   18.40    4.00
   1   9   7   11.30    4.20
   0   9   7    4.40    4.00
   3  -8  16   16.40    4.60
  -3   8 -16   20.40    4.60
   2  -8  16   98.39    6.60
  -2   8 -16  104.39    5.60
  -2   8 -16  103.79    6.80
   1  -8  16   37.20    5.20
   1  -8  16   38.70    5.10
  -1   8 -16   35.10    4.60
   0  -8  16    4.10    4.00
   0  -8  16    7.60    4.00
   0   8 -16   -1.50    3.50
  -1  -8  16   13.70    4.60
  -1  -8  16   11.40    4.10
   1   8 -16   11.70    3.80
  -2  -8  16   -6.10    4.30
  -2  -8  16    6.80    4.40
   2   8 -16    5.70    3.80
   5  -6  15   -3.30    4.10
  -5   6 -15   -2.80    4.20
   4  -6  15   75.09    5.90
   4  -6  15   78.19    5.70
  -4   6 -15   89.49    5.10
  -4   6 -15   80.79    5.70
   3  -6  15   12.70    3.80
   3  -6  15   15.70    3.50
  -3   6 -15    8.50    3.20
  -3   6 -15   14.10    3.10
   2  -6  15    9.20    3.50
   2  -6  15   13.70    3.30
  -2   6 -15    6.60    3.00
  -2   6 -15   12.40    3.10
   1  -6  15   15.30    3.50
   1  -6  15   12.50    3.40
  -1   6 -15   13.70    2.90
   0  -6  15  236.28    8.70
   0  -6  15  229.38    8.80
   0   6 -15  221.18    8.20
  -1  -6  15   64.89    5.40
  -1  -6  15   60.59    4.70
   1   6 -15   72.39    5.00
  -2  -6  15    3.90    3.10
   2   6 -15    3.10    2.90
  -3  -6  15    8.90    3.80
  -3  -6  15   15.20    3.30
   3   6 -15   12.70    3.30
   4   6 -15    4.40    3.80
   5  -4  14   -2.80    4.00
  -5   4 -14    4.40    3.60
   4  -4  14  102.29    5.30
   4  -4  14   87.19    5.70
  -4   4 -14   98.89    5.00
  -4   4 -14  103.19    5.50
   3  -4  14   21.00    3.70
   3  -4  14   20.70    3.10
  -3   4 -14   19.50    3.10
   2  -4  14   15.40    3.50
   2  -4  14   16.40    2.90
  -2   4 -14   18.50    2.90
  -2   4 -14   18.20    3.30
   1  -4  14    2.90    2.20
   1  -4  14   -1.40    2.40
  -1   4 -14    2.90    2.20
   0  -4  14  258.67   10.40
   0  -4  14  289.27    8.90
   0   4 -14  279.27    9.00
  -1  -4  14  125.39    5.90
  -1  -4  14  132.69    6.10
   1   4 -14  120.79    5.70
  -2  -4  14   49.40    3.90
   2   4 -14   41.90    3.80
  -3  -4  14   -2.70    3.00
  -3  -4  14    0.60    2.50
   3   4 -14    3.60    2.60
  -4  -4  14   -1.10    3.70
  -4  -4  14   -0.50    3.00
   4   4 -14    0.70    2.80
  -5  -4  14   51.89    5.90
   5   4 -14   52.59    5.00
   6  -2  13   85.19    6.00
  -6   2 -13   84.29    6.00
   5  -2  13   24.30    3.90
  -5   2 -13   21.20    4.20
   4  -2  13   30.70    3.20
   4  -2  13   25.30    3.70
   4  -2  13   22.90    2.70
  -4   2 -13   23.90    3.70
  -4   2 -13   23.70    2.60
   3  -2  13   60.89    3.20
   3  -2  13   57.39    3.30
   3  -2  13   65.09    4.60
  -3   2 -13   65.79    3.20
  -3   2 -13   57.29    4.40
   2  -2  13    0.60    2.30
   2  -2  13    0.80    1.60
   2  -2  13    3.60    1.60
  -2   2 -13    1.60    2.00
  -2   2 -13    5.90    2.30
   1  -2  13   62.29    4.10
   1  -2  13   56.59    3.30
  -1   2 -13   60.49    3.90
  -1   2 -13   54.59    2.20
   0  -2  13   94.19    4.30
   0  -2  13   88.89    4.70
   0   2 -13   88.29    2.70
   0   2 -13   91.29    4.60
  -1  -2  13  131.69    5.40
  -1  -2  13  127.59    5.50
   1   2 -13  127.39    3.70
   1   2 -13  130.99    3.80
   1   2 -13  122.99    5.40
  -2  -2  13  225.48    7.70
  -2  -2  13  226.38    7.80
   2   2 -13  220.88    6.20
   2   2 -13  217.18    7.50
  -3  -2  13  114.09    5.20
  -3  -2  13  112.89    6.00
   3   2 -13  107.19    4.40
   3   2 -13  110.59    5.30
  -4  -2  13   -1.00    3.10
  -4  -2  13    4.40    2.70
   4   2 -13    1.60    2.40
  -5  -2  13   70.99    5.90
   5   2 -13   63.79    5.20
   5   2 -13   63.49    4.70
  -6  -2  13   -0.70    5.10
   6   2 -13   11.00    3.90
   6   2 -13   10.70    4.40
  -6   0 -12   35.20    5.40
   5   0  12   18.70    3.40
   5   0  12   21.50    4.10
  -5   0 -12   23.40    3.80
   4   0  12  114.59    5.20
   4   0  12  116.59    5.50
  -4   0 -12  115.19    6.10
   3   0  12    5.30    2.00
   3   0  12    7.60    2.60
  -3   0 -12    2.10    2.40
   2   0  12  425.76   11.30
   2   0  12  436.66   11.90
  -2   0 -12  428.86   11.90
   1   0  12  105.09    5.10
   1   0  12  108.59    4.20
   1   0  12  118.59    3.70
   1   0  12   99.49    3.30
  -1   0 -12  113.69    5.20
   0   0  12  635.64   15.80
   0   0  12  638.24   14.40
   0   0  12  622.84   14.70
   0   0 -12  624.44   14.10
   0   0 -12  648.34   14.70
   0   0 -12  626.04   15.50
  -1   0  12   72.89    4.20
  -1   0  12   69.19    3.80
   1   0 -12   76.99    4.00
   1   0 -12   77.89    3.50
  -2   0  12   60.29    3.90
  -2   0  12   63.59    4.00
   2   0 -12   60.59    3.50
   2   0 -12   57.59    3.40
  -3   0  12   72.89    4.60
  -3   0  12   72.59    4.50
   3   0 -12   73.29    4.00
   3   0 -12   75.19    4.20
  -4   0  12  174.58    7.60
  -4   0  12  174.98    6.50
   4   0 -12  183.58    6.40
   4   0 -12  180.98    7.00
  -5   0  12   23.10    3.50
  -5   0  12   18.40    4.30
   5   0 -12   24.70    4.20
   5   0 -12   14.90    3.40
  -6   0  12   20.50    4.90
   6   0 -12   26.80    3.70
   6   0 -12   25.80    5.30
   6   2  11   49.00    5.70
  -6  -2 -11   40.90    5.70
   5   2  11   38.60    4.80
  -5  -2 -11   36.70    4.50
   4   2  11   56.99    4.40
   4   2  11   58.99    3.90
  -4  -2 -11   55.39    4.60
   3   2  11    0.40    2.50
   3   2  11   -0.60    2.30
  -3  -2 -11    2.00    2.20
   2   2  11   11.40    2.70
   2   2  11   15.00    2.70
  -2  -2 -11   13.20    2.60
   1   2  11  240.78    7.70
   1   2  11  231.58    7.90
  -1  -2 -11  234.08    7.70
   0   2  11    2.60    1.20
   0   2  11    4.60    2.30
   0  -2 -11    1.10    1.90
   0  -2 -11    5.60    1.40
   0  -2 -11    6.20    2.00
  -1   2  11    1.20    2.10
  -1   2  11    2.40    1.70
   1  -2 -11    5.40    1.70
   1  -2 -11    5.30    2.00
  -2   2  11  354.76    9.80
  -2   2  11  360.36   10.40
   2  -2 -11  349.77    9.60
   2  -2 -11  352.66   10.30
  -3   2  11  183.98    6.90
  -3   2  11  191.38    7.00
   3  -2 -11  177.68    6.00
   3  -2 -11  193.88    7.30
  -4   2  11   79.09    4.60
  -4   2  11   63.59    5.00
   4  -2 -11   75.69    5.10
   4  -2 -11   74.19    3.70
  -5   2  11    7.70    3.10
   5  -2 -11    6.20    3.70
  -6   2  11   11.90    4.40
   6  -2 -11   -2.10    4.40
   5   4  10   11.40    4.40
  -5  -4 -10   17.90    3.90
   4   4  10  260.67   10.10
   4   4  10  250.77    7.90
  -4  -4 -10  263.97    9.30
   3   4  10   15.40    3.60
   3   4  10   18.70    3.20
  -3  -4 -10   16.60    3.20
   2   4  10   31.80    3.30
   2   4  10   25.70    4.80
   1   4  10  102.69    5.10
  -1  -4 -10   97.89    4.70
   0   4  10   28.00    1.70
   0   4  10   32.70    3.90
   0  -4 -10   29.70    3.30
   0  -4 -10   28.60    2.90
  -1   4  10   26.70    3.20
  -1   4  10   25.40    2.30
   1  -4 -10   21.50    2.60
   1  -4 -10   27.60    3.30
  -2   4  10   69.49    4.50
  -2   4  10   71.19    3.90
   2  -4 -10   69.39    5.70
   2  -4 -10   66.09    3.60
  -3   4  10   87.49    4.90
  -3   4  10   90.99    5.10
   3  -4 -10   84.19    5.40
   3  -4 -10   82.89    3.60
  -4   4  10  131.29    6.60
  -4   4  10  143.09    6.50
   4  -4 -10  141.19    7.00
  -5   4  10   21.40    3.70
  -5   4  10   16.00    4.20
   5  -4 -10   23.20    4.70
  -6   4  10   -3.80    4.40
   4   6   9  167.68    8.60
  -4  -6  -9  174.38    7.70
   3   6   9   28.30    3.70
   3   6   9   25.60    5.00
  -3  -6  -9   21.20    3.80
   2   6   9    3.60    3.50
   2   6   9    6.00    2.70
  -2  -6  -9    0.00    2.30
   1   6   9   28.00    3.40
   0   6   9    6.80    2.70
   0  -6  -9    8.70    3.00
   0  -6  -9    3.20    2.20
  -1   6   9   60.99    3.40
  -1   6   9   66.79    4.60
   1  -6  -9   59.79    3.70
   1  -6  -9   61.69    4.70
  -2   6   9    9.70    3.40
  -2   6   9    6.30    2.60
   2  -6  -9    8.40    3.00
  -3   6   9   15.40    3.70
  -3   6   9   23.70    3.60
   3  -6  -9   22.90    4.20
  -4   6   9   61.09    5.50
  -4   6   9   66.79    5.30
   4  -6  -9   74.79    5.90
  -5   6   9   32.60    6.10
  -3  -8  -8   26.10    4.10
   2   8   8   67.49    5.20
  -2  -8  -8   70.29    5.40
   1   8   8   -0.90    3.50
  -1  -8  -8   -1.20    2.90
   0   8   8   49.30    4.80
   0  -8  -8   53.59    5.50
  -1   8   8   48.30    4.90
   1  -8  -8   42.20    5.20
  -2   8   8   63.89    5.70
   2  -8  -8   84.59    6.50
  -3   8   8    6.00    3.80
  -4   8   8   16.00    4.80
  -1   9 -17   12.30    4.20
   0   9 -17   10.10    4.00
   1   9 -17    5.50    5.40
   4  -7  16   41.90    5.50
  -4   7 -16   36.90    5.50
   3  -7  16   13.60    4.20
   3  -7  16   13.50    4.20
  -3   7 -16   14.80    4.10
  -3   7 -16   15.10    3.70
   2  -7  16   22.60    4.70
   2  -7  16   23.40    4.40
  -2   7 -16   17.30    3.70
  -2   7 -16   27.60    4.80
   1  -7  16    5.60    3.40
   1  -7  16    0.50    3.70
  -1   7 -16   -1.90    3.10
   0  -7  16   59.19    5.40
   0  -7  16   52.59    5.00
   0   7 -16   57.79    4.90
  -1  -7  16    0.80    3.80
   1   7 -16    2.50    3.40
  -2  -7  16   -0.30    3.80
   2   7 -16    1.50    3.40
  -3  -7  16   57.49    5.20
  -3  -7  16   57.79    5.70
   3   7 -16   52.29    5.30
   5  -5  15   67.69    5.90
   4  -5  15   14.40    3.90
   4  -5  15    3.60    3.40
  -4   5 -15    6.80    3.40
  -4   5 -15    6.00    3.50
   3  -5  15  236.28    8.50
   3  -5  15  212.18    8.80
  -3   5 -15  224.58    8.30
  -3   5 -15  236.78    8.40
   2  -5  15    0.80    3.00
   2  -5  15    0.60    3.00
  -2   5 -15   -1.80    2.50
  -2   5 -15    2.40    3.50
   1  -5  15   70.79    5.00
   1  -5  15   75.99    4.80
  -1   5 -15   74.39    4.70
   0  -5  15  109.39    5.90
   0   5 -15  126.29    5.90
  -1  -5  15    2.90    3.10
  -1  -5  15   -0.40    2.70
   1   5 -15    2.20    2.80
  -2  -5  15    3.30    2.90
  -2  -5  15   -3.10    2.90
   2   5 -15   -0.60    2.60
  -3  -5  15   21.10    3.60
  -3  -5  15   18.60    4.20
   3   5 -15   19.40    3.60
  -4  -5  15   42.20    5.20
   4   5 -15   32.70    4.60
  -6   3 -14   -5.70    4.60
   5  -3  14  211.88    8.60
  -5   3 -14  208.08    8.70
   4  -3  14   50.29    3.80
   4  -3  14   58.69    3.50
   4  -3  14   44.60    4.70
  -4   3 -14   59.19    3.60
  -4   3 -14   49.50    4.70
   3  -3  14   61.69    3.80
   3  -3  14   62.99    3.10
   3  -3  14   63.39    4.60
  -3   3 -14   65.59    3.80
  -3   3 -14   60.89    4.40
   2  -3  14    8.80    2.30
   2  -3  14   11.80    3.10
  -2   3 -14   11.40    2.70
   1  -3  14   29.40    5.50
   1  -3  14   23.90    2.80
  -1   3 -14   20.50    3.20
   0  -3  14   94.99    5.10
   0  -3  14   89.59    4.60
   0   3 -14   87.79    4.70
  -1  -3  14   66.09    4.30
  -1  -3  14   65.59    4.40
   1   3 -14   55.69    4.10
  -2  -3  14   91.09    4.90
  -2  -3  14   89.69    5.20
   2   3 -14   92.39    2.90
  -3  -3  14   57.89    3.90
  -3  -3  14   47.20    4.60
   3   3 -14   50.29    4.10
   3   3 -14   44.30    2.90
  -4  -3  14   43.90    4.20
  -4  -3  14   36.70    5.00
   4   3 -14   41.30    4.00
   4   3 -14   47.30    3.50
  -5  -3  14   20.20    4.80
   5   3 -14   24.60    4.50
   6   3 -14   12.00    4.30
   6  -1  13    6.00    4.20
  -6   1 -13   -6.70    4.10
   5  -1  13   50.69    4.50
   5  -1  13   39.50    4.30
  -5   1 -13   33.80    5.20
   4  -1  13   16.40    3.40
   4  -1  13   19.90    3.20
   3  -1  13  471.15   11.90
   3  -1  13  450.05   10.90
   3  -1  13  461.15   13.00
   2  -1  13   86.39    3.70
   2  -1  13   79.29    4.70
   2  -1  13   79.19    3.50
  -2   1 -13   75.79    4.50
   1  -1  13    6.20    2.30
   1  -1  13    7.50    1.80
  -1   1 -13    3.60    2.20
  -1   1 -13    6.90    1.60
   0  -1  13   36.00    2.90
   0  -1  13   39.00    3.60
   0   1 -13   37.80    3.20
   0   1 -13   35.90    2.20
   0   1 -13   38.80    2.10
  -1  -1  13   11.90    2.80
  -1  -1  13    9.70    2.60
   1   1 -13    9.30    2.30
   1   1 -13    9.50    1.80
   1   1 -13    8.30    1.70
  -2  -1  13  225.28    7.70
  -2  -1  13  219.28    7.70
   2   1 -13  209.08    7.40
   2   1 -13  216.98    6.50
  -3  -1  13    3.00    2.80
  -3  -1  13    3.50    2.50
   3   1 -13    5.30    2.30
   3   1 -13    5.60    2.20
  -4  -1  13   16.70    4.00
  -4  -1  13   16.30    3.30
   4   1 -13   16.60    3.10
   4   1 -13   18.30    3.20
  -5  -1  13   55.29    4.00
   5   1 -13   63.09    4.80
   5   1 -13   59.09    4.40
  -6  -1  13   41.10    6.40
   6   1 -13   30.50    5.80
   6   1 -13   52.29    4.90
   6   1  12    1.70    4.50
  -6  -1 -12    6.70    4.10
   5   1  12    2.60    3.40
  -5  -1 -12    0.40    3.30
   4   1  12    2.10    2.50
   4   1  12   -1.10    3.00
  -4  -1 -12    1.90    2.80
   3   1  12  502.55   13.40
   3   1  12  484.45   13.30
  -3  -1 -12  506.45   13.80
   2   1  12  137.89    5.60
   2   1  12  143.79    5.90
  -2  -1 -12  142.19    6.10
   1   1  12   22.40    2.70
   1   1  12   24.10    3.10
  -1  -1 -12   20.40    2.90
   0   1  12   10.00    1.60
   0   1  12   10.00    1.80
   0   1  12   14.50    2.70
   0  -1 -12    7.80    2.20
   0  -1 -12   10.20    1.60
   0  -1 -12    7.20    2.00
  -1   1  12    6.40    2.40
  -1   1  12    4.10    2.00
   1  -1 -12    4.10    1.80
   1  -1 -12    6.00    2.00
  -2   1  12  141.69    6.00
  -2   1  12  144.99    5.70
   2  -1 -12  143.29    5.50
   2  -1 -12  143.89    5.60
  -3   1  12   60.09    4.00
  -3   1  12   57.59    4.10
   3  -1 -12   59.89    3.50
   3  -1 -12   62.59    4.10
  -4   1  12   -2.80    2.80
   4  -1 -12    3.00    2.10
  -5   1  12   26.10    4.10
  -5   1  12   20.20    4.40
   5  -1 -12   22.20    3.40
   5  -1 -12   26.60    4.50
  -6   1  12   39.90    6.00
   6  -1 -12   28.40    5.70
   5   3  11    7.60    4.00
  -5  -3 -11   -1.10    3.30
   4   3  11    7.80    2.80
   4   3  11    3.90    3.30
   3   3  11   99.69    5.00
   3   3  11   93.29    5.40
  -3  -3 -11  105.39    5.40
   2   3  11   92.29    4.80
   2   3  11   86.99    5.00
  -2  -3 -11   91.99    6.30
   1   3  11  159.38    6.30
  -1  -3 -11  158.38    6.10
   0   3  11  117.29    5.30
   0   3  11  114.29    3.50
   0  -3 -11  123.29    5.30
   0  -3 -11  126.39    5.50
  -1   3  11   15.40    2.20
  -1   3  11   18.20    3.50
   1  -3 -11   14.90    2.40
   1  -3 -11   14.00    2.60
  -2   3  11  170.18    6.80
  -2   3  11  173.08    6.00
   2  -3 -11  173.98    6.90
   2  -3 -11  168.28    5.90
  -3   3  11   33.30    3.80
  -3   3  11   35.40    3.50
   3  -3 -11   34.50    2.80
   3  -3 -11   38.80    4.10
  -4   3  11   35.20    3.90
  -4   3  11   28.20    3.90
   4  -3 -11   24.00    2.50
   4  -3 -11   24.40    4.20
  -5   3  11    5.00    3.50
  -5   3  11    2.10    3.80
   5  -3 -11    2.60    4.20
   4   5  10   25.70    4.60
  -4  -5 -10   22.70    4.10
   3   5  10  166.88    8.10
   3   5  10  171.58    6.60
  -3  -5 -10  180.98    7.30
   2   5  10   37.60    3.70
   2   5  10   42.40    4.50
  -2  -5 -10   31.10    3.70
   1   5  10    5.20    2.80
  -1  -5 -10   -0.10    2.10
   0   5  10   49.60    4.20
   0  -5 -10   51.99    4.40
   0  -5 -10   44.50    3.40
  -1   5  10   97.39    5.10
  -1   5  10   91.39    3.90
   1  -5 -10   96.59    5.50
   1  -5 -10   93.39    4.40
  -2   5  10   35.90    3.10
  -2   5  10   32.90    3.80
   2  -5 -10   40.60    4.20
   2  -5 -10   33.10    2.90
  -3   5  10   99.69    6.00
  -3   5  10  119.99    6.00
   3  -5 -10  108.09    6.60
  -4   5  10   27.90    4.40
  -4   5  10   29.60    4.30
   4  -5 -10   23.50    4.90
  -5   5  10    8.00    4.20
  -5   5  10   -0.40    4.00
   5  -5 -10    6.30    4.60
   3   7   9    8.50    4.60
  -3  -7  -9    4.80    3.20
   2   7   9    6.20    3.40
   2   7   9    4.30    4.10
  -2  -7  -9    1.80    2.80
   1   7   9   59.39    4.80
  -1  -7  -9   55.09    4.50
   0   7   9   96.69    5.80
   0  -7  -9   79.29    4.60
   0  -7  -9   84.69    5.80
  -1   7   9   -1.00    3.20
   1  -7  -9   -5.20    3.10
  -2   7   9    2.00    3.40
  -2   7   9    0.30    3.50
   2  -7  -9    7.70    3.50
  -3   7   9    7.20    3.80
  -3   7   9    8.30    3.60
   3  -7  -9    4.10    4.20
  -4   7   9   31.70    5.60
  -2  -9  -8    9.00    3.90
   2  -8  17   16.10    4.90
  -2   8 -17   11.20    4.70
  -2   8 -17   13.80    4.20
   1  -8  17   38.00    5.70
  -1   8 -17   35.10    5.00
   0  -8  17   -1.50    4.30
   0  -8  17   -4.00    4.30
   0   8 -17    5.40    3.90
  -1  -8  17   -5.10    4.60
  -1  -8  17   -4.80    4.60
   1   8 -17    9.90    4.00
  -2  -8  17   20.50    4.80
   2   8 -17   36.70    6.70
   4  -6  16    0.20    4.40
   4  -6  16    3.90    4.00
  -4   6 -16    7.10    4.00
  -4   6 -16    8.80    3.80
   3  -6  16    0.10    3.50
   3  -6  16   -6.60    3.70
  -3   6 -16    0.50    3.30
  -3   6 -16   -0.40    3.30
   2  -6  16   21.40    4.20
   2  -6  16   21.80    3.90
  -2   6 -16   18.20    3.60
  -2   6 -16   21.80    3.60
   1  -6  16   73.59    5.30
   1  -6  16   82.39    5.50
  -1   6 -16   81.89    5.10
   0  -6  16   24.00    4.30
   0  -6  16   24.50    4.50
   0   6 -16   20.90    3.60
  -1  -6  16   -0.50    3.20
   1   6 -16    4.60    3.10
  -2  -6  16   50.49    4.50
  -2  -6  16   50.59    5.10
   2   6 -16   51.79    4.80
  -3  -6  16   35.00    4.70
  -3  -6  16   27.90    5.10
   3   6 -16   25.60    4.40
  -4  -6  16   -0.30    5.40
   4   6 -16    1.40    4.30
   5  -4  15   31.80    5.30
  -5   4 -15   25.40    4.30
   4  -4  15   33.20    3.80
   4  -4  15   28.50    4.80
  -4   4 -15   31.20    4.30
  -4   4 -15   31.20    3.80
   3  -4  15    4.40    2.70
   3  -4  15    7.70    3.40
  -3   4 -15    7.40    2.90
  -3   4 -15   10.60    2.80
   2  -4  15   20.70    3.00
   2  -4  15   23.40    3.90
  -2   4 -15   14.30    3.10
   1  -4  15   83.89    4.60
   1  -4  15   79.09    5.20
  -1   4 -15   79.79    5.30
   0  -4  15   88.59    5.20
   0  -4  15   91.89    5.30
   0   4 -15   91.69    5.20
  -1  -4  15   24.90    3.80
  -1  -4  15   33.10    3.70
   1   4 -15   28.30    3.50
  -2  -4  15   16.10    3.20
  -2  -4  15   17.50    3.80
   2   4 -15   23.30    3.50
  -3  -4  15   61.59    4.40
  -3  -4  15   58.79    5.10
   3   4 -15   58.29    4.60
  -4  -4  15   42.90    5.10
  -4  -4  15   34.20    5.00
   4   4 -15   45.50    4.60
  -5  -4  15   16.20    5.00
   5   4 -15   19.50    4.40
  -6   2 -14   18.30    4.90
   5  -2  14   34.10    4.50
   5  -2  14   34.20    4.40
  -5   2 -14   35.30    5.20
   4  -2  14   -2.60    3.00
   4  -2  14    1.70    2.70
  -4   2 -14    3.70    2.90
   3  -2  14   46.20    4.30
   3  -2  14   45.90    3.30
   3  -2  14   46.10    3.00
  -3   2 -14   47.10    4.30
   2  -2  14   10.40    3.60
   2  -2  14    6.30    2.00
   2  -2  14   12.40    2.10
  -2   2 -14    8.60    2.60
   1  -2  14   12.60    3.00
   1  -2  14   12.20    2.20
  -1   2 -14   10.80    2.70
  -1   2 -14   10.80    1.50
   0  -2  14  207.08    7.70
   0  -2  14  215.18    6.90
   0   2 -14  206.18    5.20
   0   2 -14  204.68    7.40
  -1  -2  14  123.69    5.40
  -1  -2  14  120.49    5.60
   1   2 -14  117.59    3.60
   1   2 -14  117.29    5.50
  -2  -2  14   18.00    3.50
  -2  -2  14   17.90    3.10
   2   2 -14   12.20    2.20
   2   2 -14   17.00    2.90
  -3  -2  14    1.90    2.90
  -3  -2  14    4.40    2.70
   3   2 -14   -2.20    2.10
   3   2 -14    1.60    2.40
  -4  -2  14   67.49    4.70
  -4  -2  14   64.69    5.50
   4   2 -14   68.59    4.50
   4   2 -14   68.99    4.30
  -5  -2  14   63.19    6.00
   5   2 -14   62.09    4.70
   5   2 -14   56.19    4.70
   6   2 -14   -2.10    4.00
   6   0  13   19.90    5.00
  -6   0 -13    7.90    4.90
   5   0  13    1.30    3.50
   5   0  13   -1.60    3.20
  -5   0 -13    4.00    3.50
   4   0  13  125.69    6.60
   4   0  13  133.89    6.00
  -4   0 -13  133.49    6.60
   3   0  13   83.89    5.00
   3   0  13   84.79    4.50
  -3   0 -13   89.59    5.10
   2   0  13   -3.40    2.00
   2   0  13   -1.30    2.40
  -2   0 -13   -0.60    2.20
   1   0  13    3.90    1.60
   1   0  13    2.30    2.50
  -1   0 -13    1.60    2.20
   0   0  13   14.90    3.20
   0   0  13   15.40    2.20
   0   0 -13   12.20    2.00
   0   0 -13   15.40    2.80
  -1   0  13  204.68    6.60
  -1   0  13  197.58    7.40
   1   0 -13  200.28    7.10
   1   0 -13  200.28    6.30
  -2   0  13   88.09    4.90
  -2   0  13   83.19    4.60
   2   0 -13   83.29    4.00
   2   0 -13   84.79    4.30
  -3   0  13   -3.70    2.60
   3   0 -13    1.10    2.10
   3   0 -13    0.60    2.30
  -4   0  13   57.89    5.00
   4   0 -13   60.69    4.40
   4   0 -13   61.39    4.00
  -5   0  13   64.09    5.80
  -5   0  13   68.49    4.70
   5   0 -13   64.89    5.40
   5   0 -13   71.09    4.60
   6   0 -13   15.30    4.60
   5   2  12    0.20    3.60
  -5  -2 -12    2.20    3.50
   4   2  12   19.10    3.90
  -4  -2 -12   22.70    3.80
   3   2  12   48.20    4.20
   3   2  12   54.89    4.00
  -3  -2 -12   56.59    4.60
   2   2  12   88.29    4.90
   2   2  12   85.09    4.80
   1   2  12   52.99    4.10
  -1  -2 -12   50.99    3.80
   0   2  12   34.80    3.60
   0  -2 -12   36.30    3.20
   0  -2 -12   40.60    2.20
   0  -2 -12   32.80    3.30
  -1   2  12  117.29    4.50
  -1   2  12  125.39    5.70
   1  -2 -12  118.69    5.10
   1  -2 -12  120.69    5.00
  -2   2  12   30.60    3.00
   2  -2 -12   30.80    3.30
   2  -2 -12   36.30    3.00
  -3   2  12   33.40    3.50
  -3   2  12   31.80    3.60
   3  -2 -12   32.70    3.80
   3  -2 -12   29.30    2.90
  -4   2  12    6.40    3.20
  -4   2  12    5.10    3.10
   4  -2 -12    6.40    3.20
  -5   2  12   32.80    4.50
  -5   2  12   26.40    4.60
   5  -2 -12   32.90    5.20
   6  -2 -12   24.80    5.20
   5   4  11    9.80    4.50
   4   4  11   37.90    4.90
  -4  -4 -11   41.40    4.40
   3   4  11   20.30    3.50
   3   4  11   21.10    4.20
  -3  -4 -11   17.80    3.30
   2   4  11   38.00    4.30
   2   4  11   45.60    3.90
  -2  -4 -11   44.80    3.90
   1   4  11  131.89    6.00
  -1  -4 -11  125.99    5.60
   0   4  11   18.00    3.30
   0  -4 -11   19.90    3.50
   0  -4 -11   16.80    2.70
  -1   4  11   52.49    4.10
  -1   4  11   49.30    2.90
   1  -4 -11   50.59    3.30
  -2   4  11   99.09    5.40
  -2   4  11   93.99    4.40
   2  -4 -11   93.89    4.40
   2  -4 -11   99.59    5.80
  -3   4  11   76.39    5.00
  -3   4  11   73.79    4.90
   3  -4 -11   69.39    3.60
   3  -4 -11   79.99    5.40
  -4   4  11    2.20    3.40
  -4   4  11   -0.80    3.40
   4  -4 -11    3.10    3.50
  -5   4  11   23.10    4.60
  -5   4  11   14.70    4.20
   5  -4 -11   11.50    4.80
  -4  -6 -10   26.70    4.40
   3   6  10    6.70    4.20
   3   6  10   11.20    3.30
  -3  -6 -10    4.10    3.10
   2   6  10   11.60    4.20
   2   6  10    8.60    3.00
  -2  -6 -10    8.00    2.80
   1   6  10   49.40    4.30
  -1  -6 -10   51.69    3.80
   0   6  10   98.99    5.50
   0  -6 -10   98.99    5.00
   0  -6 -10   96.29    6.30
  -1   6  10    4.00    3.00
   1  -6 -10    5.90    2.30
   1  -6 -10    3.20    3.00
  -2   6  10   25.40    3.30
  -2   6  10   31.60    4.50
  -3   6  10   56.69    4.60
  -3   6  10   54.49    5.00
   3  -6 -10   51.49    5.80
  -4   6  10   22.80    4.50
  -4   6  10   25.80    4.60
   4  -6 -10   16.50    4.60
   2   8   9   28.00    4.90
  -2  -8  -9   38.70    4.70
   1   8   9   56.09    5.20
  -1  -8  -9   64.79    4.90
  -1  -8  -9   60.39    5.40
   0   8   9   12.40    4.00
   0  -8  -9   15.80    4.40
   1  -8  -9    9.40    4.00
   4  -7  17    7.50    5.10
  -4   7 -17   14.00    5.00
   3  -7  17   31.80    6.10
  -3   7 -17   46.70    5.30
  -3   7 -17   39.90    5.20
   2  -7  17   54.29    5.60
   2  -7  17   42.20    5.20
  -2   7 -17   34.60    5.00
   1  -7  17    1.00    3.70
   1  -7  17   -4.40    3.90
  -1   7 -17   -1.60    3.40
   0  -7  17    7.70    4.00
   0   7 -17    3.40    3.40
  -1  -7  17   35.60    5.10
  -1  -7  17   34.90    4.80
   1   7 -17   33.80    4.80
  -2  -7  17   31.20    5.30
  -2  -7  17   29.30    5.00
   2   7 -17   28.60    4.70
  -3  -7  17   56.99    5.60
   4  -5  16   -0.20    4.20
   4  -5  16    5.90    3.70
  -4   5 -16   12.90    3.80
  -4   5 -16    2.40    3.50
   3  -5  16    4.80    3.40
   3  -5  16    5.60    3.80
  -3   5 -16   13.70    3.60
  -3   5 -16   11.00    3.30
   2  -5  16   38.90    4.20
   2  -5  16   38.70    4.70
  -2   5 -16   46.90    4.30
   1  -5  16   56.19    4.70
   1  -5  16   66.79    4.80
  -1   5 -16   60.39    4.60
   0  -5  16   20.10    3.90
   0  -5  16   18.50    3.70
   0   5 -16   29.40    4.00
  -1  -5  16   52.99    4.40
  -1  -5  16   51.49    4.60
   1   5 -16   42.90    4.20
  -2  -5  16   57.29    4.50
  -2  -5  16   51.79    4.70
   2   5 -16   53.59    4.70
  -3  -5  16   30.90    5.00
  -3  -5  16   40.00    4.50
   3   5 -16   39.00    4.50
  -4  -5  16    2.80    4.20
   4   5 -16   14.60    3.90
  -6   3 -15    9.00    4.70
   5  -3  15    5.70    4.40
  -5   3 -15    5.60    4.00
   4  -3  15   32.80    4.70
  -4   3 -15   39.50    4.40
   3  -3  15   -3.20    2.40
   3  -3  15   -0.20    3.00
  -3   3 -15   -0.20    2.60
   2  -3  15   28.70    3.90
   2  -3  15   37.00    3.10
  -2   3 -15   26.70    3.70
   1  -3  15  122.09    5.30
   1  -3  15  122.89    6.00
  -1   3 -15  113.59    7.10
   0  -3  15   69.29    4.50
   0  -3  15   63.59    4.20
  -1  -3  15    2.60    2.60
  -1  -3  15    1.00    2.70
   1   3 -15    0.40    2.50
  -2  -3  15   27.80    3.50
   2   3 -15   26.80    3.50
  -3  -3  15  160.88    6.60
  -3  -3  15  162.98    7.20
   3   3 -15  147.49    6.50
  -4  -3  15   33.30    4.50
  -4  -3  15   31.20    5.00
   4   3 -15   31.60    4.20
  -5  -3  15    4.80    4.60
   5   3 -15   10.50    3.90
   6  -1  14    0.10    4.80
  -6   1 -14   -3.10    4.40
   5  -1  14    0.70    3.50
   5  -1  14   -5.90    3.40
  -5   1 -14    1.60    3.80
   4  -1  14   53.09    4.50
   4  -1  14   49.00    4.10
  -4   1 -14   53.59    4.90
   3  -1  14    3.80    2.30
   3  -1  14    4.20    2.90
  -3   1 -14    1.60    2.80
   2  -1  14    1.50    2.00
   2  -1  14   -0.60    1.80
   2  -1  14   -0.70    2.80
   1  -1  14  124.79    4.50
   1  -1  14  117.59    6.30
  -1   1 -14  118.39    5.60
   0  -1  14   56.89    3.60
   0  -1  14   67.79    4.40
   0   1 -14   70.39    4.20
   0   1 -14   59.29    2.80
   0   1 -14   71.19    3.20
  -1  -1  14   16.60    2.80
  -1  -1  14   18.50    3.40
   1   1 -14   17.40    2.80
   1   1 -14   18.10    2.20
  -2  -1  14   17.00    3.30
  -2  -1  14   13.20    3.20
   2   1 -14   15.50    2.40
  -3  -1  14  107.59    6.60
   3   1 -14  121.29    5.10
  -4  -1  14   79.29    4.90
  -4  -1  14   80.59    5.80
   4   1 -14   79.69    4.90
   4   1 -14   80.39    4.70
  -5  -1  14   43.00    4.90
  -5  -1  14   33.10    5.40
   5   1 -14   39.30    4.90
   5   1 -14   43.70    4.50
   6   1  13    3.80    4.90
   5   1  13   -3.10    3.60
  -5  -1 -13   -4.20    3.60
   4   1  13   32.90    3.90
   4   1  13   48.70    4.10
  -4  -1 -13   44.50    4.50
   3   1  13   15.00    2.90
  -3  -1 -13   12.80    3.10
   2   1  13   15.40    2.80
   2   1  13   16.80    3.10
  -2  -1 -13   14.90    3.30
   1   1  13   26.50    3.50
  -1  -1 -13   22.80    3.20
   0   1  13  152.98    5.10
   0   1  13  161.38    6.50
   0   1  13  155.28    5.00
   0  -1 -13  159.48    4.60
   0  -1 -13  165.58    5.90
   0  -1 -13  162.78    6.20
  -1   1  13   89.79    4.20
  -1   1  13   93.09    5.20
   1  -1 -13  100.99    4.50
   1  -1 -13   99.19    4.70
  -2   1  13    5.30    2.40
   2  -1 -13    6.10    2.40
   2  -1 -13    9.10    2.20
  -3   1  13   25.90    3.50
  -3   1  13   21.80    3.80
   3  -1 -13   26.70    3.00
   3  -1 -13   29.10    3.50
  -4   1  13   84.19    5.00
  -4   1  13   81.69    5.50
   4  -1 -13   84.09    4.60
   4  -1 -13   79.29    5.10
  -5   1  13   41.90    5.40
  -5   1  13   55.09    4.90
   5  -1 -13   56.59    4.10
   5  -1 -13   49.90    5.60
   6  -1 -13   11.50    5.00
   5   3  12   -2.60    4.40
  -5  -3 -12    6.80    4.00
   4   3  12    3.70    3.20
   4   3  12    8.90    3.60
  -4  -3 -12    9.90    3.40
   3   3  12   38.20    4.00
   3   3  12   40.70    4.40
  -3  -3 -12   40.00    4.20
   2   3  12   78.19    4.80
  -2  -3 -12   66.99    4.60
   1   3  12   49.30    4.10
  -1  -3 -12   35.00    3.50
   0   3  12    7.50    2.70
   0  -3 -12    9.30    2.70
   0  -3 -12    6.00    2.30
  -1   3  12   82.69    5.00
  -1   3  12   75.89    3.60
   1  -3 -12   79.49    4.50
   1  -3 -12   75.39    4.10
  -2   3  12   99.49    4.60
  -2   3  12   98.59    5.40
   2  -3 -12   98.99    5.40
   2  -3 -12   94.39    4.40
  -3   3  12    4.50    2.70
  -3   3  12    2.10    2.90
   3  -3 -12    2.00    2.20
   3  -3 -12    2.70    2.70
  -4   3  12   20.00    3.70
  -4   3  12   30.50    4.10
   4  -3 -12   29.00    4.50
  -5   3  12   56.79    5.50
  -5   3  12   58.79    5.70
   5  -3 -12   50.99    5.90
   4   5  11    8.40    4.30
  -4  -5 -11    7.20    3.60
   3   5  11    0.40    3.00
   3   5  11   10.30    4.10
  -3  -5 -11    1.10    3.00
   2   5  11   46.50    4.10
   2   5  11   49.90    5.00
  -2  -5 -11   46.70    4.20
   1   5  11   50.79    4.30
  -1  -5 -11   43.80    4.00
   0   5  11    3.80    2.80
   0  -5 -11    4.80    2.40
   0  -5 -11    7.10    3.20
  -1   5  11   83.79    3.90
  -1   5  11   86.99    5.20
   1  -5 -11   88.59    5.30
   1  -5 -11   85.49    4.40
  -2   5  11  100.79    5.50
  -2   5  11  102.89    4.80
   2  -5 -11  105.49    6.20
   2  -5 -11   91.39    4.50
  -3   5  11   13.60    3.60
  -3   5  11   14.10    3.20
   3  -5 -11   11.70    4.00
  -4   5  11    6.70    4.00
  -4   5  11    7.50    3.70
   4  -5 -11   13.30    4.10
  -5   5  11   25.30    4.80
  -5   5  11   18.60    5.00
  -3  -7 -10    0.30    3.60
   2   7  10   32.90    4.60
  -2  -7 -10   27.10    4.20
   1   7  10   23.50    3.90
  -1  -7 -10    6.70    3.30
   0   7  10   12.00    3.70
   0  -7 -10    3.60    2.90
   0  -7 -10    5.20    3.60
  -1   7  10    3.20    3.90
   1  -7 -10   11.80    3.60
  -2   7  10   34.40    4.70
   2  -7 -10   35.00    5.10
  -3   7  10   39.60    5.60
   3  -7 -10   36.90    5.60
  -4   7  10   -1.40    4.60
  -2   8 -18   -6.70    4.30
   1  -8  18    1.70    4.70
  -1   8 -18    1.50    4.20
   0  -8  18   16.60    4.80
   0   8 -18   24.00    4.60
   1   8 -18   32.10    5.70
  -2  -8  18   26.80    5.80
   4  -6  17   51.29    5.40
  -4   6 -17   56.19    5.50
  -4   6 -17   57.69    5.30
   3  -6  17   20.70    4.60
   3  -6  17   12.20    4.50
  -3   6 -17   19.70    3.90
  -3   6 -17   21.70    4.50
   2  -6  17   11.50    4.10
   2  -6  17    9.40    4.00
  -2   6 -17   15.80    3.80
   1  -6  17   21.70    4.20
  -1   6 -17   22.50    4.20
   0  -6  17   11.60    3.80
   0  -6  17   10.90    4.00
   0   6 -17    7.10    3.40
  -1  -6  17   58.79    5.40
  -1  -6  17   52.29    5.10
   1   6 -17   53.39    4.90
  -2  -6  17   60.39    5.50
  -2  -6  17   58.29    5.00
   2   6 -17   58.29    5.10
  -3  -6  17    1.60    4.70
  -3  -6  17    5.10    4.00
   3   6 -17   -3.60    3.70
   5  -4  16   11.50    5.10
  -5   4 -16   15.60    4.40
   4  -4  16   -6.20    3.90
  -4   4 -16    1.30    3.70
   3  -4  16   16.50    3.50
   3  -4  16   14.60    4.00
  -3   4 -16   10.10    3.30
  -3   4 -16   21.70    4.30
   2  -4  16   85.79    5.80
   2  -4  16  101.09    5.10
  -2   4 -16   90.99    5.50
   1  -4  16   51.09    4.50
   1  -4  16   56.19    4.20
  -1   4 -16   55.59    4.50
   0  -4  16    4.40    3.00
   0  -4  16    4.80    2.70
   0   4 -16    5.70    2.80
  -1  -4  16   46.70    4.40
  -1  -4  16   50.19    4.30
   1   4 -16   46.20    4.20
  -2  -4  16   27.10    4.30
  -2  -4  16   33.30    3.90
   2   4 -16   36.40    4.10
  -3  -4  16   58.59    5.20
  -3  -4  16   56.49    4.70
   3   4 -16   59.19    4.60
  -4  -4  16   25.10    4.70
  -4  -4  16   28.10    4.60
   4   4 -16   23.00    4.10
   5  -2  15   49.50    5.60
  -5   2 -15   44.40    5.50
   4  -2  15    4.40    3.20
   4  -2  15    2.30    4.00
   3  -2  15    1.00    3.00
   3  -2  15    6.20    2.20
  -3   2 -15    7.40    2.90
   2  -2  15   62.29    3.20
   2  -2  15   60.99    4.60
   2  -2  15   57.59    3.60
  -2   2 -15   59.09    4.40
   1  -2  15   46.90    3.30
   1  -2  15   43.50    4.20
  -1   2 -15   39.80    4.00
  -1   2 -15   46.20    2.30
   0  -2  15   95.39    5.30
   0  -2  15   89.99    4.40
   0   2 -15   85.09    2.90
  -1  -2  15    5.70    2.90
  -1  -2  15    8.00    2.80
   1   2 -15    4.70    3.00
  -2  -2  15  195.88    7.60
  -2  -2  15  199.18    7.50
   2   2 -15  191.78    7.50
   2   2 -15  188.78    5.80
  -3  -2  15   38.40    4.50
   3   2 -15   41.90    3.10
   3   2 -15   43.00    4.00
  -4  -2  15   28.10    4.40
  -4  -2  15   28.60    4.80
   4   2 -15   31.60    4.50
   4   2 -15   25.50    4.00
  -5  -2  15    4.60    4.70
   5   2 -15    0.50    3.50
   6   2 -15    5.20    4.50
   6   0  14    7.60    5.40
   5   0  14   18.90    4.10
  -5   0 -14   17.50    4.10
   4   0  14   19.80    4.50
   4   0  14   19.10    3.80
  -4   0 -14   22.40    4.10
   3   0  14   12.30    2.90
   3   0  14   14.60    3.20
  -3   0 -14   12.00    3.00
   2   0  14   43.00    3.30
   2   0  14   38.20    3.80
  -2   0 -14   36.00    3.90
   1   0  14   94.69    3.80
   1   0  14   98.39    5.90
  -1   0 -14   94.09    5.00
   0   0  14   48.30    3.10
   0   0 -14   52.19    2.90
   0   0 -14   46.80    3.70
  -1   0  14   20.90    2.90
  -1   0  14   19.00    4.00
   1   0 -14   18.60    2.40
   1   0 -14   20.40    3.10
  -2   0  14    3.40    2.80
  -2   0  14   -1.80    2.30
   2   0 -14   -0.20    2.20
  -3   0  14   86.59    6.70
  -3   0  14   90.09    5.40
   3   0 -14  103.89    5.00
   3   0 -14   93.99    5.50
  -4   0  14  148.39    6.50
  -4   0  14  141.59    7.40
   4   0 -14  155.48    6.20
  -5   0  14   20.80    4.30
  -5   0  14   10.40    4.30
   5   0 -14   12.70    4.00
   5   0 -14    4.80    3.30
   6   0 -14   21.90    5.30
   5   2  13   13.00    4.60
  -5  -2 -13    2.70    3.90
   4   2  13   53.59    4.50
   4   2  13   46.90    4.60
  -4  -2 -13   37.40    4.50
   3   2  13   31.20    3.80
   3   2  13   30.40    3.90
  -3  -2 -13   21.20    3.90
   2   2  13    9.50    2.90
   2   2  13    7.90    2.80
  -2  -2 -13    7.10    2.80
   1   2  13   47.40    4.00
  -1  -2 -13   44.10    4.40
   0   2  13  119.49    4.10
   0   2  13  118.49    5.90
   0  -2 -13  110.69    5.30
   0  -2 -13  118.39    5.40
  -1   2  13   38.90    4.00
  -1   2  13   42.30    3.00
   1  -2 -13   45.90    3.50
   1  -2 -13   44.60    3.50
  -2   2  13    3.80    2.20
  -2   2  13    0.80    2.70
   2  -2 -13    5.70    2.00
   2  -2 -13    1.60    2.30
  -3   2  13   40.60    4.30
  -3   2  13   40.70    4.20
   3  -2 -13   37.60    3.50
   3  -2 -13   37.40    4.60
  -4   2  13   50.39    4.60
  -4   2  13   49.00    4.80
   4  -2 -13   61.59    4.00
   4  -2 -13   65.39    5.00
  -5   2  13   40.70    5.00
  -5   2  13   32.20    5.30
   5  -2 -13   26.20    5.40
   4   4  12   19.80    4.50
  -4  -4 -12   22.80    4.20
   3   4  12   33.80    4.10
   3   4  12   26.40    4.70
  -3  -4 -12   22.30    3.90
   2   4  12   15.10    3.80
   2   4  12   17.40    3.60
   1   4  12    3.20    3.00
  -1  -4 -12    2.30    2.50
   0   4  12   97.39    5.50
   0  -4 -12   96.39    5.60
   0  -4 -12   98.19    5.00
  -1   4  12  106.79    5.50
  -1   4  12   93.69    3.90
   1  -4 -12   96.19    5.50
   1  -4 -12  102.99    4.70
  -2   4  12   28.30    3.10
  -2   4  12   20.40    3.80
   2  -4 -12   22.30    4.00
   2  -4 -12   19.60    3.00
  -3   4  12    4.70    3.10
  -3   4  12    7.30    3.50
   3  -4 -12    1.50    3.40
   3  -4 -12    0.00    2.70
  -4   4  12   62.19    5.40
  -4   4  12   42.50    5.10
   4  -4 -12   53.89    5.70
  -5   4  12   34.20    6.20
  -5   4  12   32.60    5.50
   5  -4 -12   32.20    6.30
   3   6  11   35.00    5.80
   3   6  11   38.10    4.50
  -3  -6 -11   25.10    4.50
   2   6  11   32.50    4.20
  -2  -6 -11   31.40    4.20
   1   6  11    4.60    3.20
   0   6  11    9.20    3.40
   0  -6 -11    6.10    3.50
   0  -6 -11    5.50    2.80
  -1   6  11   75.79    5.30
   1  -6 -11   63.59    5.30
   1  -6 -11   64.19    4.10
  -2   6  11   31.00    4.70
   2  -6 -11   44.20    5.20
  -3   6  11    5.90    3.50
  -3   6  11    9.40    4.20
   3  -6 -11    4.60    4.40
  -4   6  11   18.60    4.50
   2   8  10   21.00    4.60
  -2  -8 -10   14.10    4.50
  -1  -8 -10   25.80    4.00
   3  -7  18   14.60    5.10
  -3   7 -18    2.80    4.80
  -3   7 -18   22.40    4.50
   2  -7  18   10.60    4.20
  -2   7 -18   -6.30    4.00
   1  -7  18    2.70    4.20
   1  -7  18   -9.10    5.10
   0  -7  18   25.80    5.20
   0  -7  18   27.80    5.60
  -1  -7  18   50.99    5.90
  -1  -7  18   35.30    5.60
   1   7 -18   42.70    5.40
  -2  -7  18    8.70    4.50
  -2  -7  18    4.90    4.70
   2   7 -18   11.50    5.00
   4  -5  17   -1.40    5.50
  -4   5 -17    6.10    4.10
   3  -5  17   60.49    5.60
   3  -5  17   62.29    5.40
  -3   5 -17   74.19    5.20
   2  -5  17   30.10    4.30
   2  -5  17   21.40    4.50
  -2   5 -17   26.30    4.40
   1  -5  17    0.10    3.30
   1  -5  17   -3.30    3.20
  -1   5 -17    2.10    3.00
   0  -5  17   28.50    4.40
   0  -5  17   36.10    4.50
  -1  -5  17   32.80    4.30
  -1  -5  17   25.40    4.30
   1   5 -17   22.20    3.60
  -2  -5  17   41.40    4.60
  -2  -5  17   49.00    5.20
   2   5 -17   35.90    4.60
  -3  -5  17    1.20    3.50
   3   5 -17    0.90    3.50
   4   5 -17   16.80    6.00
   5  -3  16    1.50    4.50
   4  -3  16   -5.80    3.60
  -4   3 -16   -3.60    3.30
   3  -3  16   53.79    4.90
  -3   3 -16   67.09    5.20
   2  -3  16   58.99    5.00
   2  -3  16   66.79    4.30
  -2   3 -16   66.49    4.80
   1  -3  16   68.99    4.80
   1  -3  16   65.19    4.20
  -1   3 -16   64.79    4.70
   0  -3  16   16.50    3.50
   0   3 -16   18.70    3.40
  -1  -3  16   33.10    4.00
  -1  -3  16   31.30    3.80
   1   3 -16   26.30    4.00
  -2  -3  16  163.58    6.90
  -2  -3  16  157.78    7.20
   2   3 -16  160.48    6.90
  -3  -3  16   17.10    3.60
  -3  -3  16    7.30    3.70
   3   3 -16   12.20    3.50
  -4  -3  16   11.40    4.20
  -4  -3  16    5.70    3.90
   4   3 -16    5.30    3.40
   5   3 -16    6.30    4.20
   5  -1  15    7.80    4.00
   5  -1  15   -0.80    3.90
  -5   1 -15    6.20    4.00
   4  -1  15   -0.60    3.00
   4  -1  15    6.40    3.30
  -4   1 -15    3.80    3.40
   3  -1  15   36.10    3.50
   3  -1  15   37.50    4.10
  -3   1 -15   34.10    4.30
   2  -1  15   60.39    4.40
   2  -1  15   61.69    3.40
   2  -1  15   54.59    3.30
  -2   1 -15   54.79    4.80
   1  -1  15  207.18    6.40
   1  -1  15  208.08    7.80
  -1   1 -15  201.38    6.20
  -1   1 -15  208.18    7.80
   0  -1  15   -2.80    2.10
   0  -1  15    1.80    2.60
   0   1 -15    4.30    1.70
  -1  -1  15   15.40    3.10
  -1  -1  15   12.90    2.80
   1   1 -15   15.00    2.40
  -2  -1  15   59.29    4.50
  -2  -1  15   57.39    4.30
   2   1 -15   56.39    3.40
   2   1 -15   54.19    4.20
  -3  -1  15   64.79    5.10
  -3  -1  15   71.59    5.00
   3   1 -15   65.09    4.20
   3   1 -15   67.99    4.40
  -4  -1  15   13.90    3.60
  -4  -1  15   15.10    4.10
   4   1 -15   13.70    3.10
   4   1 -15   15.80    3.20
  -5  -1  15    7.00    4.70
   5   1 -15   15.50    3.80
   5   1 -15    6.40    3.90
   6   1 -15   35.00    6.10
   5   1  14   14.30    4.70
  -5  -1 -14   15.40    4.40
   4   1  14   23.30    3.90
  -4  -1 -14   17.10    3.90
   3   1  14   30.10    3.70
   3   1  14   33.20    3.90
  -3  -1 -14   23.70    3.80
   2   1  14   83.09    5.00
   2   1  14   81.79    4.60
  -2  -1 -14   80.69    5.00
   1   1  14   43.90    4.20
  -1  -1 -14   44.50    3.80
   0   1  14   84.09    4.90
   0   1  14   78.49    3.60
   0  -1 -14   79.89    4.70
   0  -1 -14   83.49    4.20
  -1   1  14   80.79    4.10
  -1   1  14   80.89    5.00
   1  -1 -14   88.69    4.30
   1  -1 -14   88.49    4.90
  -2   1  14  121.39    5.50
  -2   1  14  115.89    5.90
   2  -1 -14  118.29    5.30
   2  -1 -14  121.79    5.50
  -3   1  14  113.89    5.90
  -3   1  14  106.99    6.20
   3  -1 -14  105.39    5.30
   3  -1 -14  109.39    5.10
  -4   1  14   48.10    4.30
  -4   1  14   44.40    4.90
   4  -1 -14   44.00    3.90
   4  -1 -14   43.30    4.50
  -5   1  14   11.40    4.10
  -5   1  14    8.30    4.40
   5  -1 -14    0.70    4.30
   5  -1 -14   15.30    3.60
   6  -1 -14   -5.60    5.20
   5   3  13   15.20    5.20
   4   3  13   12.70    4.30
   4   3  13   11.00    3.60
  -4  -3 -13    7.60    3.70
   3   3  13    5.80    3.80
   3   3  13   10.00    3.40
  -3  -3 -13    0.90    2.90
   2   3  13    1.10    3.10
   2   3  13    3.70    3.00
  -2  -3 -13   -2.00    2.50
   1   3  13  214.38    8.00
  -1  -3 -13  212.58    7.90
   0   3  13   66.49    4.50
   0  -3 -13   62.79    4.20
   0  -3 -13   55.99    4.60
  -1   3  13   23.80    3.60
  -1   3  13   21.10    2.60
   1  -3 -13   24.60    3.00
   1  -3 -13   20.40    3.20
  -2   3  13    9.80    2.50
  -2   3  13    4.40    3.00
   2  -3 -13    5.20    2.90
   2  -3 -13    6.90    2.30
  -3   3  13   22.80    3.60
  -3   3  13   19.00    3.90
   3  -3 -13   16.10    2.80
   3  -3 -13   22.50    3.90
  -4   3  13   46.20    5.10
  -4   3  13   45.00    4.70
   4  -3 -13   37.90    5.00
  -5   3  13    6.70    4.50
   5  -3 -13   13.20    4.80
   4   5  12   18.50    5.00
   3   5  12   16.20    4.20
   3   5  12   11.60    3.70
  -3  -5 -12    8.50    3.40
   2   5  12   -2.80    3.50
   2   5  12    6.30    3.10
  -2  -5 -12   -4.50    2.90
   1   5  12   22.40    3.90
  -1  -5 -12   16.40    3.50
   0   5  12   75.89    5.00
   0  -5 -12   64.19    5.40
   0  -5 -12   78.49    4.60
  -1   5  12  140.29    6.80
   1  -5 -12  134.39    5.50
   1  -5 -12  142.59    7.10
  -2   5  12   10.80    3.50
  -2   5  12   11.80    2.70
   2  -5 -12   18.40    4.30
   2  -5 -12    9.20    2.50
  -3   5  12   26.40    4.30
  -3   5  12   37.50    5.10
   3  -5 -12   27.20    5.20
  -4   5  12   53.59    5.50
  -4   5  12   45.90    5.70
   4  -5 -12   49.20    5.80
   1   7  11    1.80    3.90
  -1  -7 -11    2.60    3.90
  -1  -7 -11   -3.70    3.50
   0  -7 -11   30.30    3.80
   0  -7 -11   33.90    5.60
  -1   7  11   54.89    5.50
   1  -7 -11   58.19    5.60
   2  -7 -11   38.00    6.30
  -2   8 -19   -1.70    5.00
  -1   8 -19   23.20    5.40
  -4   6 -18   33.90    5.60
   3  -6  18    7.10    4.50
  -3   6 -18   11.50    4.20
   2  -6  18    5.10    4.10
   2  -6  18    7.40    4.20
  -2   6 -18   -0.90    3.80
   1  -6  18   18.10    4.50
   1  -6  18   15.20    4.20
  -1   6 -18   26.00    4.40
   0  -6  18   51.39    5.40
   0   6 -18   46.50    5.10
  -1  -6  18   26.40    4.80
  -1  -6  18   24.50    4.70
   1   6 -18   35.90    4.70
  -2  -6  18    2.70    4.20
  -2  -6  18    9.50    4.00
   2   6 -18    2.10    3.70
  -3  -6  18   26.20    5.40
  -5   4 -17    5.40    4.80
   4  -4  17    9.90    4.50
  -4   4 -17    9.60    4.20
   3  -4  17   37.70    5.20
  -3   4 -17   48.70    5.30
   2  -4  17    3.50    3.10
   2  -4  17    2.80    3.60
  -2   4 -17    0.70    2.90
   1  -4  17    2.00    3.20
   1  -4  17   -0.40    3.00
  -1   4 -17    2.90    2.90
   0  -4  17   49.80    4.60
   0  -4  17   48.90    4.50
   0   4 -17   41.10    4.30
  -1  -4  17  116.19    6.10
  -1  -4  17  118.29    6.20
   1   4 -17  112.39    6.10
  -2  -4  17    0.60    3.10
   2   4 -17    1.00    2.90
  -3  -4  17   -0.40    3.50
  -3  -4  17    8.20    4.00
   3   4 -17    5.00    3.50
  -4  -4  17   15.20    4.70
  -4  -4  17   17.70    5.00
   4   4 -17    6.80    3.80
   5  -2  16    3.40    4.50
   4  -2  16    0.60    3.90
  -4   2 -16   -0.90    3.50
   3  -2  16   45.70    5.00
  -3   2 -16   47.80    4.70
   2  -2  16   61.79    3.80
   2  -2  16   71.59    5.20
  -2   2 -16   75.99    5.10
   1  -2  16    5.90    3.00
   1  -2  16    1.60    2.30
  -1   2 -16    9.20    2.80
   0  -2  16   41.10    3.70
   0  -2  16   36.30    3.80
   0   2 -16   44.60    4.00
  -1  -2  16  130.09    5.90
  -1  -2  16  132.29    6.20
   1   2 -16  132.29    6.20
  -2  -2  16   58.39    4.80
  -2  -2  16   46.40    4.50
   2   2 -16   53.49    4.40
  -3  -2  16    2.60    3.40
   3   2 -16    5.60    2.90
  -4  -2  16   32.00    5.00
  -4  -2  16   18.10    4.50
   4   2 -16   21.90    3.80
  -5  -2  16   36.40    6.50
   5   2 -16   45.50    5.40
   5   0  15   -1.20    4.30
  -5   0 -15    3.10    4.20
   4   0  15    6.80    3.50
   4   0  15    3.00    3.50
  -4   0 -15    3.30    3.50
   3   0  15   42.60    4.00
   3   0  15   38.10    4.10
  -3   0 -15   44.00    4.40
   2   0  15   25.00    3.20
   2   0  15   27.50    3.80
  -2   0 -15   22.70    3.70
   1   0  15   37.50    2.70
   1   0  15   36.50    4.10
  -1   0 -15   43.40    3.80
   0   0  15    2.60    2.10
   0   0  15   -0.30    2.60
   0   0 -15   -1.00    2.20
   0   0 -15    3.00    1.80
  -1   0  15   67.99    4.60
  -1   0  15   56.49    3.90
   1   0 -15   57.19    4.80
   1   0 -15   63.19    3.50
  -2   0  15   80.59    5.20
  -2   0  15   77.39    4.80
   2   0 -15   73.69    4.20
   2   0 -15   81.29    4.70
  -3   0  15   41.60    4.50
  -3   0  15   43.50    4.80
   3   0 -15   49.10    4.10
   3   0 -15   56.49    4.30
  -4   0  15   -0.60    3.80
  -4   0  15    4.50    3.70
   4   0 -15    3.80    3.40
   4   0 -15   -0.50    2.90
  -5   0  15   24.20    4.80
  -5   0  15   12.40    5.00
   5   0 -15   34.10    5.20
   5   0 -15   24.10    4.20
   6   0 -15   29.70    5.30
   5   2  14   11.00    4.70
   4   2  14    1.80    4.10
   4   2  14    7.90    3.60
  -4  -2 -14   -2.60    3.40
   3   2  14   10.10    3.70
  -3  -2 -14    9.80    3.10
   2   2  14   22.80    3.80
   2   2  14   22.50    3.70
  -2  -2 -14   17.40    3.30
   1   2  14  145.99    6.70
  -1  -2 -14  151.88    6.60
   0   2  14   26.90    3.80
   0   2  14   16.80    2.60
   0  -2 -14   19.20    2.90
   0  -2 -14   18.40    3.70
  -1   2  14   35.40    4.20
  -1   2  14   38.20    3.00
   1  -2 -14   35.00    3.60
   1  -2 -14   40.60    3.70
  -2   2  14   78.39    5.10
  -2   2  14   79.49    4.40
   2  -2 -14   81.19    4.50
   2  -2 -14   80.69    4.80
  -3   2  14   75.39    4.90
  -3   2  14   79.49    5.20
   3  -2 -14   71.69    4.60
   3  -2 -14   74.99    5.10
  -4   2  14    2.10    3.80
  -4   2  14    3.10    3.50
   4  -2 -14    6.40    3.60
   5  -2 -14    4.00    4.50
   4   4  13   34.50    5.60
  -4  -4 -13   35.50    5.30
   3   4  13    4.50    3.60
   3   4  13    6.70    4.00
  -3  -4 -13   -2.50    3.30
   2   4  13   29.00    4.20
   2   4  13   21.60    4.30
  -2  -4 -13   23.70    4.10
   1   4  13   39.00    4.40
  -1  -4 -13   36.90    3.90
   0   4  13   39.30    4.40
   0  -4 -13   35.10    3.70
   0  -4 -13   44.90    4.30
  -1   4  13    9.40    3.20
   1  -4 -13    4.80    2.30
   1  -4 -13    1.90    2.90
  -2   4  13   21.30    3.40
  -2   4  13   26.60    4.20
   2  -4 -13   23.60    4.10
   2  -4 -13   18.30    3.40
  -3   4  13   59.49    5.10
  -3   4  13   66.39    5.20
   3  -4 -13   53.69    5.40
  -4   4  13   42.80    5.60
  -4   4  13   38.20    5.60
   4  -4 -13   32.70    5.40
  -5   4  13   -4.70    5.20
   3   6  12   -0.80    3.90
  -3  -6 -12   -2.50    3.60
   2   6  12   15.80    3.90
  -2  -6 -12   13.40    3.60
   1   6  12   46.30    4.80
  -1  -6 -12   46.00    4.90
   0   6  12   85.59    5.70
   0  -6 -12   76.79    5.10
   0  -6 -12   86.39    5.90
  -1   6  12   36.00    4.70
   1  -6 -12   34.90    4.60
  -2   6  12   27.70    5.20
   2  -6 -12   31.40    5.60
   3  -6 -12   36.60    6.00
  -4   6  12   13.90    4.90
   3  -7  19   -1.20    5.40
  -3   7 -19   13.30    4.90
   2  -7  19   31.50    6.30
   1  -7  19   12.40    4.90
  -1   7 -19    4.70    4.30
   0  -7  19   16.70    5.40
   0   7 -19   28.70    5.20
  -1  -7  19    6.30    4.70
  -2  -7  19   12.70    5.80
  -4   5 -18    6.60    4.60
   3  -5  18   -3.30    4.80
   2  -5  18    2.10    3.90
   2  -5  18   -4.80    3.80
  -2   5 -18    4.70    3.50
   1  -5  18   45.20    5.20
   1  -5  18   60.29    5.10
  -1   5 -18   51.59    5.00
   0  -5  18   52.19    5.10
   0  -5  18   47.10    5.20
   0   5 -18   67.99    5.20
  -1  -5  18    4.40    3.70
  -1  -5  18    0.90    3.70
   1   5 -18   -4.20    3.20
  -2  -5  18    3.70    3.70
  -2  -5  18    3.20    4.00
   2   5 -18   -0.90    3.70
  -3  -5  18   33.70    5.30
  -3  -5  18   30.50    5.40
   3   5 -18   39.90    5.10
   5  -3  17   14.80    5.90
  -5   3 -17   -3.10    4.80
   4  -3  17   32.10    5.10
  -4   3 -17   30.20    4.90
   3  -3  17   17.70    4.40
  -3   3 -17   17.70    3.80
   2  -3  17    7.50    3.50
   2  -3  17    9.10    3.10
   1  -3  17   31.70    3.80
   1  -3  17   31.40    4.20
  -1   3 -17   31.70    4.10
   0  -3  17   66.79    5.10
   0  -3  17   74.29    4.70
   0   3 -17   79.49    5.00
  -1  -3  17   -0.50    3.10
  -1  -3  17    4.60    3.30
   1   3 -17    0.70    3.00
  -2  -3  17   33.90    4.60
  -2  -3  17   41.60    4.40
   2   3 -17   37.90    4.40
  -3  -3  17   61.59    5.00
  -3  -3  17   63.99    5.70
   3   3 -17   53.19    5.10
  -4  -3  17   68.09    6.20
  -4  -3  17   68.09    5.60
   4   3 -17   65.19    5.40
   5  -1  16   10.50    5.10
  -5   1 -16   -2.60    4.50
   4  -1  16   22.10    4.00
   3  -1  16   52.39    4.90
   3  -1  16   49.50    3.90
  -3   1 -16   47.60    4.60
   2  -1  16   33.30    4.00
  -2   1 -16   26.10    3.90
   1  -1  16    4.60    3.10
  -1   1 -16    3.20    2.60
   0  -1  16   72.69    4.10
   0  -1  16   79.89    5.30
   0   1 -16   81.89    3.50
   0   1 -16   74.39    5.10
  -1  -1  16   83.19    4.70
  -1  -1  16   73.79    5.10
   1   1 -16   79.89    3.70
   1   1 -16   83.89    5.00
  -2  -1  16   32.10    5.10
  -2  -1  16   27.70    4.00
   2   1 -16   22.30    3.80
   2   1 -16   30.40    3.00
  -3  -1  16   24.70    4.00
  -3  -1  16   28.20    4.50
   3   1 -16   20.20    3.90
   3   1 -16   27.00    3.30
  -4  -1  16   29.40    5.30
  -4  -1  16   39.20    5.00
   4   1 -16   44.80    4.50
  -5  -1  16   72.39    7.30
   5   1 -16   82.19    6.10
   5   1  15    1.70    4.70
   4   1  15    0.90    4.00
   4   1  15    0.70    3.80
  -4  -1 -15   -5.00    3.40
   3   1  15   16.60    4.20
   3   1  15   21.90    3.80
  -3  -1 -15   18.40    3.70
   2   1  15  122.29    6.30
   2   1  15  118.69    6.00
  -2  -1 -15  120.29    6.10
   1   1  15   -0.10    3.00
  -1  -1 -15   -0.50    2.50
   0   1  15    9.90    3.00
   0   1  15    6.00    2.10
   0  -1 -15    7.60    2.70
   0  -1 -15   10.90    2.40
  -1   1  15    4.40    3.00
  -1   1  15    9.60    2.40
   1  -1 -15    7.90    2.70
  -2   1  15  124.39    6.60
  -2   1  15  132.99    5.80
   2  -1 -15  130.89    5.70
   2  -1 -15  130.09    5.90
  -3   1  15   23.60    3.90
  -3   1  15   20.10    4.00
   3  -1 -15   22.20    4.90
   3  -1 -15   15.60    2.90
  -4   1  15    9.90    3.90
  -4   1  15    7.70    3.90
   4  -1 -15   13.30    3.80
   4  -1 -15   13.20    3.30
  -5   1  15  173.08    7.70
  -5   1  15  152.38    8.30
   5  -1 -15  158.18    8.20
   4   3  14   -3.80    4.10
   4   3  14    1.50    4.50
  -4  -3 -14    3.20    3.80
   3   3  14   16.30    4.00
   3   3  14   21.30    4.10
  -3  -3 -14    9.20    3.70
   2   3  14   70.69    5.10
   2   3  14   76.69    5.50
  -2  -3 -14   72.49    5.40
   1   3  14   27.60    4.20
  -1  -3 -14   21.90    3.60
   0   3  14    2.30    3.00
   0  -3 -14    1.90    2.50
   0  -3 -14    0.60    2.70
  -1   3  14   31.50    3.60
  -1   3  14   36.90    4.30
   1  -3 -14   36.40    3.70
  -2   3  14   78.99    5.40
  -2   3  14   79.39    4.50
   2  -3 -14   85.39    5.40
   2  -3 -14   97.09    4.90
  -3   3  14   15.40    3.40
  -3   3  14   19.10    3.80
   3  -3 -14   18.80    3.80
   3  -3 -14   11.80    3.00
  -4   3  14    3.40    4.30
  -4   3  14   -5.00    3.80
   4  -3 -14   -0.30    4.00
  -5   3  14   33.60    6.30
   5  -3 -14   30.50    5.40
   3   5  13    7.30    3.90
   3   5  13   12.00    4.90
   2   5  13   38.60    4.40
  -2  -5 -13   41.90    4.80
   1   5  13   52.19    4.70
  -1  -5 -13   39.00    4.60
   0   5  13   20.10    4.20
   0  -5 -13   20.80    4.10
   0  -5 -13   19.70    3.60
  -1   5  13   -1.60    3.50
   1  -5 -13    0.10    3.20
   1  -5 -13    1.10    2.70
  -2   5  13   41.80    4.90
   2  -5 -13   40.90    5.80
  -3   5  13   42.50    5.20
  -3   5  13   40.20    4.50
   3  -5 -13   39.20    5.60
  -4   5  13   18.80    4.60
   2   7  12    8.70    5.20
  -2  -7 -12    5.10    4.10
  -1  -7 -12   14.30    3.90
   0  -7 -12   38.80    6.60
  -3   6 -19   15.20    4.60
   2  -6  19   28.60    5.30
  -2   6 -19   25.60    4.60
   1  -6  19   40.20    5.70
  -1   6 -19   50.29    5.20
   0  -6  19   73.59    6.60
   0  -6  19   59.59    5.80
   0   6 -19   61.49    5.70
  -1  -6  19    3.60    4.30
  -1  -6  19    1.50    4.40
   1   6 -19   12.50    4.10
  -2  -6  19   34.80    5.90
  -2  -6  19   49.10    6.10
  -3  -6  19   37.80    6.10
  -4   4 -18    9.00    4.30
   3  -4  18    1.90    4.30
  -3   4 -18    7.60    4.00
   2  -4  18   88.99    6.10
   2  -4  18   82.09    5.90
  -2   4 -18   83.69    5.80
   1  -4  18   41.60    4.60
   1  -4  18   36.50    4.60
  -1   4 -18   40.00    4.70
   0  -4  18   30.60    4.40
   0   4 -18   29.20    4.40
  -1  -4  18   13.70    4.00
  -1  -4  18   12.40    4.00
   1   4 -18    9.30    3.60
  -2  -4  18    6.90    3.70
  -2  -4  18   -3.90    3.50
   2   4 -18   -5.70    3.20
  -3  -4  18   36.00    5.40
  -3  -4  18   41.40    5.30
   3   4 -18   28.20    5.20
   5  -2  17   19.40    4.80
   4  -2  17    7.60    4.20
  -4   2 -17   12.50    4.20
   3  -2  17   22.60    4.50
  -3   2 -17   17.20    3.60
   2  -2  17    0.70    3.50
  -2   2 -17    2.10    3.10
   1  -2  17   23.50    4.00
   1  -2  17   21.00    3.20
  -1   2 -17   22.70    3.90
   0  -2  17  252.67    9.20
   0  -2  17  243.88    8.20
   0   2 -17  246.68    9.00
  -1  -2  17   59.59    4.50
  -1  -2  17   79.79    5.10
   1   2 -17   64.39    4.90
  -2  -2  17   30.00    4.30
  -2  -2  17   26.80    4.40
   2   2 -17   22.00    3.80
  -3  -2  17   31.30    4.70
  -3  -2  17   36.00    4.90
   3   2 -17   30.30    4.30
  -4  -2  17   16.10    4.50
   4   2 -17   21.30    4.00
   5   2 -17   12.90    4.60
   4   0  16   29.40    4.80
   4   0  16   30.80    4.80
  -4   0 -16   32.70    4.90
   3   0  16   53.69    4.50
   3   0  16   57.49    5.30
  -3   0 -16   52.69    5.00
   2   0  16    9.00    3.30
  -2   0 -16    2.40    2.90
   1   0  16   24.50    3.90
  -1   0 -16   16.50    3.10
  -1   0 -16   18.80    2.90
   0   0  16   67.49    3.70
   0   0  16   68.89    4.90
   0   0 -16   63.29    3.60
   0   0 -16   67.59    4.70
  -1   0  16   79.29    5.00
  -1   0  16   59.19    4.10
   1   0 -16   66.09    3.90
   1   0 -16   70.39    4.70
  -2   0  16   49.50    4.50
  -2   0  16   53.79    4.80
   2   0 -16   57.09    4.50
   2   0 -16   57.69    3.80
  -3   0  16   18.50    4.10
   3   0 -16   13.60    3.00
   3   0 -16    9.70    3.40
  -4   0  16  100.39    6.30
  -4   0  16  103.69    6.50
   4   0 -16   95.69    5.70
   4   0 -16  108.39    5.80
  -5   0  16   28.30    6.90
  -5   0  16   22.40    5.70
   5   0 -16   28.20    4.40
   5   2  15   12.80    5.70
   4   2  15   18.90    4.50
  -4  -2 -15   25.30    4.90
   3   2  15   56.09    5.00
   3   2  15   49.50    4.90
  -3  -2 -15   48.60    4.90
   2   2  15    3.30    3.20
  -2  -2 -15    1.00    3.00
   1   2  15   38.10    4.30
  -1  -2 -15   25.50    4.00
   0   2  15   33.20    4.30
   0  -2 -15   27.20    3.30
   0  -2 -15   27.20    3.60
  -1   2  15  124.89    6.60
  -1   2  15  123.79    4.90
   1  -2 -15  139.49    6.10
   1  -2 -15  131.19    5.80
  -2   2  15   80.69    4.70
  -2   2  15   83.59    5.40
   2  -2 -15   82.69    5.00
   2  -2 -15   96.29    4.90
  -3   2  15    3.90    3.70
  -3   2  15    0.20    3.20
   3  -2 -15    0.60    2.90
   3  -2 -15    4.00    3.20
  -4   2  15   86.19    5.60
  -4   2  15   69.99    6.10
   4  -2 -15   90.79    6.10
   4  -2 -15   72.79    5.00
  -5   2  15   35.60    6.60
   5  -2 -15   30.90    6.20
   4   4  14   10.60    6.40
   3   4  14   32.20    5.00
   3   4  14   29.40    5.50
  -3  -4 -14   26.50    4.70
   2   4  14   44.20    5.00
  -2  -4 -14   46.80    4.90
   1   4  14   15.70    4.10
  -1  -4 -14   18.60    3.90
   0   4  14   17.10    3.70
   0  -4 -14   19.40    3.50
   0  -4 -14   11.10    3.00
  -1   4  14   52.09    4.80
   1  -4 -14   52.69    4.00
   1  -4 -14   58.29    4.80
  -2   4  14   36.80    4.80
   2  -4 -14   30.40    4.40
   2  -4 -14   32.10    4.90
  -3   4  14   15.30    4.20
  -3   4  14   11.90    3.80
   3  -4 -14   16.80    4.00
  -4   4  14   -7.00    4.50
   4  -4 -14   -0.10    4.50
   2   6  13   10.40    4.20
  -2  -6 -13    0.80    3.80
   1   6  13   24.60    5.10
  -1  -6 -13   37.70    4.70
   0  -6 -13   11.70    3.60
   0  -6 -13   12.90    4.10
   1  -6 -13    7.30    3.80
   2  -6 -13   86.89    7.10
   2  -7  20   14.40    7.30
   1  -7  20   92.29    8.10
  -3   5 -19   32.30    5.60
   2  -5  19   49.99    5.40
  -2   5 -19   42.50    5.50
   1  -5  19   58.59    5.70
   1  -5  19   39.90    5.80
  -1   5 -19   59.79    5.50
   0  -5  19    2.90    3.90
   0   5 -19   11.10    3.80
  -1  -5  19    2.20    4.00
  -1  -5  19    8.80    4.20
   1   5 -19   -4.40    3.60
  -2  -5  19   37.90    5.70
  -2  -5  19   56.49    5.30
   2   5 -19   50.39    5.60
  -3  -5  19   28.20    5.20
   4  -3  18    9.00    5.50
  -4   3 -18    4.30    4.40
   3  -3  18    4.50    4.30
  -3   3 -18    2.90    3.70
   2  -3  18   21.10    4.60
  -2   3 -18   14.40    3.80
   1  -3  18  239.68    8.20
   1  -3  18  237.28    9.40
  -1   3 -18  227.48    9.00
   0  -3  18   21.70    4.20
   0   3 -18   27.00    4.20
  -1  -3  18    2.20    3.20
   1   3 -18    5.20    3.30
  -2  -3  18   14.10    3.90
  -2  -3  18   14.80    3.70
   2   3 -18    9.30    3.60
  -3  -3  18   21.00    4.80
  -3  -3  18   25.20    4.30
   3   3 -18   14.60    3.90
  -4  -3  18   30.60    5.90
  -4  -3  18   22.90    5.10
   4   3 -18   28.70    5.30
   4  -1  17   22.50    4.50
  -4   1 -17   11.60    4.50
   3  -1  17    5.70    3.90
  -3   1 -17    6.80    3.80
   2  -1  17   21.80    4.00
  -2   1 -17   15.90    3.60
   1  -1  17  272.67    9.70
  -1   1 -17  272.77    9.80
   0  -1  17   67.99    4.40
   0  -1  17   71.89    5.20
   0   1 -17   67.79    5.00
  -1  -1  17   30.70    3.80
  -1  -1  17   45.10    4.60
   1   1 -17   39.10    4.10
  -2  -1  17   20.10    4.10
   2   1 -17   25.50    3.80
  -3  -1  17    4.20    3.70
  -3  -1  17    6.70    3.90
   3   1 -17    7.20    3.10
  -4  -1  17   35.80    5.70
  -4  -1  17   48.90    5.60
   4   1 -17   49.80    5.10
   5   1 -17   36.60    5.90
   5   1  16   20.30    5.80
   4   1  16   17.90    4.70
   4   1  16   17.00    4.40
  -4  -1 -16   10.00    4.00
   3   1  16   -1.10    3.80
   3   1  16    3.60    3.80
  -3  -1 -16   -3.80    3.30
   2   1  16    5.70    3.60
  -2  -1 -16   -0.20    3.10
   1   1  16   61.19    5.10
  -1  -1 -16   59.69    4.20
  -1  -1 -16   56.29    4.70
   0   1  16   66.19    5.00
   0  -1 -16   59.89    4.90
   0  -1 -16   63.99    4.00
  -1   1  16  313.37    9.00
  -1   1  16  308.97   10.50
   1  -1 -16  318.57    9.70
   1  -1 -16  328.37   10.40
  -2   1  16   -2.00    3.50
  -2   1  16   -0.20    3.10
   2  -1 -16    1.40    2.90
   2  -1 -16    2.80    2.90
  -3   1  16   58.69    5.20
  -3   1  16   41.90    4.70
   3  -1 -16   45.40    4.50
   3  -1 -16   52.99    4.80
  -4   1  16   40.60    5.40
  -4   1  16   33.60    5.10
   4  -1 -16   25.70    4.50
   4  -1 -16   34.90    5.00
   5  -1 -16   34.80    5.60
   4   3  15    9.90    5.70
   3   3  15   20.80    4.50
   3   3  15   29.20    5.00
  -3  -3 -15   17.10    4.00
   2   3  15   25.80    4.60
  -2  -3 -15   27.90    4.30
   1   3  15   87.89    5.90
  -1  -3 -15   87.19    5.50
   0   3  15   52.09    4.90
   0  -3 -15   55.59    4.40
   0  -3 -15   44.70    4.40
  -1   3  15  121.09    6.60
   1  -3 -15  130.89    5.80
   1  -3 -15  125.99    6.20
  -2   3  15   24.80    3.50
  -2   3  15   22.80    4.40
   2  -3 -15   28.50    4.30
   2  -3 -15   29.00    3.80
  -3   3  15    7.90    3.50
  -3   3  15   14.60    4.20
   3  -3 -15   13.50    3.20
   3  -3 -15   11.90    4.00
  -4   3  15   48.60    5.40
  -4   3  15   56.19    5.80
   3   5  14    7.30    4.40
   2   5  14   18.00    4.10
  -2  -5 -14   16.10    4.30
   1   5  14    3.70    3.90
  -1  -5 -14    5.10    3.50
  -1  -5 -14    7.60    4.00
   0   5  14   16.80    4.10
   0  -5 -14   18.30    3.90
   0  -5 -14   21.00    4.00
  -1   5  14  155.78    7.90
   1  -5 -14  154.78    6.50
   1  -5 -14  157.88    7.70
  -2   5  14   31.90    5.80
   2  -5 -14   32.90    5.50
   3  -5 -14    3.50    4.70
  -1  -7 -13    0.40    4.50
   2  -6  20   50.59    6.50
   1  -6  20   -5.60    4.80
  -1   6 -20    8.60    5.70
   0  -6  20  180.18    8.90
  -1  -6  20   43.70    5.80
  -3   4 -19   20.70    4.80
   2  -4  19    7.50    4.40
  -2   4 -19    1.20    3.60
   1  -4  19   12.70    3.80
  -1   4 -19   10.70    3.90
   0  -4  19   12.90    4.40
   0  -4  19   17.50    3.80
   0   4 -19   25.50    4.70
  -1  -4  19   31.20    4.90
  -1  -4  19   32.50    4.80
   1   4 -19   40.10    5.40
  -2  -4  19  156.98    7.90
  -2  -4  19  175.48    7.50
   2   4 -19  145.59    7.30
  -3  -4  19   15.30    5.00
  -3  -4  19    3.50    4.80
   4  -2  18   94.49    6.20
  -4   2 -18   85.49    7.80
   3  -2  18   -0.40    4.00
  -3   2 -18   11.00    3.90
   2  -2  18  114.49    6.50
  -2   2 -18  117.89    6.80
   1  -2  18   29.90    4.40
  -1   2 -18   28.80    4.60
   0  -2  18  110.89    5.70
   0  -2  18  121.49    6.40
   0   2 -18  123.79    6.30
  -1  -2  18    1.40    3.40
  -1  -2  18   -1.20    3.20
   1   2 -18    2.30    3.00
  -2  -2  18   50.39    5.10
  -2  -2  18   47.50    4.90
   2   2 -18   48.60    5.00
  -3  -2  18   53.49    5.60
  -3  -2  18   46.40    5.60
   3   2 -18   38.90    4.80
  -4  -2  18   13.10    5.00
  -4  -2  18   19.60    5.50
   4   2 -18   22.40    4.50
   4   0  17   66.59    5.60
   3   0  17   -2.00    3.80
  -3   0 -17    5.00    3.70
   2   0  17    0.20    3.50
  -2   0 -17   -0.30    3.10
   1   0  17  101.79    5.90
  -1   0 -17   85.99    4.60
  -1   0 -17   91.29    5.60
   0   0  17   32.90    4.30
   0   0 -17   31.50    4.10
  -1   0  17    4.60    3.10
  -1   0  17   11.30    3.60
   1   0 -17    7.20    2.90
   1   0 -17    5.70    2.60
  -2   0  17  182.78    7.60
  -2   0  17  193.18    8.00
   2   0 -17  190.38    7.70
   2   0 -17  185.98    7.30
  -3   0  17   65.89    5.40
  -3   0  17   61.89    5.70
   3   0 -17   56.39    4.80
  -4   0  17    7.50    4.40
  -4   0  17    2.20    4.60
   4   0 -17    7.00    3.80
   5   0 -17   11.30    5.20
   4   2  16   61.39    7.10
   4   2  16   69.09    6.10
   3   2  16   13.50    4.20
   3   2  16    8.30    4.50
  -3  -2 -16    2.10    3.70
   2   2  16    2.40    3.60
  -2  -2 -16    4.20    3.40
   1   2  16   28.70    4.50
  -1  -2 -16   24.70    3.90
   0   2  16   49.60    5.10
   0  -2 -16   53.29    4.60
   0  -2 -16   59.49    4.40
  -1   2  16   24.40    4.60
   1  -2 -16   33.50    3.90
   1  -2 -16   31.60    4.40
  -2   2  16   83.29    5.70
  -2   2  16   86.09    4.80
   2  -2 -16   93.39    5.30
   2  -2 -16   78.89    5.40
  -3   2  16   32.90    5.20
  -3   2  16   31.40    4.70
   3  -2 -16   38.80    4.50
   3  -2 -16   35.20    4.80
  -4   2  16    7.80    4.60
  -4   2  16    2.00    4.60
   4  -2 -16    6.50    4.60
   3   4  15   19.00    5.10
   3   4  15   21.10    4.80
   2   4  15    3.40    4.20
  -2  -4 -15   -0.80    3.50
   1   4  15   27.90    4.50
  -1  -4 -15   31.00    4.70
  -1  -4 -15   20.50    3.90
   0   4  15   19.90    4.40
   0  -4 -15   17.50    3.90
   0  -4 -15   16.60    3.30
  -1   4  15   57.79    5.10
   1  -4 -15   51.79    4.50
   1  -4 -15   37.90    5.10
  -2   4  15    4.00    4.10
   2  -4 -15   -2.20    4.00
   2  -4 -15   -5.20    3.10
   3  -4 -15   32.50    5.40
  -4   4  15   -0.50    4.80
  -1  -6 -14    0.10    4.00
   0  -6 -14   88.99    6.50
   0  -6 -14  107.89    6.20
   1  -6 -14   37.50    5.80
   1  -5  20   27.80    5.60
  -1   5 -20   40.40    5.80
   0  -5  20   31.80    5.70
  -1  -5  20    7.10    4.60
   1   5 -20   12.40    5.60
  -2  -5  20   17.70    4.70
  -3   3 -19   75.49    6.30
   2  -3  19   16.00    4.50
  -2   3 -19    2.80    3.80
   1  -3  19    9.10    4.00
  -1   3 -19   11.80    3.60
   0  -3  19   28.80    4.50
   0  -3  19   21.10    4.20
   0   3 -19   25.20    4.80
  -1  -3  19   98.59    6.40
  -1  -3  19   79.29    5.50
   1   3 -19  100.99    6.10
  -2  -3  19   24.70    4.70
  -2  -3  19   35.90    5.30
   2   3 -19   26.20    4.50
  -3  -3  19    2.60    4.70
  -3  -3  19   14.60    4.70
   3   3 -19    8.80    4.30
  -4  -3  19   26.30    6.40
   4  -1  18    7.90    5.00
   3  -1  18   84.69    6.20
  -3   1 -18   62.99    6.00
   2  -1  18   60.99    5.40
  -2   1 -18   63.39    5.00
   1  -1  18   49.80    4.80
  -1   1 -18   45.90    4.90
   0  -1  18    2.80    3.60
   0   1 -18    2.70    3.00
  -1  -1  18   16.40    3.90
  -1  -1  18   15.00    3.50
   1   1 -18   16.10    3.50
  -2  -1  18   68.39    5.30
  -2  -1  18   75.89    5.70
   2   1 -18   70.49    5.30
  -3  -1  18   99.79    6.30
  -3  -1  18   79.19    6.10
   3   1 -18   77.69    5.70
  -4  -1  18   -3.40    4.80
  -4  -1  18   -1.20    4.90
   4   1 -18    3.90    4.10
   4   1  17    3.60    5.20
   3   1  17    4.30    4.40
   3   1  17    9.70    4.20
  -3  -1 -17   -1.80    3.60
   2   1  17   44.60    5.20
  -2  -1 -17   37.70    4.80
   1   1  17   62.99    5.40
  -1  -1 -17   54.49    4.90
  -1  -1 -17   70.19    4.60
   0   1  17   12.70    3.80
   0  -1 -17    3.90    3.00
   0  -1 -17    7.20    2.90
  -1   1  17  229.88    8.90
   1  -1 -17  229.28    8.00
   1  -1 -17  233.68    8.60
  -2   1  17   31.60    4.20
  -2   1  17   41.30    5.40
   2  -1 -17   46.60    4.20
   2  -1 -17   49.70    4.50
  -3   1  17    4.10    3.90
  -3   1  17   11.50    4.30
   3  -1 -17    5.80    3.40
   3  -1 -17    8.00    3.70
  -4   1  17   12.10    4.60
   4  -1 -17   10.10    4.10
   3   3  16    3.20    4.70
   3   3  16   -5.00    4.30
   2   3  16   -0.10    4.00
  -2  -3 -16    7.90    3.70
   1   3  16    1.80    3.80
  -1  -3 -16    8.90    3.40
  -1  -3 -16   12.40    3.60
   0   3  16   42.40    5.00
   0  -3 -16   48.00    4.50
   0  -3 -16   31.10    4.20
  -1   3  16   10.80    4.10
   1  -3 -16   16.00    3.30
   1  -3 -16   13.50    3.60
  -2   3  16    5.00    4.30
   2  -3 -16   14.90    3.50
   2  -3 -16   14.70    4.20
  -3   3  16   85.89    6.30
  -3   3  16   86.59    7.60
   3  -3 -16   66.99    6.20
  -4   3  16   27.00    5.20
   4  -3 -16   29.30    5.20
  -2  -5 -15    7.00    4.40
  -1  -5 -15   17.60    3.90
   0  -5 -15   49.60    5.40
   0  -5 -15   49.60    4.70
   1  -5 -15   35.00    5.30
   1  -5 -15   44.50    4.60
   2  -5 -15    9.00    4.70
   1  -6  21   19.80    5.90
   0  -6  21    8.40    5.70
  -2   4 -20    7.90    4.20
  -1   4 -20   15.50    4.40
   0  -4  20   11.40    5.20
   0  -4  20    8.30    4.20
   0   4 -20   11.90    4.10
  -1  -4  20   91.59    6.00
  -1  -4  20   65.99    6.20
   1   4 -20   78.29    6.10
  -2  -4  20    8.90    4.70
  -2  -4  20   -4.10    4.50
  -3   2 -19   43.70    6.20
   2  -2  19    7.00    4.30
  -2   2 -19   14.30    4.00
   1  -2  19   16.20    4.20
  -1   2 -19    3.10    3.60
   0  -2  19   11.20    4.00
   0  -2  19    7.70    3.90
  -1  -2  19   53.29    5.30
  -1  -2  19   38.50    4.80
   1   2 -19   54.39    5.20
  -2  -2  19   20.30    4.60
  -2  -2  19   20.90    4.50
   2   2 -19   13.40    3.90
  -3  -2  19   10.10    4.80
   3   2 -19    6.80    4.00
  -4  -2  19   29.20    6.10
   3   0  18   66.29    6.10
  -3   0 -18   44.00    5.30
   2   0  18   25.20    4.70
  -2   0 -18   22.10    4.20
   1   0  18   18.50    4.10
  -1   0 -18   13.70    3.70
   0   0  18   15.30    4.10
   0   0 -18   19.70    3.90
  -1   0  18  100.59    6.30
   1   0 -18  100.49    5.80
  -2   0  18   16.50    4.50
  -2   0  18    6.70    3.80
   2   0 -18   14.50    3.70
  -3   0  18    7.30    4.40
  -3   0  18    8.70    4.60
   3   0 -18    6.70    3.70
  -4   0  18   14.00    5.40
  -4   0  18   15.70    5.40
   4   0 -18   15.90    4.30
   4   2  17   34.80    6.80
   4   2  17   26.80    7.50
   3   2  17    9.60    4.70
   2   2  17  138.19    7.40
  -2  -2 -17  118.19    7.00
   1   2  17   33.90    4.90
  -1  -2 -17   23.70    4.30
  -1  -2 -17   20.90    3.90
   0   2  17   -2.80    4.00
   0  -2 -17    5.20    3.20
   0  -2 -17   -2.00    3.30
  -1   2  17   25.70    4.80
   1  -2 -17   24.30    4.60
   1  -2 -17   27.40    4.40
  -2   2  17    7.60    4.40
   2  -2 -17    3.00    3.70
   2  -2 -17    6.50    3.40
  -3   2  17   18.50    4.40
  -3   2  17   29.30    5.20
   3  -2 -17   27.60    4.60
   3  -2 -17   29.00    4.20
  -4   2  17   17.40    5.30
   4  -2 -17    3.30    5.00
   2   4  16    7.10    4.80
  -2  -4 -16   15.10    4.10
   1   4  16   33.30    5.60
  -1  -4 -16   24.10    4.50
   0   4  16   51.89    6.50
   0  -4 -16   55.59    5.20
   0  -4 -16   61.69    4.80
   1  -4 -16    1.90    3.70
   1  -4 -16    5.20    4.00
   2  -4 -16   23.20    4.70
   3  -4 -16   43.60    6.10
  -1  -6 -15   19.10    5.20
   0  -5  21   38.60    5.90
  -1  -5  21   -3.30    5.20
  -2   3 -20   -4.80    5.10
  -1   3 -20   24.60    4.90
   0  -3  20   70.19    5.90
   0   3 -20   63.79    6.10
  -1  -3  20    7.90    4.10
  -1  -3  20   16.40    4.40
   1   3 -20   11.60    4.10
  -2  -3  20    4.80    4.50
  -2  -3  20    5.90    5.10
   2   3 -20   -0.70    4.30
  -3  -3  20   23.70    5.10
   2  -1  19   10.40    4.30
  -2   1 -19    6.90    3.90
   1  -1  19    4.10    4.20
  -1   1 -19    6.20    3.70
   0  -1  19   51.69    5.40
   0   1 -19   47.30    5.00
  -1  -1  19   41.90    4.80
  -1  -1  19   34.60    5.20
   1   1 -19   45.10    5.20
  -2  -1  19    7.90    4.40
  -2  -1  19   14.20    4.40
   2   1 -19   14.60    3.80
  -3  -1  19    9.50    4.80
   3   1 -19    7.40    4.10
   3   1  18   11.30    5.10
   2   1  18   70.49    6.10
  -2  -1 -18   60.19    5.60
   1   1  18    5.80    4.20
  -1  -1 -18    7.20    3.40
   0   1  18   42.60    5.00
   0  -1 -18   60.89    5.40
  -1   1  18   30.10    5.10
  -2   1  18   32.40    5.20
   2  -1 -18   41.40    4.80
  -3   1  18   -4.60    4.30
   3  -1 -18   -3.30    3.80
  -4   1  18   12.60    5.10
   4  -1 -18   12.90    5.20
   2   3  17   29.10    5.40
  -2  -3 -17   18.40    4.40
   1   3  17   34.30    5.10
  -1  -3 -17   24.70    5.10
  -1  -3 -17   21.40    4.20
   0   3  17    6.60    4.30
   0  -3 -17    5.50    3.30
   0  -3 -17    3.50    3.70
   1  -3 -17   22.00    4.60
   1  -3 -17   20.90    4.10
   2  -3 -17   47.30    5.00
   2  -3 -17   56.69    6.00
   3  -3 -17   17.70    4.80
  -1  -5 -16   11.80    4.50
   0  -5 -16    5.20    4.60
   0  -5 -16    0.60    3.80
   1  -5 -16    7.30    5.10
  -1  -4  21   -0.20    4.80
  -2  -4  21   35.60    5.30
  -1   2 -20   47.10    5.20
   0  -2  20   59.99    6.90
   0   2 -20   50.49    5.50
  -1  -2  20   -0.90    3.90
  -1  -2  20   -1.60    5.30
   1   2 -20    4.60    4.00
  -2  -2  20   11.20    4.60
   2   2 -20    9.30    4.20
  -3  -2  20   33.40    5.70
  -2   0 -19   18.00    4.50
   1   0  19    8.50    4.30
  -1   0 -19    5.50    3.80
   0   0  19   38.30    5.30
   0   0 -19   27.40    4.70
  -1   0  19   44.90    5.60
   1   0 -19   41.80    5.20
  -2   0  19    9.50    5.10
   2   0 -19   -2.30    3.80
  -3   0  19   30.60    5.80
   1   2  18   -6.50    5.30
  -1  -2 -18   -1.50    3.80
   0   2  18   37.50    6.90
   0  -2 -18   33.00    4.50
   0  -2 -18   34.80    4.40
   1  -2 -18   40.80    4.90
   1  -2 -18   43.70    5.20
   2  -2 -18   16.60    4.10
   2  -2 -18    8.90    4.10
   3  -2 -18   10.20    4.10
  -1  -4 -17    1.80    4.70
  -1  -4 -17   -0.80    4.10
   0  -4 -17   10.40    4.20
   0  -4 -17   12.40    4.30
   1  -4 -17   41.50    5.90
   1  -4 -17   39.70    5.80
   2  -4 -17   24.50    5.10
  -1  -3  21   10.40    5.00
  -2  -3  21   34.50    6.20
  -1   1 -20   33.90    5.00
   0   1 -20   17.50    4.00
   1   1 -20   -1.10    4.00
   2   1 -20   27.00    4.80
  -3  -1  20   36.50    5.90
  -1  -1 -19   31.10    5.70
   0  -1 -19   62.79    5.80
   1  -1 -19   14.60    4.00
   2  -1 -19   14.20    4.10
   3  -1 -19   21.90    4.60
  -1  -3 -18   17.80    4.50
   0  -3 -18   38.70    4.90
   0  -3 -18   36.80    5.20
   1  -3 -18    1.40    4.80
   1  -3 -18   13.70    4.50
   2  -3 -18   -3.90    4.80
   2  -3 -18   -0.50    4.20
   3  -3 -18   11.50    5.70
   0  -5 -17   15.70    5.50
   0   0 -20   22.20    5.40
   1   0 -20    8.40    4.10
   2   0 -20   12.00    4.80
   0  -2 -19   37.30    5.60
   1  -2 -19   -3.00    4.10
   2  -2 -19    6.30    4.30
   0  -4 -18   37.70    5.70
   1  -4 -18   11.20    5.30

_computing_structure_solution     'SHELXT 2014/4 (Sheldrick, 2014)'
;
_shelx_hkl_checksum              30999
loop_
_space_group_symop_operation_xyz
'x, y, z'
'-x, -y, -z'
loop_
_atom_site_label
_atom_site_type_symbol
_atom_site_fract_x
_atom_site_fract_y
_atom_site_fract_z
_atom_site_U_iso_or_equiv
_atom_site_adp_type
_atom_site_occupancy
_atom_site_site_symmetry_order
_atom_site_calc_flag
_atom_site_refinement_flags_posn
_atom_site_refinement_flags_adp
Br1 Br 0.12170(5) 0.94756(3) 0.81550(2) 0.02766(9) Uani 1 1 d . .
F9 F 0.2278(3) 1.00112(16) 0.63353(9) 0.0276(3) Uani 1 1 d . .
F4 F 0.2764(3) 0.49825(16) 0.36700(9) 0.0283(3) Uani 1 1 d . .
F3 F 0.5453(2) 0.68552(18) 0.37733(9) 0.0262(3) Uani 1 1 d . .
F8 F 0.5210(2) 0.76038(19) 0.55050(9) 0.0289(3) Uani 1 1 d . .
F10 F -0.0365(2) 0.81010(19) 0.62433(10) 0.0290(3) Uani 1 1 d . .
F6 F 0.2576(3) 0.92577(16) 0.46011(9) 0.0289(3) Uani 1 1 d . .
F2 F 0.2794(3) 0.84708(17) 0.28523(10) 0.0330(4) Uani 1 1 d . .
F7 F 0.2508(3) 0.57396(16) 0.53981(9) 0.0297(3) Uani 1 1 d . .
F5 F -0.0129(2) 0.74026(19) 0.44966(9) 0.0299(3) Uani 1 1 d . .
F12 F 0.2423(3) 0.65182(17) 0.71499(10) 0.0318(3) Uani 1 1 d . .
F1 F 0.0145(2) 0.6566(2) 0.27416(10) 0.0331(4) Uani 1 1 d . .
F11 F 0.4988(2) 0.8452(2) 0.72532(10) 0.0331(3) Uani 1 1 d . .
C11 C 0.2958(4) 0.7335(3) 0.54363(15) 0.0178(4) Uani 1 1 d . .
C12 C 0.1875(4) 0.8409(3) 0.62876(15) 0.0184(4) Uani 1 1 d . .
C1 C 0.3607(4) 0.5761(3) 0.20450(15) 0.0207(5) Uani 1 1 d . .
C13 C 0.2768(4) 0.8111(3) 0.71628(16) 0.0220(5) Uani 1 1 d . .
C9 C 0.3198(4) 0.6588(3) 0.37129(15) 0.0175(4) Uani 1 1 d . .
C10 C 0.2117(4) 0.7670(3) 0.45605(15) 0.0186(4) Uani 1 1 d . .
C8 C 0.2413(4) 0.6860(3) 0.28194(16) 0.0214(5) Uani 1 1 d . .
C6 C 0.5621(4) 0.6320(3) 0.17628(16) 0.0260(5) Uani 1 1 d . .
H6A H 0.6188 0.7410 0.2030 0.031 Uiso 1 1 calc R U
C2 C 0.2752(4) 0.4176(3) 0.16529(17) 0.0267(5) Uani 1 1 d . .
H2A H 0.1361 0.3809 0.1846 0.032 Uiso 1 1 calc R U
C5 C 0.6798(4) 0.5285(4) 0.10916(17) 0.0318(6) Uani 1 1 d . .
H5A H 0.8173 0.5663 0.0891 0.038 Uiso 1 1 calc R U
C4 C 0.5966(5) 0.3694(4) 0.07114(17) 0.0320(6) Uani 1 1 d . .
C3 C 0.3930(5) 0.3131(3) 0.09805(17) 0.0325(6) Uani 1 1 d . .
H3A H 0.3355 0.2046 0.0707 0.039 Uiso 1 1 calc R U
N1 N 0.8370(6) 0.1739(5) -0.04690(18) 0.0716(10) Uani 1 1 d . .
C7 C 0.7280(6) 0.2594(4) 0.00436(18) 0.0450(8) Uani 1 1 d . .
loop_
_atom_site_aniso_label
_atom_site_aniso_U_11
_atom_site_aniso_U_22
_atom_site_aniso_U_33
_atom_site_aniso_U_23
_atom_site_aniso_U_13
_atom_site_aniso_U_12
Br1 0.03455(15) 0.02500(13) 0.02371(13) 0.00656(9) 0.00529(9) 0.00403(9)
F9 0.0429(9) 0.0137(6) 0.0268(7) 0.0063(6) 0.0014(6) 0.0028(6)
F4 0.0423(9) 0.0140(6) 0.0289(8) 0.0060(6) 0.0013(6) 0.0018(6)
F3 0.0132(6) 0.0405(8) 0.0250(7) 0.0086(6) -0.0014(5) 0.0025(6)
F8 0.0129(7) 0.0461(9) 0.0270(8) 0.0081(7) -0.0015(5) 0.0046(6)
F10 0.0137(7) 0.0403(8) 0.0321(8) 0.0078(7) 0.0012(6) 0.0029(6)
F6 0.0486(9) 0.0132(6) 0.0264(7) 0.0078(6) -0.0003(6) 0.0013(6)
F2 0.0521(10) 0.0200(7) 0.0297(8) 0.0107(6) -0.0032(7) 0.0082(7)
F7 0.0488(9) 0.0132(6) 0.0284(8) 0.0074(6) 0.0000(7) 0.0035(6)
F5 0.0120(7) 0.0478(9) 0.0295(8) 0.0096(7) -0.0021(6) 0.0047(6)
F12 0.0493(10) 0.0200(7) 0.0298(8) 0.0120(6) 0.0045(7) 0.0070(6)
F1 0.0170(7) 0.0484(9) 0.0294(8) 0.0020(7) -0.0063(6) 0.0079(6)
F11 0.0206(7) 0.0509(9) 0.0282(8) 0.0110(7) -0.0029(6) 0.0024(7)
C11 0.0140(10) 0.0143(9) 0.0258(12) 0.0066(9) -0.0021(9) 0.0014(8)
C12 0.0160(11) 0.0151(10) 0.0253(12) 0.0072(9) -0.0005(9) 0.0005(8)
C1 0.0211(11) 0.0239(11) 0.0188(11) 0.0083(9) -0.0045(9) 0.0039(9)
C13 0.0229(12) 0.0206(11) 0.0240(12) 0.0084(9) 0.0014(9) 0.0017(9)
C9 0.0120(10) 0.0150(10) 0.0256(12) 0.0055(9) -0.0021(8) -0.0001(8)
C10 0.0162(11) 0.0159(10) 0.0241(12) 0.0060(9) -0.0021(9) 0.0034(8)
C8 0.0187(11) 0.0206(11) 0.0249(12) 0.0063(9) -0.0053(9) 0.0023(9)
C6 0.0229(12) 0.0316(13) 0.0252(13) 0.0108(10) -0.0050(10) -0.0018(10)
C2 0.0257(13) 0.0258(12) 0.0275(13) 0.0056(10) -0.0021(10) -0.0022(10)
C5 0.0249(13) 0.0510(16) 0.0229(13) 0.0157(12) 0.0013(10) 0.0038(12)
C4 0.0349(15) 0.0430(15) 0.0200(12) 0.0105(11) -0.0006(10) 0.0163(12)
C3 0.0402(16) 0.0271(13) 0.0277(14) 0.0030(11) -0.0046(11) 0.0051(11)
N1 0.083(2) 0.097(3) 0.0322(15) 0.0085(16) 0.0141(15) 0.048(2)
C7 0.0519(19) 0.062(2) 0.0224(14) 0.0108(14) 0.0019(13) 0.0226(16)
loop_
_atom_type_symbol
_atom_type_description
_atom_type_scat_dispersion_real
_atom_type_scat_dispersion_imag
_atom_type_scat_source
C C 0.0033 0.0016 'International Tables Vol C Tables 4.2.6.8 and 6.1.1.4'
H H 0.0000 0.0000 'International Tables Vol C Tables 4.2.6.8 and 6.1.1.4'
N N 0.0061 0.0033 'International Tables Vol C Tables 4.2.6.8 and 6.1.1.4'
F F 0.0171 0.0103 'International Tables Vol C Tables 4.2.6.8 and 6.1.1.4'
Br Br -0.2901 2.4595 'International Tables Vol C Tables 4.2.6.8 and 6.1.1.4'
loop_
_geom_angle_atom_site_label_1
_geom_angle_atom_site_label_2
_geom_angle_atom_site_label_3
_geom_angle
F7 C11 F8 108.37(17)
F7 C11 C12 107.90(18)
F8 C11 C12 108.23(18)
F7 C11 C10 108.64(18)
F8 C11 C10 108.56(18)
C12 C11 C10 114.97(18)
F10 C12 F9 109.06(17)
F10 C12 C11 108.81(18)
F9 C12 C11 109.04(18)
F10 C12 C13 107.65(18)
F9 C12 C13 107.25(18)
C11 C12 C13 114.90(18)
C6 C1 C2 120.6(2)
C6 C1 C8 119.2(2)
C2 C1 C8 120.0(2)
F11 C13 F12 107.96(19)
F11 C13 C12 110.08(18)
F12 C13 C12 109.90(19)
F11 C13 Br1 109.65(16)
F12 C13 Br1 109.00(15)
C12 C13 Br1 110.22(15)
F3 C9 F4 108.02(17)
F3 C9 C8 107.13(18)
F4 C9 C8 107.04(18)
F3 C9 C10 108.66(18)
F4 C9 C10 108.70(18)
C8 C9 C10 116.98(18)
F6 C10 F5 108.75(17)
F6 C10 C9 108.20(18)
F5 C10 C9 108.44(18)
F6 C10 C11 108.36(18)
F5 C10 C11 108.28(18)
C9 C10 C11 114.68(18)
F2 C8 F1 107.20(18)
F2 C8 C1 110.66(19)
F1 C8 C1 110.63(19)
F2 C8 C9 108.16(18)
F1 C8 C9 107.83(19)
C1 C8 C9 112.18(18)
C5 C6 C1 119.7(2)
C5 C6 H6A 120.2
C1 C6 H6A 120.2
C3 C2 C1 119.9(2)
C3 C2 H2A 120.0
C1 C2 H2A 120.0
C6 C5 C4 119.7(3)
C6 C5 H5A 120.2
C4 C5 H5A 120.2
C5 C4 C3 121.0(2)
C5 C4 C7 119.1(3)
C3 C4 C7 119.9(3)
C2 C3 C4 119.0(2)
C2 C3 H3A 120.5
C4 C3 H3A 120.5
N1 C7 C4 178.1(4)
loop_
_geom_bond_atom_site_label_1
_geom_bond_atom_site_label_2
_geom_bond_distance
Br1 C13 1.925(2)
F9 C12 1.342(2)
F4 C9 1.349(2)
F3 C9 1.343(2)
F8 C11 1.342(3)
F10 C12 1.340(3)
F6 C10 1.338(2)
F2 C8 1.352(3)
F7 C11 1.344(2)
F5 C10 1.338(3)
F12 C13 1.342(3)
F1 C8 1.355(3)
F11 C13 1.333(3)
C11 C12 1.552(3)
C11 C10 1.555(3)
C12 C13 1.552(3)
C1 C6 1.386(3)
C1 C2 1.388(3)
C1 C8 1.509(3)
C9 C8 1.549(3)
C9 C10 1.550(3)
C6 C5 1.380(4)
C6 H6A 0.9500
C2 C3 1.385(4)
C2 H2A 0.9500
C5 C4 1.385(4)
C5 H5A 0.9500
C4 C3 1.390(4)
C4 C7 1.445(4)
C3 H3A 0.9500
N1 C7 1.141(4)
