#------------------------------------------------------------------------------
#$Date: 2016-03-04 13:48:17 +0200 (Fri, 04 Mar 2016) $
#$Revision: 177495 $
#$URL: svn://www.crystallography.net/cod/cif/1/54/25/1542517.cif $
#------------------------------------------------------------------------------
#
# This file is available in the Crystallography Open Database (COD),
# http://www.crystallography.net/
#
# All data on this site have been placed in the public domain by the
# contributors.
#
data_1542517
loop_
_publ_author_name
'Golen, James A.'
'Manke, David R.'
_publ_section_title
;
 6-Fluoro-1<i>H</i>-indole-2,3-dione
;
_journal_coeditor_code           SJ4011
_journal_issue                   2
_journal_name_full               IUCrData
_journal_page_first              x160165
_journal_paper_doi               10.1107/S2414314616001656
_journal_volume                  1
_journal_year                    2016
_chemical_formula_iupac          'C8 H4 F N O2'
_chemical_formula_moiety         'C8 H4 F N O2'
_chemical_formula_sum            'C8 H4 F N O2'
_chemical_formula_weight         165.12
_chemical_name_systematic
;
6-Fluoro-1<i>H</i>-indole-2,3-dione
;
_space_group_crystal_system      orthorhombic
_space_group_IT_number           19
_space_group_name_Hall           'P 2ac 2ab'
_space_group_name_H-M_alt        'P 21 21 21'
_symmetry_space_group_name_Hall  'P 2ac 2ab'
_symmetry_space_group_name_H-M   'P 21 21 21'
_atom_sites_solution_hydrogens   mixed
_audit_creation_method
;
Olex2 1.2
(compiled 2015.09.30 svn.r3233 for OlexSys, GUI svn.r5103)
;
_cell_angle_alpha                90
_cell_angle_beta                 90
_cell_angle_gamma                90
_cell_formula_units_Z            4
_cell_length_a                   4.9880(3)
_cell_length_b                   5.5522(3)
_cell_length_c                   24.2578(12)
_cell_measurement_reflns_used    6268
_cell_measurement_temperature    298(2)
_cell_measurement_theta_max      68.31
_cell_measurement_theta_min      5.47
_cell_volume                     671.80(6)
_computing_cell_refinement
;
SAINT (Bruker, 2014)
;
_computing_data_collection
;
APEX2 (Bruker, 2014)
;
_computing_data_reduction
;
SAINT (Bruker, 2014)
;
_computing_molecular_graphics
;
<i>OLEX2</i> (Dolomanov <i>et al.</i>,  2009)
;
_computing_publication_material
;
<i>OLEX2</i> (Dolomanov <i>et al.</i>,  2009) and publCIF (Westrip,
2010)
;
_computing_structure_refinement
;
SHELXL2014 (Sheldrick, 2015)
;
_computing_structure_solution
;
SHELXS97 (Sheldrick, 2008)
;
_diffrn_ambient_temperature      297.95
_diffrn_measured_fraction_theta_full 0.989
_diffrn_measured_fraction_theta_max 0.988
_diffrn_measurement_device_type  'Bruker D8 Venture CMOS'
_diffrn_measurement_method       '\f and \w scans'
_diffrn_radiation_monochromator  'HELIOS MX'
_diffrn_radiation_type           CuK\a
_diffrn_radiation_wavelength     1.54178
_diffrn_reflns_av_R_equivalents  0.0431
_diffrn_reflns_limit_h_max       5
_diffrn_reflns_limit_h_min       -6
_diffrn_reflns_limit_k_max       6
_diffrn_reflns_limit_k_min       -6
_diffrn_reflns_limit_l_max       29
_diffrn_reflns_limit_l_min       -29
_diffrn_reflns_number            7354
_diffrn_reflns_theta_full        68.250
_diffrn_reflns_theta_max         68.302
_diffrn_reflns_theta_min         9.078
_diffrn_standards_number         0
_exptl_absorpt_coefficient_mu    1.191
_exptl_absorpt_correction_T_max  0.7531
_exptl_absorpt_correction_T_min  0.5279
_exptl_absorpt_correction_type   multi-scan
_exptl_absorpt_process_details
;
(SADABS; Bruker, 2014)
;
_exptl_crystal_colour            orange
_exptl_crystal_density_diffrn    1.633
_exptl_crystal_description       BLOCK
_exptl_crystal_F_000             336
_exptl_crystal_size_max          0.25
_exptl_crystal_size_mid          0.15
_exptl_crystal_size_min          0.1
_refine_diff_density_max         0.486
_refine_diff_density_min         -0.229
_refine_ls_abs_structure_details
;
Flack <i>x</i> determined using 451 quotients
[(<i>I</i>^+^)-(<i>I</i>^-^)]/[(<i>I</i>^+^)+(<i>I</i>^-^)]
(Parsons <i>et al</i>., 2013)
;
_refine_ls_abs_structure_Flack   0.03(7)
_refine_ls_extinction_method     none
_refine_ls_goodness_of_fit_ref   1.100
_refine_ls_hydrogen_treatment    mixed
_refine_ls_matrix_type           full
_refine_ls_number_parameters     112
_refine_ls_number_reflns         1205
_refine_ls_number_restraints     1
_refine_ls_restrained_S_all      1.100
_refine_ls_R_factor_all          0.0390
_refine_ls_R_factor_gt           0.0386
_refine_ls_shift/su_max          0.000
_refine_ls_shift/su_mean         0.000
_refine_ls_structure_factor_coef Fsqd
_refine_ls_weighting_details
'w=1/[\s^2^(Fo^2^)+(0.0688P)^2^+0.1919P] where P=(Fo^2^+2Fc^2^)/3'
_refine_ls_weighting_scheme      calc
_refine_ls_wR_factor_gt          0.1112
_refine_ls_wR_factor_ref         0.1115
_reflns_number_gt                1184
_reflns_number_total             1205
_reflns_threshold_expression     'I > 2\s(I)'
_cod_data_source_file            sj4011sup1.cif
_cod_data_source_block           I
_cod_depositor_comments          'Adding full bibliography for 1542517.cif.'
_cod_database_code               1542517
_cod_database_fobs_code          1542517
_shelx_space_group_comment
;
The symmetry employed for this shelxl refinement is uniquely defined
by the following loop, which should always be used as a source of
symmetry information in preference to the above space-group names.
They are only intended as comments.
;
_shelx_estimated_absorpt_t_min   0.755
_shelx_estimated_absorpt_t_max   0.890
_shelx_hkl_file
;
   1   0   0    6.40    1.40
  -1   0   0    6.40    1.50
  -1   0   0    9.90    3.80
   2   0   0 2319.47  126.59
  -2   0   0 2759.92  136.39
  -2   0   0 2575.54  125.69
   3   0   0   -0.30    2.00
   3   0   0   -2.30    3.30
  -3   0   0   -0.50    0.80
  -4   0   0 1104.59   54.79
   4   0   0 1097.69   55.99
   4   0   0 1136.89   54.79
  -4   0   0 1112.49   54.99
   4   0   0 1001.00   55.09
  -5   0   0   -0.20    2.00
   5   0   0    1.90    2.60
  -5   0   0    0.90    2.70
  -6   0   0  177.48    9.60
  -6   0   0  189.58    9.90
   0   1   0    9.40    2.40
   0  -1   0    7.40    1.00
   1   1   0  622.24   32.90
   1   1   0  715.83   37.40
   1  -1   0  607.14   39.30
   1  -1   0  694.13   36.90
   1   1   0  679.33   33.50
   1  -1   0  660.73   33.00
  -1  -1   0  646.74   33.50
   2  -1   0  439.56   29.50
  -2   1   0  484.45   24.40
   2   1   0  438.16   23.80
  -2  -1   0  461.55   22.70
   2  -1   0  429.56   23.20
   2   1   0  411.06   22.70
  -2  -1   0  500.25   34.50
   3  -1   0    4.30    1.90
   3  -1   0    2.20    8.20
   3   1   0    4.30    4.10
   3  -1   0    1.90    3.70
   3   1   0    1.70    1.80
   3   1   0    2.90    2.40
   4   1   0   75.29    9.90
   4  -1   0   65.39    7.30
  -4  -1   0   73.09    6.90
   4  -1   0   69.09    5.20
  -4   1   0   74.09    6.10
  -4   1   0   68.49    7.60
  -4  -1   0   72.99    4.20
   4   1   0   68.39    6.00
  -4  -1   0   61.99    6.60
  -5   1   0   10.00    2.30
   5   1   0   12.60    3.40
  -5  -1   0   10.80    2.90
   5  -1   0    7.70    2.60
  -5  -1   0   13.60    2.60
  -5   1   0    8.90    3.20
   5   1   0   10.90    5.00
   5  -1   0   13.80    3.20
  -1  -2   0   21.70   10.30
   1   2   0   27.80    1.90
   1  -2   0   25.20    6.30
   1   2   0   25.70    8.00
  -2  -2   0 1781.22  113.99
  -2  -2   0 1928.91   93.79
   2  -2   0 2000.30  104.99
   2   2   0 1869.51   93.69
  -3  -2   0  754.92   38.40
  -3  -2   0  769.92   38.40
   3   2   0  854.41   44.10
   3  -2   0  708.83   55.99
   3   2   0  749.33   38.60
  -4  -2   0  368.36   20.00
   4  -2   0  381.46   19.30
   4   2   0  342.67   21.40
  -4  -2   0  375.86   19.00
   4   2   0  391.46   19.90
  -4  -2   0  365.66   20.00
   5  -2   0    6.80    3.20
  -5  -2   0    1.30    2.60
   5   2   0    4.60    4.60
  -5  -2   0   -1.20    2.30
   5   2   0   -2.40    4.00
   5  -2   0    2.30    1.90
   0  -3   0   -0.20    4.80
   0  -3   0    0.80   11.80
   1  -3   0    9.90    7.50
  -1  -3   0   11.20   17.30
   2   3   0   83.19    4.80
  -2  -3   0   76.59    5.00
  -2  -3   0   69.29   30.10
   2  -3   0   72.09   19.40
   3   3   0  756.72   42.10
  -3   3   0  846.42   40.80
   3   3   0  852.21   40.60
  -3  -3   0  755.02   41.20
  -3   3   0  855.71   41.10
  -3  -3   0  776.62   40.80
  -3  -3   0  803.12   40.50
   4   3   0  617.74   31.30
  -4  -3   0  687.53   31.80
   4  -3   0  608.94   31.00
   4   3   0  572.94   32.40
  -4  -3   0  572.64   30.90
  -4  -3   0  622.24   31.90
  -4  -3   0  603.94   31.50
  -5  -3   0   10.80    2.50
  -5  -3   0    9.40    2.50
   5   3   0   12.50    3.40
   5  -3   0    7.60    4.60
   5  -3   0    6.00    2.00
   0   4   0 2141.09  105.99
   0   4   0 2108.89  105.89
   1   4   0    5.00    4.70
  -1   4   0    3.90    3.60
  -1  -4   0    0.80    1.70
  -1   4   0   -0.90    3.50
   1   4   0   -2.60    4.00
  -2  -4   0  167.78   10.90
  -2   4   0  171.28   10.60
  -2   4   0  201.88   11.20
   2   4   0  192.98   12.40
  -2  -4   0  183.88   10.10
  -3  -4   0  621.14   31.00
  -3   4   0  613.54   31.20
   3   4   0  576.94   32.40
  -3  -4   0  616.14   31.60
  -3  -4   0  604.44   31.20
  -3   4   0  648.54   31.40
   4   4   0   21.70    3.90
  -4  -4   0   26.20    3.30
  -4  -4   0   23.30    4.80
   0   5   0    3.60    3.20
   0   5   0    5.10    2.90
   1   5   0   54.89    5.70
   1   5   0   43.80    6.20
  -1  -5   0   47.00    3.90
  -1   5   0   43.10    5.20
  -2  -5   0  252.37   14.50
  -2   5   0  282.67   14.70
   2   5   0  276.17   15.50
  -2  -5   0  270.37   14.30
  -3  -5   0    2.20    1.80
  -3  -5   0    4.50    1.60
   3   5   0    3.20    3.00
  -3   5   0    2.30    2.30
   0  -6   0  312.57   16.10
   0   6   0  318.37   16.70
   1   6   0   88.99    6.10
  -1   6   0   86.59    5.60
  -1  -6   0   82.79    5.00
   1   6   0   82.59    5.90
  -1  -6   0   83.29    5.50
   1  -6   0   82.89    5.00
   2   6   0   99.49    6.20
  -2  -6   0   86.49    5.30
  -2   6   0   94.39    5.60
  -2  -6   0   89.39    5.50
   1   0   1  767.62   43.20
   1   0  -1  731.83   39.40
   1   0  -1  926.31   47.30
  -1   0   1  736.83   39.50
  -1   0   1  889.11   45.20
   1   0   1  752.32   39.50
  -1   0  -1  728.83   39.50
  -2   0   1 2262.37  102.99
   2   0   1 2002.30  103.89
  -2   0  -1 1907.51  110.49
   2   0  -1 2051.89  103.89
  -2   0  -1 2223.88  102.89
   3   0   1 2537.25  130.89
   3   0   1 2499.15  130.09
  -3   0  -1 2707.13  128.79
   3   0   1 2690.73  129.29
   3   0  -1 2506.65  130.69
   3   0  -1 2594.44  140.39
   3   0  -1 2684.03  129.29
  -3   0   1 2696.93  128.79
   4   0  -1  305.97   16.00
  -4   0   1  295.17   16.20
  -4   0   1  293.87   16.70
  -4   0  -1  290.37   16.60
   4   0   1  302.17   16.00
   4   0  -1  319.37   18.40
   4   0   1  264.87   17.00
  -4   0  -1  306.17   16.20
  -5   0   1  104.09    7.40
   5   0  -1  113.09    7.40
   5   0   1  107.09    7.40
  -5   0  -1  108.29    6.90
  -5   0  -1  112.59    7.60
   5   0  -1  109.69   12.50
  -5   0   1  103.99    7.00
  -6   0   1  557.84   27.70
  -6   0   1  534.45   27.40
  -6   0  -1  562.94   27.80
   1   1  -1 1137.79   53.79
   1   1  -1 1212.08   57.19
   1  -1   1 1116.69   53.39
  -1  -1  -1 1034.50   53.79
   1   1  -1 1089.99   53.19
  -1   1   1 1145.69   53.19
   1  -1   1  913.41   58.69
   1   1   1  995.40   53.19
   1  -1  -1 1065.79   61.19
  -1  -1   1  953.30   61.99
   1  -1  -1 1103.09   57.39
   1  -1  -1 1036.50   53.19
   1   1   1 1031.10   53.69
   1   1   1 1208.98   58.69
   2   1  -1  603.94   32.10
  -2  -1  -1  636.74   31.00
  -2  -1  -1  692.33   42.80
  -2   1   1  592.54   31.70
   2   1  -1  582.54   31.00
   2  -1   1  580.74   31.50
   2  -1  -1  620.34   31.50
   2  -1  -1  610.44   38.00
   2   1   1  631.24   32.20
   2   1   1  577.14   31.00
  -2  -1   1  704.43   31.00
   3   1  -1  629.44   31.70
  -3  -1  -1  684.13   31.10
   3   1  -1  575.24   31.30
   3  -1   1  622.84   31.30
   3  -1   1  585.14   32.70
   3   1  -1  565.14   33.30
   3  -1   1  622.94   44.20
  -3  -1   1  633.74   31.00
   3  -1  -1  604.14   43.70
   3   1   1  657.53   31.70
   3  -1  -1  654.63   31.20
   3   1   1  625.44   33.70
   3   1   1  614.34   31.40
   4   1  -1  372.26   19.00
   4   1  -1  317.77   19.70
  -4  -1  -1  335.77   18.10
   4   1  -1  332.07   17.90
  -4   1   1  332.17   18.50
   4  -1   1  364.86   20.40
  -4   1   1  323.97   17.60
  -4  -1  -1  339.97   16.70
   4  -1   1  325.67   19.10
  -4  -1  -1  330.17   18.00
   4  -1   1  334.07   17.50
   4   1   1  310.27   19.80
  -4  -1   1  341.17   18.20
  -4   1  -1  318.77   18.30
  -4  -1   1  335.87   18.00
   4   1   1  330.97   17.80
  -4   1  -1  308.17   17.50
   4  -1  -1  302.37   18.20
   4  -1  -1  330.27   17.40
  -4  -1   1  339.37   16.80
  -5   1   1  165.38   10.00
   5  -1   1  158.68    9.50
   5   1  -1  173.38   10.10
   5   1  -1  158.48   11.30
   5  -1   1  149.19    9.90
  -5   1   1  160.58    9.10
  -5  -1  -1  172.88    9.90
  -5  -1  -1  164.98    9.50
   5   1  -1  151.88   10.90
  -5   1  -1  159.88    9.80
   5   1   1  162.68   10.00
  -5  -1   1  162.48    9.50
   5  -1  -1  150.28    9.80
  -5  -1   1  163.88    9.70
  -5   1  -1  155.18    9.00
   5  -1  -1  159.18    9.40
   5   1   1  165.08   11.80
   0   2  -1 5781.72  286.57
   0   2   1 5809.62  288.37
   0  -2   1 5899.21  283.07
   0  -2  -1 5470.05  282.67
   1   2  -1 1387.56   69.69
   1  -2   1 1364.46   69.89
   1   2  -1 1442.06   74.59
  -1  -2  -1 1392.26   75.79
   1  -2   1 1461.15   76.69
   1   2   1 1322.07   69.69
   1   2   1 1430.56   70.69
   1  -2  -1 1494.95   77.49
   2  -2   1 1906.41  100.19
   2   2  -1 1840.22   88.99
  -2  -2  -1 1739.73  109.49
  -2  -2  -1 1851.01   89.19
   2   2  -1 1815.82   90.69
   2   2   1 1572.94   90.49
  -2  -2   1 1821.22   89.19
  -2  -2   1 1806.72  110.79
   2   2   1 1809.32   89.09
   2  -2  -1 1847.62  100.29
  -3  -2  -1  316.07   16.90
   3   2  -1  312.77   17.10
   3  -2   1  305.17   34.10
  -3  -2  -1  309.87   16.90
   3  -2  -1  334.87   16.80
  -3  -2   1  319.67   16.90
   3   2   1  385.66   24.30
   3   2   1  310.47   17.10
   3  -2  -1  355.06   43.40
  -3  -2   1  319.17   17.00
   3   2   1  339.87   17.90
  -4   2   1 1146.99   61.09
  -4  -2  -1 1258.37   61.79
   4  -2   1 1251.17   61.29
   4   2  -1 1300.77   61.69
   4   2  -1 1190.68   62.69
  -4  -2  -1 1253.77   60.99
  -4  -2  -1 1241.38   61.69
   4   2   1 1312.87   61.69
   4  -2  -1 1290.97   61.29
  -4  -2   1 1224.78   61.79
  -4  -2   1 1219.88   61.79
   4  -2  -1 1128.39   62.89
   4   2   1 1164.38   62.59
  -4  -2   1 1208.78   60.99
  -5  -2  -1   29.00    4.40
   5  -2   1   29.90    3.90
  -5  -2  -1   37.30    4.60
   5  -2   1   31.20    3.70
   5   2  -1   23.70    5.00
   5   2  -1   31.70    5.10
   5  -2  -1   28.20    5.20
   5  -2  -1   37.90    4.10
  -5  -2   1   28.50    4.60
   5   2   1   27.30    4.90
   5  -2  -1   28.70    3.50
   5   2   1   33.30    5.10
   0  -3  -1  156.78   15.90
   0  -3   1  122.59   24.80
  -1  -3  -1   71.79   23.00
   1  -3   1   85.29   13.90
  -1  -3   1   74.99   23.30
   2  -3   1 1385.76   82.69
   2   3  -1 1399.26   64.99
  -2  -3  -1 1285.37   65.19
   2  -3  -1 1283.37   81.99
   2   3   1 1362.66   65.09
  -2  -3   1 1324.27   65.29
  -2  -3   1 1148.89   95.69
  -3   3   1  565.94   28.00
  -3  -3  -1  540.05   27.90
  -3   3   1  585.94   28.40
   3   3  -1  551.94   29.80
   3   3  -1  579.64   27.80
  -3  -3  -1  517.65   27.90
  -3  -3  -1  549.05   27.70
  -3   3  -1  544.75   28.00
  -3  -3   1  512.45   28.50
  -3  -3   1  525.15   28.10
   3   3   1  498.35   29.50
   3   3   1  584.44   27.80
  -3  -3   1  534.45   27.70
   4   3  -1  263.07   13.70
   4  -3   1  241.68   13.30
  -4  -3  -1  237.68   13.00
  -4  -3  -1  253.17   14.30
  -4  -3  -1  249.18   13.90
   4   3  -1  227.78   15.20
   4  -3  -1  239.68   13.10
   4   3   1  264.97   13.80
   4   3   1  228.58   15.10
  -4  -3   1  236.68   13.00
  -4  -3   1  241.68   13.90
  -4  -3   1  239.38   13.10
  -4  -3   1  247.98   16.60
   5  -3   1    7.10    2.10
  -5  -3  -1   11.70    2.70
   5   3  -1   12.40    3.20
   5  -3   1   17.20    3.30
  -5  -3  -1   12.30    2.50
   5  -3  -1    7.10    2.00
   5   3   1   10.20    3.40
  -5  -3   1   14.60    2.80
   5  -3  -1    9.90    2.50
  -5  -3   1   12.10    2.60
   0   4   1  262.37   15.20
   0   4  -1  258.17   15.40
   0   4   1  255.07   15.10
   0   4  -1  267.37   15.30
  -1   4   1   35.80    5.80
   1   4  -1   32.70    5.40
  -1  -4  -1   30.70    3.30
   1   4  -1   31.40    4.90
  -1   4   1   37.40    5.50
   1   4   1   32.80    5.30
  -1  -4   1   25.10    3.60
  -1   4  -1   30.30    5.70
  -1   4  -1   35.90    6.70
   1   4   1   31.90    5.80
   2   4  -1   27.90    4.90
  -2   4   1   36.00    4.70
  -2  -4  -1   24.60    4.50
  -2  -4  -1   18.00    2.80
  -2   4   1   29.10    4.10
   2   4   1   22.80    4.70
  -2  -4   1   28.00    3.90
  -2   4  -1   29.90    5.20
  -2  -4   1   19.90    3.00
  -2   4  -1   18.10    3.60
   3   4  -1  696.03   36.90
  -3  -4  -1  684.83   35.50
  -3  -4  -1  716.23   35.30
  -3   4   1  756.02   35.80
  -3   4   1  706.03   35.50
  -3  -4  -1  704.73   35.90
  -3   4  -1  714.03   35.70
  -3  -4   1  667.33   35.80
  -3  -4   1  704.53   35.40
  -3  -4   1  678.33   35.60
   3   4   1  689.03   36.70
  -4  -4  -1   34.20    5.00
   4   4  -1   41.00    6.50
  -4  -4   1   44.40    3.80
   4  -4  -1   45.60    3.80
   4   4   1   47.80    6.20
   0   5   1  949.80   48.80
   0   5  -1  937.51   48.90
   0   5  -1  984.10   48.90
   0   5   1  985.70   48.90
   1   5  -1   14.70    3.60
  -1   5   1   12.90    3.00
  -1  -5  -1   15.10    2.70
   1   5  -1   17.00    3.90
   1   5   1   19.50    3.70
  -1   5  -1   19.40    3.30
  -1  -5   1   16.50    2.90
   1   5   1   26.20    4.10
  -2  -5  -1  250.07   13.60
   2   5  -1  254.27   14.60
  -2  -5  -1  251.37   13.30
  -2   5   1  246.68   13.70
  -2   5   1  278.37   13.80
  -2  -5   1  244.18   13.70
  -2  -5   1  251.87   13.40
  -2   5  -1  253.27   13.70
   2   5   1  233.28   14.50
  -3  -5  -1    5.80    1.80
   3   5  -1    2.10    3.20
  -3  -5  -1    4.30    1.80
  -3   5   1    6.10    2.40
   3   5   1    5.80    2.90
  -3  -5   1    4.00    1.80
  -3  -5   1    3.60    1.70
  -3   5  -1    4.30    2.50
   0  -6   1   45.50    3.40
   0   6  -1   40.90    4.30
   0  -6  -1   44.20    3.30
   0   6   1   45.20    4.30
   0  -6  -1   45.60    4.70
   1   6  -1   63.89    4.80
  -1  -6  -1   50.49    5.20
  -1  -6  -1   57.79    3.80
  -1  -6  -1   56.19    4.30
   1   6  -1   69.49    5.10
  -1   6   1   56.69    4.60
   1   6   1   57.49    4.80
  -1  -6   1   49.00    6.00
  -1   6  -1   56.79    4.50
  -1  -6   1   60.19    3.90
   1   6   1   67.39    5.10
   1  -6  -1   57.99    3.80
  -2  -6  -1  153.48    8.20
  -2  -6  -1  155.68    8.30
  -2   6   1  143.49    8.40
   2   6  -1  166.38    8.90
  -2  -6  -1  144.69    8.80
   2   6   1  167.28    8.90
  -2  -6   1  152.38    8.30
  -2  -6   1  144.99    8.20
  -2   6  -1  145.69    8.40
  -1   0   2  837.02   44.10
   1   0  -2  850.61   46.60
   1   0  -2  691.73   37.30
  -1   0  -2  697.13   37.40
   1   0   2  713.43   37.40
  -1   0   2  688.23   37.40
   2   0  -2 1369.96   69.79
  -2   0   2 1546.75   68.89
   2   0  -2 1330.27   69.09
  -2   0  -2 1276.77   74.69
   2   0   2 1351.06   69.89
  -2   0  -2 1502.15   68.79
   3   0  -2   21.30    5.50
  -3   0   2   28.30    1.90
   3   0   2   19.10    3.50
   3   0  -2   26.40    3.40
   3   0   2   25.10    5.70
   3   0  -2   22.20   11.20
  -3   0  -2   26.50    1.80
   4   0   2    5.00    2.20
   4   0   2    7.30    4.30
  -4   0  -2    1.90    2.90
  -4   0   2    4.90    3.10
   4   0  -2    3.30    5.70
  -4   0   2    1.40    3.80
   4   0  -2    1.80    2.10
  -4   0  -2    1.90    3.40
   4   0  -2   10.40    3.90
  -5   0   2   42.20    4.50
   5   0  -2   49.50    7.40
   5   0  -2   41.70    4.80
   5   0  -2   39.00    6.60
  -5   0   2   44.50    4.90
  -5   0  -2   36.90    4.20
   5   0   2   38.70    4.70
  -5   0  -2   38.70    4.90
  -1  -1  -2 6420.56  304.47
   1   1  -2 5547.85  317.77
   1   1   2 6556.94  303.77
   2  -1   2  894.91   45.10
  -2  -1  -2  907.21   44.40
   2   1  -2  901.61   45.60
  -2   1   2  871.81   45.10
   2   1  -2  799.62   44.40
  -2  -1  -2  960.00   55.59
   2  -1  -2  881.61   44.90
   2   1   2  842.02   45.50
  -2  -1   2  969.90   44.40
   2   1   2  809.82   44.50
   2  -1  -2  878.91   51.69
  -2  -1   2 1016.00   59.09
   3   1  -2  255.37   13.70
   3  -1   2  257.87   13.60
   3   1  -2  261.17   14.20
  -3  -1  -2  271.47   13.30
   3  -1   2  221.08   15.20
   3   1  -2  239.08   15.90
   3  -1   2  256.17   25.80
   3  -1  -2  239.98   25.00
   3  -1  -2  273.87   13.50
   3   1   2  271.67   14.10
  -3  -1   2  282.57   13.30
   3   1   2  256.07   13.70
   3   1   2  268.37   16.50
  -4  -1  -2  109.39    8.20
   4   1  -2  114.89    7.80
   4  -1   2  108.39    7.20
  -4  -1  -2  114.89    8.20
  -4   1   2  116.79    9.40
   4   1  -2  123.09    8.00
  -4   1   2  117.99    7.80
  -4  -1  -2  122.39    6.20
   4   1  -2  128.89   10.90
   4  -1  -2  117.39    7.10
  -4  -1   2  116.59    6.30
   4  -1  -2  107.99    8.60
  -4  -1   2  117.99    8.40
   4   1   2   94.79   17.10
  -4   1  -2  102.89    7.70
   4   1   2  108.19    7.70
  -4   1  -2  108.49    9.10
  -4  -1   2  128.99    8.50
   5  -1   2   22.70    3.70
   5   1  -2   18.40    5.00
   5   1  -2   21.60    4.30
  -5   1   2   19.10    2.70
  -5  -1  -2   22.60    3.20
   5   1  -2   19.30    3.90
  -5   1   2   25.70    3.80
  -5  -1  -2   20.10    2.80
  -5  -1   2   15.20    2.60
   5  -1  -2   22.90    3.80
  -5  -1   2   19.90    3.20
   5   1   2   26.10    5.40
   5  -1  -2   22.40    3.40
  -5   1  -2   21.50    3.40
   5   1   2   23.50    3.70
  -5   1  -2   20.10    2.70
   0  -2   2 4316.87  200.58
   0  -2  -2 4286.87  206.58
   0  -2  -2 3748.22  199.98
   0   2   2 3883.51  199.58
   1   2  -2 2030.20   98.79
   1  -2   2 1952.00   99.09
  -1  -2  -2 2039.10  105.99
   1  -2   2 2078.99  105.69
   1   2  -2 1992.90  102.09
   1   2   2 1846.72   98.79
   1   2   2 2016.00   99.79
   1  -2  -2 2069.79  106.99
   2   2  -2 1915.81   93.89
   2  -2   2 2048.40  105.19
  -2  -2  -2 1937.61   93.99
  -2  -2  -2 1722.53  113.09
   2   2   2 1746.43   95.39
  -2  -2   2 1905.51  116.19
   2  -2  -2 1952.00  105.49
  -2  -2   2 1996.30   93.99
   2   2   2 1868.51   93.89
  -3  -2  -2  154.38    8.70
   3  -2   2  161.78   28.20
   3   2  -2  154.38    8.90
  -3  -2  -2  164.88    8.80
   3   2   2  149.19    9.90
   3   2   2  154.28    9.00
  -3  -2   2  151.68   33.10
   3  -2  -2  154.98    8.50
  -3  -2   2  156.78    8.60
  -3  -2   2  146.79    8.80
  -4  -2  -2  182.48   10.80
   4   2  -2  169.08   12.90
   4   2  -2  189.88   10.60
  -4   2   2  152.58   10.00
   4  -2   2  174.38    9.80
  -4  -2  -2  176.88    9.40
  -4  -2  -2  169.28   10.70
  -4  -2   2  177.58   10.80
  -4  -2   2  178.48    9.50
   4  -2  -2  156.98   11.50
   4  -2  -2  175.28    9.70
   4   2   2  184.38   10.60
   4   2   2  155.58   13.00
  -4  -2   2  177.78   11.20
   5  -2   2    2.80    2.00
   5  -2   2    0.90    2.90
  -5  -2  -2    2.10    2.70
   5   2  -2    7.90    4.60
   5   2  -2    0.60    4.00
  -5  -2  -2   -1.60    2.30
  -5  -2   2    5.90    2.80
   5   2   2    0.30    4.70
   5  -2  -2    0.70    1.80
  -5  -2   2    2.30    2.60
   5  -2  -2    4.50    2.70
   5   2   2    4.50    4.80
   5  -2  -2    4.40    4.80
   0  -3  -2  938.51   51.29
   0  -3   2  681.43   62.09
  -1  -3  -2  890.51   45.90
   1  -3   2  985.60   56.89
  -1  -3  -2  910.41   55.99
   1   3   2  969.80   45.40
  -1  -3   2  758.62   69.59
   1  -3  -2  996.40   59.19
  -2  -3  -2  109.99   33.80
   2   3  -2  125.69    6.80
  -2  -3  -2  121.29    7.10
   2  -3   2  130.09   22.10
   2  -3  -2  119.79   22.60
  -2  -3   2  120.89    7.20
  -2  -3   2  123.69    8.20
   2   3   2  139.99    7.10
  -2  -3   2  116.19   33.30
  -3  -3  -2  358.86   19.10
  -3  -3  -2  362.46   18.70
   3   3  -2  377.86   18.80
  -3  -3  -2  356.26   19.00
   3   3  -2  355.66   21.30
  -3   3   2  390.96   19.70
  -3   3   2  364.36   19.10
   3   3   2  332.97   20.90
  -3  -3   2  355.26   18.90
   3   3   2  389.46   19.00
  -3  -3   2  342.67   19.30
   3  -3  -2  387.36   18.70
  -3  -3   2  349.07   19.80
  -4  -3  -2  361.56   19.00
  -4  -3  -2  329.47   19.20
   4  -3   2  350.96   18.20
  -4  -3  -2  350.56   19.10
   4   3  -2  340.77   20.00
   4   3  -2  370.26   18.60
  -4  -3  -2  338.17   18.00
   4  -3  -2  349.87   18.10
  -4  -3   2  325.37   18.00
   4   3   2  368.06   18.60
  -4  -3   2  354.66   18.80
  -4  -3   2  351.76   18.00
   4   3   2  322.27   19.80
   5  -3   2   40.00    4.10
   5  -3   2   48.40    5.50
   5   3  -2   45.90    5.20
  -5  -3  -2   54.09    4.40
  -5  -3  -2   46.40    4.40
  -5  -3   2   51.39    4.90
   5  -3  -2   44.30    3.80
  -5  -3   2   48.80    4.40
   5  -3  -2   41.60    4.50
   0   4  -2  165.48   11.60
   0  -4  -2  194.58   10.00
   0   4  -2  162.68   12.00
   0   4   2  183.88   11.40
   0   4   2  193.08   11.50
  -1   4   2  821.92   42.60
  -1  -4  -2  856.71   42.20
  -1   4   2  848.72   42.80
   1   4  -2  779.62   43.40
  -1   4   2  955.60   43.00
   1   4  -2  772.72   43.20
  -1   4  -2  844.72   43.00
  -1  -4   2  866.11   42.30
  -1   4  -2  948.01   43.20
   1   4   2  785.32   43.20
   1   4   2  792.22   43.30
  -2  -4  -2  653.43   32.80
  -2   4   2  713.53   33.30
  -2  -4  -2  624.34   33.10
  -2   4   2  681.33   33.00
   2   4  -2  622.54   34.20
   2   4  -2  617.64   34.10
  -2   4  -2  610.34   34.00
   2   4   2  632.54   34.10
  -2  -4   2  667.53   32.90
  -2   4  -2  700.73   33.50
  -2  -4   2  615.54   33.30
  -3  -4  -2  254.17   13.70
  -3   4   2  268.47   14.10
  -3  -4  -2  255.87   14.40
  -3  -4  -2  259.17   13.40
   3   4  -2  272.67   15.80
  -3   4   2  256.77   13.80
  -3  -4   2  249.88   14.40
   3   4   2  228.08   15.20
  -3   4  -2  264.07   14.20
  -3  -4   2  231.48   13.80
  -3  -4   2  262.47   13.60
   4   4  -2    4.90    3.60
  -4  -4  -2    2.60    2.90
  -4  -4  -2    5.80    4.00
   4   4   2    1.80    3.10
   4  -4  -2    3.30    1.90
  -4  -4   2    4.80    1.80
   0   5   2    6.30    2.90
   0   5  -2    9.80    3.20
   0  -5  -2    6.30    1.80
   0   5   2   10.70    3.30
   0   5  -2    6.20    3.10
  -1  -5  -2  312.77   15.60
  -1   5   2  306.97   16.30
  -1  -5  -2  284.67   16.10
   1   5  -2  292.27   16.70
   1   5  -2  307.67   17.00
  -1  -5   2  308.47   15.70
  -1   5  -2  295.87   16.40
   1   5   2  302.07   16.80
  -1  -5   2  271.07   17.90
   1   5   2  307.47   16.50
   2   5  -2   39.40    5.80
  -2   5   2   28.10    4.50
  -2   5   2   40.00    4.10
  -2  -5  -2   29.20    3.70
  -2  -5  -2   36.40    3.40
   2   5   2   44.00    5.60
  -2  -5   2   27.40    4.10
  -2   5  -2   41.60    4.40
  -2  -5   2   33.40    3.50
   2  -5  -2   39.60    3.60
   3   5  -2   68.19    6.50
  -3  -5  -2   60.69    4.20
  -3   5   2   55.39    4.70
  -3  -5  -2   60.69    4.30
  -3  -5   2   59.89    4.60
   3  -5  -2   60.99    4.40
   3   5   2   63.79    6.00
  -3  -5   2   59.89    4.20
  -3   5  -2   63.09    5.00
   0  -6  -2   68.39    4.00
   0   6   2   63.89    5.00
   0  -6   2   58.69    4.30
   0   6  -2   67.49    5.20
   1   6  -2   34.40    4.30
  -1  -6  -2   34.40    4.50
  -1  -6  -2   30.40    3.20
  -1   6   2   35.40    3.50
   1   6  -2   29.90    4.00
  -1  -6  -2   30.00    2.70
   1   6   2   36.90    4.00
  -1   6  -2   28.80    3.50
   1   6   2   27.00    4.00
   1  -6  -2   34.50    2.70
  -1  -6   2   32.90    2.90
   2   6  -2   50.99    4.40
  -2  -6  -2   52.39    3.40
  -2   6   2   48.80    3.70
  -2  -6  -2   49.70    3.40
  -2  -6  -2   46.80    4.30
  -2   6  -2   49.70    3.70
  -2  -6   2   48.70    3.70
   2   6   2   50.19    4.10
  -2  -6   2   41.50    3.40
  -1   0   3   92.39    5.00
  -1   0   3   74.89    9.80
   1   0  -3   73.39    6.60
  -1   0  -3   77.09    4.80
   1   0   3   82.39    4.80
   2   0   3   10.80    2.60
   2   0  -3   13.90    5.10
   2   0  -3   11.20    2.50
   2   0  -3   11.60    1.80
  -2   0  -3   12.30    1.20
  -3   0   3  738.63   34.00
   3   0  -3  642.54   44.40
  -3   0  -3  738.23   33.80
   3   0   3  672.93   36.30
   3   0  -3  654.53   34.50
   3   0   3  687.83   34.50
   3   0  -3  650.33   35.90
  -4   0   3  195.58   11.90
   4   0  -3  179.08   13.50
   4   0   3  196.28   11.00
   4   0  -3  198.48   10.90
   4   0  -3  186.08   12.00
  -4   0   3  191.18   11.40
  -4   0  -3  191.78   11.60
  -4   0  -3  186.28   11.20
   5   0  -3  285.47   15.50
   5   0  -3  271.17   17.20
   5   0  -3  271.47   16.40
  -5   0  -3  298.47   15.50
  -5   0   3  283.87   15.50
   5   0   3  283.07   15.40
  -5   0  -3  282.57   15.10
  -5   0   3  295.07   15.30
   0   1   3 2380.86  125.19
   0  -1  -3 2543.65  125.29
  -1  -1  -3 3324.97  164.68
  -1  -1  -3 3073.69  165.18
   1   1  -3 3437.66  164.58
   1   1   3 3282.27  165.18
   1   1   3 3509.55  171.48
   1  -1  -3 3643.04  176.58
   1   1   3 3088.29  164.58
   2   1  -3  957.90   47.50
  -2   1   3  957.40   47.20
   2   1  -3  943.61   48.60
  -2  -1  -3  970.10   47.50
   2  -1   3  987.80   48.30
  -2   1   3  923.11   48.10
   2   1   3  872.91   47.50
  -2  -1   3 1037.60   47.50
   2   1   3  946.31   48.70
   2  -1  -3  969.50   55.19
   3   1  -3   93.39    6.70
   3  -1   3   99.29    6.10
  -3  -1  -3   88.29    5.20
   3   1  -3   98.09    5.80
   3  -1   3   90.89   10.80
  -3  -1   3   94.49   22.10
   3  -1  -3   92.59    5.50
   3   1   3   79.79    9.20
   3   1   3   78.79    6.00
   3   1   3   87.09    6.30
   3  -1  -3   79.09   16.70
  -3  -1   3  106.79    5.30
  -4   1   3  414.66   23.20
   4  -1   3  418.46   22.20
  -4  -1  -3  431.56   22.50
  -4  -1  -3  442.16   21.40
  -4  -1  -3  419.26   22.70
   4   1  -3  437.06   22.60
   4   1  -3  422.66   24.20
  -4   1   3  421.16   22.40
   4   1  -3  467.05   22.70
  -4   1  -3  436.96   22.90
   4   1   3  428.56   22.50
  -4  -1   3  433.66   21.60
  -4   1  -3  395.46   22.20
  -4  -1   3  434.46   22.80
   4  -1  -3  433.16   22.20
   4  -1  -3  416.76   22.70
  -4  -1   3  437.66   22.80
  -5   1   3   67.49    6.40
  -5  -1  -3   68.39    5.20
  -5   1   3   65.89    5.20
   5  -1   3   68.19    5.40
   5   1  -3   64.69    8.00
   5   1  -3   65.99    7.30
  -5  -1  -3   66.39    5.70
   5   1   3   75.89    9.00
   5  -1  -3   63.19    5.90
   5  -1  -3   68.39    6.90
   5   1   3   71.69    6.10
  -5   1  -3   69.49    5.10
  -5  -1   3   72.39    5.60
  -5  -1   3   70.99    5.80
  -5   1  -3   68.19    5.80
   5  -1  -3   71.29    5.50
   0  -2   3 1592.34   79.69
   0   2   3 1436.56   76.29
   0  -2  -3 1612.94   83.59
   0  -2   3 1672.03   77.79
   0  -2  -3 1433.86   76.59
   1  -2   3 1210.88   59.89
   1  -2   3 1319.77   66.39
   1   2  -3 1308.97   59.49
  -1  -2  -3 1138.39   59.89
  -1  -2  -3 1202.08   67.19
   1   2   3 1114.79   59.49
   1   2   3 1273.67   60.59
   1  -2  -3 1215.28   67.59
  -1  -2   3 1045.20   75.49
  -2  -2  -3  108.39    6.50
   2   2  -3  113.29    6.10
   2  -2   3  118.69   14.80
  -2  -2  -3   99.89   20.00
  -2  -2   3  100.29   20.60
   2  -2  -3  117.59   15.50
  -2  -2   3  105.99    6.40
   2   2   3  109.89    6.30
   2   2   3  114.29    8.50
  -3  -2  -3   25.70    3.20
  -3   2   3   30.90    4.10
   3   2  -3   22.50    3.60
   3   2  -3   17.40    7.70
   3   2   3   22.40    3.70
  -3  -2   3   22.90   27.40
  -3  -2   3   28.40    3.60
  -3  -2   3   23.20    4.00
  -3  -2   3   25.30    3.10
   3   2   3   27.50    3.80
   3  -2  -3   31.00    2.90
   4   2  -3  109.89    7.80
  -4  -2  -3  120.59    6.50
   4  -2   3  101.49    7.20
  -4  -2  -3  107.39    8.10
  -4   2   3  107.89    7.40
   4   2  -3  110.49   10.40
  -4  -2  -3  109.89    8.00
   4  -2  -3  120.39    6.90
  -4  -2   3  109.49    6.60
   4   2   3  125.99    8.10
   4  -2  -3  119.29    8.00
   4   2   3   87.19   11.10
  -4  -2   3  106.99    8.70
   4   2   3  123.49    8.80
  -4  -2   3  110.99    8.10
  -5  -2  -3  143.59    9.30
   5   2  -3  163.38   11.20
   5  -2   3  150.08    9.90
  -5  -2  -3  155.18    9.30
   5   2  -3  158.58   11.00
   5  -2   3  154.38    9.10
  -5  -2   3  164.68    9.60
  -5  -2   3  153.78    9.50
   5  -2  -3  165.78   10.60
   5  -2  -3  157.78    8.90
   5  -2  -3  148.69    9.40
   5   2   3  169.68   11.20
   0  -3  -3 3513.05  166.88
   0  -3   3 2740.93  180.08
   1  -3   3 3354.46  165.78
  -1  -3  -3 3141.19  166.48
  -1  -3  -3 3102.69  154.48
   1  -3  -3 3296.87  169.28
  -1  -3   3 2688.73  182.18
   1   3   3 3210.88  154.28
   2  -3   3  639.14   47.70
  -2  -3  -3  528.15   60.69
  -2  -3  -3  622.54   30.80
  -2  -3  -3  601.24   31.20
   2   3  -3  625.34   30.50
   2   3   3  631.94   30.80
  -2  -3   3  574.84   61.99
  -2  -3   3  621.84   30.90
   2  -3  -3  606.24   47.70
   2   3   3  666.53   34.40
  -3   3   3  321.17   16.40
  -3  -3  -3  301.77   15.90
   3   3  -3  317.07   16.00
  -3  -3  -3  299.87   16.30
  -3  -3  -3  291.67   16.30
  -3   3   3  332.87   16.90
  -3  -3  -3  322.77   19.30
   3   3  -3  301.87   18.80
  -3  -3   3  296.77   16.10
  -3  -3   3  274.67   16.90
   3   3   3  273.57   18.40
   3  -3  -3  339.17   15.90
   3   3   3  324.67   16.30
  -3  -3   3  287.17   16.60
  -4  -3  -3  222.98   13.80
  -4  -3  -3  228.18   13.40
   4   3  -3  247.78   13.20
  -4  -3  -3  229.38   12.50
   4   3  -3  217.48   14.80
   4  -3   3  212.98   12.60
   4   3   3  254.57   13.30
  -4  -3   3  248.08   13.50
  -4  -3   3  229.98   12.50
   4   3   3  218.78   14.30
   4  -3  -3  242.28   12.50
  -4  -3   3  228.58   12.50
   5   3  -3   41.60    5.30
   5  -3   3   44.20    4.30
  -5  -3  -3   37.20    4.40
  -5  -3  -3   41.30    4.00
   5  -3  -3   40.80    4.30
   5  -3  -3   46.00    3.80
  -5  -3   3   54.89    4.80
  -5  -3   3   48.50    4.20
   5   3   3   56.19    7.80
   0   4   3  282.87   15.40
   0   4   3  279.87   15.50
   0   4  -3  253.97   15.80
   0   4  -3  253.37   16.20
   0  -4  -3  279.67   14.20
  -1  -4  -3  120.29    6.80
   1   4  -3  113.39   10.20
  -1   4   3  127.59    8.40
  -1   4   3  115.89    8.60
   1   4  -3  103.39    9.40
  -1   4   3  116.19    8.20
  -1  -4  -3  114.19    8.60
   1   4   3  122.29    9.80
   1   4   3  109.19    9.20
  -1   4  -3  123.89    9.60
  -1  -4   3  121.89    7.20
  -1   4  -3  110.19    8.70
  -2  -4  -3  112.09    6.80
   2   4  -3  119.49   10.20
  -2  -4  -3  114.59    7.60
  -2   4   3  128.29    7.90
   2   4  -3  129.39    9.90
  -2   4   3  115.19    7.50
  -2   4  -3  113.89    8.40
  -2  -4   3  114.49    7.10
  -2  -4   3  109.59    8.50
   2   4   3  122.29    9.60
  -3  -4  -3  238.08   13.20
  -3   4   3  224.58   12.50
  -3   4   3  251.07   12.80
   3   4  -3  227.18   14.70
  -3  -4  -3  233.38   12.40
  -3  -4  -3  240.48   12.10
  -3  -4   3  207.18   13.00
   3   4   3  212.48   14.00
  -3   4  -3  235.88   12.90
  -3  -4   3  224.78   12.30
  -3  -4   3  214.68   12.60
   4   4  -3  171.28   11.70
  -4   4   3  177.68   10.50
  -4  -4  -3  194.68   10.90
   4   4   3  176.88   11.20
   4  -4  -3  185.38   10.00
  -4  -4   3  195.78   10.00
   0   5   3  159.68   10.00
   0   5  -3  167.58   10.40
   0  -5  -3  159.78    9.80
   0   5  -3  166.08   10.30
   0   5   3  165.08   10.00
  -1   5   3  128.89    8.30
  -1   5   3  145.39    8.30
   1   5  -3  118.49    8.70
   1   5  -3  133.59    9.40
  -1  -5  -3  128.09    8.00
  -1  -5  -3  126.19    7.20
  -1  -5   3  119.49    7.60
   1   5   3  123.19    8.70
  -1   5  -3  132.49    8.50
   1   5   3  111.79    8.60
  -2   5   3  626.74   33.30
  -2  -5  -3  672.33   33.20
   2   5  -3  681.03   34.50
  -2   5   3  694.43   33.60
  -2  -5  -3  672.93   33.40
  -2   5  -3  689.03   33.70
   2   5   3  637.94   34.10
  -2  -5   3  666.63   33.40
  -2  -5   3  627.74   33.60
   2  -5  -3  634.74   33.40
  -3  -5  -3    3.90    1.60
   3   5  -3    4.90    3.20
  -3  -5  -3    7.20    2.80
  -3  -5  -3    5.00    1.70
  -3   5   3    3.40    2.30
   3  -5  -3    3.10    2.80
   3   5   3    2.00    2.70
  -3   5  -3   -0.30    2.50
  -3  -5   3    6.30    2.00
  -3  -5   3    5.60    1.80
   0  -6   3    3.50    1.60
   0   6   3    2.50    2.00
   0   6  -3    2.60    2.30
  -1  -6  -3  109.19    6.20
   1   6  -3  103.99    6.80
  -1  -6  -3  104.39    5.90
  -1  -6  -3  103.89    7.10
  -1   6   3  100.49    6.40
   1   6  -3  117.89    7.20
   1   6   3  114.99    6.90
  -1   6  -3  101.59    6.60
   1  -6  -3  102.19    5.90
  -1  -6   3  110.99    7.50
  -1  -6   3  103.19    6.10
  -2   6   3   90.09    5.50
   2   6  -3   91.29    6.20
  -2  -6  -3   85.89    5.90
  -2  -6  -3   96.29    5.30
  -2  -6  -3   89.09    5.20
  -2  -6   3   90.49    5.60
  -2   6  -3   89.59    5.60
   2   6   3  100.09    5.90
  -2  -6   3   92.89    5.40
  -2   0   4 1967.90  103.49
   2   0  -4 1665.63   93.69
  -2   0   4 1861.01   87.99
  -2   0  -4 1813.02   87.89
   2   0  -4 1737.93   88.19
   2   0   4 1656.53   89.09
   3   0  -4  400.26   18.80
  -3   0   4  385.06   18.10
   3   0   4  360.96   20.80
   3   0   4  358.26   18.70
  -3   0   4  343.67   37.00
   3   0  -4  320.07   27.90
   3   0  -4  356.96   18.80
   4   0   4   39.90    4.30
   4   0  -4   47.50    6.60
  -4   0   4   46.00    6.50
  -4   0  -4   33.10    5.60
  -4   0  -4   48.00    5.10
   4   0  -4   38.60    6.40
   4   0  -4   43.50    4.40
  -4   0   4   40.00    3.20
  -4   0   4   39.70    4.50
   5   0  -4   13.90    3.70
   5   0  -4   10.50    5.50
  -5   0   4   21.00    2.90
  -5   0  -4   13.90    2.70
   5   0   4   15.50    2.90
  -5   0  -4   17.50    2.50
  -5   0   4   20.70    3.20
   5   0  -4   14.70    3.10
   0  -1  -4  399.86   19.20
   0  -1   4  385.06   20.20
   0   1   4  403.26   19.30
   0  -1   4  316.87   25.60
   0  -1  -4  410.86   23.60
   0   1   4  405.66   23.80
   0   1   4  357.56   19.10
   1   1   4 9999.00  491.85
  -2  -1  -4 3239.38  153.98
  -2   1   4 3226.88  153.78
   2  -1   4 3245.78 1053.79
   2   1  -4 3104.29  153.98
  -2   1   4 3079.79  154.68
   2  -1   4 3287.87  154.98
  -2  -1   4 2937.71  153.88
   2   1   4 3038.10  154.08
   2  -1  -4 3040.00  162.28
   2   1   4 3085.69  155.28
   3   1  -4 1536.45   77.39
   3  -1   4 1470.55   78.99
   3  -1   4 1458.85   77.29
   3   1  -4 1541.75   77.59
  -3  -1  -4 1662.23   77.09
  -3  -1   4 1602.04   77.09
   3   1   4 1497.55   77.49
   3  -1  -4 1487.15   90.79
   3   1   4 1591.14   79.99
   3  -1  -4 1656.23   77.29
  -3  -1   4 1492.35   78.09
  -3  -1   4 1665.23  101.69
   3   1   4 1601.54   77.59
   4   1  -4  318.37   17.60
   4   1  -4  350.36   17.80
  -4  -1  -4  334.97   17.70
  -4   1   4  329.87   17.50
   4   1  -4  322.17   19.40
  -4  -1  -4  320.27   17.80
   4  -1   4  303.07   17.20
  -4   1   4  336.97   18.50
   4  -1  -4  325.37   17.20
  -4   1  -4  330.37   18.00
  -4  -1   4  329.87   17.90
   4  -1  -4  324.17   17.80
   4   1   4  329.47   17.60
  -4  -1   4  332.37   18.00
  -4   1  -4  322.57   17.30
  -4  -1   4  323.27   16.60
  -5   1   4  788.62   39.10
  -5  -1  -4  788.92   39.10
   5   1  -4  752.02   39.70
  -5  -1  -4  763.12   38.80
   5  -1   4  761.32   38.90
   5   1  -4  766.02   39.60
  -5   1   4  748.73   38.60
   5   1   4  770.32   39.00
   5   1   4  775.72   40.00
  -5  -1   4  794.32   39.00
  -5  -1   4  809.72   39.10
   5  -1  -4  774.12   39.50
  -5   1  -4  782.32   39.00
   5  -1  -4  709.53   38.90
   5  -1  -4  751.62   38.90
   0  -2  -4 2618.54  138.69
   0   2   4 2953.60  138.79
   0   2   4 2543.85  138.39
   0  -2  -4 2940.41  146.79
   0  -2   4 3004.70  141.29
   1  -2   4  364.16   22.90
  -1  -2  -4  323.87   17.30
   1   2  -4  360.56   16.70
  -1  -2  -4  335.27   24.60
   1  -2   4  339.67   17.40
   1   2   4  359.16   18.00
  -1  -2   4  284.47   30.50
   1  -2  -4  341.07   24.70
   1   2   4  304.67   16.90
   2   2  -4   30.70    2.70
  -2  -2  -4   35.90    3.20
   2  -2   4   31.20    9.90
  -2  -2   4   27.90    3.10
   2  -2  -4   31.30   10.80
  -2  -2   4   30.60    3.40
  -2  -2   4   30.70   15.60
   2   2   4   29.90    2.90
   2   2   4   30.90    5.60
   3   2  -4  214.48   11.90
  -3   2   4  222.98   12.30
  -3  -2  -4  197.98   11.60
   3   2  -4  198.08   15.30
  -3  -2   4  228.48   14.00
   3   2   4  218.58   12.00
  -3  -2   4  225.88   39.80
   3   2   4  220.48   12.50
  -3  -2   4  213.98   11.80
  -3  -2   4  218.98   11.60
  -3  -2   4  206.18   12.80
   3  -2  -4  239.88   11.50
   4   2  -4   84.89    6.70
  -4  -2  -4   79.49    6.90
   4   2  -4   78.89    9.60
  -4  -2  -4   85.69    5.20
  -4  -2  -4   77.69    7.00
  -4   2   4   90.89    6.30
   4  -2  -4   87.59    5.60
   4   2   4   87.69    7.10
  -4  -2   4   85.49    6.90
   4   2   4   71.09   10.50
   4   2   4   94.29    7.50
  -4  -2   4  103.19    8.40
   4  -2  -4   88.79    6.80
  -4  -2   4   77.19    5.30
  -5  -2  -4   23.40    3.20
   5  -2   4   20.30    3.50
  -5  -2  -4   21.80    3.00
   5   2  -4   12.40    4.10
  -5  -2   4   14.20    3.10
   5  -2  -4   23.70    3.30
  -5  -2   4   18.20    3.10
   5  -2  -4   22.50    4.00
   5  -2  -4   21.40    3.10
   0  -3  -4  248.28   22.60
   0  -3   4  190.58   30.70
   1  -3   4 1185.28   65.79
  -1  -3  -4 1117.69   67.99
  -1  -3  -4 1129.39   56.79
  -1  -3  -4 1087.99   55.39
  -1  -3   4  955.80   81.09
   1  -3  -4 1167.08   69.99
   1   3   4 1162.18   55.19
  -2  -3  -4  483.55   23.60
   2  -3   4  490.25   40.60
  -2  -3  -4  406.86   54.19
  -2  -3  -4  444.96   24.10
  -2  -3   4  446.66   23.80
   2   3   4  501.25   27.80
  -2  -3   4  441.06   54.19
   2  -3  -4  425.86   40.80
   2  -3  -4  531.45   23.70
   2   3   4  485.25   23.70
  -3   3   4  963.20   45.30
  -3  -3  -4  907.41   45.70
  -3   3   4  916.51   45.00
   3   3  -4  904.61   44.70
  -3  -3  -4  878.41   44.60
  -3  -3  -4  872.91   45.00
   3   3  -4  902.91   46.80
  -3  -3  -4  906.81   44.90
   3   3   4  938.71   45.00
  -3  -3   4  826.92   45.20
  -3  -3   4  886.71   44.90
   3  -3  -4  960.20   44.60
  -3  -3   4  825.52   45.30
   3   3   4  913.01   46.10
   3   3   4  809.72   46.20
  -4  -3  -4  115.69    8.90
  -4  -3  -4  129.09    8.80
  -4  -3  -4  125.19    7.60
   4   3  -4  117.89   10.50
  -4   3   4  153.58    9.70
   4   3  -4  125.19    8.60
  -4  -3   4  123.19    7.70
   4   3   4  125.09   10.60
   4   3   4  133.29    8.70
  -4  -3   4  133.49    8.70
  -4  -3   4  122.39    7.60
   4  -3  -4  133.39    7.60
   5  -3   4  174.98   10.10
   5   3  -4  182.18   10.90
  -5  -3  -4  198.08   10.10
  -5  -3  -4  179.38   10.20
  -5  -3   4  199.18   10.20
  -5  -3   4  191.98   10.50
   5  -3  -4  187.78   10.70
   5  -3  -4  165.78    9.90
   5  -3  -4  169.18   10.00
   0   4   4    6.90    3.80
   0  -4  -4    2.70    1.60
   0   4  -4   10.20    4.50
   0   4   4   -2.00    2.90
   0   4  -4    4.30    4.50
  -1   4   4  398.06   18.70
  -1   4   4  361.46   18.40
  -1  -4  -4  347.77   17.60
  -1  -4  -4  309.27   18.30
   1   4  -4  311.37   19.70
  -1   4   4  352.36   18.50
   1   4  -4  315.97   19.20
   1  -4  -4  359.86   17.50
   1   4   4  333.47   20.00
  -1   4  -4  329.27   18.80
   1   4   4  325.37   19.10
  -1  -4   4  321.67   17.90
  -1   4  -4  379.56   19.30
   2   4  -4  920.51   48.60
   2   4  -4  939.41   49.10
  -2   4   4  990.50   48.00
  -2  -4  -4  922.71   47.70
  -2   4   4  974.10   47.70
  -2  -4  -4  950.70   47.50
  -2  -4   4  954.30   47.70
   2  -4  -4 1004.20   47.40
   2   4   4  899.31   48.60
  -2   4  -4  995.40   48.20
  -2  -4   4  901.41   48.10
  -3   4   4  349.77   17.80
  -3  -4  -4  344.77   18.10
  -3   4   4  335.47   17.50
   3   4  -4  327.37   19.50
  -3  -4  -4  339.77   17.40
  -3  -4  -4  352.06   17.20
  -3  -4   4  338.17   17.50
   3   4   4  315.77   18.70
  -3  -4   4  292.17   18.00
   3  -4  -4  343.57   17.70
  -3  -4   4  324.37   17.70
  -4   4   4   22.90    4.10
   4   4  -4   18.20    3.80
  -4  -4  -4   24.80    4.30
   4   4   4   28.30    5.30
   4  -4  -4   24.00    2.90
  -4  -4   4   24.50    3.20
   0   5  -4   23.10    4.10
   0   5   4   23.90    4.50
   0   5   4   24.10    3.70
   0  -5  -4   24.20    3.50
   0  -5  -4   22.80    2.70
  -1  -5  -4  777.12   38.80
   1   5  -4  757.62   39.80
  -1   5   4  785.62   39.30
  -1   5   4  767.72   39.00
  -1  -5  -4  765.42   39.10
   1   5  -4  769.82   39.90
  -1   5  -4  783.12   39.60
   1   5   4  725.43   40.00
  -1  -5   4  817.42   39.10
   1   5   4  792.22   39.70
  -2   5   4  177.38   10.20
  -2   5   4  194.08   10.40
  -2  -5  -4  183.58    9.90
  -2  -5  -4  183.48   10.10
   2   5  -4  177.08   11.70
  -2  -5   4  170.28   10.60
  -2   5  -4  201.88   10.70
  -2  -5   4  179.98   10.20
   2   5   4  177.18   11.10
  -3  -5  -4   60.09    5.40
   3   5  -4   61.89    6.30
  -3  -5  -4   68.99    4.30
  -3   5   4   62.49    4.70
  -3  -5  -4   65.79    4.20
  -3  -5   4   62.19    4.70
   3   5   4   62.49    5.70
  -3  -5   4   60.89    4.40
  -3   5  -4   65.59    5.10
   3  -5  -4   62.79    4.20
   0   6   4    1.20    2.00
   0   6  -4    2.60    2.20
   1   6  -4  457.65   23.40
  -1   6   4  447.16   23.10
  -1  -6  -4  423.36   23.40
  -1  -6  -4  454.05   22.90
  -1  -6  -4  437.36   22.80
   1   6  -4  492.85   23.50
  -1  -6   4  449.16   22.90
   1  -6  -4  452.15   22.70
  -1   6  -4  445.86   23.20
   1   6   4  470.65   23.40
   2   6  -4    8.50    2.30
  -2  -6  -4   13.30    2.30
  -2  -6  -4   11.30    1.60
   2   6  -4   14.20    3.00
  -2   6   4   12.40    1.90
  -2  -6  -4   10.50    1.60
  -2   6  -4   14.80    2.50
  -2  -6   4   13.10    2.00
   2  -6  -4    9.40    1.70
   2   6   4   15.40    3.00
  -2  -6   4   15.00    2.30
   0   0  -5   -7.00    2.20
   0   0   5   -7.50    1.70
   0   0   5   -5.90    3.50
  -2   0   5   73.79   13.60
  -2   0  -5   73.99    3.60
  -2   0   5   68.39    3.80
   2   0   5   61.79    5.30
   2   0  -5   64.99    4.30
   2   0  -5   62.59    8.50
  -3   0   5  152.78   27.00
   3   0   5  160.18    9.10
   3   0  -5  153.08   19.00
   3   0   5  157.98   11.80
   3   0  -5  154.58    9.20
  -3   0   5  174.38    8.30
  -4   0   5  346.07   18.10
   4   0   5  344.17   19.00
  -4   0  -5  356.26   19.50
  -4   0   5  367.26   19.70
  -4   0  -5  344.27   19.10
  -4   0   5  360.76   19.30
   4   0  -5  384.96   19.10
   4   0  -5  355.66   19.70
   4   0  -5  397.66   20.90
  -5   0   5  362.06   18.50
   5   0  -5  347.17   18.40
   5   0   5  351.46   18.40
   5   0  -5  327.17   19.90
  -5   0  -5  354.76   17.90
  -5   0  -5  353.66   18.40
   5   0  -5  321.77   19.10
  -5   0   5  349.17   18.30
   0   1   5   70.29    3.90
   0  -1  -5   66.79    7.70
   0  -1   5   54.59    9.20
   0  -1   5   60.99    4.80
   0   1   5   63.99    8.00
   0   1   5   65.39    3.60
   2  -1   5  750.72   36.50
   2   1  -5  705.83   35.30
  -2   1   5  736.33   35.10
  -2  -1  -5  699.13   35.30
   2   1   5  631.94   35.40
   2  -1  -5  671.93   43.20
  -2  -1   5  751.72   35.20
   2   1   5  710.93   36.70
  -3  -1  -5  531.45   24.90
   3  -1   5  481.65   27.30
   3  -1   5  456.45   25.20
   3   1  -5  474.85   25.30
   3   1  -5  518.35   25.70
   3  -1  -5  475.15   38.60
   3   1   5  494.85   25.50
  -3  -1   5  501.55   24.90
   3   1   5  479.15   25.40
  -3  -1   5  489.45   25.30
  -3  -1   5  522.05   48.10
   3   1   5  489.45   28.30
   3  -1  -5  531.65   25.10
  -4  -1  -5  445.66   24.10
  -4   1   5  455.85   24.10
  -4   1   5  480.65   25.00
  -4  -1  -5  457.95   24.30
   4   1  -5  445.86   24.20
   4   1  -5  478.35   25.80
   4  -1   5  443.66   23.90
   4   1  -5  493.95   24.40
  -4  -1   5  481.25   24.50
   4  -1  -5  478.45   23.90
  -4   1  -5  430.46   23.70
   4   1   5  480.45   24.20
   4  -1  -5  450.35   24.30
  -4  -1   5  464.95   23.30
  -4  -1   5  469.95   24.50
  -4   1  -5  459.85   24.30
  -5  -1  -5  184.68   10.60
   5  -1   5  180.88   10.80
  -5  -1  -5  203.98   11.10
  -5   1   5  193.08   11.70
  -5   1   5  198.48   10.70
   5   1  -5  190.28   12.40
   5   1  -5  181.78   12.40
   5  -1  -5  177.38   11.00
   5  -1  -5  190.48   12.00
  -5  -1   5  190.88   11.00
   5  -1  -5  199.38   10.90
   5   1   5  195.28   13.80
  -5   1  -5  190.68   11.00
   5   1   5  200.38   11.20
  -5  -1   5  204.28   11.20
   0  -2   5  227.28   25.00
   0  -2  -5  243.78   13.00
   0   2   5  236.48   12.80
   0  -2   5  279.47   14.50
   0  -2  -5  260.97   20.30
  -1  -2  -5  563.44   30.00
  -1   2   5  543.65   29.40
   1  -2   5  616.54   30.30
   1   2  -5  649.64   29.40
   1  -2   5  658.43   36.20
  -1  -2  -5  578.04   38.40
  -1  -2   5  581.54   46.70
   1  -2  -5  605.34   38.80
   1   2   5  530.45   29.70
   1   2   5  626.74   30.80
   2   2  -5  248.88   12.30
   2  -2   5  260.07   22.40
  -2  -2  -5  222.38   12.50
   2   2   5  240.38   14.80
  -2  -2   5  255.87   31.40
  -2  -2   5  226.68   12.60
   2   2   5  210.28   12.40
   2  -2  -5  222.18   22.90
  -2  -2   5  240.48   12.50
   3   2  -5  110.09   11.90
  -3  -2  -5  121.79    6.90
  -3   2   5  105.29    7.90
   3   2  -5  112.79    7.00
  -3  -2  -5  103.79    8.80
  -3   2   5  118.99    8.00
  -3  -2   5  116.99    6.90
   3   2   5  107.99    7.40
  -3  -2   5  107.79    8.40
  -3  -2   5  124.79    8.90
   3   2   5  139.19    8.10
   3  -2  -5  123.99    6.70
  -3  -2   5  113.59    7.10
  -4  -2  -5  209.28   12.40
  -4   2   5  197.78   11.80
  -4  -2  -5  209.28   11.20
   4   2  -5  193.08   14.40
  -4  -2  -5  202.98   12.50
  -4   2   5  240.08   14.40
   4   2  -5  213.78   12.20
   4   2   5  213.88   12.60
  -4  -2   5  216.28   12.00
  -4  -2   5  225.68   13.20
  -4  -2   5  212.78   11.30
   4  -2  -5  219.38   11.60
   4   2   5  217.48   12.60
  -4  -2   5  220.38   12.50
   4  -2  -5  208.78   12.10
   5   2  -5   14.20    4.00
  -5   2   5   10.70    2.50
  -5  -2  -5   10.90    2.70
   5  -2   5    9.50    2.30
  -5  -2  -5   10.20    2.50
   5  -2  -5   13.00    3.50
   5  -2  -5    8.50    2.10
   5   2   5   18.50    4.00
  -5  -2   5    9.80    3.00
   5  -2  -5   14.80    2.80
  -5  -2   5   10.50    2.80
   0  -3  -5   16.30   11.10
   0  -3   5   20.70   18.60
  -1  -3  -5 1528.05   88.99
  -1  -3  -5 1512.35   74.99
   1   3   5 1601.44   74.89
   1  -3  -5 1548.55   90.39
  -1  -3   5 1381.46  103.09
  -2  -3  -5  923.21   46.40
  -2  -3  -5  919.91   46.90
   2  -3   5  942.01   64.09
  -2  -3   5  905.31   46.60
   2  -3  -5  895.31   65.89
   2   3   5  937.71   46.50
   2  -3  -5 1040.10   46.30
   2   3   5  975.40   50.29
  -2  -3   5  841.22   79.39
  -3   3   5  635.14   31.40
  -3   3   5  583.54   31.30
  -3  -3  -5  611.34   31.00
  -3  -3  -5  610.24   31.40
   3   3  -5  651.73   31.10
  -3  -3  -5  605.04   31.20
   3   3  -5  602.14   33.50
  -3  -3  -5  633.54   32.20
  -3   3   5  660.53   31.80
   3   3   5  552.64   32.70
   3  -3  -5  675.33   31.10
  -3  -3   5  556.54   31.90
   3   3   5  653.53   32.70
  -3  -3   5  605.84   31.40
  -3  -3   5  584.94   31.70
   3   3   5  655.53   31.50
   4   3  -5   98.89   10.00
  -4   3   5  106.59    7.90
  -4  -3  -5  114.09    6.90
  -4  -3  -5  112.99    8.30
  -4  -3  -5  109.49    7.80
  -4  -3   5  115.99    7.00
  -4  -3   5  110.29    6.90
   4   3   5   95.89    9.60
   4  -3  -5  117.69    6.80
  -4  -3   5  106.69    7.90
   4   3   5  128.09    8.20
  -5  -3  -5   15.20    2.70
  -5  -3  -5   15.40    2.20
   5  -3   5   13.50    2.70
   5   3  -5   16.00    3.30
   5  -3  -5   13.80    2.20
   5  -3  -5   24.10    4.50
  -5  -3   5   17.50    2.60
  -5  -3   5   16.10    2.90
   5  -3  -5   19.10    3.10
   0   4   5  159.38   10.20
   0   4   5  158.08    9.90
   0  -4  -5  153.08   44.80
   0   4   5  141.49   10.10
   0   4  -5  156.68   11.80
   0  -4  -5  137.69    8.30
   0   4  -5  163.98   10.80
  -1  -4  -5   28.10    4.90
   1   4  -5   47.80    6.50
   1   4  -5   49.10    7.30
  -1   4   5   42.80    5.60
  -1   4   5   41.10    5.20
  -1  -4  -5   34.50    3.20
   1   4   5   34.80    4.90
   1   4   5   42.90    5.70
   1  -4  -5   39.30    3.20
  -1   4  -5   41.50    5.30
  -1  -4   5   40.80    4.30
   2   4  -5  124.09   10.70
   2   4  -5  141.79   11.50
  -2   4   5  167.38    9.10
  -2  -4  -5  135.29    8.60
  -2   4   5  147.39    8.70
  -2  -4   5  136.89    8.40
  -2   4  -5  157.38    9.80
   2   4   5  148.99   11.30
  -2  -4   5  120.69    9.70
   2   4   5  129.79   10.20
   2  -4  -5  167.28    7.90
  -3  -4  -5   36.40    3.60
  -3   4   5   38.90    3.90
  -3   4   5   37.00    4.40
  -3  -4  -5   36.30    3.70
   3   4  -5   41.90    6.00
  -3  -4  -5   33.50    5.50
  -3  -4   5   31.50    4.40
  -3  -4   5   31.60    3.70
   3  -4  -5   37.00    3.40
   3   4   5   35.80    6.20
  -4   4   5  104.59    6.80
   4   4  -5   93.79    8.20
  -4  -4  -5  105.69    6.90
   4  -4  -5  100.79    6.00
  -4  -4   5  104.39    6.10
   0  -5  -5   61.69    4.10
   0   5   5   62.49    5.60
   0   5  -5   60.89    6.60
   0   5   5   63.69    6.40
   0   5  -5   57.79    6.30
   0   5   5   64.89    5.70
  -1  -5  -5  180.28    9.40
  -1   5   5  179.48   10.20
  -1  -5  -5  172.38    9.90
   1   5  -5  162.58   11.00
   1   5  -5  160.28   11.30
  -1   5   5  176.98   10.10
   1   5   5  171.28   10.60
  -1  -5   5  172.78    9.80
  -1   5  -5  173.28   10.60
   1  -5  -5  181.18    9.30
  -2   5   5   38.20    4.80
  -2  -5  -5   36.30    3.60
  -2   5   5   38.20    3.90
   2   5  -5   44.80    6.20
  -2  -5  -5   37.30    3.20
   2  -5  -5   38.80    3.10
  -2  -5   5   30.50    3.60
  -2   5  -5   34.80    4.50
   2   5   5   35.10    5.20
  -3  -5  -5  135.59    7.00
  -3   5   5  122.99    7.30
  -3   5   5  127.99    7.50
  -3  -5  -5  121.29    7.80
  -3  -5  -5  124.59    6.90
   3   5  -5  125.79    8.80
   3  -5  -5  124.19    6.90
  -3   5  -5  121.89    7.70
  -3  -5   5  120.29    7.40
  -3  -5   5  121.39    7.10
   3   5   5  124.99    8.10
   0  -6   5  146.59    8.50
   0   6  -5  153.18    9.00
   0  -6  -5  159.38    8.40
   0   6   5  153.98    8.70
   0  -6  -5  157.98    8.20
  -1  -6  -5   51.79    3.40
   1   6  -5   65.29    5.20
  -1  -6  -5   48.20    4.80
   1   6  -5   58.39    4.80
  -1  -6  -5   52.59    3.70
  -1   6  -5   49.80    4.20
   1  -6  -5   46.10    3.30
   1   6   5   60.59    4.50
  -1  -6   5   50.49    3.90
  -2   6   5    7.00    1.70
   2   6  -5    6.60    2.40
  -2  -6  -5    4.50    1.60
  -2  -6  -5    4.50    1.30
   2   6  -5    6.70    2.70
  -2  -6   5    5.60    1.80
   2  -6  -5    3.70    1.40
   2   6   5    7.80    2.00
  -2  -6   5    3.10    1.50
  -2   6  -5    3.40    2.00
   0   0  -6  139.69   10.80
   0   0  -6  128.79    7.30
   0   0  -6  167.98   14.80
   0   0   6  126.99   10.30
  -1   0   6  138.19    6.60
  -1   0   6  129.89   10.70
  -1   0   6  126.79    7.70
  -1   0  -6  113.39    6.50
   1   0   6  117.79    7.30
   1   0  -6  130.79    6.90
   2   0  -6  236.18   12.80
   2   0   6  226.18   13.90
  -2   0   6  256.67   12.50
  -2   0  -6  250.77   12.30
   2   0  -6  224.78   18.00
  -2   0   6  276.67   26.40
   3   0   6  599.14   33.00
   3   0  -6  665.43   30.60
   3   0  -6  603.24   30.70
   3   0   6  581.94   30.50
  -3   0   6  648.34   30.10
  -3   0   6  571.24   52.79
   3   0  -6  552.54   41.40
   4   0  -6   45.40    4.40
  -4   0  -6   48.10    4.90
   4   0  -6   40.20    5.90
  -4   0   6   34.70    3.10
   4   0   6   42.50    4.50
  -4   0   6   49.70    5.50
  -4   0  -6   44.40    5.50
   4   0  -6   48.50    6.40
  -4   0   6   52.29    6.50
   5   0  -6  334.97   17.80
   5   0  -6  319.47   18.60
  -5   0  -6  347.57   17.40
  -5   0   6  343.37   17.80
  -5   0   6  342.97   18.00
   5   0   6  332.47   17.90
  -5   0  -6  354.66   17.90
   5   0  -6  311.57   19.50
   0   1   6 3082.49  145.89
   0  -1  -6 2955.30  151.88
   0  -1  -6 3118.39  146.09
   0   1   6 3172.48  146.29
   0  -1  -6 2566.14  154.68
   0  -1   6 2875.01  155.58
  -1  -1  -6 7361.56  350.26
   1   1   6 6873.51  350.16
   2  -1   6  740.13   38.90
  -2   1   6  816.12   37.60
   2   1  -6  733.93   37.80
  -2  -1  -6  762.22   37.70
   2  -1  -6  715.73   38.40
   2   1   6  711.23   37.90
  -2  -1   6  847.32   55.69
  -2  -1   6  751.52   37.70
   2   1   6  759.02   39.30
   2  -1  -6  730.53   46.30
   3  -1   6  972.10   52.79
   3  -1   6  932.41   50.59
   3   1  -6 1092.29   50.99
   3   1  -6  998.90   50.69
  -3  -1  -6 1060.09   50.29
   3  -1  -6  986.90   51.19
  -3  -1   6  994.80   50.59
   3  -1  -6  955.00   64.89
   3   1   6  988.30   50.79
  -3  -1   6 1013.20   50.29
   3  -1  -6 1136.89   50.59
   3   1   6 1023.80   53.59
  -3  -1   6 1021.80   76.09
  -4  -1  -6   43.30    4.90
   4   1  -6   27.60    5.40
  -4   1   6   35.90    5.30
   4   1  -6   39.40    6.10
  -4   1   6   37.30    5.00
  -4  -1  -6   44.50    5.60
   4   1  -6   37.40    5.10
   4  -1   6   40.20    4.20
  -4   1  -6   39.30    5.00
  -4  -1   6   40.30    3.10
  -4   1  -6   38.60    5.60
  -4  -1   6   36.70    4.50
   4  -1  -6   45.50    5.40
  -4  -1   6   32.50    4.50
   4  -1  -6   41.30    4.00
   4   1   6   36.90    4.50
  -5   1   6  484.35   24.70
   5   1  -6  480.05   25.90
  -5  -1  -6  494.95   24.70
   5   1  -6  490.85   25.90
  -5  -1  -6  496.75   25.00
  -5   1   6  502.55   25.20
   5  -1   6  472.65   24.90
   5   1   6  502.35   26.80
   5  -1  -6  466.45   24.80
   5  -1  -6  435.36   24.80
  -5  -1   6  466.25   25.00
   5   1   6  487.35   25.00
   5  -1  -6  475.95   25.50
  -5  -1   6  490.05   25.00
  -5   1  -6  498.15   25.00
   0   2   6  437.86   21.10
   0  -2  -6  455.25   29.90
   0  -2   6  368.56   34.20
  -1  -2  -6 3406.66  165.28
   1  -2   6 3566.24  172.18
   1  -2   6 3330.67  165.78
  -1  -2  -6 3247.97  175.48
  -1   2   6 3185.08  164.78
  -1  -2   6 3173.58  185.28
   1   2   6 3164.38  164.98
   1   2   6 3647.14  166.28
   1  -2  -6 3411.46  175.88
   2  -2   6 4305.57  216.58
   2   2  -6 4267.97  215.38
  -2  -2  -6 4159.78  215.58
   2  -2   6 4425.06  227.48
  -2  -2   6 4599.34  243.48
  -2  -2   6 4256.67  215.48
   2   2   6 4649.63  217.68
   2   2   6 4006.70  215.48
   2  -2  -6 4115.49  228.28
   2  -2  -6 4926.41  215.58
  -3  -2  -6  118.79   11.00
  -3   2   6  139.99    8.60
  -3   2   6  134.99    8.60
  -3   2   6  163.38    9.90
   3   2  -6  142.99    8.00
  -3  -2  -6  126.29    9.30
   3   2  -6  118.79   12.40
  -3  -2  -6  118.29    9.50
  -3  -2  -6  136.29    7.80
  -3  -2   6  152.78    8.10
  -3  -2   6  148.09    7.90
   3   2   6  140.39    8.70
   3  -2  -6  130.09    7.60
  -3  -2   6  141.89    9.50
   3   2   6  134.69    8.40
  -3  -2   6  131.39    9.30
   4   2  -6   24.90    5.40
  -4  -2  -6   34.10    4.20
  -4  -2  -6   38.10    5.20
  -4   2   6   28.90    3.40
  -4  -2  -6   38.90    3.20
   4   2  -6   30.00    5.00
  -4   2   6   42.20    6.70
  -4  -2   6   36.30    3.40
   4   2   6   39.10    5.80
   4  -2  -6   31.80    4.70
   4  -2  -6   39.70    3.50
   4   2   6   31.00    5.40
  -4  -2   6   23.90    3.60
  -4  -2   6   33.60    4.90
  -4  -2   6   28.80    4.80
  -5   2   6  461.85   23.80
   5  -2   6  453.05   24.20
  -5  -2  -6  478.55   24.20
  -5  -2  -6  480.55   24.30
   5   2  -6  475.45   25.20
   5   2   6  497.95   24.50
   5  -2  -6  457.15   24.10
  -5  -2   6  478.45   24.40
   5  -2  -6  430.16   24.20
  -5  -2   6  492.15   24.40
   5  -2  -6  485.55   24.80
   0  -3  -6  272.17   26.50
   0  -3  -6  256.97   13.70
  -1  -3  -6  273.77   27.50
  -1  -3  -6  262.37   13.50
   1  -3  -6  266.27   27.60
  -1  -3   6  228.08   36.90
   1   3   6  261.37   13.40
   1  -3  -6  267.67   13.40
  -2  -3  -6  120.79    8.20
   2   3  -6  121.89   12.40
  -2   3   6  142.89    8.50
  -2  -3  -6  130.09    8.40
  -2  -3  -6  130.09    7.40
  -2   3   6  143.89    8.90
  -2  -3   6  130.59    7.80
   2   3   6  138.99   14.90
  -3  -3  -6   73.99    5.50
  -3  -3  -6   71.29    7.70
  -3  -3  -6   71.19    5.60
  -3   3   6   69.29    6.10
   3   3  -6   71.99   10.20
  -3   3   6   84.29    6.60
  -3   3   6   81.89    5.90
   3   3   6   80.99    8.80
   3   3   6   78.49    5.90
   3  -3  -6   79.99    4.80
  -3  -3   6   67.69    6.50
  -3  -3   6   70.89    6.90
  -3  -3   6   73.19    5.30
  -4  -3  -6  164.08   10.10
  -4  -3  -6  164.98   10.00
  -4  -3  -6  163.18    9.20
  -4   3   6  158.48    9.90
   4   3  -6  150.58   11.80
  -4  -3   6  165.08    9.20
   4   3   6  187.38   10.40
   4  -3  -6  158.88    9.00
  -4  -3   6  169.88   10.10
   4   3   6  151.08   11.10
  -4  -3   6  148.89    9.20
  -5  -3  -6  214.48   11.80
   5   3  -6  215.98   12.50
  -5  -3  -6  223.58   11.60
   5  -3  -6  230.58   12.20
   5  -3  -6  217.38   11.70
  -5  -3   6  233.48   11.80
   5  -3  -6  198.58   11.60
  -5  -3   6  226.78   12.10
   0   4   6   10.70    4.00
   0  -4  -6   13.70    3.60
   0   4   6    9.10    3.70
   0   4   6    4.80    3.00
   0  -4  -6    7.60    1.60
   0   4  -6   13.60    5.60
   0   4  -6    9.40    4.10
   1   4  -6  707.53   37.90
  -1  -4  -6  723.43   36.60
  -1  -4  -6  738.33   36.20
  -1   4   6  747.13   36.60
   1   4  -6  690.23   37.50
  -1   4   6  757.42   36.80
   1  -4  -6  757.02   36.10
  -1   4  -6  682.03   37.20
  -1  -4   6  713.13   36.50
   1   4   6  692.43   37.20
   1   4   6  734.03   37.00
  -2  -4  -6  677.13   42.20
  -2  -4  -6  794.92   39.50
   2   4  -6  807.22   41.00
  -2  -4  -6  756.92   39.70
  -2   4   6  807.32   39.80
  -2   4   6  792.62   40.00
   2   4  -6  808.92   41.40
   2   4   6  748.53   40.60
   2  -4  -6  859.11   39.40
  -2  -4   6  764.62   40.40
   2   4   6  821.02   40.50
  -2   4  -6  808.82   40.30
  -2  -4   6  808.02   39.90
  -3  -4  -6  195.58   12.60
   3   4  -6  206.08   14.10
  -3   4   6  232.78   12.20
  -3  -4  -6  215.88   12.60
  -3  -4  -6  226.68   11.60
  -3   4   6  229.08   11.90
  -3  -4  -6  225.68   11.50
   3   4   6  215.98   13.50
  -3  -4   6  194.88   11.80
   3   4   6  209.98   13.20
   3  -4  -6  230.48   11.50
  -3  -4   6  210.88   12.10
   4   4  -6  119.79    9.10
  -4  -4  -6  138.59    8.00
  -4   4   6  125.69    7.70
   4  -4  -6  122.59    7.10
  -4  -4   6  126.19    7.30
   0   5   6  257.47   14.30
   0   5   6  261.37   14.10
   0   5  -6  263.97   14.90
   0   5   6  274.97   14.50
   0   5  -6  242.58   14.70
   0  -5  -6  252.37   13.40
   0  -5  -6  255.97   13.90
  -1  -5  -6   29.30    3.70
   1   5  -6   30.30    4.60
  -1   5   6   32.60    3.60
  -1  -5  -6   28.60    5.00
  -1  -5  -6   29.70    2.90
   1   5  -6   30.70    4.50
  -1   5   6   29.20    4.10
  -1   5  -6   32.20    4.90
   1  -5  -6   28.10    2.70
  -1  -5   6   28.00    4.40
   1   5   6   38.10    5.90
   1   5   6   26.10    4.60
  -2  -5  -6   18.10    2.80
   2   5  -6   14.60    3.60
  -2   5   6   14.70    2.50
  -2  -5  -6   15.50    3.10
  -2   5   6   23.50    3.40
  -2  -5  -6   19.00    2.50
   2   5  -6   20.40    3.80
  -2   5  -6   24.80    4.00
   2   5   6   17.60    3.00
  -2  -5   6   17.10    3.00
   2  -5  -6   22.00    2.50
   3   5  -6   51.59    5.80
  -3  -5  -6   55.79    3.50
  -3  -5  -6   45.20    4.40
  -3   5   6   49.10    4.20
  -3   5   6   45.10    4.00
   3   5   6   47.00    4.80
  -3  -5   6   45.10    4.10
   3  -5  -6   47.30    3.50
  -3  -5   6   48.50    3.80
   0   6  -6  261.77   14.50
   0  -6  -6  285.57   14.00
   0  -6  -6  267.77   13.80
   0   6   6  264.87   14.20
  -1   6   6  311.17   16.80
   1   6  -6  356.26   17.30
  -1  -6  -6  323.47   17.10
  -1  -6  -6  323.07   16.50
   1   6  -6  323.17   17.20
  -1  -6  -6  348.27   16.60
   1  -6  -6  319.47   16.60
   1  -6  -6  315.57   16.40
  -1  -6   6  317.07   16.70
  -1   6  -6  310.67   16.90
  -2  -6  -6  113.19    5.80
  -2   6   6  100.39    6.00
  -2  -6  -6  101.99    5.70
  -2  -6  -6  105.79    6.30
   2   6  -6  120.19    6.80
   2   6  -6  102.79    6.70
   2  -6  -6   97.49    5.80
   2   6   6  110.49    6.30
  -2  -6   6  102.29    6.20
  -2  -6   6  100.79    6.00
  -2   6  -6  101.19    6.10
   0   0  -7    4.00    1.10
   0   0  -7    4.40    6.20
   0   0  -7    3.50    3.10
   0   0   7    4.30    4.90
   0   0   7    4.50    3.10
  -1   0   7   81.99    9.10
   1   0   7   88.79    5.80
  -1   0   7  102.39   13.70
  -1   0  -7   88.49    4.80
  -1   0   7   87.49    4.90
   1   0  -7   88.09    5.20
   1   0  -7   82.09    8.50
   2   0  -7   50.29    3.80
  -2   0   7   55.69   13.90
   2   0  -7   49.30    8.50
  -2   0   7   55.09    3.20
   2   0   7   52.79    5.20
  -2   0  -7   59.29    2.90
   3   0  -7  118.39    7.50
   3   0   7  117.99   10.90
  -3   0   7  113.09   27.70
  -3   0   7  125.99    6.50
   3   0  -7  132.79    7.40
   3   0   7  115.49    7.40
   4   0  -7   17.50    4.90
   4   0   7   22.40    3.70
  -4   0  -7   11.80    3.00
   4   0  -7   17.00    3.80
  -4   0   7   13.20    2.30
  -4   0   7   17.20    3.80
  -4   0  -7   12.00    2.80
   4   0  -7   16.90    3.70
  -4   0   7   13.80    3.20
   4   0  -7   15.30    2.70
  -5   0  -7   19.20    2.40
   5   0   7   22.50    3.80
  -5   0   7   18.60    2.90
   5   0  -7   26.30    4.50
   5   0  -7   14.00    3.50
   5   0  -7   17.70    5.30
  -5   0   7   18.10    3.20
  -5   0  -7   17.70    2.80
   0  -1  -7  385.26   26.20
   0   1   7  414.36   20.50
   0  -1  -7  382.96   20.70
   0   1   7  426.36   20.90
   0  -1   7  431.76   22.90
  -1   1   7 4414.96  206.08
   1  -1   7 4074.99  206.38
  -1  -1  -7 4012.20  205.68
  -1  -1  -7 4086.59  214.38
   1   1  -7 4260.67  205.58
  -1   1   7 3929.01  205.48
   1   1   7 3874.91  205.68
   1  -1  -7 4536.35  205.88
  -1  -1   7 4525.05  222.08
   1   1   7 4061.79  206.48
   1  -1  -7 4148.48  213.28
   2  -1   7  839.42   43.60
   2   1  -7  845.62   42.40
  -2   1   7  884.91   42.20
  -2  -1  -7  838.22   42.30
   2   1   7  762.32   42.40
   2  -1  -7  824.42   42.60
   2   1   7  876.91   44.10
  -2  -1   7  948.11   61.69
   2  -1  -7  798.42   51.39
  -2  -1   7  879.21   42.20
   3   1  -7  577.94   28.50
   3  -1   7  538.45   30.70
   3  -1   7  503.95   29.20
  -3  -1  -7  592.94   27.50
   3   1  -7  544.25   28.10
  -3  -1   7  556.14   28.00
   3  -1  -7  507.15   42.60
   3  -1  -7  582.34   27.80
  -3  -1   7  547.85   53.49
  -3  -1   7  573.64   27.70
   3   1   7  544.55   31.40
   3   1   7  536.35   28.20
  -4  -1  -7  165.58   10.40
  -4   1   7  178.48   10.20
   4  -1   7  158.08    9.70
  -4  -1  -7  169.08   10.00
   4   1  -7  166.18   10.30
   4   1  -7  169.38   12.40
  -4   1   7  165.48   11.90
  -4   1  -7  173.68   10.50
  -4  -1   7  156.98   10.40
  -4  -1   7  162.68   10.60
  -4   1  -7  158.38    9.80
  -4  -1   7  168.38    9.00
   4  -1  -7  178.88   10.40
   4   1   7  167.88   10.00
   4  -1  -7  186.38    9.70
  -5   1   7   68.19    5.00
   5   1  -7   61.99    7.90
  -5   1   7   72.29    6.50
   5  -1   7   67.19    5.10
  -5  -1  -7   71.79    5.50
  -5  -1  -7   67.19    4.80
   5   1  -7   68.49    7.00
   5  -1  -7   65.79    5.10
  -5   1  -7   53.39    5.40
  -5  -1   7   62.99    5.60
   5  -1  -7   53.19    5.50
   5   1   7   61.49    5.50
  -5  -1   7   62.69    5.40
   5  -1  -7   61.59    6.30
   0   2   7   48.40    3.20
   0  -2  -7   55.89    4.60
   0  -2   7   45.20   12.90
   0  -2  -7   44.50    9.80
   1  -2   7 1612.74  106.99
  -1  -2  -7 1780.42   99.29
   1  -2   7 1783.82   96.19
   1  -2   7 1749.32   88.59
  -1  -2  -7 1773.92   88.09
  -1   2   7 1789.42   87.69
   1   2   7 1706.53   87.79
  -1  -2   7 1762.92  108.49
   1  -2  -7 1837.32   99.29
   1   2   7 1961.90   89.19
  -2  -2  -7 2738.33  142.19
  -2  -2  -7 2817.82  142.49
   2  -2   7 3138.79  155.48
   2  -2   7 2843.82  143.69
   2   2  -7 2789.62  142.19
  -2  -2   7 3170.68  171.58
   2   2   7 2771.62  142.49
   2  -2  -7 2683.13  155.58
   2  -2  -7 3096.09  142.19
   2   2   7 3073.49  144.69
   2   2   7 2694.53  142.49
  -2  -2   7 2788.22  142.49
  -3  -2  -7  907.81   48.20
  -3  -2  -7  978.00   47.60
  -3   2   7  964.20   47.80
  -3  -2  -7  868.21   48.50
  -3   2   7  926.71   47.70
   3   2  -7  949.60   47.70
  -3  -2  -7  941.91   48.10
  -3   2   7 1041.90   48.20
   3   2  -7  859.61   49.50
   3   2   7  995.20   48.00
   3   2   7  949.90   47.90
  -3  -2   7  916.21   48.10
   3  -2  -7 1008.00   47.50
  -3  -2   7  972.20   47.50
   3  -2  -7 1002.00   47.90
  -3  -2   7  924.51   48.20
  -3  -2   7  971.20   47.70
  -4  -2  -7   10.90    3.20
  -4   2   7   10.00    2.60
  -4  -2  -7    9.30    3.00
  -4  -2  -7   11.10    1.90
   4   2  -7   14.30    3.40
   4   2  -7   13.70    5.00
  -4   2  -7    6.30    3.90
  -4  -2   7   11.90    3.00
  -4  -2   7   12.10    4.40
   4   2   7   13.90    4.00
  -4  -2   7    7.90    2.70
   4  -2  -7   14.90    2.10
   4   2   7   14.50    3.50
   4  -2  -7   11.10    2.90
  -4  -2   7   18.30    2.30
  -5  -2  -7  786.92   39.10
   5   2  -7  772.72   39.90
   5  -2   7  764.32   39.20
  -5  -2  -7  805.02   39.20
  -5   2   7  767.42   38.80
   5   2   7  802.02   39.40
   5  -2  -7  792.62   39.60
  -5  -2   7  800.02   39.30
  -5  -2   7  797.72   39.30
   5  -2  -7  717.23   39.10
   5  -2  -7  754.82   39.10
   0  -3  -7  713.13   49.80
   0   3   7  721.13   34.20
   0  -3   7  604.84   57.99
   0  -3  -7  715.03   34.40
  -1  -3  -7  330.97   16.30
   1  -3   7  284.77   40.10
  -1  -3  -7  338.07   32.00
   1   3   7  345.97   16.40
  -1  -3   7  305.07   41.90
   1  -3  -7  323.57   31.90
  -1  -3   7  302.57   17.10
   2   3  -7   35.40    6.70
  -2   3   7   22.80    3.90
  -2  -3  -7   15.70    2.80
  -2  -3  -7   15.60    2.40
   2   3  -7   34.60    7.20
   2   3  -7   16.90    9.00
  -2  -3  -7   17.90    3.30
  -2   3   7   23.50    3.60
  -2  -3   7   23.40    3.40
   2   3   7   19.00    3.20
   2  -3  -7   18.40    2.30
   2   3   7   26.60   10.30
   2   3   7   18.00    5.60
  -3  -3  -7  589.94   29.00
   3   3  -7  564.54   31.40
  -3  -3  -7  528.45   30.00
   3   3  -7  560.34   30.80
  -3  -3  -7  602.84   30.00
  -3  -3  -7  564.74   29.30
  -3   3   7  628.94   29.70
  -3   3   7  557.04   29.10
  -3  -3   7  568.44   29.30
   3   3   7  587.34   30.20
   3   3   7  605.24   29.50
   3   3   7  512.05   31.40
   3  -3  -7  608.24   28.90
  -3  -3   7  569.04   29.70
  -3  -3   7  557.04   29.80
  -4   3   7   60.09    5.80
  -4  -3  -7   55.49    4.80
  -4  -3  -7   55.89    5.80
   4   3  -7   60.59    7.90
  -4  -3  -7   61.89    5.40
   4  -3  -7   55.69    4.20
   4   3   7   56.99    6.50
   4   3   7   53.79    6.60
  -4  -3   7   59.49    4.90
  -4  -3   7   55.89    5.40
  -4  -3   7   57.59    4.60
  -5  -3  -7   37.60    3.30
   5  -3   7   34.00    4.60
  -5  -3  -7   41.90    4.10
   5   3  -7   40.00    4.80
   5  -3  -7   41.60    4.40
  -5  -3   7   42.40    3.70
   5  -3  -7   38.10    3.50
   5  -3  -7   41.10    3.60
  -5  -3   7   42.10    5.20
   5   3   7   43.10    4.90
   0   4   7  537.25   26.30
   0  -4  -7  508.95   25.90
   0  -4  -7  441.16   26.60
   0   4   7  500.65   26.00
   0   4  -7  486.85   26.80
   0  -4  -7  515.65   25.30
   0   4   7  527.05   26.30
   1   4  -7   73.29    8.30
  -1  -4  -7   83.29    6.30
  -1   4   7   91.89    6.70
  -1   4   7   88.59    6.60
   1   4  -7   73.79    9.90
  -1  -4  -7   88.49    5.30
  -1  -4   7   74.79    6.20
   1  -4  -7   96.69    5.10
  -1   4  -7   87.49    8.10
   1   4   7   87.29    7.50
   1   4   7   94.99    8.10
  -2  -4  -7  689.83   33.60
   2   4  -7  658.83   35.60
  -2   4   7  674.23   33.90
  -2   4   7  695.83   34.20
  -2  -4  -7  685.13   33.80
   2   4  -7  670.33   35.20
  -2  -4  -7  637.44   34.60
   2   4   7  721.43   34.50
  -2  -4   7  566.84   34.40
  -2  -4   7  678.03   34.00
   2   4   7  634.34   34.70
  -2   4  -7  661.73   34.50
   2  -4  -7  724.03   33.50
  -3   4   7  464.35   24.30
   3   4  -7  468.55   26.00
  -3  -4  -7  452.75   24.70
  -3  -4  -7  487.55   24.00
  -3  -4  -7  447.26   24.90
  -3   4   7  496.45   24.60
   3  -4  -7  493.55   24.00
   3   4   7  490.55   25.10
  -3  -4   7  454.95   24.60
  -3  -4   7  483.95   24.40
   4   4  -7   28.40    5.40
  -4   4   7   28.90    3.90
  -4  -4  -7   26.90    4.20
  -4  -4  -7   34.40    4.10
  -4  -4   7   28.50    5.00
   4  -4  -7   30.00    2.90
  -4  -4   7   34.70    3.30
   4  -4  -7   24.40    3.40
   0   5   7   81.19    6.40
   0  -5  -7   85.79    5.60
   0   5   7   92.49    6.50
   0   5   7   77.29    6.10
   0   5  -7   75.89    6.90
   0   5  -7   72.09    7.70
   0  -5  -7   79.99    4.90
  -1  -5  -7  437.56   21.80
   1   5  -7  419.36   22.80
   1   5  -7  423.26   22.90
  -1   5   7  439.26   22.10
  -1   5   7  420.76   21.90
  -1  -5  -7  397.66   22.40
  -1  -5  -7  437.46   21.60
  -1   5  -7  410.36   22.50
   1   5   7  433.46   22.20
  -1  -5   7  387.86   22.00
   1   5   7  446.06   22.40
   1  -5  -7  435.56   21.50
  -2  -5  -7  386.06   21.20
  -2  -5  -7  416.16   20.50
  -2   5   7  407.56   20.90
   2   5  -7  420.26   21.70
  -2  -5  -7  400.96   20.40
   2   5  -7  412.86   21.80
  -2  -5  -7  351.96   22.60
   2  -5  -7  393.96   20.30
   2   5   7  387.26   21.20
  -2   5  -7  427.06   21.10
  -2  -5   7  407.96   20.80
   3   5  -7   38.10    5.20
  -3  -5  -7   27.30    3.60
  -3  -5  -7   29.70    2.70
  -3   5   7   32.40    3.50
  -3   5   7   36.30    3.30
   3  -5  -7   29.00    3.90
  -3  -5   7   29.80    3.30
   3  -5  -7   30.00    2.70
   3   5   7   22.20    4.40
  -3  -5   7   30.00    3.20
   0  -6  -7   23.60    2.50
   0   6  -7   26.10    3.70
   0  -6  -7   26.10    2.20
   0   6   7   27.10    3.30
   1   6  -7   10.00    2.50
   1   6  -7   12.10    2.80
  -1   6   7   10.30    2.10
  -1  -6  -7   13.00    1.90
  -1  -6  -7   14.50    3.50
  -1   6   7   19.90    2.90
  -1  -6  -7   11.60    2.10
   1  -6  -7   13.90    1.80
  -1  -6   7   11.00    2.00
  -1  -6   7   14.10    2.90
  -1   6  -7   19.70    3.10
   1  -6  -7   11.20    3.90
   1  -6  -7   15.20    2.40
   2   6  -7   74.39    5.20
  -2   6   7   62.29    4.80
  -2  -6  -7   61.29    4.00
  -2  -6  -7   72.39    3.90
  -2  -6  -7   71.19    4.60
   2   6  -7   66.99    5.20
  -2   6   7   60.99    4.20
  -2  -6   7   59.19    4.20
   2  -6  -7   69.59    4.30
   2  -6  -7   62.59    4.00
  -2  -6   7   67.49    4.50
  -2   6  -7   63.99    4.40
   0   0  -8 6728.63  311.27
   0   0   8 5620.24  301.17
   0   0  -8 5668.43  295.57
  -1   0   8 1472.65   67.19
   1   0  -8 1358.06   67.39
  -1   0   8 1267.57   72.49
   1   0   8 1332.07   68.09
   1   0  -8 1284.07   72.09
  -1   0   8 1503.25   81.89
  -1   0  -8 1300.77   67.09
  -2   0   8   66.29    3.60
   2   0  -8   60.89    4.20
  -2   0   8   61.99   15.70
   2   0   8   57.49    5.80
   2   0  -8   54.19    9.60
  -3   0   8 1118.69   89.09
   3   0  -8 1424.66   62.99
   3   0  -8 1245.48   63.09
   3   0   8 1283.87   65.79
  -3   0   8 1281.97   62.49
   3   0   8 1220.18   62.89
  -4   0  -8   33.70    4.70
   4   0   8   44.60    4.50
   4   0  -8   45.60    6.00
   4   0  -8   39.10    7.60
   4   0  -8   39.40    6.00
  -4   0  -8   42.50    5.10
  -4   0   8   48.50    5.50
   4   0  -8   51.59    4.60
  -4   0   8   42.30    5.80
  -4   0   8   42.50    3.30
  -5   0   8   -2.70    2.60
   5   0  -8   -5.50    5.20
  -5   0  -8    4.70    2.00
   5   0  -8   -0.80    3.60
   5   0   8   -1.10    2.10
   5   0  -8   -2.80    2.90
  -5   0  -8   -1.60    2.10
  -5   0   8    1.40    2.30
   0  -1  -8  115.19    6.80
   0  -1   8  113.69    9.10
   0   1   8  129.09    7.00
   0  -1   8  126.39   14.10
   0   1   8  121.89    6.50
   0  -1  -8  113.89   12.20
  -1  -1  -8  303.27   16.00
  -1  -1  -8  278.87   23.30
  -1   1   8  306.47   16.60
   1   1  -8  309.07   15.80
  -1  -1  -8  299.27   24.10
  -1   1   8  365.06   15.80
   1  -1   8  292.17   16.60
   1  -1   8  355.56   21.30
   1  -1  -8  301.17   22.90
   1   1   8  327.87   17.00
   1   1   8  291.47   15.90
   1  -1  -8  318.57   16.20
  -2   1   8 3731.53  185.58
  -2  -1  -8 3683.53  185.68
   2   1  -8 3714.43  185.78
   2  -1   8 3794.72  187.18
  -2  -1   8 3959.10  185.68
  -2  -1   8 3910.41  208.58
   2  -1  -8 3495.65  195.68
   2   1   8 3523.55  185.88
   2   1   8 3917.01  187.68
   2  -1  -8 3943.21  186.08
  -3  -1  -8  690.23   32.70
  -3   1   8  659.93   33.90
   3  -1   8  628.54   33.30
   3  -1   8  629.14   36.20
  -3  -1  -8  668.13   34.70
   3   1  -8  652.63   33.30
   3   1   8  647.44   33.40
  -3  -1   8  669.23   33.20
  -3  -1   8  689.03   32.90
  -3  -1   8  684.33   61.79
   3  -1  -8  719.73   33.10
   3  -1  -8  576.24   48.90
  -3  -1   8  623.14   34.40
   4  -1   8  109.69    7.10
  -4  -1  -8  110.79    7.40
  -4   1   8  115.09    7.60
  -4  -1  -8  109.29    7.70
  -4   1   8  104.99    9.50
   4   1  -8  100.29    7.80
   4   1  -8  109.39   10.10
  -4  -1   8  111.69    8.40
  -4  -1   8  108.19    8.00
  -4  -1   8  111.49    6.40
   4   1   8  103.99    7.30
   4  -1  -8  117.59    7.80
  -4   1  -8  111.19    7.80
   4  -1  -8  122.09    7.00
   5  -1   8   30.70    3.80
  -5  -1  -8   31.30    4.10
   5   1  -8   34.80    6.20
  -5   1   8   30.90    3.90
   5   1  -8   28.20    5.40
  -5  -1  -8   35.00    3.70
   5  -1  -8   34.30    4.00
   5   1   8   35.60    4.50
  -5  -1   8   31.70    4.40
   5  -1  -8   29.20    4.60
  -5  -1   8   35.20    4.80
  -5   1  -8   30.10    4.50
   5  -1  -8   30.10    5.70
   0  -2  -8   24.70    9.30
   0   2   8   24.70    2.40
   0  -2   8   23.00   11.70
   0  -2  -8   31.70    4.00
  -1   2   8  957.20   46.60
  -1  -2  -8  897.31   47.00
  -1  -2  -8  912.81   58.49
   1  -2   8  957.20   47.70
  -1  -2   8  958.20   67.09
   1   2   8  876.51   46.70
   1   2   8 1019.10   48.20
   1  -2  -8  929.61   58.09
  -2  -2  -8 2025.00  103.69
   2   2  -8 2128.59  103.89
  -2  -2  -8 2047.60  104.09
   2  -2   8 2244.98  117.29
   2  -2   8 2135.79  105.59
  -2   2   8 2005.70  103.59
  -2  -2   8 2068.59  104.09
   2   2   8 2237.08  106.59
   2   2   8 1952.50  104.09
   2  -2  -8 2035.30  118.89
   2   2   8 1969.80  104.09
  -2  -2   8 2377.16  134.39
  -3  -2  -8  256.17   15.70
   3   2  -8  274.07   14.20
   3   2  -8  240.38   17.40
  -3  -2  -8  258.57   14.90
  -3   2   8  286.97   15.20
  -3   2   8  270.57   14.50
  -3  -2  -8  278.47   14.00
  -3  -2  -8  258.57   15.20
   3  -2  -8  274.37   13.90
   3  -2  -8  273.17   14.60
  -3  -2   8  245.68   14.90
   3   2   8  273.97   14.60
  -3  -2   8  253.17   15.10
  -3   2  -8  281.67   15.70
  -3  -2   8  263.07   14.20
   3   2   8  260.07   14.50
  -3  -2   8  266.77   14.60
  -4  -2  -8  181.58   11.20
  -4   2   8  182.58   10.80
   4   2  -8  180.08   11.20
   4   2  -8  200.28   13.50
  -4  -2  -8  179.68    9.90
  -4  -2  -8  190.68   11.10
   4   2   8  190.68   11.30
   4   2   8  199.68   12.00
  -4  -2   8  195.18   10.90
   4  -2  -8  194.18   10.50
  -4  -2   8  191.38   10.30
  -4   2  -8  196.38   11.90
  -4  -2   8  215.58   12.50
  -4  -2   8  185.08   11.20
   4  -2  -8  184.38   11.00
  -5  -2  -8   41.70    3.60
   5  -2   8   37.10    4.30
   5   2  -8   40.30    5.60
  -5  -2  -8   46.60    4.20
  -5   2   8   40.30    3.80
   5  -2  -8   40.50    3.90
  -5   2  -8   58.19    6.90
   5  -2  -8   48.80    5.10
   5   2   8   44.00    5.10
   5  -2  -8   41.40    4.20
  -5  -2   8   45.80    4.30
  -5  -2   8   45.10    4.60
   0  -3   8   65.59   24.60
   0  -3  -8   71.79    4.30
   0   3   8   76.39    4.40
   0  -3  -8   65.19   17.80
  -1  -3  -8  368.96   19.80
  -1  -3  -8  343.47   35.00
  -1  -3  -8  376.36   18.80
   1  -3  -8  349.17   35.00
  -1  -3   8  366.76   19.30
   1  -3  -8  408.66   18.80
  -1  -3   8  371.86   46.70
   1   3   8  375.66   19.00
  -2   3   8  109.89    7.70
   2   3  -8   82.59   14.60
   2   3  -8  107.89   12.10
   2   3  -8  105.59   10.50
  -2  -3  -8   98.39    7.10
  -2   3   8  103.79    7.10
  -2  -3  -8   99.29    5.90
  -2  -3  -8  105.19    6.70
   2   3   8  100.99    9.10
  -2  -3   8  103.99    9.00
  -2  -3   8   87.29   12.00
   2  -3  -8  106.89    5.80
   2   3   8  105.09    6.50
  -2  -3   8  103.89    6.50
  -3   3   8  559.94   27.40
  -3   3   8  534.15   27.20
  -3  -3  -8  503.85   27.90
  -3  -3  -8  531.35   27.40
   3   3  -8  525.65   29.60
  -3   3   8  586.04   27.90
  -3  -3  -8  503.15   27.00
  -3  -3  -8  530.85   28.10
   3   3  -8  465.15   29.00
   3  -3  -8  576.44   27.10
  -3  -3   8  551.74   28.80
  -3  -3   8  522.95   27.80
   3  -3  -8  518.35   27.40
  -3  -3   8  549.95   27.50
  -3  -3   8  521.35   28.00
   3   3   8  562.14   28.30
   3   3   8  565.74   27.70
  -4  -3  -8   53.09    5.20
   4   3  -8   46.00    7.40
  -4  -3  -8   62.79    5.80
  -4   3   8   65.19    5.60
  -4   3   8   58.09    4.90
  -4  -3  -8   47.60    4.60
  -4  -3   8   56.69    4.60
   4   3   8   62.19    6.20
   4   3   8   56.79    6.80
   4  -3  -8   59.79    4.20
  -4  -3   8   60.19    5.50
  -4  -3   8   51.29    4.90
  -5  -3  -8   65.29    4.10
   5   3  -8   58.09    5.20
  -5  -3   8   67.69    4.50
   5   3   8   67.79    5.40
   5  -3  -8   61.79    4.40
   5  -3  -8   59.09    4.30
   5  -3  -8   66.99    5.00
   0   4   8   74.19    6.40
   0  -4  -8   63.59    7.40
   0   4  -8   66.59    7.70
   0   4   8   74.09    6.50
   0   4   8   82.09    6.50
   0  -4  -8   78.79    4.50
   0  -4  -8   69.89    5.80
  -1  -4  -8  598.64   34.80
  -1  -4  -8  695.83   34.00
   1   4  -8  674.93   35.50
  -1   4   8  710.53   34.60
  -1  -4  -8  682.83   34.20
   1   4  -8  670.63   35.90
  -1   4   8  690.23   34.40
   1   4   8  705.23   34.70
   1  -4  -8  703.53   33.90
   1   4   8  658.03   34.90
  -1  -4   8  676.23   34.40
  -1   4  -8  660.53   35.10
  -2  -4  -8  131.49    9.90
   2   4  -8  136.99   10.50
  -2   4   8  147.79    8.70
  -2   4   8  133.79    8.40
  -2  -4  -8  141.69    8.20
   2   4  -8  152.18   11.60
  -2  -4  -8  138.09    7.70
  -2  -4  -8  127.39    9.20
   2  -4  -8  144.99    7.70
  -2  -4   8  130.89    9.80
  -2   4  -8  157.88    9.90
  -2  -4   8  137.69    8.30
   2   4   8  133.79    9.80
   2   4   8  154.48    9.90
  -3  -4  -8  134.39    8.80
  -3  -4  -8  147.59    7.70
  -3  -4  -8  140.69    9.10
   3   4  -8  140.79   10.50
  -3   4   8  140.29    8.10
  -3   4   8  138.69    8.40
  -3  -4   8  128.49    8.50
   3  -4  -8  143.99    7.70
   3   4   8  138.99    9.50
  -3  -4   8  130.79    8.20
  -4   4   8   89.69    6.40
  -4  -4  -8  110.69    6.60
   4   4  -8   97.79    7.60
  -4  -4  -8  111.09    6.70
  -4  -4   8   98.39    6.00
   4  -4  -8   94.49    5.80
  -4  -4   8   99.79    7.20
   4   4   8  114.69    7.30
   4  -4  -8   98.29    6.20
   0   5   8  128.99    8.50
   0  -5  -8  144.39    7.90
   0   5  -8  129.69    9.20
   0   5   8  137.69    8.50
   0  -5  -8  141.79    7.50
  -1  -5  -8  694.03   37.50
   1   5  -8  724.53   37.80
  -1  -5  -8  729.03   36.70
  -1   5   8  738.33   37.00
  -1   5   8  750.02   37.20
  -1  -5  -8  756.52   36.90
   1   5  -8  687.43   37.80
   1   5   8  745.53   37.10
  -1  -5   8  734.83   37.10
   1  -5  -8  765.92   36.80
  -1   5  -8  715.53   37.50
   1  -5  -8  766.02   36.60
   1   5   8  728.13   37.40
  -2   5   8  456.05   23.40
  -2  -5  -8  403.26   25.20
  -2  -5  -8  475.65   23.10
  -2   5   8  434.06   23.50
   2   5  -8  447.26   24.50
   2   5  -8  459.65   24.40
  -2  -5  -8  489.05   23.20
  -2  -5  -8  450.65   24.00
  -2  -5   8  442.06   23.80
   2   5   8  468.45   24.00
  -2   5  -8  490.55   23.80
  -2  -5   8  461.95   23.60
   2   5   8  474.45   24.00
  -3   5   8   62.89    4.40
  -3  -5  -8   66.49    4.80
   3   5  -8   65.19    6.10
  -3   5   8   58.19    4.50
  -3  -5  -8   65.29    4.00
   3   5   8   70.89    6.00
   3  -5  -8   61.69    4.00
  -3  -5   8   62.79    4.40
   3  -5  -8   70.39    4.50
  -3  -5   8   60.29    4.60
   0  -6  -8  156.18    8.30
   0   6  -8  153.28    9.20
   0  -6  -8  166.68    8.40
  -1  -6  -8   67.29    5.30
  -1   6   8   65.99    4.90
  -1  -6  -8   71.59    4.10
   1   6  -8   82.69    5.80
  -1   6   8   66.99    4.70
  -1  -6  -8   79.59    4.30
   1   6  -8   70.69    5.20
   1  -6  -8   71.99    6.50
   1  -6  -8   63.99    4.10
  -1  -6   8   67.09    6.00
  -1  -6   8   69.89    4.70
   1  -6  -8   67.29    4.30
  -1   6  -8   75.09    4.90
  -2   6   8   98.79    6.10
   2   6  -8  112.29    6.50
  -2  -6  -8  109.79    5.60
  -2  -6  -8  108.09    6.20
   2   6  -8  101.49    6.50
  -2   6   8  100.79    5.80
  -2  -6   8   94.09    5.90
  -2  -6   8   97.29    6.10
   2  -6  -8   92.39    5.60
  -2   6  -8  107.69    6.00
   2  -6  -8  105.49    5.80
   0   0  -9    7.50    1.30
   0   0   9    7.30    6.00
   0   0   9    6.80    1.70
   0   0  -9    7.30    4.80
   1   0  -9 2476.25  119.19
  -1   0  -9 2287.47  118.79
  -1   0   9 2547.34  118.99
   1   0   9 2382.86  120.09
   1   0  -9 2180.78  124.29
  -1   0   9 2604.64  135.79
   2   0  -9  697.13   35.50
  -2   0   9  747.23   35.20
   2   0   9  724.33   37.20
  -2   0   9  753.62   55.29
   2   0  -9  612.84   42.10
   3   0   9    7.90    6.60
   3   0  -9    2.10    2.10
  -3   0   9    4.00   22.70
  -3   0   9    4.40    1.20
   3   0  -9    5.60    2.50
  -3   0  -9    6.10    4.40
   3   0   9    6.00    2.20
  -4   0   9  428.96   22.90
  -4   0   9  458.95   24.00
  -4   0  -9  453.65   23.90
   4   0   9  437.56   23.60
   4   0  -9  500.05   25.10
   4   0  -9  477.25   23.60
   4   0  -9  456.55   24.20
  -4   0   9  466.05   23.90
   4   0  -9  434.86   23.80
  -4   0  -9  439.26   23.30
   5   0   9    0.40    2.20
  -5   0  -9   -0.10    2.10
  -5   0   9    5.10    2.40
   5   0  -9   11.30    5.70
   5   0  -9   -1.00    3.20
  -5   0   9    4.70    2.90
  -5   0  -9    5.00    1.90
   0  -1  -9   18.30    2.50
   0   1   9   18.00    2.30
   0  -1  -9   18.30    7.00
   0  -1   9   12.90    7.00
   0  -1   9   12.60    5.30
  -1   1   9 1773.62   92.89
   1   1  -9 1858.31   92.89
   1  -1   9 1909.41   93.99
  -1  -1  -9 1835.22  102.99
  -1  -1  -9 1815.82   92.99
  -1  -1  -9 1863.41  103.49
   1  -1   9 2068.19   99.69
   1   1   9 1946.31   94.19
  -1  -1   9 2081.59  110.89
   1  -1  -9 1872.01   93.19
   1  -1  -9 1783.22  101.39
   1   1   9 1759.92   92.99
   2  -1   9 1125.89   57.89
  -2   1   9 1163.98   56.09
   2   1  -9 1111.59   56.29
  -2  -1  -9 1104.59   56.09
   2  -1  -9 1170.58   56.59
  -2  -1   9 1235.18   78.89
   2   1   9 1001.90   56.39
   2   1   9 1066.69   56.39
  -2  -1   9 1170.38   56.09
   2  -1  -9 1209.98   56.09
   2  -1  -9 1065.99   66.69
  -2  -1   9 1085.69   56.29
   2   1   9 1197.58   58.39
  -3  -1  -9   16.10    3.60
  -3  -1  -9   17.70    3.50
  -3   1   9   14.70    3.40
  -3  -1  -9   16.90    2.20
   3   1  -9   11.40    2.50
  -3   1   9   24.50    5.40
   3  -1   9   28.50   13.20
   3   1  -9   22.40    7.10
   3  -1  -9   12.30    2.00
   3   1   9   10.80    2.30
  -3  -1   9   16.20    2.60
   3  -1  -9   19.30    3.50
  -3  -1   9   15.70    3.90
  -3   1  -9   17.20    4.10
   3  -1  -9   20.10    4.40
  -3  -1   9   17.30    2.70
   3  -1  -9    8.50   24.30
  -3  -1   9   16.00    3.70
   4   1  -9   98.49    7.90
  -4   1   9   97.19    9.50
  -4  -1  -9  112.69    7.80
   4  -1   9  103.59    7.10
  -4   1   9  100.89    7.40
   4   1  -9   99.49    9.80
  -4  -1  -9  113.29    7.30
   4  -1  -9   99.79    9.60
   4   1   9  108.39    7.10
  -4  -1   9  108.89    8.00
  -4  -1   9  118.39    8.40
  -4   1  -9  110.89    7.60
   4  -1  -9  106.09    7.60
   4   1   9  105.19    9.40
   4  -1  -9  116.89    6.80
  -4  -1   9  109.99    6.20
   5   1  -9  137.89    9.70
  -5   1   9  142.59    8.20
  -5  -1  -9  141.99    7.90
  -5  -1  -9  137.59    8.40
   5  -1   9  143.49    8.30
  -5   1  -9  147.89    8.50
  -5  -1   9  143.39    8.70
   5  -1  -9  121.89    8.40
   5   1   9  142.29    8.50
   5  -1  -9  141.49    9.30
   5  -1  -9  136.69    8.40
  -5  -1   9  137.79    8.50
   0   2   9  839.42   42.10
   0  -2  -9  836.12   42.50
   0  -2  -9  817.12   53.49
   0  -2   9  884.11   60.09
   1  -2   9 1878.81   95.59
  -1  -2  -9 1902.81  108.29
  -1   2   9 1916.81   94.39
  -1  -2  -9 1894.51   94.69
   1  -2  -9 1919.61   94.89
  -1  -2   9 1941.51  117.29
   1   2   9 2095.39   96.19
   1  -2  -9 1839.72  106.89
   1   2   9 1798.82   94.49
  -2  -2  -9 1309.97   65.99
   2  -2   9 1304.47   67.69
   2   2  -9 1316.27   65.69
  -2   2   9 1295.17   65.59
   2  -2  -9 1239.58   81.39
   2   2   9 1318.17   66.09
   2   2   9 1418.36   68.89
   2   2   9 1259.97   65.99
  -2  -2   9 1281.77   65.99
  -2  -2   9 1518.55   96.59
  -3  -2  -9  219.58   11.20
  -3   2   9  224.88   12.60
  -3  -2  -9  214.88   13.00
  -3  -2  -9  207.58   12.50
   3   2  -9  200.98   15.30
   3   2  -9  198.68   11.40
  -3  -2  -9  212.38   12.30
  -3   2   9  205.58   11.80
  -3  -2   9  207.18   12.70
  -3   2  -9  205.88   13.00
  -3  -2   9  197.88   11.50
   3  -2  -9  215.78   11.80
   3   2   9  211.98   12.00
   3   2   9  199.28   11.80
   3  -2  -9  212.28   11.10
  -3  -2   9  204.28   12.30
  -4  -2  -9  785.02   40.20
   4   2  -9  791.82   40.30
  -4   2   9  752.32   40.00
  -4  -2  -9  800.32   40.40
   4   2  -9  809.22   41.70
   4  -2  -9  762.72   40.20
   4  -2  -9  792.12   40.00
  -4  -2   9  783.92   39.80
  -4  -2   9  815.72   40.90
  -4  -2   9  781.62   40.00
   4   2   9  820.12   40.50
  -4   2  -9  827.62   40.60
  -4  -2   9  790.32   40.50
   4   2   9  833.52   40.80
   5  -2   9   36.10    4.30
  -5  -2  -9   39.50    3.60
  -5  -2  -9   42.30    3.90
  -5   2   9   38.80    3.50
   5   2  -9   49.50    5.40
   5  -2  -9   34.80    3.90
  -5   2  -9   37.30    5.00
   5  -2  -9   42.60    4.00
  -5  -2   9   50.19    4.40
   5  -2  -9   38.70    4.60
  -5  -2   9   44.20    4.00
   5   2   9   36.10    4.60
   0   3   9  283.87   14.20
   0  -3  -9  286.97   14.10
   0  -3   9  250.47   38.30
   0  -3  -9  283.67   31.50
  -1  -3  -9  990.40   46.90
  -1  -3  -9  948.21   47.80
  -1  -3  -9  907.41   66.19
  -1  -3   9  903.11   47.30
   1  -3  -9 1012.00   46.90
  -1  -3   9  930.91   78.89
   1  -3  -9  866.61   65.29
   1   3   9  990.60   47.20
  -2   3   9   15.70    3.80
   2   3  -9   13.80    6.60
  -2  -3  -9   10.20    2.90
  -2  -3  -9    9.80    3.60
  -2   3   9   10.60    2.90
  -2  -3  -9   11.90    2.30
   2   3  -9   10.00    7.80
  -2  -3  -9   12.10    4.90
  -2  -3  -9   11.50    1.70
   2   3  -9   19.80    5.80
   2   3   9   15.70    4.80
   2  -3  -9   12.90    3.00
  -2  -3   9   16.20    4.40
   2   3   9   11.80    2.30
  -2  -3   9    9.60    2.10
   2  -3  -9    7.70    1.40
  -3   3   9  148.69    8.60
   3   3  -9  136.79   11.60
  -3   3   9  157.88    9.40
  -3  -3  -9  144.09    9.70
  -3  -3  -9  145.29    9.60
   3   3  -9  123.99   16.30
  -3   3   9  142.49    8.60
  -3  -3  -9  150.08    8.70
   3   3  -9  147.49   12.30
  -3  -3   9  132.89    9.30
   3  -3  -9  150.88    8.00
   3   3   9  151.68    9.30
   3   3   9  136.89   10.10
   3  -3  -9  152.38    8.80
  -3  -3   9  147.79    9.80
  -3  -3   9  147.19    8.50
  -4  -3  -9   40.50    4.40
  -4  -3  -9   50.39    5.40
  -4   3   9   41.20    4.80
   4   3  -9   37.60    6.80
  -4   3   9   39.60    4.40
  -4  -3  -9   43.10    4.40
   4  -3  -9   43.20    3.70
   4  -3  -9   50.29    4.30
   4   3   9   45.80    6.50
   4   3   9   49.99    5.70
  -4  -3   9   46.90    4.10
  -4  -3   9   45.60    4.90
  -4  -3   9   42.80    4.60
   5   3  -9    8.50    2.60
  -5  -3  -9    6.80    1.50
   5  -3  -9    5.70    2.10
  -5  -3   9    2.70    3.00
   5  -3  -9    5.40    1.90
  -5  -3   9    7.30    2.00
   5   3   9    8.50    2.80
   5  -3  -9    7.20    1.80
   0  -4  -9   87.29    6.10
   0   4  -9   83.09    8.30
   0   4   9   91.59    7.20
   0  -4  -9   88.09    5.20
   0   4   9   91.59    6.90
   0  -4  -9   85.29    8.10
   0   4   9   86.19    6.90
   1   4  -9   93.39   10.40
   1   4  -9   84.29   13.30
   1   4  -9  101.49    8.80
  -1  -4  -9   94.79    6.20
  -1  -4  -9   89.69    7.40
  -1   4   9   91.89    6.80
  -1  -4  -9   93.69    5.50
  -1   4   9  103.79    6.90
   1  -4  -9   94.39    6.30
  -1   4  -9   97.09    8.30
   1   4   9   98.89    7.60
   1  -4  -9   95.49    5.40
  -1  -4   9   93.99    6.60
   1   4   9   94.19    7.60
  -2   4   9 1099.29   53.59
   2   4  -9 1066.89   54.49
   2   4  -9 1034.40   54.79
  -2  -4  -9 1082.09   52.99
  -2  -4  -9 1094.29   53.09
  -2   4   9 1068.79   53.29
  -2  -4  -9 1005.30   53.89
  -2  -4  -9 1053.99   53.99
  -2  -4   9 1083.09   53.49
  -2  -4   9 1032.10   53.89
   2  -4  -9 1078.99   53.19
   2  -4  -9 1076.29   52.99
  -2   4  -9 1096.29   53.79
   2   4   9 1099.59   53.69
   2   4   9 1016.30   53.89
  -3   4   9  192.98   10.90
   3   4  -9  187.68   12.60
  -3  -4  -9  183.28   11.50
  -3   4   9  184.98   10.60
  -3  -4  -9  203.28   10.20
  -3  -4  -9  191.98   11.30
  -3  -4   9  190.28   10.70
   3  -4  -9  201.38   11.20
   3   4   9  214.08   11.60
   3  -4  -9  195.28   10.30
  -3  -4   9  178.78   11.00
  -4  -4  -9    5.50    2.20
  -4  -4  -9    4.00    2.20
  -4   4   9    3.40    2.30
   4   4  -9   10.10    2.90
  -4  -4   9    8.10    1.80
  -4  -4   9    9.30    3.10
   4   4   9    9.20    3.30
   4  -4  -9    6.10    1.90
   4  -4  -9    4.90    1.60
   0   5   9  111.69    7.30
   0  -5  -9  120.99    6.70
   0  -5  -9  102.29    6.30
   0   5   9  127.79    9.40
   0   5  -9  108.29    8.10
  -1  -5  -9  141.09    7.60
  -1   5   9  129.49    8.30
   1   5  -9  137.49    9.50
  -1  -5  -9  143.69    7.90
  -1  -5  -9  138.99    8.80
   1   5  -9  134.39    9.80
   1   5   9  151.88    8.70
  -1   5  -9  138.69    8.90
  -1  -5   9  130.69    8.40
   1  -5  -9  136.59    7.80
   1   5   9  139.19    8.60
   1  -5  -9  135.29    7.50
  -2  -5  -9   24.30    6.10
  -2  -5  -9   24.30    2.50
  -2   5   9   24.10    3.30
   2   5  -9   25.70    4.50
  -2  -5  -9   26.60    2.70
  -2  -5  -9   28.70    3.80
   2   5  -9   22.20    4.60
   2   5   9   23.90    4.10
  -2   5  -9   22.90    3.70
  -2  -5   9   22.00    3.20
   2  -5  -9   25.00    3.50
   2   5   9   16.60    3.20
  -2  -5   9   29.40    4.60
  -3   5   9   72.39    4.90
  -3   5   9   69.19    4.70
  -3  -5  -9   75.79    5.20
   3   5  -9   68.59    6.20
   3  -5  -9   78.39    4.70
  -3  -5   9   72.99    4.90
   3   5   9   73.19    5.70
   3  -5  -9   70.69    4.40
  -3  -5   9   74.79    4.80
   0   6   9  224.88   12.00
   0   6  -9  220.68   12.30
   0  -6  -9  221.88   11.50
   0  -6  -9  231.58   11.60
  -1  -6  -9   93.09    5.20
  -1  -6  -9  107.09    5.30
  -1   6   9   82.49    5.70
  -1   6   9   91.29    5.60
   1   6  -9   98.99    6.30
  -1  -6  -9   98.19    6.20
  -1   6  -9   97.69    5.90
   1  -6  -9   89.79    5.20
   1  -6  -9   90.89    5.30
  -1  -6   9   95.39    5.70
   1  -6  -9   93.09    7.50
   0   0 -10 5961.50  297.77
   0   0 -10 6141.09  305.57
  -1   0  10   32.00   11.30
   1   0  10   34.10    3.90
  -1   0  10   30.00    2.30
  -1   0 -10   35.10    2.20
   1   0 -10   27.00    6.80
   1   0 -10   26.70    2.90
   2   0 -10 3619.84  181.88
   2   0  10 3762.82  183.68
  -2   0  10 3614.44  205.78
  -2   0  10 3744.73  181.58
  -3   0 -10  443.86   23.20
   3   0 -10  454.95   23.70
  -3   0  10  450.85   24.10
   3   0  10  431.66   23.10
  -3   0  10  463.15   23.60
   3   0 -10  488.65   23.10
   3   0 -10  387.06   23.20
  -3   0  10  472.05   22.60
  -3   0 -10  436.86   23.50
  -4   0  10   76.19    6.30
   4   0 -10   70.99    5.90
  -4   0 -10   69.79    6.10
  -4   0  10   59.59    6.70
   4   0 -10   85.89    8.40
  -4   0  10   68.09    4.60
   4   0 -10   73.59    6.70
   4   0  10   71.69    5.50
  -4   0 -10   70.79    5.40
   4   0 -10   66.49    6.90
   5   0 -10  114.29    8.30
  -5   0 -10  109.09    7.00
  -5   0  10  107.09    7.10
  -5   0 -10  114.69    6.20
   5   0  10  107.09    7.00
  -5   0  10  100.19    7.20
   0   1  10 7349.26  344.67
   0  -1  10 6392.56  351.86
   0  -1 -10 6886.31  354.16
   0  -1 -10 6896.91  343.87
   0   1  10 7390.76  343.77
  -1   1  10 1826.02   95.29
   1   1 -10 1908.81   95.29
  -1  -1 -10 1830.82   95.39
  -1  -1 -10 1881.41  106.99
   1  -1  10 1918.61   96.49
   1  -1  10 2088.29  102.69
   1   1  10 1973.90   96.69
  -1  -1  10 2135.49  114.79
   1  -1 -10 1975.20   95.69
   1   1  10 1853.91   95.49
   1  -1 -10 1831.02  104.59
   2   1 -10 2055.99  106.69
  -2  -1 -10 2147.99  106.59
  -2   1  10 2052.99  106.49
   2  -1  10 2226.08  108.69
   2   1  10 2203.98  108.99
   2  -1 -10 2047.90  118.69
   2  -1 -10 2129.39  106.99
   2  -1 -10 2330.37  106.59
   2   1  10 2007.40  106.89
  -2  -1  10 2336.77  132.69
  -2  -1  10 2252.27  106.59
  -2  -1  10 2105.49  106.79
  -3  -1 -10  166.28    8.00
   3   1 -10  180.28   13.30
  -3   1  10  158.18   10.30
  -3   1  10  167.88    9.50
  -3  -1 -10  156.08    9.50
   3  -1  10  142.89    9.20
  -3  -1 -10  153.38   10.00
   3   1 -10  142.89    9.00
  -3  -1  10  144.49    9.90
   3  -1 -10  161.48    8.60
  -3  -1  10  145.29   10.20
  -3  -1  10  142.59   11.20
  -3  -1  10  151.38    9.00
   3   1  10  151.88    9.10
  -3  -1  10  150.88    8.30
   3  -1 -10  159.28    9.60
   3  -1 -10  158.98   10.30
   3   1  10  149.88   10.00
  -3   1 -10  151.88   10.00
   4  -1  10  443.26   23.10
   4   1 -10  434.46   23.40
  -4  -1 -10  444.96   22.90
  -4   1  10  437.36   24.90
  -4   1  10  443.86   23.10
   4   1 -10  454.65   24.60
  -4  -1 -10  449.36   23.30
   4   1  10  449.46   23.20
  -4  -1  10  436.16   23.60
  -4  -1  10  450.35   22.50
   4  -1 -10  427.56   24.20
   4  -1 -10  432.56   23.10
  -4   1 -10  452.15   23.20
  -4  -1  10  442.46   23.40
   4  -1 -10  452.75   22.90
   5   1 -10   23.60    4.00
   5  -1  10   16.80    2.50
  -5   1  10   17.70    2.50
  -5  -1 -10   21.90    2.80
  -5  -1 -10   17.10    2.60
  -5  -1  10   14.50    2.60
  -5   1 -10   14.80    2.60
   5   1  10   18.60    2.90
   5  -1 -10   11.70    2.90
   5  -1 -10   15.80    2.90
  -5  -1  10   25.30    3.10
   5  -1 -10   15.20    3.00
   0  -2 -10  300.27   27.50
   0  -2 -10  296.27   16.10
   0  -2  10  325.97   32.00
   0   2  10  293.87   15.70
  -1  -2 -10 1737.03  102.99
   1  -2  10 1772.12   89.39
  -1   2  10 1686.83   87.99
  -1  -2 -10 1758.52   88.29
   1   2  10 1714.83   88.09
   1  -2 -10 1669.03  101.19
  -1  -2  10 1884.11  112.69
   1  -2 -10 1745.03   88.49
   1   2  10 1970.20   90.09
   1  -2 -10 1845.32   87.79
   2   2 -10 1951.20   98.99
  -2   2  10 1955.90   98.99
   2  -2  10 1935.01  101.29
  -2  -2 -10 1978.80   99.39
   2  -2 -10 2213.38   99.09
  -2  -2  10 2067.89   99.39
   2   2  10 1952.50   99.39
   2  -2 -10 1792.62  115.49
  -2  -2  10 1953.80   99.29
   2   2  10 2113.09  102.39
  -2  -2  10 2167.08  131.79
   2   2  10 1966.30   99.39
   3   2 -10  595.04   31.90
  -3  -2 -10  556.24   30.00
  -3  -2 -10  602.04   30.40
   3   2 -10  570.34   29.40
  -3   2  10  597.84   29.60
  -3   2  10  612.94   30.10
  -3  -2 -10  582.64   29.30
  -3  -2 -10  571.04   29.90
   3  -2 -10  610.14   29.70
  -3  -2  10  569.64   29.60
  -3   2 -10  581.14   30.30
  -3  -2  10  550.24   30.00
   3   2  10  567.44   29.90
   3   2  10  561.64   29.80
  -3  -2  10  570.84   30.20
   3  -2 -10  592.84   29.30
  -4  -2 -10  261.47   14.60
  -4   2  10  266.67   14.40
   4   2 -10  270.97   14.90
   4  -2  10  255.47   14.70
   4   2 -10  283.37   16.40
  -4  -2 -10  274.27   14.80
   4   2  10  283.37   15.70
   4   2  10  278.37   15.10
  -4  -2  10  265.07   14.40
  -4  -2  10  266.77   14.10
  -4  -2  10  260.97   14.90
   4  -2 -10  275.47   14.60
   4  -2 -10  239.78   14.20
  -4   2 -10  285.77   15.00
  -5  -2 -10  107.29    6.10
   5  -2  10  101.89    6.70
   5   2 -10  100.49    7.50
  -5   2  10  110.99    6.10
  -5  -2 -10  105.99    6.40
   5   2  10  110.39    6.90
   5  -2 -10  102.89    6.50
  -5  -2  10  107.09    6.80
   5  -2 -10  103.79    7.00
  -5  -2  10  104.29    6.50
  -5   2 -10  109.59    6.90
   5  -2 -10   89.59    6.30
   0  -3  10  126.79   31.60
   0   3  10  131.19    7.30
   0  -3 -10  129.09    6.90
   0  -3 -10  123.69   25.20
   1   3 -10  113.39   11.30
  -1   3  10   98.19    8.40
  -1  -3 -10   81.99    7.20
   1   3 -10   92.99   18.50
  -1  -3 -10  101.59    7.40
  -1  -3 -10   86.69   24.60
  -1  -3 -10   84.69    5.20
   1   3  10   83.79    5.90
   1  -3 -10   93.49    5.20
  -1  -3  10   92.09    6.30
  -2  -3 -10  574.54   28.70
  -2  -3 -10  562.94   29.70
  -2   3  10  588.14   29.20
  -2  -3 -10  563.44   29.40
   2   3 -10  541.35   31.50
  -2  -3 -10  541.45   29.70
  -2   3  10  612.64   29.50
   2   3 -10  571.04   30.90
  -2  -3 -10  585.44   28.90
   2   3  10  565.54   29.80
   2   3  10  591.14   29.20
   2  -3 -10  587.64   29.10
  -2  -3  10  539.35   29.90
  -2  -3  10  579.44   29.20
  -3   3  10  467.65   23.80
  -3   3  10  475.95   24.20
  -3  -3 -10  466.95   23.80
  -3  -3 -10  461.75   24.40
   3   3 -10  416.06   25.40
  -3  -3 -10  457.05   24.20
   3   3 -10  454.65   26.00
  -3  -3  10  454.45   24.30
  -3  -3  10  452.05   24.30
   3   3  10  488.15   24.50
   3  -3 -10  478.25   23.50
  -3  -3  10  450.55   23.80
   3  -3 -10  497.05   23.80
   3   3  10  495.65   24.30
  -3  -3  10  418.56   23.80
   4   3 -10   40.20    6.90
  -4  -3 -10   34.20    5.00
  -4   3  10   27.70    4.00
  -4  -3 -10   34.70    4.10
  -4  -3  10   35.50    4.60
   4   3  10   34.80    5.10
   4  -3 -10   29.00    3.80
  -4  -3  10   25.30    3.30
   4   3  10   32.40    4.30
  -4  -3  10   34.70    3.90
   4  -3 -10   34.90    3.30
   0   4 -10 1911.31  100.19
   0  -4 -10 2017.20   99.19
   0  -4 -10 1948.01   98.99
   0   4  10 2200.88   99.89
   0  -4 -10 1935.21   99.89
   0   4  10 1944.81   99.39
   0   4  10 2074.69   99.69
  -1  -4 -10  364.26   17.90
  -1  -4 -10  357.86   17.60
  -1   4  10  372.96   18.40
   1   4 -10  297.87   23.70
   1   4 -10  341.07   19.50
  -1   4  10  354.46   18.20
  -1  -4 -10  327.17   18.70
   1   4 -10  319.67   20.20
   1  -4 -10  364.36   17.90
   1   4  10  338.77   18.50
  -1   4 -10  323.97   19.20
   1   4  10  351.26   18.80
   1  -4 -10  359.56   17.60
  -2  -4 -10   85.59    6.70
  -2  -4 -10   93.39    5.50
  -2   4  10   88.09    6.30
   2   4 -10   62.99   12.50
   2   4 -10   79.69    9.90
  -2  -4 -10   87.49    7.90
  -2  -4 -10   87.59    5.00
   2   4 -10   87.09    8.50
  -2   4  10   88.49    6.00
  -2  -4  10   77.79    5.70
   2   4  10   80.49    7.80
  -2   4 -10   89.79    8.50
  -2  -4  10   80.79    7.40
   2  -4 -10   81.49    5.80
   2   4  10   88.19    7.00
   2   4  10   83.19    6.40
   3   4 -10  108.39   11.10
   3   4 -10  105.29    9.10
  -3   4  10  107.39    7.00
  -3   4  10  112.09    6.60
  -3  -4 -10  110.29    7.30
  -3  -4 -10  120.69    8.10
  -3  -4  10  114.89    6.90
  -3  -4  10  107.19    7.00
   3  -4 -10  105.29    6.30
   3   4  10  108.69    7.40
   4   4 -10   11.20    3.40
  -4  -4 -10   12.30    2.30
  -4  -4 -10   15.90    3.30
  -4  -4  10   17.30    2.70
  -4  -4  10   10.90    3.20
   4  -4 -10   16.70    2.70
   4  -4 -10   16.20    2.50
   0  -5 -10   38.40    2.90
   0  -5 -10   36.30    3.20
   0   5 -10   33.90    5.40
   0   5  10   33.40    4.20
  -1   5  10  294.67   16.40
  -1   5  10  293.87   16.30
  -1  -5 -10  301.77   16.70
  -1  -5 -10  307.77   15.90
   1   5 -10  295.27   17.30
  -1  -5 -10  324.77   16.00
   1  -5 -10  302.67   15.80
  -1   5 -10  302.87   16.80
  -1  -5  10  298.47   16.50
   1  -5 -10  359.86   16.90
   1   5  10  331.57   16.70
  -2   5  10   68.69    5.10
  -2   5  10   73.49    5.30
   2   5 -10   73.39    7.50
  -2  -5 -10   71.09    4.30
   2   5 -10   67.69    7.30
  -2  -5 -10   74.29    4.50
  -2  -5 -10   68.69    5.40
   2   5  10   71.69    5.80
   2  -5 -10   73.69    4.40
  -2  -5  10   67.69    5.00
  -2   5 -10   69.79    5.80
   2  -5 -10   73.79    4.80
   2   5  10   76.69    6.10
  -2  -5  10   62.49    5.90
   3   5 -10   -2.70    3.20
  -3   5  10    1.20    1.80
  -3   5  10    1.80    1.60
   3   5 -10    5.70    2.70
  -3  -5 -10    2.20    1.80
   3  -5 -10    2.40    1.50
  -3  -5  10    4.40    1.70
   3  -5 -10    1.00    1.30
  -3  -5  10    3.50    1.60
   0   6  10   98.89    6.30
   0  -6 -10   96.99    5.60
   0   6 -10  105.99    6.50
   0  -6 -10  112.39    7.80
   0  -6 -10  102.99    5.70
  -1   6  10    5.60    1.80
  -1   6  10    3.00    2.10
   1   6 -10    6.90    2.30
  -1  -6 -10    8.70    1.30
  -1  -6 -10    6.70    2.50
  -1  -6 -10    6.00    1.30
   1  -6 -10    6.80    1.30
  -1  -6  10    4.50    1.80
   1  -6 -10    7.00    3.40
  -1   6 -10    7.20    2.00
   0   0  11    6.60    2.10
   0   0  11    8.20    8.30
   0   0 -11    9.20    5.20
  -1   0  11  308.17   15.60
   1   0 -11  306.17   15.80
  -1   0  11  331.27   31.00
   1   0  11  318.27   17.20
  -1   0 -11  300.47   15.40
   1   0 -11  277.97   21.90
  -2   0  11  347.17   18.90
  -2   0  11  374.66   39.80
   2   0  11  366.76   21.10
  -2   0  11  398.96   18.50
   2   0  11  323.57   19.00
   2   0 -11  383.56   19.00
   3   0 -11    6.40    3.60
  -3   0  11    6.90    3.60
  -3   0 -11    2.80    3.30
  -3   0  11    4.70    1.30
   3   0  11    4.80    2.20
   3   0 -11    2.70    2.50
  -3   0  11    9.60    4.00
   3   0 -11    2.40    2.30
  -3   0 -11    5.10    2.90
  -4   0  11 1011.70   48.50
  -4   0  11  875.91   47.70
  -4   0  11  955.20   48.50
   4   0 -11  954.80   48.20
   4   0 -11  913.51   48.30
  -4   0 -11  983.20   47.90
  -4   0 -11  973.70   48.50
   4   0  11  947.81   48.40
   4   0 -11  937.71   48.70
   4   0 -11 1052.99   49.50
   5   0  11    2.60    2.20
   5   0 -11    3.70    3.00
  -5   0 -11    2.10    2.00
  -5   0  11    4.00    2.20
  -5   0  11    3.90    2.40
   0   1  11 4201.88  196.38
   0  -1  11 4002.80  210.38
   0  -1 -11 3840.82  195.48
   0  -1 -11 3800.42  206.28
  -1  -1 -11  193.58   11.20
   1  -1  11  235.58   12.80
  -1  -1 -11  203.28   22.00
   1   1 -11  230.78   11.10
  -1   1  11  197.28   11.10
   1  -1  11  236.78   18.50
   1  -1 -11  195.08   19.80
   1   1  11  230.78   13.00
   1   1  11  194.28   11.40
   1  -1 -11  219.98   11.60
   2  -1  11  789.72   43.60
  -2  -1 -11  819.42   41.30
  -2   1  11  805.32   41.30
   2   1 -11  806.62   41.50
   2   1  11  793.22   41.70
  -2  -1  11  865.31   41.40
   2  -1 -11  776.72   54.09
   2  -1 -11  958.70   41.40
  -2  -1  11  787.52   41.60
   2  -1 -11  827.62   41.90
  -2  -1  11  911.51   66.99
   2   1  11  820.32   44.20
  -3  -1 -11  219.38   13.60
   3   1 -11  263.57   16.30
   3  -1  11  214.58   14.50
   3   1 -11  234.58   13.10
  -3  -1 -11  224.28   13.30
  -3  -1  11  260.07   12.60
   3   1  11  239.48   16.30
  -3  -1  11  254.37   14.10
  -3  -1  11  243.68   15.50
  -3  -1  11  236.98   13.70
   3   1  11  226.38   13.20
   3  -1 -11  249.38   13.50
  -3   1 -11  239.68   13.70
   3  -1 -11  252.07   12.80
  -3  -1  11  251.27   13.10
  -4  -1 -11  705.13   34.50
   4   1 -11  722.63   36.00
   4   1 -11  662.83   34.90
   4  -1  11  679.33   34.70
  -4  -1 -11  684.13   34.80
  -4   1  11  691.43   34.70
   4  -1 -11  655.53   35.60
  -4  -1  11  651.13   34.10
  -4  -1  11  703.53   35.10
  -4   1 -11  676.13   34.70
   4  -1 -11  655.93   34.60
  -4  -1  11  686.03   34.90
   4  -1 -11  679.83   34.50
   4   1  11  685.13   34.80
  -5  -1 -11   72.09    4.50
   5   1 -11   67.19    6.20
  -5   1  11   65.49    4.90
   5  -1  11   76.39    5.20
  -5  -1 -11   71.99    4.90
  -5   1 -11   65.49    5.10
  -5  -1  11   76.89    5.30
  -5  -1  11   75.39    5.30
   5  -1 -11   62.69    5.80
   5   1  11   67.39    5.40
   5  -1 -11   65.09    5.90
   0  -2 -11 1226.18   75.99
   0   2  11 1214.78   60.89
   0  -2  11 1284.07   80.99
   0  -2 -11 1176.78   61.19
   0  -2 -11 1222.08   60.59
  -1   2  11  710.83   36.90
   1  -2  11  726.93   38.60
  -1  -2 -11  730.13   52.69
  -1  -2 -11  745.33   36.70
  -1  -2 -11  718.53   37.20
   1  -2 -11  704.73   51.09
  -1  -2  11  713.03   37.60
   1  -2 -11  764.42   36.70
   1   2  11  716.73   37.10
   1  -2 -11  739.33   37.60
   1   2  11  691.23   37.20
  -1  -2  11  824.12   61.49
   1   2  11  802.02   39.40
  -2   2  11 1425.76   69.19
  -2  -2 -11 1421.46   69.59
   2  -2  11 1326.57   71.89
  -2  -2  11 1368.56   69.49
   2   2  11 1487.95   73.19
   2   2  11 1377.46   69.69
   2  -2 -11 1260.67   88.39
   2  -2 -11 1519.95   69.19
   2   2  11 1380.26   69.59
   3   2 -11  724.43   37.70
  -3  -2 -11  772.32   37.70
   3   2 -11  751.92   39.90
  -3   2  11  779.32   38.00
  -3  -2 -11  716.93   38.30
  -3  -2 -11  789.22   38.70
  -3  -2 -11  773.32   38.20
  -3   2  11  802.92   38.50
   3  -2 -11  788.92   37.70
  -3  -2  11  715.43   38.40
  -3  -2  11  722.33   37.90
   3  -2 -11  783.62   38.00
  -3   2 -11  732.03   38.40
   3   2  11  729.23   38.20
   3   2  11  743.53   38.40
  -3  -2  11  702.63   38.30
   4   2 -11  498.95   26.00
  -4   2  11  483.65   24.40
  -4  -2 -11  484.95   24.70
  -4  -2 -11  477.05   24.50
   4   2 -11  449.76   24.70
   4  -2  11  449.46   25.10
   4   2  11  466.35   24.90
   4  -2 -11  486.05   24.40
  -4   2 -11  474.05   24.80
  -4  -2  11  459.05   24.20
  -4  -2  11  467.75   24.40
   4  -2 -11  475.65   24.50
  -4  -2  11  478.95   24.90
   4   2  11  501.05   25.50
   4   2  11  494.75   24.90
   5   2 -11   30.50    4.60
  -5   2  11   21.20    2.90
   5  -2  11   29.80    3.80
  -5  -2 -11   26.40    2.50
  -5  -2 -11   25.30    3.20
   5  -2 -11   21.10    3.60
  -5   2 -11   27.40    3.20
  -5  -2  11   25.20    3.70
   5   2  11   26.20    3.80
   5  -2 -11   21.70    3.30
  -5  -2  11   20.40    3.20
   5  -2 -11   20.30    3.60
   0  -3 -11 1092.89   53.39
   0  -3  11 1071.49   84.79
   0   3  11 1068.29   53.69
  -1  -3 -11  716.73   35.10
  -1  -3 -11  689.93   36.00
   1  -3  11  672.83   38.10
   1   3 -11  620.54   40.80
  -1   3  11  725.53   35.70
  -1  -3 -11  727.53   34.90
   1   3 -11  706.13   36.80
  -1  -3 -11  662.43   35.90
  -1   3  11  699.83   35.50
  -1  -3  11  703.13   35.40
   1   3  11  675.03   35.70
   1  -3 -11  693.93   36.50
   1  -3 -11  715.03   34.90
   1  -3 -11  741.33   35.20
   1   3  11  739.43   35.40
  -2   3  11   82.39    6.60
   2   3 -11   70.39    9.20
  -2  -3 -11   81.89    7.60
  -2   3  11   70.89    6.00
  -2  -3 -11   83.79    6.90
  -2  -3 -11   81.79    4.90
  -2  -3 -11   80.99    5.20
   2   3 -11   75.99   14.60
   2   3 -11   71.49   11.20
  -2  -3 -11   79.09    6.30
   2  -3 -11   82.99    5.80
   2   3  11   84.59    5.90
   2  -3 -11   90.19   15.90
  -2  -3  11   80.49    5.70
  -2  -3  11   67.49    7.70
   2   3  11   79.89    7.50
  -3   3  11  969.70   47.90
  -3  -3 -11  954.80   48.00
   3   3 -11  946.51   49.60
  -3  -3 -11  949.51   48.20
  -3  -3 -11  986.20   48.60
  -3   3  11 1018.10   48.40
   3   3 -11  869.51   49.20
   3  -3 -11  974.00   47.70
   3   3  11  967.70   48.40
  -3  -3  11  932.51   48.40
  -3  -3  11  917.21   48.30
   3  -3 -11 1000.70   47.90
   3   3  11 1031.70   48.50
  -3  -3  11  946.31   48.00
  -3  -3  11  878.21   47.90
  -4   3  11  129.59    7.60
  -4  -3 -11  139.09    8.50
   4   3 -11  131.19   10.10
  -4  -3 -11  132.59    7.90
  -4  -3  11  121.79    8.30
   4  -3 -11  128.09    7.80
  -4  -3  11  133.29    7.80
   4   3  11  138.29    8.70
   4  -3 -11  131.89    7.50
  -4  -3  11  118.99    8.30
   4   3  11  139.49    9.90
   0  -4 -11   34.20    3.50
   0  -4 -11   29.30    2.60
   0   4  11   30.10    4.70
   0   4  11   27.90    4.10
   0  -4 -11   24.50    5.80
   0   4 -11   36.90    6.50
   0   4 -11   23.70    8.10
  -1  -4 -11  510.95   26.80
  -1   4  11  527.75   26.30
   1   4 -11  429.56   31.40
  -1  -4 -11  542.05   25.90
   1   4 -11  503.35   27.50
  -1   4  11  524.55   26.50
  -1  -4 -11  527.65   25.70
  -1  -4 -11  500.05   27.50
   1  -4 -11  550.94   26.00
  -1  -4  11  496.45   26.50
   1   4  11  469.55   26.60
   1  -4 -11  538.85   25.70
  -1   4 -11  525.15   27.20
   1   4  11  500.45   26.40
  -2   4  11   52.99    4.50
   2   4 -11   51.29    6.70
  -2  -4 -11   46.60    5.30
   2   4 -11   33.80   11.10
  -2  -4 -11   50.49    3.60
   2   4 -11   56.39    7.30
  -2  -4 -11   54.99    6.80
  -2  -4 -11   49.50    3.80
  -2   4  11   49.30    5.00
  -2  -4  11   48.00    4.40
   2   4  11   52.29    5.40
   2  -4 -11   55.69    4.30
  -2  -4  11   39.00    6.10
   2   4  11   51.89    5.60
   2  -4 -11   61.59   10.20
  -3   4  11   57.79    4.40
  -3   4  11   57.39    5.00
   3   4 -11   57.49    7.20
   3   4 -11   60.99    7.50
  -3  -4 -11   68.09    6.40
  -3  -4 -11   68.39    5.30
  -3   4  11   53.99    4.90
   3   4  11   71.09    5.60
   3  -4 -11   64.39    4.60
  -3  -4  11   67.49    4.70
  -3  -4  11   59.19    4.90
   3  -4 -11   57.19    4.10
   4   4 -11   52.79    5.40
  -4  -4 -11   61.99    4.20
  -4  -4 -11   65.79    4.60
   4  -4 -11   59.89    4.00
  -4  -4  11   48.90    5.30
  -4  -4  11   60.19    4.00
   4  -4 -11   53.19    4.00
   4   4  11   61.69    4.90
   0   5 -11  367.66   20.30
   0  -5 -11  370.76   19.10
   0  -5 -11  391.16   19.30
  -1  -5 -11  138.69    8.60
  -1   5  11  128.79    8.20
  -1   5  11  139.09    7.90
  -1  -5 -11  136.59    7.40
   1   5 -11  141.49    9.30
  -1  -5 -11  142.29    7.60
   1  -5 -11  138.19    7.70
  -1   5 -11  135.29    8.70
   1   5  11  135.39    8.20
   1  -5 -11  129.39    7.40
  -1  -5  11  129.69    8.20
   1  -5 -11  151.78   10.30
  -2  -5 -11   68.49    4.30
  -2   5  11   65.69    5.20
   2   5 -11   54.19    6.90
   2   5 -11   68.99    6.70
  -2  -5 -11   69.59    5.40
  -2   5  11   64.09    4.80
  -2  -5 -11   71.19    4.30
   2   5  11   73.19    5.50
   2  -5 -11   69.89    4.10
   2  -5 -11   73.79    4.50
  -2  -5  11   56.49    5.60
  -2   5 -11   63.09    5.60
  -2  -5  11   65.09    4.80
   3   5 -11   98.69    6.90
   3   5 -11   95.59    6.90
  -3  -5 -11  108.09    6.20
  -3   5  11  102.69    5.70
  -3   5  11   91.69    5.90
  -3  -5  11   97.69    5.90
  -3  -5  11   98.89    5.90
   3   5  11   99.39    6.70
   3  -5 -11   99.49    5.60
   3  -5 -11  104.89    5.70
   0   6  11  199.68   10.70
   0  -6 -11  216.78   12.10
   0   6 -11  211.68   11.10
   0  -6 -11  188.18   10.40
   0  -6 -11  197.28   10.40
  -1  -6 -11   90.89    4.90
  -1  -6 -11   98.29    6.80
  -1  -6 -11   77.99    4.90
  -1   6  11   79.39    5.30
  -1   6  11   78.59    5.20
   1   6 -11   95.49    5.80
  -1   6 -11   89.69    5.40
   1  -6 -11   84.19    4.90
   1  -6 -11   93.39    5.00
  -1  -6  11   81.39    5.40
   1  -6 -11   93.19    7.20
   0   0 -12   43.20    9.70
   0   0  12   42.70    4.40
   0   0  12   38.40   11.80
   0   0 -12   40.70    3.10
  -1   0 -12  107.19    5.50
   1   0  12   87.39    7.60
  -1   0  12  110.29   19.60
  -1   0  12  111.59    5.80
   1   0 -12  103.89    6.20
  -2   0  12 1338.77   62.59
  -2   0  12 1234.28   88.69
   2   0  12 1290.17   65.19
  -2   0  12 1238.48   62.79
   2   0  12 1204.28   62.89
   2   0 -12 1264.47   62.89
  -3   0 -12  277.67   15.00
   3   0 -12  277.77   15.60
  -3   0  12  293.27   15.60
   3   0  12  279.07   15.10
  -3   0 -12  279.97   15.50
  -3   0  12  299.17   14.50
   3   0 -12  281.77   15.30
   3   0 -12  286.57   15.10
  -3   0  12  273.97   16.10
  -3   0  12  254.97   15.80
   4   0 -12  292.57   16.80
  -4   0 -12  308.47   15.50
   4   0 -12  261.37   16.00
  -4   0 -12  309.37   16.10
  -4   0  12  300.77   16.30
   4   0  12  306.07   16.00
  -4   0  12  310.67   16.40
   4   0 -12  316.37   17.30
  -4   0  12  267.87   15.20
   5   0  12   12.70    2.60
   5   0 -12    9.30    3.00
  -5   0  12   14.00    2.30
  -5   0  12   14.70    2.70
  -5   0 -12   14.30    2.30
   0   1  12  829.22   39.80
   0  -1 -12  754.82   39.80
   0  -1  12  815.52   53.89
   0   1  12  822.92   40.90
   0  -1 -12  749.13   50.69
  -1   1  12 1307.67   67.29
   1  -1  12 1396.76   68.89
  -1  -1 -12 1331.77   67.39
   1   1 -12 1362.06   67.19
   1   1  12 1356.86   69.09
  -1  -1  12 1529.15   89.59
   1  -1 -12 1347.37   67.59
   1  -1 -12 1338.67   78.79
   1   1  12 1323.07   67.49
   1   1  12 1279.47   67.49
   2  -1  12  736.33   38.90
   2   1 -12  680.83   36.20
  -2  -1 -12  720.73   36.00
  -2   1  12  678.03   36.00
   2  -1 -12  662.63   49.99
  -2  -1  12  736.13   36.10
  -2  -1  12  691.43   36.30
   2  -1 -12  763.72   36.10
   2   1  12  707.03   36.50
  -2  -1  12  775.82   63.29
   2   1  12  802.62   39.80
   2  -1 -12  713.13   36.70
  -3  -1 -12  253.97   14.90
   3   1 -12  218.38   12.90
   3   1 -12  248.48   15.90
  -3  -1 -12  224.28   13.50
  -3  -1 -12  227.28   13.00
   3  -1  12  230.68   14.30
   3   1  12  225.78   13.00
  -3  -1  12  226.38   13.70
  -3  -1  12  246.18   12.40
  -3   1 -12  235.18   13.40
  -3  -1  12  231.88   13.40
  -3  -1  12  237.48   12.90
   3  -1 -12  246.08   12.60
   3  -1 -12  247.18   13.20
   4   1 -12  316.57   18.20
  -4  -1 -12  338.47   17.90
  -4  -1 -12  342.97   17.50
  -4   1  12  346.47   17.90
   4  -1  12  328.27   17.90
   4   1 -12  354.66   19.30
   4   1  12  336.47   17.90
   4  -1 -12  338.27   17.70
  -4  -1  12  341.47   18.40
  -4  -1  12  328.57   17.30
  -4  -1  12  343.57   18.10
   4  -1 -12  322.47   17.80
  -4   1 -12  345.07   17.90
   4  -1 -12  320.47   19.20
   5   1 -12   -0.50    2.70
  -5  -1 -12    0.50    1.30
   5  -1  12    2.40    2.00
  -5  -1 -12    0.60    1.70
  -5   1  12    0.60    1.80
   5   1  12    2.50    2.50
   5  -1 -12    2.70    2.50
  -5  -1  12    0.40    2.00
  -5   1 -12    1.30    1.90
  -5  -1  12    1.50    2.00
   5   1  12    2.60    2.40
   0  -2  12  300.67   33.20
   0   2  12  326.47   16.40
   0  -2 -12  309.77   30.80
   0  -2 -12  311.37   16.70
   0  -2 -12  320.07   15.90
   1  -2  12    5.10    4.00
  -1   2  12    2.60    1.70
  -1  -2 -12    2.40    1.40
  -1  -2 -12    3.70    2.10
  -1  -2 -12    1.00    9.30
   1  -2 -12    5.00    2.90
  -1  -2  12    4.00    2.20
  -1  -2  12    4.20   16.50
   1   2  12    3.50    1.90
   1   2  12    0.80    2.60
   1  -2 -12    2.10    1.20
   1   2  12    7.90    5.40
   1  -2 -12    2.10    9.20
  -2   2  12   23.60    4.00
  -2   2  12   17.80    3.20
  -2  -2 -12   18.00    4.00
   2   2 -12   21.90   10.60
  -2   2  12   21.60    4.30
  -2  -2 -12   20.60    3.90
   2  -2  12   26.00    8.80
  -2  -2 -12   20.20    3.40
   2   2  12   26.10    5.20
   2  -2 -12   18.80    2.30
  -2  -2  12   11.00    2.80
  -2  -2  12   15.00    2.40
   2   2  12   18.20    2.80
  -2  -2  12   10.00    4.30
   2  -2 -12   23.60    4.60
  -2   2 -12   22.20    4.40
   2   2  12   14.90    3.10
   2  -2 -12   21.40    3.00
  -3   2  12  942.91   45.50
  -3  -2 -12  906.01   45.20
  -3   2  12  930.31   45.10
  -3  -2 -12  952.50   45.70
   3   2 -12  857.31   44.80
   3   2 -12  941.91   46.90
  -3  -2 -12  886.81   45.40
  -3  -2 -12  930.91   44.70
   3   2 -12  757.42   49.90
   3   2  12  907.21   45.60
  -3  -2  12  880.31   45.10
  -3   2 -12  905.91   45.40
   3  -2 -12  918.01   44.80
   3  -2 -12  947.31   45.10
  -3  -2  12  891.11   45.50
  -3  -2  12  881.01   45.40
   3   2  12  851.71   45.50
   3   2  12  895.91   45.30
  -3  -2  12  852.91   45.10
  -4  -2 -12  326.67   17.30
  -4  -2 -12  331.27   17.10
   4  -2  12  316.27   17.70
   4   2 -12  314.47   18.50
  -4   2  12  334.77   17.10
  -4  -2  12  320.07   17.00
  -4  -2  12  333.67   17.50
   4   2  12  342.87   18.60
  -4   2 -12  335.47   17.40
   4  -2 -12  319.87   17.00
   4   2  12  325.07   17.60
   4  -2 -12  293.87   21.80
   4  -2 -12  322.87   17.20
  -4  -2  12  315.27   16.90
   4   2  12  349.17   17.60
  -5  -2 -12   20.10    2.20
   5  -2  12   26.10    3.70
   5   2 -12   23.10    4.20
  -5  -2 -12   23.50    3.00
  -5   2  12   21.60    2.70
  -5  -2  12   23.10    3.00
   5  -2 -12   20.70    3.40
   5  -2 -12   18.50    3.10
   5   2  12   22.70    3.20
  -5  -2  12   16.50    2.90
   5  -2 -12   17.90    2.40
   0   3  12  274.97   15.60
   0   3 -12  247.88   17.00
   0  -3  12  286.47   46.70
   0   3  12  307.27   15.10
   0  -3 -12  297.67   16.40
   0  -3 -12  305.87   14.90
   0  -3 -12  266.77   14.50
  -1  -3 -12   39.70    8.20
  -1   3  12   27.80    3.70
  -1  -3 -12   34.70    2.60
  -1  -3 -12   30.80    5.00
   1   3 -12   40.10    6.00
  -1   3  12   27.10    4.10
   1   3 -12   36.30   10.70
  -1  -3 -12   33.50    4.20
  -1  -3 -12   33.30    3.60
  -1  -3  12   28.40    4.30
   1   3  12   36.40    4.00
   1  -3 -12   28.30    3.90
  -1   3 -12   42.40    7.00
   1   3  12   36.00    4.80
   1  -3 -12   27.10    2.60
   1  -3 -12   40.70    5.90
  -2   3  12 1315.67   65.79
  -2   3  12 1338.97   66.09
  -2  -3 -12 1283.47   66.09
  -2  -3 -12 1325.67   65.99
   2   3 -12 1267.47   67.09
  -2  -3 -12 1373.86   65.39
   2   3 -12 1211.58   67.29
  -2  -3 -12 1318.47   66.29
   2  -3 -12 1395.46   65.69
   2  -3 -12 1329.17   65.49
   2   3  12 1274.17   66.09
   2   3  12 1368.26   66.09
  -2  -3  12 1278.77   65.89
  -2  -3  12 1211.08   66.29
   2  -3 -12 1496.45   68.69
  -3  -3 -12   64.49    5.90
   3   3 -12   57.89    8.70
   3   3 -12   50.09   12.30
  -3   3  12   72.09    5.10
   3   3 -12   58.09    8.00
  -3  -3 -12   65.69    5.60
  -3  -3 -12   72.19    5.50
  -3   3  12   65.29    5.80
   3   3  12   63.49    6.30
   3  -3 -12   65.99    4.30
  -3  -3  12   62.19    4.90
  -3  -3  12   47.00    5.80
   3   3  12   68.39    6.50
   3  -3 -12   67.99    5.00
  -3  -3  12   59.89    5.70
  -3  -3  12   48.30    6.00
  -4  -3 -12  175.78    9.90
   4   3 -12  172.98   11.20
  -4  -3 -12  161.48    9.30
  -4   3  12  162.68    9.10
   4   3  12  168.88    9.80
  -4  -3  12  164.58    9.20
   4  -3 -12  159.78    9.10
   4  -3 -12  157.18    9.30
  -4  -3  12  169.18    9.60
   0   4  12  184.38   12.90
   0  -4 -12  210.68   10.90
   0   4  12  203.78   11.50
   0  -4 -12  209.08   12.20
   0   4 -12  186.08   12.70
   0  -4 -12  208.68   10.60
   1   4 -12  181.98   12.00
  -1  -4 -12  176.38    9.60
  -1  -4 -12  175.18   12.10
  -1  -4 -12  172.38    9.30
  -1   4  12  176.08   10.40
  -1  -4 -12  169.68   10.50
  -1   4  12  183.48   10.20
   1   4 -12  154.28   16.80
  -1   4 -12  171.18   11.50
   1  -4 -12  177.28    9.30
   1  -4 -12  185.28    9.70
   1   4  12  175.88   10.40
   1   4  12  184.08   10.90
  -2  -4 -12   69.39    5.70
  -2  -4 -12   53.89    7.20
  -2   4  12   70.89    5.10
  -2   4  12   63.69    5.40
  -2  -4 -12   67.89    4.50
   2   4 -12   53.09   12.20
  -2  -4 -12   69.79    4.40
   2   4 -12   61.79    9.20
   2   4 -12   70.79    7.60
   2   4  12   76.59    6.40
   2  -4 -12   61.89    4.30
   2   4  12   63.09    5.70
   2  -4 -12   67.89    4.80
  -2  -4  12   73.19    5.20
  -2  -4  12   60.49    6.60
  -3  -4 -12  190.58   11.50
  -3  -4 -12  190.78   11.20
  -3   4  12  187.78   10.50
   3   4 -12  181.58   12.50
  -3  -4 -12  212.98   11.30
  -3   4  12  200.58   10.60
   3   4 -12  201.08   12.90
  -3   4  12  188.58   11.00
   3  -4 -12  192.08   10.60
   3  -4 -12  197.08   10.40
   3   4  12  195.58   11.20
  -3  -4  12  203.48   10.80
  -3  -4  12  190.98   10.90
  -3  -4  12  205.88   11.70
  -4  -4 -12   11.60    2.30
  -4  -4 -12   11.70    1.80
   4   4 -12   14.10    2.80
  -4  -4  12   15.40    2.60
   4  -4 -12   14.60    2.30
   4   4  12   17.10    2.70
   4  -4 -12    8.00    1.80
  -4  -4  12   10.10    2.80
   0   5 -12  455.35   25.20
   0   5  12  466.35   24.50
   0  -5 -12  519.45   24.30
   0  -5 -12  479.35   24.20
  -1   5  12  313.17   16.60
  -1  -5 -12  274.27   19.90
  -1   5  12  318.27   16.40
   1   5 -12  307.37   17.50
  -1  -5 -12  325.67   16.00
  -1  -5 -12  343.87   16.20
  -1  -5 -12  339.17   17.00
   1   5  12  324.87   16.50
   1  -5 -12  302.37   16.20
  -1   5 -12  310.07   17.10
  -1  -5  12  301.97   16.60
   1  -5 -12  336.37   18.40
   1  -5 -12  289.77   16.00
  -2   5  12   49.99    4.20
  -2  -5 -12   61.89    4.70
   2   5 -12   58.39    6.50
  -2   5  12   56.89    4.40
  -2  -5 -12   64.79    3.80
   2   5 -12   56.99    5.90
  -2  -5  12   53.99    4.30
   2   5  12   62.09    5.00
   2  -5 -12   58.59    3.90
   2  -5 -12   53.89    3.70
  -2  -5  12   52.69    5.00
  -3   5  12   78.79    4.70
   3   5 -12   84.69    6.00
  -3   5  12   71.49    4.90
   3   5 -12   86.69    5.90
  -3  -5 -12   89.39    5.20
   3  -5 -12   73.69    4.70
   3  -5 -12   79.59    4.80
  -3  -5  12   81.99    5.00
   3   5  12   82.79    5.50
  -3  -5  12   84.29    5.00
   0  -6 -12  384.36   20.00
   0   6  12  396.86   20.20
   0   6 -12  388.26   20.50
   0  -6 -12  429.06   21.50
  -1  -6 -12   27.00    3.90
   1  -6 -12   27.90    5.00
   0   0 -13    1.80    6.10
   0   0  13    4.40   10.20
   0   0  13    4.80    2.60
   0   0 -13    1.20    1.40
   0   0  13   -0.30    2.00
  -1   0  13  552.44   47.40
   1   0  13  564.74   29.70
  -1   0  13  507.95   27.80
  -1   0  13  577.54   27.60
   1   0 -13  549.35   27.90
  -2   0  13  694.03   63.19
   2   0 -13  729.93   36.20
  -2   0  13  727.13   36.10
   2   0  13  705.53   38.90
   2   0  13  677.33   36.10
  -2   0  13  763.72   35.80
  -3   0 -13  477.75   24.70
  -3   0 -13  486.75   24.10
   3   0 -13  462.35   24.60
   3   0 -13  455.15   24.50
  -3   0  13  465.55   24.70
  -3   0  13  469.85   24.90
   3   0 -13  536.95   26.10
  -3   0  13  444.76   24.60
  -3   0  13  458.55   23.80
   3   0  13  464.05   24.40
   4   0 -13  431.96   22.50
  -4   0 -13  421.56   20.90
  -4   0  13  421.16   21.70
   4   0 -13  378.66   21.40
   4   0 -13  420.26   22.20
  -4   0 -13  413.96   21.60
  -4   0  13  364.56   20.80
  -4   0  13  437.86   21.90
   4   0  13  417.86   21.60
  -5   0  13   88.49    5.60
  -5   0 -13   75.69    5.20
   5   0 -13   73.69    6.30
   5   0  13   81.79    5.60
  -5   0  13   82.99    5.40
   0  -1 -13   98.99    6.50
   0   1  13  103.49    8.00
   0   1  13  109.49    6.40
   0  -1  13  114.09   18.20
   0   1  13   97.89    6.80
   0  -1  13  113.69    8.20
   0  -1 -13  102.69   16.30
  -1  -1 -13   19.60    2.80
  -1   1  13   18.10    2.80
   1  -1  13   25.70    4.80
   1  -1 -13   25.80    3.20
   1  -1 -13   24.60   10.70
   1  -1 -13   19.90    2.80
   1   1  13   15.20    2.70
   1   1  13   14.90    4.30
  -1  -1  13   20.80   14.70
  -1  -1  13   21.40    3.40
   1   1  13   19.40    2.70
   2   1 -13  530.25   26.70
  -2  -1 -13  538.05   26.30
  -2   1  13  491.45   26.40
   2  -1  13  555.04   30.00
  -2  -1  13  536.95   54.59
   2   1  13  499.45   26.80
   2  -1 -13  557.54   26.50
   2  -1 -13  503.45   27.10
   2   1  13  546.65   30.90
   2  -1 -13  454.05   41.60
  -2  -1  13  524.05   26.70
  -2  -1  13  562.94   26.50
   3   1 -13   31.40    4.20
  -3  -1 -13   35.40    5.30
   3  -1  13   27.90    4.50
   3   1 -13   36.40   11.10
   3   1 -13   24.80    6.10
  -3  -1 -13   28.20    3.40
  -3  -1  13   39.90    5.60
  -3  -1  13   33.00    4.20
   3  -1 -13   28.60    3.50
  -3  -1  13   27.60    4.10
  -3  -1  13   39.00    3.30
   3   1  13   28.30    4.00
   3  -1 -13   26.70    4.80
   3  -1 -13   28.30    4.20
  -3  -1  13   34.30    5.20
  -4  -1 -13   50.69    4.50
   4   1 -13   52.69    6.40
  -4  -1 -13   61.29    5.20
   4  -1  13   58.39    5.30
   4   1 -13   58.09    7.30
  -4   1  13   59.69    5.30
  -4  -1  13   51.39    5.70
  -4  -1  13   75.79    6.50
   4   1  13   57.69    5.40
   4  -1 -13   55.29    8.30
   4  -1 -13   62.79    7.00
   4  -1 -13   58.99    5.10
   4  -1 -13   55.79    5.20
  -4  -1  13   63.49    4.50
  -4   1 -13   64.39    5.40
   5  -1  13   44.60    4.10
  -5   1  13   42.00    3.70
  -5  -1 -13   43.20    3.00
  -5  -1 -13   40.60    3.60
   5   1 -13   38.60    4.70
  -5  -1  13   42.50    4.00
   5   1  13   39.80    4.40
   5  -1 -13   49.00    4.50
  -5   1 -13   40.20    3.80
   5   1  13   45.00    4.00
  -5  -1  13   46.50    3.90
   0   2  13 1197.48   58.49
   0  -2 -13 1183.48   57.99
   0  -2 -13 1125.69   75.99
   0  -2 -13 1176.08   58.69
  -1  -2 -13  541.05   47.10
  -1   2  13  541.45   27.60
   1  -2  13  537.45   30.00
  -1  -2 -13  533.25   27.80
   1  -2 -13  492.15   43.90
   1   2  13  545.55   27.80
   1   2  13  528.35   27.70
   1  -2 -13  559.84   28.20
  -1  -2  13  531.75   27.60
  -1  -2  13  613.14   54.99
  -2   2  13  973.30   48.30
  -2   2  13  948.11   47.90
  -2  -2 -13  978.00   48.40
  -2  -2 -13  930.21   47.80
  -2  -2 -13  919.31   47.90
  -2   2  13  928.31   47.60
  -2   2 -13  967.40   48.30
   2   2  13  876.31   48.30
  -2  -2  13  870.61   48.40
   2  -2 -13 1014.80   47.80
   2  -2 -13  978.30   49.00
   2  -2 -13 1065.19   51.09
   2   2  13  915.01   47.90
  -2  -2  13  952.40   47.90
   2   2  13  957.60   48.20
   2  -2 -13  996.20   47.50
  -3   2  13  175.78   10.80
  -3  -2 -13  176.78   11.10
  -3   2  13  180.08   10.40
  -3  -2 -13  192.78   11.20
   3   2 -13  155.68   17.50
   3   2 -13  181.58   13.40
  -3  -2 -13  171.08   10.40
  -3  -2 -13  181.48    9.60
  -3  -2  13  186.98   10.10
  -3   2 -13  188.48   10.90
   3  -2 -13  174.58   12.50
  -3  -2  13  183.48   10.70
   3   2  13  178.08   11.20
   3   2  13  173.38   11.20
   3   2  13  168.98   10.40
   3  -2 -13  180.48    9.70
   3  -2 -13  180.68   10.20
  -3  -2  13  176.28    9.90
  -3  -2  13  181.18   11.00
  -4   2  13   39.70    3.90
  -4  -2 -13   39.40    3.70
   4   2 -13   35.40    6.40
  -4  -2 -13   29.70    4.20
  -4  -2  13   29.00    4.10
  -4  -2  13   34.70    4.20
   4  -2 -13   32.90    3.70
   4   2  13   30.60    4.00
   4   2  13   29.30    3.80
   4   2  13   38.50    5.50
  -4   2 -13   31.20    4.60
   4  -2 -13   18.00    7.10
  -4  -2  13   29.10    3.80
   4  -2 -13   29.40    3.70
  -5  -2 -13    9.50    1.30
  -5  -2 -13    7.30    2.00
   5  -2  13   11.50    2.40
  -5   2  13   10.30    1.70
   5   2 -13   10.80    2.60
   5  -2 -13   10.70    2.30
  -5  -2  13   13.80    2.50
   5   2  13   13.00    2.40
  -5  -2  13   14.00    2.00
   0   3  13  574.94   29.70
   0  -3 -13  628.34   29.30
   0  -3 -13  608.74   29.00
   0   3 -13  536.65   30.80
   0  -3 -13  602.94   30.20
   0   3  13  605.04   29.50
   0   3 -13  496.15   32.40
  -1  -3 -13   63.59    4.10
   1   3 -13   56.79   14.10
  -1   3  13   65.69    4.60
  -1  -3 -13   69.69    6.10
  -1   3  13   59.79    5.70
  -1  -3 -13   74.49    4.80
   1   3 -13   60.69    8.60
  -1   3  13   71.49    6.60
  -1  -3 -13   63.39    6.10
   1  -3 -13   78.79    9.30
   1   3  13   73.09    5.40
  -1   3 -13   67.29   13.90
   1   3  13   61.29    6.50
   1  -3 -13   65.79    4.20
  -1  -3  13   73.79    5.40
   1  -3 -13   67.39    5.10
  -2   3  13  146.89    9.20
  -2  -3 -13  145.89    9.50
   2   3 -13  136.99   13.70
  -2  -3 -13  152.68    9.40
  -2  -3 -13  154.18    9.40
   2   3 -13  137.69   11.30
  -2  -3 -13  156.58    8.30
  -2   3  13  145.19    8.80
   2   3  13  129.39    9.60
   2   3  13  156.28    9.30
   2  -3 -13  149.59    8.50
  -2  -3  13  136.79    9.90
  -2  -3  13  142.79    8.70
   2  -3 -13  150.88    8.10
   2  -3 -13  163.38   13.50
  -3  -3 -13  274.17   14.10
  -3   3  13  260.37   13.30
   3   3 -13  222.48   18.80
  -3  -3 -13  252.47   13.50
   3   3 -13  239.48   15.70
  -3  -3 -13  255.77   13.40
  -3   3  13  247.38   13.70
   3   3 -13  248.38   15.20
  -3  -3  13  246.28   14.00
   3   3  13  248.48   13.90
  -3  -3  13  213.18   13.30
   3   3  13  277.67   14.40
   3  -3 -13  229.68   13.00
   3  -3 -13  251.97   13.30
  -3  -3  13  242.58   13.80
  -4  -3 -13  111.49    7.00
  -4   3  13  103.29    6.10
  -4  -3 -13  100.29    6.10
   4   3 -13  111.39    8.10
   4  -3 -13   94.79    6.20
   4   3  13  104.89    6.70
   4  -3 -13  100.69    6.30
  -4  -3  13   98.79    6.20
  -4  -3  13  102.99    6.60
   0  -4 -13 1573.84   73.79
   0  -4 -13 1552.34   74.49
   0   4  13 1451.55   73.99
   0   4 -13 1469.85   74.89
   0  -4 -13 1354.56   76.09
   0  -4 -13 1514.55   73.59
   1   4 -13   85.09   13.80
  -1   4  13   93.79    6.50
   1   4 -13  100.79    8.60
  -1  -4 -13   91.79    5.30
  -1  -4 -13   99.99    5.70
  -1  -4 -13   87.19    9.00
  -1  -4 -13   95.69    7.00
  -1   4  13   97.89    6.70
   1   4  13   94.99    6.70
   1  -4 -13   96.99    9.00
  -1   4 -13   85.69    8.20
   1  -4 -13   90.99    5.80
   1  -4 -13   85.19    5.30
  -2  -4 -13   64.49    7.10
  -2   4  13   51.49    5.20
   2   4 -13   49.30   12.40
  -2  -4 -13   64.19    5.50
   2   4 -13   65.19    8.80
  -2  -4 -13   58.89    4.20
  -2   4  13   64.79    4.80
   2   4 -13   54.79    7.10
   2   4  13   60.79    5.30
  -2  -4  13   62.49    6.30
   2  -4 -13   66.09    4.20
   2  -4 -13   62.19    4.50
   2   4  13   67.69    7.00
  -2  -4  13   63.79    5.00
  -3   4  13   18.90    3.10
   3   4 -13   24.30    4.40
  -3  -4 -13   25.60    3.90
  -3   4  13   19.90    2.40
   3   4 -13   16.10    4.20
  -3  -4 -13   18.90    2.90
  -3   4  13   26.90    3.20
   3  -4 -13   20.80    2.50
   3  -4 -13   19.60    3.00
   3   4  13   15.60    3.20
  -3  -4  13   24.90    3.00
  -3  -4  13   22.90    3.70
  -4  -4 -13   45.60    3.20
   4   4 -13   42.80    4.70
   4  -4 -13   44.70    3.30
  -4  -4  13   49.50    3.40
   4  -4 -13   37.90    3.50
   4   4  13   46.00    3.90
  -4  -4  13   44.20    4.60
   0   5  13    3.50    2.30
   0   5 -13    5.70    3.10
   0  -5 -13    4.10    1.30
   0  -5 -13    6.00    1.50
  -1   5  13  122.29    7.90
  -1   5  13  129.39    7.70
  -1  -5 -13  127.79    7.10
  -1  -5 -13  137.99    7.30
   1   5 -13  135.99    9.10
  -1  -5 -13  136.49    8.30
   1   5  13  130.79    7.90
  -1  -5  13  126.69    8.00
  -1   5 -13  138.99    8.70
   1  -5 -13  123.69    7.30
   1  -5 -13  141.09   10.10
   2   5 -13  109.29    8.20
  -2  -5 -13  129.49    8.90
  -2   5  13  112.69    7.10
  -2  -5 -13  117.89    6.60
  -2   5  13  120.59    6.90
  -2  -5 -13  134.49    7.50
   2  -5 -13  130.69    6.80
   2   5  13  130.09    7.40
   2  -5 -13  123.19    6.70
  -2  -5  13  114.39    7.50
  -2  -5  13  120.79    7.20
   0   0  14  623.44   31.10
   0   0  14  504.95   44.90
   0   0 -14  590.84   29.40
   0   0  14  589.24   29.70
   0   0  14  586.54   29.50
   0   0 -14  621.14   41.60
   1   0 -14    3.80    1.90
  -1   0  14    4.60    1.50
   1   0  14    5.30    3.90
   1   0  14   -0.30    2.00
  -1   0  14    4.20    1.90
  -1   0  14    4.10   15.40
  -2   0  14 1840.42   88.09
   2   0 -14 1781.92   88.39
   2   0  14 1729.43   88.29
  -2   0  14 1753.42   88.19
  -2   0  14 1788.12  131.89
   3   0 -14 1048.20   48.60
  -3   0  14  954.50   47.70
  -3   0  14  909.41   47.40
  -3   0  14  945.31   47.00
  -3   0 -14  961.80   47.00
  -3   0 -14  933.41   47.50
   3   0  14  939.31   47.40
   3   0 -14  914.01   47.60
   3   0 -14  873.71   47.30
  -4   0 -14   18.90    2.30
  -4   0  14   13.70    3.00
   4   0  14   22.90    3.20
   4   0 -14   17.20    4.40
   4   0 -14   21.20    4.00
  -4   0 -14   21.10    3.10
  -4   0  14   32.30    5.20
   5   0  14    1.10    2.10
  -5   0  14    2.80    1.70
  -5   0 -14    1.50    1.60
   5   0 -14    2.90    2.40
  -5   0  14    2.70    2.30
   0  -1 -14 3221.38  160.68
   0   1  14 2964.10  162.08
   0  -1  14 3504.05  181.48
   0   1  14 3373.96  160.78
   0  -1  14 3261.17  162.28
   0  -1 -14 3258.27  175.78
   0   1  14 3190.08  160.58
   1  -1  14  386.96   21.30
   1   1 -14  360.56   18.30
  -1   1  14  327.77   18.70
  -1  -1 -14  356.06   18.60
   1  -1 -14  339.07   31.90
   1   1  14  343.17   18.80
  -1  -1  14  406.26   40.80
   1   1  14  353.86   19.00
   1  -1 -14  374.36   19.00
  -1  -1  14  346.97   18.70
   1   1  14  388.56   21.60
   1  -1 -14  365.56   18.50
  -2  -1 -14  120.59    9.30
  -2   1  14  109.49    8.20
  -2  -1 -14  118.99    6.30
   2   1 -14  119.09   15.70
  -2  -1 -14  105.39    7.50
   2  -1 -14  117.59    6.60
  -2  -1  14  110.59    6.90
  -2  -1  14  105.69    8.30
   2   1  14  110.89    7.10
   2  -1 -14  112.49    7.60
  -2   1 -14  113.59    8.30
   2  -1 -14   94.29   25.80
  -2  -1  14  122.09    6.70
   2  -1 -14  106.69    7.80
  -3  -1 -14 1501.45   69.69
  -3  -1 -14 1393.26   69.09
   3   1 -14 1204.78   72.99
  -3  -1 -14 1397.46   68.79
   3   1 -14 1349.16   68.89
   3   1 -14 1435.06   70.19
   3  -1  14 1330.07   68.99
   3  -1 -14 1368.26   68.69
   3  -1 -14 1375.96   68.89
  -3  -1  14 1376.96   69.09
  -3  -1  14 1395.66   68.89
   3  -1 -14 1373.86   69.49
   3   1  14 1343.27   69.09
  -3  -1  14 1451.75   68.69
  -3  -1  14 1395.66   69.29
  -3   1 -14 1423.96   69.19
   4  -1  14   48.40    4.70
  -4  -1 -14   48.90    3.90
   4   1 -14   38.60    6.10
  -4   1  14   55.69    4.70
  -4  -1 -14   44.40    4.60
   4   1 -14   48.30    6.90
  -4  -1  14   45.80    4.30
   4  -1 -14   41.80    5.00
   4  -1 -14   45.90    4.60
   4   1  14   51.39    4.80
  -4  -1  14   39.60    4.90
   4  -1 -14   53.99    8.20
   4  -1 -14   50.09    6.30
  -4   1 -14   46.00    4.70
  -5  -1 -14   13.70    1.90
   5  -1  14    7.40    2.20
  -5  -1 -14   10.70    1.80
   5   1 -14    5.40    2.50
  -5   1  14    8.60    1.80
   5  -1 -14    6.80    2.30
   5   1  14   11.20    2.30
  -5  -1  14    8.00    1.90
  -5   1 -14    7.90    1.80
   5   1  14    7.20    2.50
  -5  -1  14    7.70    2.20
   0  -2 -14  121.99   24.20
   0  -2 -14  118.19    6.70
   0   2  14  122.19    7.60
   0  -2 -14  118.69    8.00
   0  -2  14  136.89   28.20
  -1   2  14  596.44   30.70
   1  -2  14  592.34   33.80
  -1  -2 -14  588.54   30.90
   1  -2 -14  595.94   31.20
  -1  -2  14  579.34   30.60
   1   2  14  591.74   30.70
  -1  -2  14  614.94   59.29
   1   2  14  623.54   30.90
   1  -2 -14  628.34   30.20
   1  -2 -14  603.64   30.70
   1  -2 -14  634.64   60.49
  -2  -2 -14  399.06   20.10
  -2   2  14  390.16   20.40
  -2   2  14  411.26   20.00
   2   2 -14  322.07   26.20
  -2  -2 -14  374.36   20.30
  -2  -2 -14  415.36   21.00
  -2   2  14  390.36   20.70
  -2  -2  14  350.86   20.90
   2   2  14  375.66   20.90
   2  -2 -14  413.46   20.20
   2  -2 -14  394.66   21.90
  -2  -2  14  372.66   20.20
   2   2  14  376.46   20.30
   2  -2 -14  392.36   19.80
   2  -2 -14  430.56   24.20
   2   2  14  381.66   20.60
  -2   2 -14  413.36   20.80
  -3  -2 -14  193.58   10.30
  -3  -2 -14  197.88   11.80
   3   2 -14  197.08   14.10
  -3  -2 -14  196.78   11.20
  -3   2  14  182.28   11.60
  -3   2  14  223.38   12.30
  -3  -2 -14  208.68   11.90
   3   2 -14  174.68   17.90
   3   2  14  203.18   12.30
   3   2  14  199.28   11.20
   3  -2 -14  197.68   10.70
  -3  -2  14  204.18   11.90
   3   2  14  186.28   11.90
  -3  -2  14  197.38   11.00
  -3   2 -14  195.58   11.60
  -3  -2  14  193.78   11.50
  -3  -2  14  202.08   10.90
   3  -2 -14  211.38   11.10
   3  -2 -14  183.78   13.30
  -4   2  14   24.50    3.60
   4   2 -14   25.00    4.30
  -4  -2 -14   31.90    4.60
  -4  -2 -14   21.10    3.10
  -4  -2  14   24.30    3.80
   4   2  14   23.30    5.30
   4   2  14   28.70    3.70
   4   2  14   27.80    3.70
  -4  -2  14   29.10    4.60
   4  -2 -14   28.90    3.60
   4  -2 -14   21.10    7.30
  -4  -2  14   25.50    3.10
  -4  -2  14   24.30    4.20
   4  -2 -14   32.00    3.60
  -4   2 -14   23.50    3.40
   0  -3 -14  765.22   36.40
   0   3 -14  634.24   41.40
   0  -3 -14  758.62   35.50
   0  -3 -14  721.83   35.30
   0   3  14  702.53   35.90
   0   3  14  731.93   35.80
   0   3 -14  735.33   37.10
   0   3 -14  604.04   38.30
   1   3 -14  293.97   17.50
  -1  -3 -14  292.87   16.00
  -1  -3 -14  269.67   16.00
  -1   3  14  298.57   16.00
  -1   3  14  290.07   15.00
  -1   3  14  286.57   15.50
  -1  -3 -14  287.27   14.80
  -1  -3 -14  300.77   15.00
  -1  -3 -14  285.07   16.00
   1   3  14  280.07   15.80
   1  -3 -14  317.27   18.30
   1   3  14  318.37   15.80
  -1  -3  14  278.37   15.40
  -1   3 -14  236.38   20.20
   1  -3 -14  293.17   15.20
  -2  -3 -14  541.85   28.10
   2   3 -14  539.85   29.20
  -2  -3 -14  510.15   27.80
  -2   3  14  551.24   27.90
  -2   3  14  531.85   27.40
  -2  -3 -14  536.35   27.70
  -2  -3  14  527.15   27.60
   2   3  14  518.45   27.80
   2   3  14  544.85   28.00
   2  -3 -14  562.84   27.40
  -2  -3  14  505.85   28.10
   2  -3 -14  587.74   30.60
   2  -3 -14  539.65   27.10
   3   3 -14 1010.90   54.49
  -3  -3 -14 1131.79   53.29
  -3   3  14 1057.69   53.29
   3   3 -14  937.41   57.49
  -3  -3 -14 1178.68   53.99
   3   3 -14 1100.89   54.59
  -3   3  14 1031.40   53.69
  -3  -3 -14 1073.89   53.49
  -3  -3  14 1046.60   53.49
  -3  -3  14 1025.00   53.69
   3   3  14 1074.99   53.69
   3  -3 -14 1031.80   53.19
   3  -3 -14 1088.39   53.29
  -3  -3  14 1060.09   53.79
   3   3  14 1178.58   54.09
  -4  -3 -14   75.69    5.60
   4   3 -14   73.69    6.50
   4   3 -14   69.69    8.90
  -4   3  14   70.29    4.60
  -4  -3 -14   70.19    4.60
   4  -3 -14   68.89    4.70
   4  -3 -14   65.89    4.80
   4   3  14   68.49    5.10
  -4  -3  14   72.69    4.80
  -4  -3  14   71.19    5.00
   0   4 -14   43.50   12.30
   0  -4 -14   39.80    6.40
   0   4 -14   46.10    6.60
   0  -4 -14   49.60    3.90
   0  -4 -14   46.50    3.30
   0   4  14   54.69    4.80
  -1  -4 -14   30.80    4.60
  -1   4  14   24.10    4.30
   1   4 -14   37.60    6.60
  -1  -4 -14   28.90    3.10
  -1  -4 -14   20.40    4.90
  -1   4  14   24.10    3.80
  -1  -4 -14   23.50    2.60
   1   4 -14   25.10    8.70
  -1   4 -14   26.90    5.00
   1   4  14   30.10    3.60
   1  -4 -14   21.70    3.10
   1  -4 -14   23.30    6.40
   2   4 -14  181.78   17.70
  -2  -4 -14  234.98   12.50
   2   4 -14  217.58   13.60
  -2   4  14  220.18   11.80
  -2  -4 -14  224.58   13.30
  -2   4  14  217.58   12.20
  -2  -4 -14  223.68   11.40
  -2  -4  14  225.88   12.10
   2  -4 -14  236.28   11.70
   2   4  14  208.98   12.20
  -2  -4  14  216.48   13.40
   2  -4 -14  220.38   11.50
  -3  -4 -14   10.90    2.40
  -3   4  14   12.20    2.40
   3   4 -14   14.40    3.50
   3   4 -14   16.70    4.00
  -3   4  14   12.70    2.10
  -3   4  14    9.00    2.00
  -3  -4  14   17.60    2.90
   3  -4 -14   18.00    2.70
  -3  -4  14   19.50    3.30
   3   4  14   18.90    2.90
   3  -4 -14   11.70    1.90
   0  -5 -14   89.59    7.60
   0   5  14   73.29    5.30
   0  -5 -14   73.59    4.50
   0  -5 -14   79.69    4.80
   0   5 -14   70.99    6.60
  -1   5  14  125.39    8.10
  -1  -5 -14  148.29   10.10
  -1  -5 -14  131.29    7.40
   1   5 -14  144.99    9.40
  -1  -5 -14  136.59    7.50
  -1  -5 -14  148.39    8.40
  -1   5  14  138.69    7.80
  -1  -5  14  128.49    8.20
   1  -5 -14  159.78   10.30
   1  -5 -14  132.49    7.50
   1   5  14  137.89    8.00
   1  -5 -14  139.99    7.60
  -1   5 -14  126.09    8.60
   2   5 -14   72.19    6.00
  -2   5  14   74.89    4.70
  -2  -5 -14   88.89    6.90
  -2   5  14   69.09    4.90
  -2  -5 -14   78.29    5.10
   2  -5 -14   73.39    4.50
  -2  -5  14   75.19    5.40
   2  -5 -14   79.09    4.60
  -2  -5  14   75.39    5.00
   2   5  14   72.69    5.00
   0   0 -15    2.70    1.50
   0   0  15    5.50    2.10
   0   0  15    2.00    3.40
   1   0  15 3903.91  189.78
  -1   0  15 3765.12  187.38
  -1   0  15 3926.21  187.28
   1   0 -15 3919.11  187.38
   1   0  15 3747.62  187.38
  -1   0  15 3518.75  214.48
  -2   0  15    2.30    1.80
   2   0  15    5.70    2.20
   2   0 -15    5.50    2.40
   2   0 -15    8.80    8.00
  -2   0 -15   -1.00    2.90
   2   0 -15    6.00    3.40
  -2   0 -15    6.00    2.80
  -2   0 -15    6.90    5.90
  -2   0  15    3.10    2.00
   3   0  15  322.87   16.90
  -3   0  15  323.57   17.50
  -3   0  15  311.67   16.40
  -3   0 -15  335.97   16.50
   3   0 -15  282.07   22.70
  -3   0  15  332.57   17.30
  -3   0  15  300.97   17.10
  -3   0 -15  284.07   17.00
   3   0 -15  353.26   18.60
   3   0 -15  319.57   17.20
  -4   0  15    7.90    3.10
   4   0 -15    5.60    4.00
  -4   0 -15    6.90    2.20
  -4   0  15    3.70    2.50
  -4   0 -15    4.10    1.70
   4   0 -15    2.70    3.20
   4   0  15    4.00    2.30
   5   0  15   17.60    2.50
   5   0  15   16.00    2.50
  -5   0 -15   15.00    2.50
  -5   0  15   16.30    2.70
  -5   0  15   12.80    2.00
   5   0 -15   13.90    2.70
   0  -1  15   67.59    5.50
   0  -1  15   76.69   20.80
   0  -1 -15   75.69    5.40
   0  -1  15   76.89    8.00
   0   1  15   78.69    5.50
   0   1  15   81.79    8.80
   0  -1 -15   72.79   19.10
   0   1  15   72.89    5.40
   1  -1  15  116.19   10.70
  -1  -1 -15  122.09    6.70
   1  -1  15  105.69    7.20
  -1   1  15  102.49    6.90
   1  -1 -15  116.29    7.30
  -1  -1  15  107.29   27.00
   1   1  15  109.79   11.10
   1  -1 -15  104.89   22.60
   1   1  15  110.59    6.90
  -1  -1  15  105.59    6.70
   2   1 -15   63.89    4.80
  -2   1  15   65.89    7.40
  -2  -1 -15   70.19    7.10
   2  -1  15   61.99    5.60
  -2  -1 -15   67.69    5.60
   2   1 -15   55.69   11.70
  -2  -1 -15   51.59    6.90
   2   1 -15   60.39   13.40
  -2  -1  15   62.39    4.80
  -2   1 -15   59.89    6.20
   2  -1 -15   66.99    4.80
   2   1  15   62.39    7.40
   2   1  15   60.19    6.70
   2  -1 -15   63.09    7.40
   2  -1 -15   67.29    5.70
  -2   1 -15   80.39   14.00
  -2  -1  15   61.39    6.40
   2  -1 -15   74.09   12.00
   2  -1 -15   64.09    5.90
  -2  -1  15   57.09    4.70
   2   1  15   64.69    5.00
   3   1 -15  619.44   32.40
  -3  -1 -15  634.04   32.60
  -3  -1 -15  645.24   32.20
  -3   1  15  647.14   32.10
   3   1 -15  638.94   33.90
   3  -1  15  645.34   32.50
   3   1 -15  553.14   37.10
  -3  -1 -15  688.93   33.30
  -3   1 -15  650.03   32.60
   3   1  15  645.74   32.50
  -3  -1  15  637.94   32.60
  -3  -1  15  641.74   32.80
  -3  -1  15  642.24   32.30
   3  -1 -15  621.24   32.10
  -3  -1  15  632.34   33.20
  -3  -1  15  646.34   32.10
   3  -1 -15  631.44   32.30
   3  -1 -15  629.24   33.00
  -4   1  15   14.70    2.70
   4   1 -15   13.60    4.40
   4   1 -15   13.90    3.70
  -4  -1 -15   13.00    1.90
  -4  -1 -15   14.60    2.50
   4  -1  15   14.90    2.70
   4  -1 -15   10.80    2.60
   4   1  15   15.80    3.20
   4  -1 -15   13.20    3.70
   4  -1 -15    2.90    4.80
   4   1  15   16.10    2.80
  -4  -1  15   14.20    2.70
  -4  -1  15   15.20    2.90
  -4  -1  15   19.10    3.90
  -4   1 -15   14.90    2.50
   5  -1  15   12.70    2.10
   5  -1  15   17.50    2.60
  -5   1  15   15.40    2.30
   5   1 -15   14.80    2.70
  -5  -1 -15   12.30    1.80
   5   1  15    7.00    2.90
   5  -1 -15   10.80    2.70
  -5   1 -15   10.80    1.90
  -5  -1  15   10.70    2.10
   5   1  15   11.70    2.20
  -5  -1  15   10.30    2.10
   0   2  15  606.44   29.30
   0  -2 -15  625.94   31.70
   0   2  15  505.25   29.50
   0   2 -15  565.04   32.40
   0  -2 -15  585.64   29.60
   0  -2  15  537.35   29.20
   1   2 -15   93.29   11.20
  -1  -2 -15  113.29    8.00
  -1  -2 -15  104.69    7.00
  -1  -2 -15  103.89   11.10
  -1  -2 -15   99.99    7.50
  -1   2  15  109.09    6.80
  -1   2  15   94.09    7.40
  -1   2  15  112.59    8.50
  -1   2 -15   87.69   13.60
   1   2  15  110.79    7.20
   1  -2 -15  122.49    6.80
   1  -2 -15  105.99    6.10
  -1  -2  15  104.79    6.70
   1  -2 -15  104.19    8.00
   1   2  15  112.69    8.50
   1   2  15  106.99    7.10
  -2   2  15  812.32   40.10
  -2  -2 -15  788.32   39.60
  -2   2  15  788.42   39.50
  -2   2  15  792.12   39.70
   2   2 -15  705.33   44.90
  -2  -2 -15  766.52   39.70
  -2  -2 -15  823.52   40.30
   2   2  15  742.93   39.80
  -2  -2  15  735.03   40.20
   2  -2 -15  810.72   39.40
   2   2  15  769.62   40.10
   2  -2 -15  882.41   43.10
  -2  -2  15  778.92   39.70
   2  -2 -15  831.72   39.60
   2   2  15  783.52   40.20
  -3  -2 -15  171.78    9.90
   3   2 -15  178.08   13.00
  -3  -2 -15  170.18   10.70
  -3  -2 -15  193.38   11.00
   3   2 -15  156.78   16.50
   3   2  15  185.68   11.60
  -3  -2  15  183.88   10.70
  -3  -2  15  176.08    9.90
   3   2  15  181.28   10.90
   3   2  15  178.78   10.30
   3  -2 -15  171.58    9.60
  -3   2 -15  177.28   10.40
  -3  -2  15  174.68   10.00
   3  -2 -15  169.08   12.50
   3  -2 -15  179.38   10.00
  -3  -2  15  161.38   10.30
  -4   2  15  151.48    8.90
  -4  -2 -15  145.69    8.60
   4   2 -15  150.68   10.50
   4  -2  15  153.68    9.10
  -4  -2 -15  150.58    9.10
  -4  -2 -15  185.38   12.20
   4   2  15  170.08    9.50
   4  -2 -15  149.88    8.80
  -4  -2  15  155.48    8.80
   4   2  15  147.19    9.20
   4  -2 -15  145.89    8.80
  -4  -2  15  154.68    9.40
  -4  -2  15  149.69    9.20
  -4   2 -15  160.28    9.10
   0   3 -15 1064.29   55.99
   0   3  15 1095.49   55.09
   0  -3 -15 1192.28   55.59
   0  -3 -15 1141.29   54.69
   0  -3 -15 1044.60   54.49
   0   3  15 1101.69   55.09
   0  -3 -15 1097.79   55.79
   0  -3 -15 1213.38   57.39
   0   3 -15  943.31   59.79
  -1  -3 -15  927.91   45.10
  -1   3  15  920.21   45.20
  -1  -3 -15  916.01   45.70
  -1   3  15  912.71   45.50
  -1  -3 -15  847.22   45.00
  -1  -3 -15  900.51   46.10
   1   3 -15  776.52   50.79
  -1   3  15  899.31   45.90
   1   3 -15  922.21   46.90
  -1  -3 -15  978.60   46.10
   1   3  15  958.90   45.90
   1   3  15  877.61   45.70
  -1   3 -15  795.72   47.90
   1  -3 -15  942.61   45.30
  -1  -3  15  898.91   45.60
   1  -3 -15 1019.20   48.10
   1  -3 -15  909.41   45.10
  -2   3  15   38.60    5.20
  -2   3  15   32.30    4.20
  -2  -3 -15   46.30    5.30
  -2  -3 -15   38.70    4.90
   2   3 -15   38.60    7.20
   2   3 -15   46.00   10.30
  -2  -3 -15   39.50    4.90
   2   3  15   37.40    5.50
   2  -3 -15   42.10    3.90
   2  -3 -15   34.60    6.50
   2  -3 -15   38.00    3.10
  -2  -3  15   34.30    3.80
   2   3  15   35.50    5.10
  -2  -3  15   45.30    5.60
   2  -3 -15   39.10    8.70
  -3   3  15  305.77   17.70
  -3  -3 -15  340.87   17.30
   3   3 -15  329.67   19.10
  -3  -3 -15  337.97   17.40
   3   3 -15  284.27   22.10
   3   3 -15  342.17   18.80
  -3  -3 -15  364.66   18.00
   3   3  15  337.77   17.70
  -3  -3  15  340.07   17.80
  -3  -3  15  329.07   17.50
   3  -3 -15  315.77   21.40
  -3  -3  15  328.07   17.70
   3   3  15  378.06   18.60
   3  -3 -15  337.47   17.30
   3  -3 -15  326.07   17.10
   4   3 -15  225.68   12.70
  -4  -3 -15  246.88   12.60
  -4   3  15  224.08   11.90
  -4  -3 -15  228.08   11.90
   4   3 -15  219.28   12.90
  -4  -3  15  242.08   12.20
   4   3  15  238.78   12.20
  -4  -3  15  236.28   11.90
   4  -3 -15  216.38   12.00
   4  -3 -15  208.98   11.90
   0   4 -15   21.80    4.50
   0   4 -15   26.30    8.40
   0  -4 -15   32.50    6.50
   0   4  15   25.60    3.90
   0  -4 -15   29.30    3.10
   0  -4 -15   25.10    2.50
   0  -4 -15   23.00    5.80
  -1   4  15  148.29    9.80
  -1  -4 -15  159.18    8.80
  -1  -4 -15  170.78    8.90
   1   4 -15  168.68   11.20
   1   4 -15  142.49   15.90
  -1  -4 -15  177.28   10.00
  -1   4  15  162.98    9.30
  -1  -4 -15  153.98   11.40
  -1   4 -15  154.18   10.90
   1  -4 -15  184.08   12.00
   1  -4 -15  162.68    9.00
  -1  -4  15  175.68    9.90
   1  -4 -15  158.48   14.50
   1   4  15  160.48    9.50
  -2  -4 -15  145.19    8.40
  -2  -4 -15  131.99    9.50
  -2   4  15  135.89    7.70
   2   4 -15  131.69    9.60
  -2  -4 -15  137.69   10.00
  -2   4  15  118.69    8.10
   2  -4 -15  135.99    7.50
   2   4  15  132.99    8.00
   2  -4 -15  132.09    7.30
  -2  -4  15  134.49    7.90
  -3   4  15   20.60    2.90
  -3   4  15   25.60    2.60
   3   4 -15   18.60    4.20
  -3   4  15   21.20    3.20
  -3  -4 -15   26.10    3.30
  -3  -4 -15   22.70    3.10
   3   4 -15   19.60    3.70
   3  -4 -15   20.10    2.60
  -3  -4  15   21.70    3.00
   3  -4 -15   24.80    2.70
  -3  -4  15   26.80    3.20
   3   4  15   23.60    3.40
   0   5  15   94.09    6.00
   0  -5 -15   98.49    5.70
   0  -5 -15  106.29    8.40
   0   5 -15   97.69    7.30
  -1  -5 -15  155.28   10.00
  -1   5  15  137.49    8.10
  -1  -5 -15  139.29    7.80
  -1  -5 -15  146.79    8.70
   1   5 -15  153.18    9.30
   1  -5 -15  141.29    7.80
  -1   5 -15  144.59    8.80
   1  -5 -15  149.69    7.90
   1   5  15  141.99    8.20
   1  -5 -15  163.38   10.20
  -1  -5  15  140.59    8.50
  -2  -5 -15   75.69    5.00
  -2   5  15   63.29    4.70
   2   5 -15   78.19    5.70
  -2   5  15   71.79    4.50
  -2  -5 -15   81.79    6.80
   2   5  15   81.69    4.80
   2  -5 -15   70.49    4.40
  -2  -5  15   77.49    5.50
   2  -5 -15   70.49    4.40
  -2  -5  15   72.69    4.80
   0   0 -16 1395.36   68.69
   0   0  16 1392.16   69.09
   0   0  16 1375.36   70.99
   1   0  16 2080.39  101.59
  -1   0  16 2039.90   98.59
  -1   0  16 2010.10   98.69
   1   0  16 1983.30   98.69
   1   0 -16 2063.79   98.69
  -1   0  16 2038.70  100.59
  -1   0  16 1723.63  126.09
   2   0  16  303.87   16.80
   2   0 -16  327.47   16.90
  -2   0  16  318.87   16.70
  -2   0 -16  326.77   16.60
  -2   0  16  318.47   16.40
  -2   0 -16  306.27   17.10
  -2   0  16  299.47   17.20
   2   0 -16  311.97   17.20
   2   0 -16  304.87   22.10
  -2   0 -16  351.26   18.90
   3   0 -16 1304.07   66.99
  -3   0 -16 1381.46   66.99
  -3   0  16 1419.06   66.99
  -3   0 -16 1414.96   66.39
  -3   0  16 1293.27   66.69
  -3   0  16 1364.46   67.09
   3   0  16 1369.66   66.99
   3   0 -16 1184.58   70.29
   3   0 -16 1381.46   67.69
  -3   0  16 1273.07   66.49
   4   0 -16   81.99    7.40
   4   0  16   93.49    5.90
  -4   0  16   89.99    6.60
  -4   0 -16   79.29    5.10
  -4   0  16   72.99    6.20
  -4   0 -16   84.19    5.70
  -4   0  16   87.89    6.20
   4   0 -16   82.09    8.00
   5   0 -16    5.20    2.60
  -5   0  16    9.00    1.70
   5   0  16    5.60    2.20
  -5   0 -16    6.40    1.50
   5   0  16    8.30    2.10
  -5   0  16   -1.00    2.60
   0   1  16  694.63   35.70
   0  -1  16  707.23   35.70
   0  -1  16  697.33   38.10
   0   1  16  697.33   38.40
   0   1  16  755.22   35.90
   0  -1 -16  710.73   35.80
   0  -1 -16  689.13   53.39
  -1   1  16  235.28   11.90
   1  -1  16  207.38   12.00
  -1  -1 -16  218.38   11.90
  -1  -1 -16  235.78   13.20
  -1   1  16  197.08   11.70
  -1  -1 -16  220.88   11.60
   1   1 -16  216.38   12.30
   1   1 -16  193.68   18.70
  -1   1  16  211.28   13.90
   1  -1 -16  193.18   30.20
  -1  -1  16  207.58   11.70
   1   1  16  221.28   16.70
   1   1  16  208.98   11.70
  -1  -1  16  211.28   37.60
   1  -1 -16  232.68   16.10
   1  -1 -16  219.38   12.30
  -2  -1 -16   64.79    6.70
  -2   1  16   54.29    6.90
   2  -1  16   49.50    5.10
   2   1 -16   49.20   10.60
   2   1 -16   46.30   12.50
   2   1 -16   52.69    4.40
  -2  -1 -16   67.79    6.30
  -2  -1 -16   53.99    5.10
   2  -1 -16   60.49    5.60
  -2  -1  16   50.39    4.50
   2  -1 -16   47.80    5.50
  -2  -1  16   59.39    6.10
  -2   1 -16   54.19   11.10
   2  -1 -16   59.79    6.60
   2   1  16   69.49    6.80
  -2   1 -16   54.59    5.90
   2   1  16   57.09    4.90
   2  -1 -16   57.39   11.20
  -3  -1 -16  109.59    8.60
  -3   1  16  106.69    6.60
   3   1 -16   92.29   13.40
   3   1 -16  102.69    7.20
  -3  -1 -16  103.99    6.50
   3   1 -16   88.49   10.20
  -3  -1 -16   99.39    7.20
  -3   1  16  116.89    7.30
  -3  -1  16   96.99    7.80
   3   1  16   91.19    7.60
   3   1  16  101.09    6.70
  -3  -1  16  112.39    7.30
   3  -1 -16   98.89    8.30
  -3  -1  16  103.59    6.80
  -3  -1  16  105.99    6.50
  -3   1 -16   99.09    7.10
   3  -1 -16   97.69    6.90
  -4   1  16   46.40    4.40
  -4  -1 -16   39.40    3.40
  -4  -1 -16   45.50    4.10
   4  -1  16   42.30    4.30
   4   1 -16   41.90    6.80
  -4   1 -16   38.10    4.00
  -4  -1  16   40.90    4.40
  -4  -1  16   47.40    5.80
   4  -1 -16   36.00    4.90
   4  -1 -16   35.50    5.70
  -4  -1  16   37.60    4.60
   4   1  16   44.60    4.90
   4   1  16   45.10    4.30
   4  -1 -16   42.00    5.70
   0  -2 -16    3.10    2.30
   0   2 -16    5.40    6.60
   0   2  16   -1.00    3.50
   0   2 -16    9.10   10.40
   0   2  16    0.00    2.20
   0  -2 -16    4.40    3.00
   0  -2 -16    4.10    4.50
   0  -2 -16    6.40    2.80
   0   2 -16    6.10    7.10
   0  -2 -16    1.30    3.50
   0   2  16    1.80    3.80
   0   2  16    2.50    3.50
  -1  -2 -16  117.49   11.10
  -1   2  16  117.39    7.50
  -1  -2 -16  112.99    8.00
  -1  -2 -16  108.79    7.20
  -1   2  16  120.39    7.10
  -1  -2 -16  108.09    7.40
  -1   2  16  113.99    8.70
   1   2 -16   88.59   11.10
   1   2  16  107.09    7.40
  -1  -2  16  102.19    6.90
   1  -2 -16  105.39    8.50
   1   2  16   92.49    8.00
  -1  -2  16  104.09   10.00
   1  -2 -16  116.89    6.90
   1   2  16  104.59    7.20
   1  -2 -16  119.79    8.10
  -1   2 -16  111.19   13.30
   1  -2 -16  112.69    6.30
  -2   2  16   74.59    6.80
  -2  -2 -16   75.59    5.60
  -2   2  16   83.59    6.30
  -2  -2 -16   83.49    5.90
  -2   2  16   78.29    5.60
   2   2 -16   61.49   13.20
  -2  -2 -16   89.19    6.70
  -2  -2  16   77.09    5.50
   2  -2 -16   74.29    5.00
   2   2  16   75.19    6.80
  -2  -2  16   65.19    6.70
   2   2  16   81.19    7.00
   2   2  16   78.39    6.00
   2  -2 -16   90.69   10.80
   2  -2 -16   77.89    7.50
   2  -2 -16   78.69    5.60
  -3  -2 -16  576.24   27.90
  -3  -2 -16  577.54   27.90
   3   2 -16  457.25   31.90
   3   2 -16  525.65   28.80
  -3  -2 -16  546.15   27.20
  -3  -2  16  550.24   27.30
   3   2  16  537.85   27.60
  -3  -2  16  545.25   27.70
   3  -2 -16  543.25   27.20
  -3  -2  16  564.94   27.40
   3  -2 -16  535.75   28.70
   3   2  16  487.75   27.50
  -3  -2  16  545.55   27.60
   3   2  16  564.84   28.40
   3  -2 -16  466.55   27.00
  -3   2 -16  521.45   27.50
  -4   2  16  158.58    8.80
  -4  -2 -16  156.38    8.90
   4   2 -16  144.99   10.00
   4  -2  16  153.48    9.20
  -4  -2 -16  154.48    8.50
   4  -2 -16  145.39    8.80
   4  -2 -16  136.69   11.40
   4  -2 -16  181.88    9.90
  -4  -2  16  162.28    9.20
   4   2  16  166.78    9.90
   4   2  16  158.68    9.10
   0  -3 -16  459.25   23.00
   0  -3 -16  465.45   24.40
   0  -3 -16  482.85   24.00
   0   3 -16  442.96   24.70
   0   3  16  469.25   23.60
   0  -3 -16  505.75   25.90
   0   3 -16  385.56   26.10
   0   3  16  451.95   23.40
   0   3 -16  403.96   29.60
  -1  -3 -16  263.47   14.20
  -1  -3 -16  249.28   14.40
  -1  -3 -16  244.08   13.10
  -1   3  16  259.87   14.30
   1   3 -16  215.38   20.30
   1   3 -16  258.87   15.70
  -1   3  16  258.17   13.40
  -1   3  16  240.98   13.60
  -1  -3 -16  240.28   13.90
  -1  -3 -16  259.87   16.10
   1   3  16  231.48   13.80
  -1  -3  16  255.07   13.60
  -1   3 -16  213.18   17.70
   1  -3 -16  268.07   13.30
   1  -3 -16  255.37   15.30
   1  -3 -16  283.67   16.60
   1   3  16  259.57   14.20
   1  -3 -16  253.07   13.00
  -2  -3 -16   94.49    9.70
  -2  -3 -16   86.29    6.40
  -2   3  16   85.79    5.80
  -2  -3 -16   85.19    6.20
   2   3 -16   88.89    8.70
  -2   3  16   84.79    6.50
  -2  -3 -16   79.09    6.60
   2   3 -16   71.89   13.40
   2  -3 -16   80.59    9.90
   2  -3 -16   82.59    5.50
   2   3  16   84.79    7.20
   2  -3 -16   80.79    5.10
   2  -3 -16   90.99    9.50
  -2  -3  16   76.99    5.70
  -2  -3  16   79.59    6.80
   2   3  16   78.09    6.40
   3   3 -16   88.99    7.60
  -3  -3 -16   90.99    5.70
  -3   3  16   88.69    5.60
  -3  -3 -16   96.59    6.40
   3   3 -16   78.19   11.70
   3   3 -16   64.79    9.10
  -3  -3  16   80.39    6.00
  -3  -3  16   77.89    6.30
   3  -3 -16   91.39    5.50
   3  -3 -16   86.29    5.50
  -3  -3  16   85.39    5.70
   3   3  16  103.99    8.50
   4   3 -16  167.48    9.80
  -4  -3 -16  171.68    8.90
   4   3 -16  161.28   10.00
  -4   3  16  171.28    8.90
  -4  -3 -16  179.88    9.70
   4   3  16  175.58    9.20
  -4  -3  16  171.08    9.10
   4  -3 -16  152.58    9.50
   4  -3 -16  160.48    9.10
  -4  -3  16  183.88    9.30
   0   4  16   32.40    4.00
   0  -4 -16   31.70    5.90
   0   4 -16   42.10    9.30
   0  -4 -16   33.20    6.30
   0  -4 -16   33.40    3.10
   0   4 -16   28.60    4.60
  -1  -4 -16  123.69    7.20
  -1  -4 -16  131.29    9.90
  -1  -4 -16  132.59    8.20
  -1   4  16  126.19    7.70
  -1  -4 -16  122.09   10.00
   1   4 -16  124.99    9.50
  -1  -4  16  132.39    8.10
   1   4  16  128.49    7.90
   1  -4 -16  142.69   10.20
   1  -4 -16  132.19    7.30
   1  -4 -16  135.49   13.10
   1  -4 -16  126.89    7.20
  -1   4 -16  134.29    9.70
   2   4 -16    5.80    6.70
  -2  -4 -16    4.50    2.10
  -2  -4 -16    5.80    2.70
  -2  -4 -16    1.80    4.20
  -2  -4 -16    8.80    4.10
  -2   4  16    7.00    2.00
  -2   4  16    0.70    2.60
   2   4 -16    4.50    3.50
   2  -4 -16    9.90    4.60
  -2  -4  16   10.50    2.90
  -2  -4  16    8.30    2.00
   2  -4 -16    5.90    1.60
   2  -4 -16    6.70    1.70
  -2  -4  16    8.50    3.80
   2   4  16    6.60    2.30
  -3  -4 -16   27.60    3.30
  -3   4  16   27.10    2.60
   3   4 -16   31.40    4.40
  -3   4  16   26.90    2.80
  -3  -4 -16   26.60    3.00
   3  -4 -16   29.80    2.80
  -3  -4  16   32.40    3.20
  -3  -4  16   29.00    4.00
   3  -4 -16   22.00    2.90
  -3  -4  16   20.90    3.10
   3   4  16   29.90    3.20
   0   5  16   79.29    5.00
   0   5 -16   81.59    6.00
   0  -5 -16   73.59    4.80
   0  -5 -16   85.99    7.30
   0  -5 -16   78.39    4.70
   1   5 -16    4.40    2.90
  -1  -5 -16    2.70    2.10
  -1  -5 -16    3.20    1.40
  -1   5  16    3.80    1.50
  -1  -5 -16    2.60    3.10
  -1  -5  16    5.90    2.10
  -1   5 -16    3.50    3.40
   1  -5 -16    2.00    1.50
   1  -5 -16    3.80    1.30
   1  -5 -16    4.80    3.10
   1   5  16    3.20    1.80
  -2  -5 -16  110.49    6.30
   2   5 -16  100.99    6.70
  -2  -5 -16  110.89    7.80
  -2   5  16  101.09    5.80
  -2  -5  16  108.69    6.50
   2  -5 -16  101.29    5.80
   2  -5 -16   92.99    5.80
   2   5  16  116.69    6.10
  -2  -5  16  106.19    6.10
   0   0 -17    2.30    1.50
   0   0  17    1.30    1.90
   0   0  17   13.80    6.30
  -1   0  17  289.37   17.50
   1   0  17  338.27   17.70
   1   0 -17  349.67   22.40
  -1   0 -17  384.56   19.40
  -1   0  17  367.56   74.49
  -1   0  17  309.67   21.10
  -1   0  17  311.77   18.20
   1   0 -17  346.07   17.60
   1   0 -17  331.87   17.90
  -1   0  17  327.07   17.40
  -1   0 -17  354.96   17.50
  -2   0 -17  753.72   36.00
  -2   0 -17  794.52   37.60
  -2   0 -17  731.33   36.50
   2   0  17  710.23   36.30
  -2   0  17  692.53   36.50
   2   0 -17  714.63   36.50
   2   0 -17  695.63   36.30
   2   0 -17  694.43   40.30
  -2   0  17  661.73   36.00
  -2   0  17  718.13   36.20
  -3   0  17  307.47   17.30
  -3   0  17  345.07   18.20
  -3   0 -17  360.56   17.20
   3   0 -17  337.27   18.10
  -3   0  17  319.17   17.90
  -3   0  17  351.26   18.00
  -3   0 -17  342.67   17.80
   3   0  17  355.76   17.80
   3   0 -17  293.97   22.40
   3   0 -17  332.97   19.30
   4   0 -17   10.00    3.90
  -4   0  17   12.50    3.00
   4   0  17   20.70    3.60
  -4   0 -17   14.40    2.40
   4   0 -17   13.80    4.70
   4   0  17   14.50    2.50
   0   1 -17    6.80    3.50
   0  -1 -17   18.70    6.90
   0   1  17   11.80    2.40
   0  -1 -17    2.40   16.60
   0  -1 -17   17.10    4.30
   0  -1 -17   10.50    2.50
   0  -1  17    8.20    2.30
   0   1  17    0.50    7.00
   0   1  17    8.70    2.70
   0   1 -17    9.10    5.20
   0  -1 -17   11.60    2.90
   0   1 -17   18.80   11.60
  -1  -1 -17    9.40    3.70
  -1  -1 -17   15.40    2.70
  -1   1  17    9.20    2.50
   1  -1  17    5.10    2.50
   1   1 -17    2.70    3.00
  -1  -1 -17   10.10    2.10
  -1  -1 -17   13.80    7.60
   1   1 -17    3.00    7.30
   1   1 -17   -0.10    5.50
  -1   1  17    6.10    2.20
  -1   1  17    3.70    3.30
   1   1  17    5.80    2.30
  -1   1 -17   11.00    5.50
   1   1  17    9.80    3.40
   1  -1 -17    9.70    3.10
   1  -1 -17    6.60    2.60
   1  -1 -17   10.70    5.40
   1  -1 -17    9.80    5.70
  -1  -1  17    5.00    1.90
  -1  -1  17   10.40    3.80
  -1   1 -17    8.00    2.90
  -2   1  17  215.38   13.00
   2  -1  17  216.18   12.40
  -2  -1 -17  230.38   12.20
  -2  -1 -17  246.68   13.50
  -2  -1 -17  225.18   12.80
   2   1 -17  204.68   17.80
   2   1 -17  197.58   15.80
  -2   1  17  228.18   12.20
   2  -1 -17  223.88   13.00
   2   1  17  226.58   13.30
  -2   1 -17  226.48   16.10
  -2  -1  17  228.38   12.20
   2  -1 -17  206.38   12.50
  -2   1 -17  242.28   12.80
   2  -1 -17  233.28   17.10
  -2  -1  17  225.88   12.90
   2  -1 -17  213.28   12.80
   2   1  17  225.08   12.40
   3   1 -17  296.67   19.20
  -3  -1 -17  359.86   18.30
   3   1 -17  288.47   22.10
  -3   1  17  347.77   17.40
  -3  -1 -17  333.07   16.80
   3   1 -17  306.07   17.10
  -3   1  17  318.07   17.00
   3  -1  17  339.37   17.30
  -3  -1 -17  326.97   17.30
   3   1  17  341.37   17.40
   3  -1 -17  284.37   21.80
   3  -1 -17  306.17   17.10
  -3  -1  17  321.87   17.70
   3   1  17  339.17   17.70
  -3  -1  17  331.97   17.40
   3  -1 -17  331.07   18.10
  -3   1 -17  327.57   17.40
  -3  -1  17  346.77   17.20
  -3  -1  17  321.27   17.00
  -4  -1 -17   24.90    3.50
  -4  -1 -17   23.40    2.80
   4   1 -17   25.20    4.30
  -4   1  17   33.70    3.90
   4  -1  17   21.00    3.60
   4   1  17   30.10    3.80
  -4  -1  17   32.70    4.30
  -4  -1  17   35.30    5.30
   4  -1 -17   29.60    4.20
   4   1  17   27.60    4.20
  -4   1 -17   26.20    3.60
   0   2 -17   88.19   10.60
   0   2 -17   94.09   10.90
   0  -2 -17   83.09    5.90
   0  -2 -17   87.59    7.50
   0   2  17   72.69    6.90
   0  -2 -17   82.09    6.30
   0  -2 -17   75.69    6.40
   0  -2  17   82.79    6.00
   0  -2 -17   88.89    9.30
   0   2  17   86.39    6.30
   0   2  17   81.19    7.10
   0   2 -17   98.49   16.50
  -1   2  17  372.46   18.90
  -1   2  17  356.06   19.50
  -1   2  17  354.16   18.80
   1   2 -17  306.77   20.90
   1   2 -17  320.97   25.20
  -1  -2 -17  359.46   18.70
  -1  -2 -17  415.86   21.60
  -1  -2 -17  362.36   18.90
  -1  -2 -17  392.46   19.50
   1   2  17  364.76   19.20
   1   2  17  346.47   18.80
   1   2  17  340.87   19.10
  -1  -2  17  348.17   18.70
   1  -2 -17  375.16   18.40
   1  -2 -17  364.66   19.40
   1  -2 -17  352.26   19.00
  -1   2 -17  328.57   22.20
   1  -2 -17  354.46   18.20
  -2  -2 -17  265.27   14.20
   2   2 -17  228.18   19.50
  -2  -2 -17  248.38   13.30
  -2   2  17  254.87   14.00
  -2   2  17  244.18   13.30
  -2  -2 -17  255.77   13.20
  -2  -2  17  241.08   14.10
   2  -2 -17  239.18   14.50
   2   2  17  245.18   13.90
   2  -2 -17  262.17   17.50
   2  -2 -17  221.98   14.60
   2  -2 -17  244.78   13.00
  -2  -2  17  247.18   13.40
   2   2  17  255.17   14.50
   2  -2 -17  253.37   13.30
   2   2  17  250.37   13.60
  -3  -2 -17  203.28   11.10
   3  -2  17  183.88   10.80
   3   2 -17  159.88   15.60
  -3  -2 -17  194.58   10.20
   3   2 -17  169.18   12.40
   3  -2 -17  172.78   12.50
  -3  -2  17  190.38   10.40
  -3  -2  17  182.38   10.60
   3   2  17  193.18   10.80
  -3  -2  17  171.08   10.50
  -3  -2  17  185.38   10.80
   3   2  17  191.98   10.80
   3  -2 -17  179.08   10.20
   3   2  17  201.98   12.50
   3  -2 -17  182.28   10.20
   4   2 -17   15.20    3.60
  -4  -2 -17   16.70    2.30
  -4  -2 -17   23.00    3.40
   4  -2  17   18.40    3.40
   4   2 -17   18.00    3.30
  -4   2  17   20.00    2.40
  -4  -2  17   22.10    3.50
   4  -2 -17   20.00    3.30
   4   2  17   25.60    3.40
   4  -2 -17   24.20    4.50
   0   3 -17    6.70    4.60
   0   3  17   -1.00    2.50
   0  -3 -17    2.30    3.80
   0  -3 -17    1.40    1.70
   0  -3 -17    3.20    3.90
   0  -3 -17    1.40    2.90
   0   3 -17    1.80    5.70
   0   3  17    3.80    3.00
   0  -3 -17    5.90    5.60
   0  -3 -17   -2.00    1.70
   0   3 -17    2.60    8.20
  -1   3  17   23.70    4.10
  -1   3  17   21.70    3.90
   1   3 -17   25.40    9.20
  -1  -3 -17   28.40    6.60
  -1   3  17   15.70    2.90
  -1  -3 -17   15.40    3.80
  -1  -3 -17   18.50    3.60
  -1  -3 -17   19.30    3.10
   1   3 -17   18.20    4.80
  -1  -3 -17   21.20    4.20
   1   3  17   19.30    3.20
  -1   3 -17   16.70    6.70
   1  -3 -17   20.30    2.50
   1  -3 -17   23.70    6.90
   1  -3 -17   18.60    4.90
   1  -3 -17   20.10    3.10
  -1  -3  17   18.60    2.70
   1   3  17   24.30    3.90
  -2   3  17  326.87   17.00
  -2  -3 -17  358.66   19.60
  -2  -3 -17  348.87   17.70
   2   3 -17  339.47   18.90
  -2  -3 -17  340.47   17.50
   2   3 -17  291.07   22.90
  -2   3  17  290.67   17.50
  -2  -3 -17  326.27   17.20
   2  -3 -17  337.67   19.80
   2  -3 -17  316.37   16.80
   2  -3 -17  317.87   19.20
  -2  -3  17  299.27   17.20
   2   3  17  344.77   18.10
   2  -3 -17  336.97   16.90
  -2  -3  17  325.37   17.70
   2   3  17  321.57   17.30
  -3  -3 -17  141.79    8.80
   3   3 -17  134.39   13.70
  -3  -3 -17  140.59    8.10
  -3   3  17  145.49    8.20
  -3   3  17  149.19    8.20
   3   3 -17  156.08    9.90
   3   3  17  153.48   10.60
  -3  -3  17  147.09    8.60
   3  -3 -17  143.89    8.00
   3  -3 -17  132.19    8.10
  -3  -3  17  137.39    8.80
   3   3  17  145.39    8.50
  -3  -3  17  149.49    8.30
   4   3 -17   67.69    5.30
  -4  -3 -17   75.49    4.20
  -4   3  17   70.79    4.30
   4   3 -17   63.99    6.30
  -4  -3 -17   74.99    5.60
   4  -3 -17   77.19    5.40
   4   3  17   72.09    4.50
   4  -3 -17   64.09    4.50
  -4  -3  17   74.49    4.80
   0  -4 -17  219.58   11.10
   0   4 -17  212.88   12.70
   0   4 -17  187.88   17.40
   0  -4 -17  208.58   11.10
   0   4  17  206.78   11.50
   0  -4 -17  201.28   14.10
   0  -4 -17  241.78   14.10
  -1  -4 -17  461.35   26.30
   1   4 -17  417.16   30.00
  -1  -4 -17  540.35   27.30
  -1  -4 -17  519.55   25.70
  -1   4  17  499.15   25.20
  -1  -4 -17  501.35   24.80
   1   4 -17  499.35   26.30
   1  -4 -17  560.44   27.50
   1  -4 -17  515.95   24.90
   1   4  17  478.65   25.20
   1  -4 -17  472.55   24.80
   1  -4 -17  443.46   27.70
  -1  -4  17  503.75   25.40
  -2   4  17  178.88    9.60
   2   4 -17  159.18   15.50
  -2  -4 -17  173.08    9.80
  -2   4  17  148.49    9.90
  -2  -4 -17  199.08   11.90
  -2  -4 -17  192.08   10.30
   2   4 -17  207.58   11.40
  -2  -4  17  173.98    9.70
   2   4  17  180.18    9.90
   2  -4 -17  172.88    9.40
   2  -4 -17  165.88   12.10
  -2  -4  17  175.78   10.30
   2  -4 -17  165.38    9.30
  -3  -4 -17   48.10    3.40
  -3  -4 -17   52.99    4.00
  -3   4  17   45.10    3.30
   3   4 -17   49.60    4.40
  -3   4  17   48.80    3.30
  -3  -4  17   45.40    3.80
  -3  -4  17   46.70    3.70
   3  -4 -17   44.60    3.40
   3  -4 -17   45.90    3.80
  -3  -4  17   43.70    4.40
   3   4  17   44.60    3.60
   0  -5 -17    9.00    1.50
   0  -5 -17    9.10    3.20
   0   5 -17    6.30    2.70
   0   5  17    6.70    1.80
   1   5 -17  110.99    7.10
  -1  -5 -17  111.49    6.80
  -1  -5 -17  125.09    8.00
  -1   5  17  109.29    6.20
   1  -5 -17  109.49    6.00
   1  -5 -17   94.89    6.10
   1   5  17  110.89    6.30
   1  -5 -17  114.09    8.10
  -1  -5  17  104.59    6.70
   0   0 -18  284.37   17.20
   0   0 -18  305.07   20.80
   0   0  18  284.67   15.50
   0   0 -18  295.97   15.50
  -1   0 -18  165.58    9.10
  -1   0  18  167.08    9.10
   1   0 -18  170.48    9.50
  -1   0  18  153.08   10.00
   1   0  18  160.78    9.20
   1   0 -18  144.59   14.10
   1   0 -18  142.19   11.90
  -1   0 -18  170.08   18.60
   1   0 -18  161.28    9.00
   2   0 -18   64.89    5.50
  -2   0 -18   61.29    5.90
  -2   0  18   63.59    5.20
  -2   0 -18   65.89    4.90
   2   0 -18   68.09   11.40
   2   0 -18   71.89    6.20
  -2   0 -18   70.29    8.00
   2   0  18   61.59    5.20
  -2   0  18   61.79    6.00
   3   0 -18    9.80    7.10
   3   0  18    4.70    2.30
  -3   0  18    8.60    3.30
  -3   0 -18   17.40    5.50
  -3   0 -18    4.90    1.90
   3   0  18    6.50    5.70
  -3   0  18    8.50    3.20
   3   0 -18   10.60    5.00
  -3   0 -18    8.00    2.40
  -3   0  18    9.20    2.30
   3   0 -18   11.80    3.60
   4   0  18   85.99    6.20
  -4   0  18   81.29    6.00
  -4   0  18  103.99    6.30
  -4   0 -18   79.39    5.70
   4   0  18   84.89    5.80
   4   0 -18   88.09    7.50
   0  -1 -18  744.73   37.80
   0   1 -18  772.52   37.70
   0  -1 -18  756.12   37.70
   0  -1 -18  755.32   38.70
   0  -1  18  735.63   37.80
   0   1 -18  710.63   39.40
   0  -1 -18  825.02   40.80
   0   1 -18  702.43   42.70
   0   1  18  733.93   37.70
  -1  -1 -18   94.09    6.30
   1   1 -18   90.49    7.00
  -1  -1 -18  102.79    8.00
   1   1 -18  107.19   14.20
  -1   1  18   95.79    6.40
  -1  -1 -18   93.79    5.80
  -1  -1 -18  109.89   12.40
   1  -1  18   93.19    6.50
  -1   1  18   99.49    6.60
  -1   1  18   87.69    7.30
   1   1 -18   80.79    9.70
   1   1  18   95.69    6.40
  -1   1 -18   98.89    6.50
   1  -1 -18   95.19    6.70
   1  -1 -18  103.49    6.90
  -1  -1  18   87.39    6.20
   1  -1 -18  103.59   11.10
   1  -1 -18   97.69    9.90
  -1  -1  18   93.29    7.90
   1   1  18   83.69    8.20
  -1   1 -18   88.29   10.30
  -2  -1 -18  973.20   52.29
  -2  -1 -18 1073.19   53.29
   2   1 -18  921.31   54.09
   2   1 -18  971.40   56.69
   2  -1  18 1047.50   52.59
  -2   1  18 1132.69   52.69
  -2   1  18 1013.80   52.59
  -2  -1 -18 1075.49   52.79
   2  -1 -18 1066.49   52.79
  -2   1 -18 1095.89   54.29
   2  -1 -18 1068.09   55.89
  -2  -1  18  919.71   52.79
  -2  -1  18 1116.69   53.49
  -2  -1  18 1114.69   52.59
   2   1  18 1116.09   52.99
   2   1  18 1093.59   52.79
   2  -1 -18 1043.30   52.99
  -3   1  18  235.78   12.10
  -3  -1 -18  218.68   12.00
   3  -1  18  229.38   12.20
   3   1 -18  196.18   15.10
  -3   1  18  210.08   11.80
  -3  -1 -18  215.88   11.40
   3   1 -18  209.28   17.10
  -3  -1 -18  215.08   12.80
  -3   1 -18  209.18   11.90
   3   1  18  186.28   12.00
   3   1  18  212.18   12.30
  -3  -1  18  226.68   12.10
  -3  -1  18  217.28   12.30
  -3  -1  18  210.98   11.80
   3  -1 -18  209.98   13.30
   3  -1 -18  197.48   12.80
  -3  -1  18  229.48   12.00
  -4   1  18  105.29    6.30
  -4  -1 -18   97.69    5.60
  -4  -1 -18  102.69    6.30
   4   1 -18   90.59    7.80
   4  -1  18   99.79    6.40
  -4  -1  18  106.49    6.60
   4  -1 -18  109.79    7.40
   4   1  18  102.69    6.50
   4   1  18   95.59    6.60
  -4   1 -18   99.49    6.20
   0   2  18  641.04   32.20
   0   2  18  598.04   32.40
   0   2 -18  640.84   34.50
   0  -2 -18  637.74   32.10
   0  -2  18  614.84   32.10
   0   2 -18  599.44   38.20
   0  -2 -18  681.53   33.00
   0  -2 -18  635.74   32.50
   0   2  18  644.84   32.50
   0   2 -18  632.74   33.60
  -1  -2 -18  966.20   48.20
  -1  -2 -18 1039.10   48.90
   1   2 -18  863.91   49.90
  -1  -2 -18  989.10   48.40
  -1   2  18 1003.60   48.50
  -1   2  18  885.21   48.30
  -1  -2 -18 1084.99   50.79
   1   2 -18  927.01   53.59
   1  -2 -18  958.70   48.30
   1  -2 -18  935.81   48.80
  -1   2 -18  901.21   50.29
   1   2  18  914.91   48.30
  -1  -2  18  909.61   48.80
   1   2  18  998.20   48.80
   1   2  18  944.71   48.30
   1  -2 -18 1088.59   51.09
  -1  -2  18  938.71   48.30
   1  -2 -18  955.80   47.90
  -2  -2 -18  371.16   18.20
  -2   2  18  365.96   18.60
  -2   2  18  349.17   18.50
   2   2 -18  314.47   24.00
  -2  -2 -18  383.96   19.30
  -2  -2 -18  360.36   18.40
  -2  -2  18  343.37   19.10
   2  -2 -18  338.57   19.60
   2   2  18  370.26   19.60
  -2  -2  18  363.16   18.60
   2   2  18  350.36   18.80
   2  -2 -18  373.86   21.90
   2   2  18  364.66   18.70
   2  -2 -18  324.37   19.20
   2  -2 -18  355.16   18.30
   2  -2 -18  331.67   18.70
   3   2 -18   86.19   11.50
  -3  -2 -18   92.59    6.60
   3  -2  18   87.09    6.50
  -3  -2 -18   95.29    5.60
  -3  -2  18   93.19    6.40
   3  -2 -18   78.09    9.10
  -3  -2  18   88.09    6.80
   3   2  18   88.09    9.20
   3  -2 -18   81.99    5.80
  -3  -2  18   85.19    6.20
   3   2  18   96.29    6.40
  -3  -2  18   94.89    6.00
   3   2  18   90.09    6.60
   4  -2  18   15.90    2.80
  -4  -2 -18   14.50    2.00
  -4   2  18   14.50    2.00
   4   2 -18   19.90    3.20
   4   2 -18   15.30    3.60
   4  -2 -18   11.80    2.90
  -4  -2  18   11.40    2.20
   4   2  18    8.60    1.90
   0  -3 -18  199.98   11.70
   0  -3 -18  177.78   12.30
   0   3 -18  199.18   12.80
   0   3  18  191.68   10.90
   0  -3 -18  202.88   10.50
   0  -3 -18  192.48   11.20
   0   3 -18  175.38   14.20
   0   3 -18  165.58   17.50
   0   3  18  216.18   11.60
   0  -3 -18  222.98   13.60
  -1  -3 -18  125.19    8.60
  -1   3  18  114.59    7.40
  -1   3  18  116.89    7.60
   1   3 -18  113.09    9.30
   1   3 -18   99.09   14.60
  -1  -3 -18  130.49    8.10
  -1  -3 -18  132.69   10.10
  -1  -3 -18  115.09    7.50
   1  -3 -18  121.89    6.90
   1  -3 -18  116.39    6.70
  -1  -3  18  102.69    7.20
  -1   3 -18   96.59   11.40
   1  -3 -18  131.89   10.30
   1   3  18  125.09    8.50
   1  -3 -18  116.49    9.80
   1   3  18  117.09    7.60
  -2  -3 -18  576.14   27.90
   2   3 -18  479.55   32.00
  -2  -3 -18  541.45   27.40
  -2  -3 -18  549.25   27.30
   2   3 -18  544.25   28.50
  -2  -3 -18  611.14   29.70
  -2   3  18  455.15   27.40
  -2  -3  18  509.95   27.70
   2   3  18  591.44   28.20
   2   3  18  527.85   27.40
  -2  -3  18  543.75   27.40
   2  -3 -18  560.74   29.80
   2  -3 -18  512.45   28.90
   2  -3 -18  535.55   27.10
   2  -3 -18  504.15   27.00
  -3  -3 -18    1.50    2.20
  -3   3  18    1.00    2.00
  -3   3  18    0.10    1.80
   3   3 -18    1.90    3.00
   3   3 -18    0.70    5.20
  -3  -3 -18    2.30    1.60
  -3  -3  18    8.50    2.30
  -3  -3  18    2.30    1.90
   3  -3 -18    1.10    2.40
  -3  -3  18    2.40    2.00
   3  -3 -18    2.50    1.80
   3   3  18    0.80    2.00
   0   4 -18    6.40    6.90
   0   4  18    5.90    2.20
   0  -4 -18    3.80    1.60
   0   4 -18    4.60    3.40
   0  -4 -18    4.90    3.50
   0  -4 -18   -0.50    4.90
  -1  -4 -18    2.00    4.50
  -1   4  18   -0.10    3.10
  -1  -4 -18    4.30    2.40
  -1  -4 -18    4.10    3.50
   1   4 -18    3.20    3.40
   1   4 -18    5.60    6.40
  -1   4  18    0.50    1.80
  -1  -4  18    3.70    2.10
   1  -4 -18    4.20    1.50
   1  -4 -18    4.00    1.70
  -1  -4  18    4.30    3.50
   1  -4 -18    0.90    6.30
   1  -4 -18    3.00    3.40
   1   4  18    2.10    2.00
  -2  -4 -18   19.40    5.90
   2   4 -18   15.10    3.50
   2   4 -18   15.20    6.20
  -2   4  18   21.70    2.50
  -2  -4 -18   24.70    3.20
  -2  -4 -18   18.50    3.30
   2  -4 -18   21.80    5.70
   2   4  18   18.50    2.50
   2  -4 -18   13.10    2.10
  -2  -4  18   20.40    2.70
   2  -4 -18   20.80    2.50
  -2  -4  18   17.50    2.70
  -3  -4 -18   14.80    2.60
  -3   4  18   11.50    1.70
   3   4 -18   18.80    2.80
  -3  -4 -18   13.70    2.10
  -3   4  18   12.00    1.60
  -3  -4  18   12.70    2.00
  -3  -4  18   16.00    2.40
   3   4  18   12.60    1.90
   3  -4 -18    9.20    1.70
  -3  -4  18   11.40    1.90
   0   5 -18    3.60    2.50
   0   5  18    4.90    1.40
   0  -5 -18    4.00    1.40
   0  -5 -18    3.90    2.90
  -1  -5 -18   12.50    3.30
  -1   5  18   12.00    1.70
  -1  -5 -18    7.90    2.30
   1   5 -18   11.50    2.60
   1  -5 -18   11.60    2.10
  -1  -5  18    6.90    3.00
   1   5  18    9.60    1.80
  -1  -5  18    8.60    2.10
   1  -5 -18   11.50    3.40
   0   0  19    0.60    1.90
   0   0 -19    0.50    2.20
   0   0 -19    6.60    6.20
   0   0 -19   -2.00    3.80
   1   0  19   76.89    5.60
  -1   0 -19   81.69    5.50
   1   0 -19   78.09   11.20
  -1   0  19   81.39    5.50
  -1   0  19   69.29    6.60
  -1   0 -19   76.79    7.80
   1   0 -19   85.99    9.10
   1   0 -19   71.89    5.30
   1   0 -19   86.19    6.00
  -1   0 -19   82.89   13.80
   2   0  19 2031.20  101.39
  -2   0 -19 2135.89  102.19
   2   0 -19 2086.49  101.39
  -2   0 -19 1995.50  101.39
   2   0 -19 1974.10  101.19
  -2   0  19 1988.90  101.39
   2   0 -19 1956.00  104.59
  -2   0 -19 2102.39  100.89
  -2   0  19 2098.39  101.19
  -3   0 -19  132.09    8.50
   3   0 -19  139.59    9.30
  -3   0  19  157.98    9.20
  -3   0 -19  144.29   10.50
   3   0  19  145.59    8.70
  -3   0 -19  142.09    7.80
   3   0 -19  137.69   13.30
   4   0  19   35.80    3.80
  -4   0  19   45.00    4.30
  -4   0 -19   31.20    3.30
   4   0  19   33.70    4.20
  -4   0  19   35.60    3.90
   4   0 -19   29.90    5.40
   0  -1 -19  324.07   17.50
   0   1 -19  302.47   22.90
   0  -1 -19  329.57   19.90
   0  -1 -19  301.37   16.10
   0   1 -19  304.97   16.20
   0  -1  19  313.87   16.30
   0  -1 -19  288.67   16.10
   0   1  19  294.57   16.20
   0   1 -19  301.77   18.40
   1   1 -19 1038.70   50.99
   1  -1  19 1017.70   50.99
   1   1 -19 1004.80   55.39
   1   1 -19  915.51   52.39
  -1   1  19  984.10   51.19
  -1  -1 -19 1083.19   51.79
  -1  -1 -19 1056.79   50.79
  -1  -1 -19 1083.09   53.99
  -1   1  19 1010.10   50.89
  -1   1  19 1084.59   51.19
  -1   1 -19 1026.60   50.69
   1  -1 -19  994.60   51.09
  -1  -1  19  977.20   50.99
   1   1  19 1009.60   52.59
  -1   1 -19  980.60   52.49
   1  -1 -19  978.30   52.09
   1  -1 -19 1073.89   53.89
   1   1  19 1014.70   50.99
  -1  -1  19  955.30   51.29
   1  -1 -19 1049.79   50.99
  -2  -1 -19   23.00    3.40
  -2  -1 -19   18.20    3.30
  -2   1  19   15.20    2.90
  -2  -1 -19   18.50    3.90
  -2   1  19   20.10    3.70
   2   1 -19   25.70    8.10
  -2  -1  19   20.80    3.20
  -2  -1  19   13.10    3.10
   2  -1 -19   12.80    3.70
  -2  -1  19   16.70    2.50
   2   1  19   19.40    3.40
  -2   1 -19   27.20    6.00
   2  -1 -19   15.80    5.90
   2  -1 -19   14.80    3.40
   2   1  19   14.10    5.80
   2   1  19   23.10    3.70
  -3  -1 -19   36.20    4.10
  -3   1  19   40.00    4.30
   3  -1  19   36.90    4.30
  -3  -1 -19   39.40    3.20
  -3  -1 -19   39.00    5.60
  -3   1  19   31.50    4.70
   3   1 -19   35.00    9.60
  -3  -1  19   44.50    4.80
   3   1  19   33.90    4.30
   3  -1 -19   33.10    4.90
  -3  -1  19   34.30    4.10
  -3  -1  19   29.30    4.40
   3  -1 -19   41.60    6.40
  -3  -1  19   36.20    4.70
  -4  -1 -19   11.90    1.50
   4  -1  19   13.00    2.50
   4   1 -19   11.40    3.50
  -4   1  19    8.50    2.00
  -4  -1 -19   11.20    1.90
   4   1  19   12.30    2.50
   4   1  19   14.70    2.60
   4  -1 -19   14.80    3.30
  -4  -1  19   13.40    2.60
   0  -2 -19  145.49    8.50
   0  -2 -19  147.99    9.10
   0   2 -19  127.59   11.60
   0  -2 -19  162.68    9.60
   0  -2  19  143.29    8.40
   0   2  19  137.29    9.10
   0   2  19  143.09    9.10
   0   2 -19  129.29   16.50
   0   2 -19  119.49   11.50
   0  -2 -19  146.19   11.60
  -1  -2 -19  171.18   12.50
  -1   2  19  178.08   11.10
  -1  -2 -19  149.69    9.00
  -1   2  19  163.38    9.60
   1   2 -19  130.39   11.80
  -1  -2 -19  168.58   10.00
  -1  -2 -19  163.18    9.50
   1   2 -19  161.28   16.20
  -1   2 -19  143.99   12.70
  -1  -2  19  145.79   10.40
   1   2  19  155.18   10.20
  -1  -2  19  158.68    9.10
   1   2  19  154.28    9.40
   1   2  19  150.98    9.60
   1  -2 -19  153.48    9.10
   1  -2 -19  152.18   10.20
   1  -2 -19  178.38   12.70
   1  -2 -19  149.09    9.40
   2   2 -19  125.29   14.20
  -2  -2 -19  145.29    9.00
  -2   2  19  129.09    8.40
  -2  -2 -19  132.09    8.00
   2   2  19  130.19    8.60
  -2  -2  19  150.28    9.00
   2  -2 -19  146.59   12.10
  -2  -2  19  154.68    8.30
   2  -2 -19  133.19    8.10
   2  -2 -19  149.29   10.10
  -2   2 -19  124.29   12.40
   2  -2 -19  142.39    9.50
   2   2  19  142.29   10.20
   2   2  19  132.79    8.60
  -3  -2 -19   16.70    2.10
  -3  -2 -19   15.00    3.00
   3   2 -19   17.80    6.60
  -3   2  19   16.10    2.50
  -3  -2  19   21.90    3.10
   3  -2 -19   17.70    6.70
   3   2  19   18.00    5.70
  -3  -2  19   19.30    3.70
   3  -2 -19   11.60    5.20
   3   2  19   16.70    3.20
  -3  -2  19   16.20    2.60
   3  -2 -19   13.20    2.70
  -3  -2  19   14.70    3.40
   4   2 -19   51.89    4.60
  -4  -2 -19   59.09    3.30
   4  -2  19   50.69    4.60
  -4   2  19   54.79    3.70
   4  -2 -19   45.70    4.80
   4   2  19   54.89    3.80
  -4  -2  19   58.79    4.00
   0  -3 -19   46.40    6.70
   0  -3 -19   46.40    5.40
   0  -3 -19   49.60    7.30
   0   3 -19   40.30    7.20
   0   3  19   45.70    4.40
   0  -3 -19   34.80    4.70
   0   3 -19   47.60   10.30
   0   3 -19   35.20    7.70
   0   3  19   42.00    5.60
   0  -3 -19   42.70    4.00
   1   3 -19  352.06   19.40
  -1  -3 -19  357.26   18.70
  -1  -3 -19  389.36   20.50
   1   3 -19  308.87   23.90
  -1  -3 -19  340.17   18.80
  -1   3  19  334.37   18.10
  -1  -3 -19  328.37   18.10
  -1   3  19  343.77   18.10
  -1  -3  19  353.26   18.30
   1  -3 -19  361.86   17.80
   1  -3 -19  388.76   20.80
  -1   3 -19  305.37   20.50
   1   3  19  357.46   19.00
   1   3  19  346.07   18.20
   1  -3 -19  341.87   19.70
  -2  -3 -19   35.90    8.00
   2   3 -19   21.50    7.00
  -2  -3 -19   27.30    3.80
  -2  -3 -19   25.70    3.20
  -2  -3 -19   30.20    3.80
   2   3 -19   24.60    4.20
   2  -3 -19   23.90    3.80
   2   3  19   30.50    3.70
  -2  -3  19   29.70    4.10
   2  -3 -19   23.50    3.00
   2  -3 -19   25.30    6.50
   2  -3 -19   23.10    5.80
  -2  -3  19   23.10    3.40
   2   3  19   32.10    4.90
   3   3 -19   84.99    6.30
   3   3 -19   74.99    9.60
  -3   3  19   83.09    5.10
  -3  -3 -19   86.79    5.70
  -3  -3 -19   79.79    4.90
   3  -3 -19   74.79    5.00
  -3  -3  19   78.29    5.40
   3   3  19   83.39    5.20
  -3  -3  19   78.89    5.30
  -3  -3  19   80.19    5.40
   0  -4 -19   52.59    3.70
   0   4 -19   39.00    5.80
   0  -4 -19   59.69    6.70
   0  -4 -19   40.80    6.30
   0  -4  19   43.50    4.90
   0   4 -19   40.00   11.50
   0  -4 -19   45.30    5.60
   0   4  19   50.19    4.00
  -1  -4 -19  150.78    8.90
   1   4 -19  139.59    9.80
  -1   4  19  145.79    8.30
  -1  -4 -19  152.68   10.70
   1   4 -19  129.09   14.20
  -1  -4 -19  166.18   10.80
   1  -4 -19  146.29    8.00
   1  -4 -19  165.28   10.80
   1   4  19  139.49    8.40
  -1  -4  19  143.19    8.50
   2   4 -19   14.60    3.20
  -2   4  19   10.70    1.80
  -2  -4 -19    9.10    2.00
  -2  -4 -19   13.40    2.90
  -2  -4 -19   14.20    4.20
   2   4 -19   11.40    5.20
  -2  -4  19    9.30    2.20
   2  -4 -19    8.80    1.70
  -2  -4  19   15.50    2.60
   2   4  19   14.10    2.00
   2  -4 -19   10.80    4.00
   0   5  19  195.48   10.50
   0   5 -19  187.88   10.80
   0  -5 -19  222.88   12.10
   0   0  20    1.40    1.90
   0   0 -20   -1.10    3.90
   0   0 -20    1.50    2.10
   0   0 -20   -5.20    5.60
  -1   0 -20  144.19    8.10
  -1   0 -20  140.29   10.20
   1   0  20  136.69    8.40
   1   0 -20  146.29   13.50
  -1   0  20  149.99    8.50
   1   0 -20  168.08    8.70
  -1   0 -20  129.49   15.10
  -1   0  20  136.69    9.10
   1   0 -20  134.39   11.00
   2   0 -20  256.57   14.10
  -2   0  20  259.47   14.40
  -2   0 -20  276.87   13.60
  -2   0  20  263.27   14.00
   2   0 -20  249.58   14.30
   2   0 -20  237.08   18.20
   2   0  20  272.67   14.20
  -2   0 -20  268.97   15.40
   3   0 -20  114.59   12.20
  -3   0  20  147.49    8.70
  -3   0 -20  134.39    7.20
   3   0 -20  132.69    9.30
  -3   0 -20  128.19    7.80
   3   0  20  135.39    8.00
  -3   0 -20  126.59    9.90
   4   0  20    0.50    1.90
  -4   0  20    0.70    2.00
   4   0 -20    5.10    3.50
  -4   0  20    1.10    2.70
   0   1 -20   16.70    4.50
   0   1  20    6.20    3.00
   0  -1  20   12.70    2.40
   0   1  20    9.70    4.40
   0   1 -20   10.30    8.40
   0  -1 -20   10.50    2.50
   0  -1 -20   12.00    2.60
   0   1 -20   17.40    2.90
   0   1  20   14.20    2.50
   0  -1 -20   16.70    6.00
   0  -1 -20   16.00    4.10
  -1  -1 -20  506.95   29.50
   1  -1  20  527.25   26.60
  -1  -1 -20  544.85   26.30
  -1   1  20  499.05   26.40
  -1  -1 -20  543.45   27.40
   1   1 -20  489.85   30.90
   1   1 -20  508.75   26.60
  -1   1  20  500.55   26.70
  -1   1  20  540.55   26.80
  -1  -1  20  510.65   26.50
   1  -1 -20  495.35   26.60
   1  -1 -20  506.15   27.90
  -1   1 -20  553.54   26.20
   1  -1 -20  535.65   29.80
   1  -1 -20  481.15   26.50
  -1   1 -20  528.25   28.30
   1   1  20  514.45   26.50
   1   1  20  521.05   27.80
   2   1 -20  253.07   17.70
   2  -1  20  306.67   15.90
  -2   1  20  307.87   16.10
  -2  -1 -20  313.47   16.70
   2   1 -20  281.97   20.80
  -2  -1 -20  313.77   15.50
  -2  -1  20  316.77   15.90
   2  -1 -20  286.87   19.60
   2  -1 -20  295.57   16.10
   2  -1 -20  289.77   16.40
  -2   1 -20  288.87   17.90
   2   1  20  316.17   16.00
  -2  -1  20  299.87   16.00
  -2  -1  20  292.17   16.20
  -3  -1 -20  132.79    7.10
  -3  -1 -20  123.99    8.70
  -3  -1 -20  140.19    7.80
  -3   1  20  128.89    7.90
  -3   1  20  132.09    8.20
   3   1 -20  106.19   12.20
   3  -1  20  137.19    7.80
  -3  -1  20  129.89    7.90
   3  -1 -20  120.79    9.50
  -3  -1  20  130.69    8.10
   3   1  20  132.49    7.90
   3  -1 -20  138.79   10.40
  -3  -1  20  115.29    8.00
  -4  -1 -20   44.90    3.00
   4  -1  20   47.90    3.90
  -4   1  20   43.90    3.60
   4   1  20   47.50    3.80
   4   1  20   46.20    4.30
   4  -1 -20   41.20    5.10
  -4  -1  20   39.00    4.80
  -4  -1  20   53.59    3.90
   0   2 -20  304.07   22.50
   0  -2 -20  336.67   18.20
   0  -2 -20  374.36   20.20
   0  -2 -20  321.97   17.70
   0   2  20  323.07   17.50
   0   2  20  333.17   17.90
   0   2 -20  297.07   23.30
   0  -2  20  331.87   17.20
   0   2  20  315.77   17.50
   0   2 -20  318.27   19.50
   0  -2 -20  326.17   17.10
  -1  -2 -20   54.69    4.40
  -1  -2 -20   48.20    5.60
   1   2 -20   51.59   11.70
  -1  -2 -20   55.69    8.40
  -1   2  20   57.89    5.50
   1   2 -20   42.70    7.90
  -1   2  20   55.99    5.40
  -1  -2 -20   39.90    5.20
   1   2  20   56.99    5.20
  -1   2 -20   50.79    9.00
  -1  -2  20   56.09    4.40
   1  -2 -20   54.19    6.30
   1   2  20   61.79    6.60
   1  -2 -20   56.59    8.30
   1   2  20   51.99    5.40
   1  -2 -20   57.29    5.30
  -1  -2  20   47.90    6.00
  -2  -2 -20  191.98   10.20
  -2   2  20  177.88   10.80
   2   2 -20  156.48   15.50
  -2  -2 -20  204.98   11.30
  -2  -2  20  196.78   10.70
   2   2  20  203.68   11.00
  -2   2 -20  171.68   13.60
   2  -2 -20  193.38   14.10
   2  -2 -20  187.68   12.20
   2   2  20  199.98   12.50
  -2  -2  20  190.68   11.00
   2   2  20  189.08   10.70
   3   2 -20   42.20    9.50
  -3  -2 -20   58.49    5.30
  -3   2  20   59.79    4.70
   3  -2  20   60.69    4.90
  -3  -2 -20   59.09    3.90
  -3  -2  20   55.79    5.10
  -3  -2  20   55.49    4.70
   3  -2 -20   60.89    6.60
   3   2  20   58.89    5.70
  -3  -2  20   49.20    4.80
   3   2  20   61.89    4.80
   0  -3  20   16.70    2.70
   0   3  20   13.70    2.50
   0  -3 -20   13.40    3.50
   0   3 -20   19.50    4.90
   0  -3 -20   12.80    4.10
   0  -3 -20   18.50    5.80
   0   3  20   20.10    3.90
   0   3 -20   15.90    7.60
   0   3 -20   18.20    5.50
   0  -3 -20   16.80    4.20
  -1  -3 -20  140.79    8.70
  -1  -3 -20  134.89    8.00
  -1  -3 -20  155.78   10.50
  -1  -3 -20  131.99    9.40
   1   3 -20  140.79    9.60
   1   3 -20  126.19   14.10
   1   3  20  154.08    9.80
   1  -3 -20  153.08   10.90
   1  -3 -20  139.29    7.80
   1  -3 -20  126.59   10.60
  -1  -3  20  137.29    8.20
  -1   3 -20  119.89   11.00
  -2  -3 -20  108.29    7.00
  -2  -3 -20  113.69   10.20
  -2   3  20  106.49    6.50
   2   3 -20  106.29    7.90
  -2  -3 -20  107.29    6.40
   2   3  20  115.89    9.20
   2   3  20  113.49    6.80
  -2  -3  20  102.39    6.50
   2  -3 -20  100.49    6.40
   2  -3 -20  105.59    9.70
  -2  -3  20   95.99    7.00
   2  -3 -20  111.19   10.40
   3   3 -20   59.09    8.60
  -3  -3 -20   66.19    4.10
  -3   3  20   72.79    4.40
   3   3 -20   70.79    5.30
  -3  -3 -20   65.59    5.00
  -3  -3  20   65.69    4.60
  -3  -3  20   70.89    4.80
  -3  -3  20   67.19    4.70
   3   3  20   65.49    4.40
   0  -4  20   22.30    3.90
   0  -4 -20   34.50    5.80
   0   4  20   30.90    3.20
   0   4 -20   26.10    5.00
  -1  -4 -20   90.89    7.40
   1   4 -20   73.59    6.40
  -1   4  20   83.59    4.90
  -1  -4 -20   79.19    5.60
   1   4 -20   78.39   10.60
   1  -4 -20   82.19    7.30
   1  -4 -20   71.69    4.80
   1   4  20   72.79    5.00
  -1  -4  20   75.49    5.30
  -2  -4 -20  147.39    8.30
  -2  -4 -20  151.78   10.40
   2   4 -20  144.09    8.70
  -2   4  20  145.29    7.70
  -2  -4 -20  144.49    7.90
  -2  -4  20  150.48    8.20
   2   4  20  151.88    7.90
   2  -4 -20  134.09   10.00
  -2  -4  20  140.39    8.00
  -2  -4  20  153.88    8.40
   2  -4 -20  135.89    7.80
   0   0 -21    4.70    5.50
   0   0  21   -1.10    1.80
   0   0 -21    0.90    2.00
   0   0 -21   -3.40    3.60
   1   0 -21  340.27   17.20
   1   0 -21  299.97   18.80
   1   0  21  334.87   17.20
  -1   0 -21  346.27   16.90
  -1   0 -21  315.67   18.50
  -1   0  21  304.07   17.50
  -1   0  21  365.56   17.90
   1   0 -21  323.67   21.20
  -1   0  21  328.67   17.10
  -1   0 -21  297.97   22.00
   2   0 -21  258.27   14.10
   2   0 -21  239.68   17.90
  -2   0  21  262.07   14.20
  -2   0  21  271.97   14.10
  -2   0 -21  251.77   15.10
  -2   0 -21  254.07   13.40
   2   0  21  267.87   14.10
  -3   0 -21   -2.20    1.90
  -3   0  21   -2.80    3.20
  -3   0  21   -0.80    2.90
  -3   0  21   -1.40    3.20
   3   0  21    2.30    2.00
  -3   0 -21    2.90    4.50
   3   0 -21    0.50    6.00
  -4   0  21   13.50    2.30
   4   0  21   11.50    2.10
  -4   0  21   11.10    2.90
   0  -1 -21  146.59    8.70
   0  -1 -21  160.68   12.50
   0   1 -21  141.29   11.10
   0   1 -21  142.39   15.00
   0  -1 -21  158.18    8.70
   0   1  21  146.59    9.30
   0   1  21  157.28    9.90
   0   1  21  146.69    8.80
   0  -1  21  151.88    8.80
   0   1 -21  158.38    8.90
   0  -1 -21  144.89   10.10
   1   1 -21  143.89   14.40
  -1   1  21  172.28   10.10
  -1  -1 -21  172.48   13.60
  -1  -1 -21  171.18    9.30
   1  -1  21  170.28    9.50
  -1   1  21  167.08    9.60
   1   1 -21  143.69   11.70
   1   1 -21  154.08    9.60
  -1  -1 -21  180.78   10.80
  -1   1  21  167.28    9.90
   1   1  21  173.08    9.50
  -1   1 -21  157.68   11.90
   1  -1 -21  176.58   13.60
   1  -1 -21  164.18    9.60
  -1   1 -21  169.08    9.40
  -1  -1  21  155.78   10.10
   1  -1 -21  158.78    9.90
   1  -1 -21  166.18   11.60
   1   1  21  172.98   11.30
  -1  -1  21  161.18    9.40
   2  -1  21  722.73   37.20
  -2   1  21  793.72   37.30
   2   1 -21  631.34   38.30
   2   1 -21  688.63   40.80
  -2  -1 -21  779.32   37.80
  -2  -1 -21  753.22   36.70
  -2  -1  21  777.32   37.40
   2  -1 -21  744.13   40.20
  -2   1 -21  712.43   38.40
  -2  -1  21  778.22   37.10
   2  -1 -21  732.43   37.30
   2  -1 -21  753.42   37.20
   2   1  21  665.33   37.10
   3   1 -21  136.79   12.90
  -3   1  21  161.38    8.90
   3  -1  21  159.78    8.80
  -3  -1 -21  150.48    9.70
  -3  -1 -21  156.78    8.20
  -3  -1  21  138.59    9.10
   3  -1 -21  138.79   11.20
  -3  -1  21  137.49    9.40
   3  -1 -21  139.79   12.50
   3   1  21  162.88    8.90
   3   1  21  163.08    9.10
  -3  -1  21  155.88    8.80
  -4   1  21   18.30    2.50
   4  -1  21   13.00    2.00
   4   1  21   16.00    2.70
  -4  -1  21   23.60    2.90
   4   1  21   21.60    2.90
   0   2 -21   35.40   11.70
   0  -2 -21   35.50    3.90
   0   2  21   26.00    4.10
   0   2 -21   29.80    7.10
   0  -2  21   36.30    3.80
   0  -2 -21   32.70    7.40
   0   2  21   28.60    5.00
   0  -2 -21   28.90    5.20
   0  -2 -21   26.80    5.20
  -1  -2 -21   43.30    5.20
   1   2 -21   41.60    6.70
  -1  -2 -21   39.40    3.80
  -1   2  21   47.90    5.50
   1   2 -21   38.90   10.80
   1  -2  21   58.09    6.70
  -1  -2 -21   50.49    7.70
  -1  -2 -21   40.10    4.90
  -1  -2  21   47.50    5.40
   1   2  21   41.50    4.90
  -1  -2  21   45.70    4.10
   1   2  21   49.99    5.60
   1  -2 -21   36.90    4.80
   1   2  21   45.00    6.40
   1  -2 -21   41.70    7.40
  -1   2 -21   38.00    7.30
   1   2  21   35.80    4.90
   1  -2 -21   40.90    4.60
   2   2 -21   77.19   10.40
  -2  -2 -21   99.29    6.80
  -2  -2 -21   95.59    5.60
  -2   2  21   94.49    7.00
   2  -2 -21   90.29    9.30
   2   2  21   96.39    6.80
   2   2  21  106.59    9.00
   2  -2 -21   85.89    8.60
  -2   2 -21   81.89    9.30
  -2  -2  21   91.59    6.50
  -2  -2  21   98.29    6.10
   3   2 -21   34.90    7.60
  -3   2  21   37.80    3.40
   3  -2  21   39.40    4.20
  -3  -2 -21   35.40    4.40
  -3  -2 -21   35.60    2.90
  -3  -2  21   41.30    4.20
   3   2  21   30.80    3.60
  -3  -2  21   35.40    4.10
   3  -2 -21   36.70   10.70
  -3  -2  21   39.30    3.80
   0   3  21   36.10    6.00
   0  -3 -21   25.50    4.90
   0   3 -21   33.90    8.50
   0  -3 -21   36.10    6.30
   0   3 -21   49.00    6.40
   0   3 -21   31.70    5.30
   0  -3  21   37.30    3.90
   1  -3  21   40.20    4.50
   1   3 -21   30.30    5.50
  -1  -3 -21   36.60    6.00
  -1  -3 -21   39.20    3.70
   1   3 -21   31.70    9.50
  -1  -3 -21   39.70    6.40
  -1  -3 -21   35.40    4.30
  -1   3  21   34.40    5.10
   1  -3 -21   42.30    5.60
   1   3  21   35.80    5.00
   1  -3 -21   38.50    6.50
   1   3  21   38.40    3.70
  -1  -3  21   36.90    3.60
  -1   3 -21   33.90    7.10
   2   3 -21   98.19   11.50
   2   3 -21  118.49    8.10
  -2  -3 -21  121.89    7.40
  -2  -3 -21  110.99    6.50
  -2  -3  21  114.59    6.70
   2  -3 -21  105.49    9.30
   2   3  21  117.69    6.80
  -2  -3  21  119.69    7.20
  -3   3  21   67.69    4.10
  -3  -3 -21   62.49    3.90
   3   3 -21   61.39    4.70
   3   3 -21   61.99    8.10
  -3  -3 -21   64.69    4.90
   3   3  21   68.69    4.10
  -3  -3  21   67.29    4.40
  -3  -3  21   65.49    4.80
  -3  -3  21   68.59    4.40
   0  -4 -21  176.28   11.00
   0   4  21  163.98    8.80
   0  -4  21  157.28    9.30
   0   4 -21  152.78    9.70
   1   4 -21  149.69    8.70
  -1  -4 -21  130.79    8.00
  -1  -4 -21  163.38    9.90
   1   4 -21  135.09   12.30
  -1  -4 -21  143.19    8.40
  -1   4  21  143.59    7.70
   1   4  21  145.59    7.80
   1  -4 -21  144.09    9.90
  -1  -4  21  135.39    8.00
  -2  -4 -21   14.10    2.10
  -2  -4 -21   10.80    2.60
   2   4 -21   11.30    2.50
  -2   4  21   14.60    2.00
   2  -4 -21   13.80    4.40
   2   4  21   15.20    2.10
  -2  -4  21    8.00    2.40
  -2  -4  21   13.20    2.10
  -2  -4  21   13.90    2.50
   0   0 -22   50.69    4.50
   0   0  22   60.99    4.60
   0   0 -22   56.59    6.60
   0   0 -22   53.89    9.60
   0   0  22   47.90    5.30
   1   0 -22   -0.60    4.90
  -1   0  22    1.30    3.60
  -1   0 -22   -1.50    1.60
   1   0 -22    2.80    4.10
   1   0  22    2.90    2.00
  -1   0  22    1.40    1.80
  -1   0 -22    0.80    6.80
  -1   0  22    2.20    2.50
   1   0 -22    4.70    2.40
  -1   0 -22    5.20    3.60
  -2   0  22   59.29    5.10
  -2   0  22   56.99    5.30
   2   0 -22   57.99    9.00
   2   0  22   58.09    5.00
  -2   0  22   67.39    6.30
  -2   0 -22   53.39    6.00
  -2   0 -22   64.79    4.00
   2   0 -22   50.69    5.00
   3   0  22   60.99    4.40
   3   0 -22   46.50    8.20
  -3   0 -22   42.90    6.80
   0  -1  22  137.59    9.10
   0   1 -22  126.69    8.20
   0   1  22  135.69    8.80
   0  -1 -22  154.18    8.20
   0  -1 -22  148.89   12.30
   0   1  22  156.18    9.80
   0  -1 -22  144.59    9.70
   0   1 -22  118.69   13.70
   0   1 -22  125.09   10.30
   0  -1  22  140.19    8.20
   0   1  22  147.69    8.30
  -1  -1 -22  107.99    8.30
  -1  -1 -22  114.49    6.70
  -1   1  22  119.89    7.60
   1  -1  22  121.09    7.30
   1   1 -22  125.19    7.40
   1   1 -22  112.59    9.60
  -1   1  22  115.79    8.30
  -1  -1 -22  107.59   11.20
  -1   1  22  119.79    7.60
   1   1 -22  110.89   12.60
   1  -1 -22  114.19    7.20
  -1  -1  22  125.19    7.20
   1  -1 -22  108.29    9.30
  -1   1 -22  116.49    9.40
   1   1  22  115.89    9.80
   1  -1 -22  103.99   10.70
   1  -1 -22  111.69    7.70
  -1   1 -22  116.99    7.10
   1   1  22  114.39    7.20
  -1  -1  22  117.99    7.90
   2  -1  22   86.89    5.50
  -2   1  22   67.79    6.40
  -2  -1 -22   76.49    4.70
   2   1 -22   59.89    9.50
  -2  -1 -22   76.39    6.30
  -2  -1  22   72.09    5.80
   2  -1 -22   63.59    7.00
  -2  -1  22   76.59    5.40
   2   1  22   80.09    5.50
   2  -1 -22   73.79    9.20
  -2  -1  22   73.99    6.80
  -2   1 -22   74.19    7.60
   2  -1 -22   72.09    5.70
   3   1 -22   26.80    7.70
  -3  -1 -22   28.60    4.80
  -3  -1 -22   27.20    2.60
   3  -1  22   33.60    3.60
  -3   1  22   22.90    3.60
  -3  -1  22   34.70    4.10
  -3  -1  22   33.60    3.70
   3   1  22   31.00    3.70
   3  -1 -22   28.50    7.90
   0   2 -22  609.04   34.50
   0   2 -22  608.04   37.30
   0   2  22  672.53   33.50
   0  -2  22  665.13   33.10
   0  -2 -22  652.93   33.10
   0  -2 -22  719.43   35.60
   0   2  22  647.84   33.00
   0  -2 -22  645.54   33.70
   0  -2 -22  639.84   32.80
   1   2 -22  552.04   33.50
   1   2 -22  597.74   36.30
   1  -2  22  653.13   32.30
  -1  -2 -22  647.44   34.40
   1   2 -22  630.64   33.00
  -1  -2 -22  642.34   32.00
  -1  -2 -22  659.13   32.90
  -1   2  22  653.43   32.50
   1   2  22  663.63   33.10
   1  -2 -22  641.74   32.70
   1  -2 -22  645.84   34.80
  -1  -2  22  665.33   32.30
  -1  -2  22  643.94   32.60
  -1   2 -22  606.34   33.70
   1   2  22  653.23   32.30
   1  -2 -22  618.04   32.20
  -2   2  22   48.40    6.30
   2   2 -22   45.10    9.10
  -2  -2 -22   56.39    5.10
  -2  -2 -22   51.79    3.80
   2  -2  22   50.69    4.60
  -2  -2  22   57.79    4.80
   2  -2 -22   46.60    7.90
   2   2  22   68.69    6.80
  -2  -2  22   57.79    4.30
  -2   2 -22   47.30    7.80
   2  -2 -22   47.10    5.50
   2  -2 -22   58.99    7.70
   2   2  22   60.79    6.00
   2   2  22   45.20    8.20
   3   2 -22  183.58   10.40
  -3   2  22  188.58    9.80
   3   2 -22  164.88   13.00
  -3  -2 -22  184.78    9.50
   3  -2  22  155.08   11.30
  -3  -2 -22  183.18   10.40
  -3  -2  22  198.68   10.00
   3   2  22  190.18    9.80
   3  -2 -22  159.38   12.80
  -3  -2  22  193.18    9.90
  -3  -2  22  194.88   10.80
   0   3 -22   -1.70    7.30
   0  -3 -22    0.50    3.50
   0  -3 -22    2.30    3.00
   0  -3  22    4.50    2.00
   0   3 -22   11.00    5.60
   0  -3  22    5.60    3.20
   0  -3 -22    5.40    4.40
   0   3  22    3.00    4.10
   0  -3 -22    0.20    2.20
   0   3  22    3.00    3.20
   1   3 -22   20.60    4.10
   1   3 -22   15.50    6.80
  -1  -3 -22   18.60    4.70
  -1   3  22   24.20    3.60
  -1  -3 -22   21.50    3.00
  -1  -3 -22   19.40    4.00
   1   3  22   21.10    6.50
   1  -3 -22   12.80    5.40
  -1  -3  22   22.50    3.00
   1  -3 -22   17.40    5.90
   1  -3 -22   16.10    3.20
   1   3  22   19.90    2.70
  -1  -3  22   19.30    3.10
  -2  -3 -22   13.60    3.20
   2   3 -22   10.90    4.80
  -2  -3 -22   14.00    2.20
   2   3 -22   10.80    2.90
  -2  -3  22   14.90    2.40
   2  -3 -22   14.50    4.20
   2   3  22   15.80    2.20
  -2  -3  22   20.20    2.70
  -2  -3  22   16.80    2.60
   0   4 -22   17.90    5.70
   0  -4 -22   15.80    4.90
   0  -4 -22   18.50    2.70
   0   4  22   17.30    2.30
  -1  -4 -22  173.38   10.30
  -1   4  22  161.58    8.30
  -1  -4 -22  157.38    8.90
  -1  -4 -22  152.78    8.50
   1   4 -22  158.68    9.00
  -1  -4  22  153.78    8.60
   1  -4 -22  154.38   10.10
   1   4  22  168.88    8.40
  -1  -4  22  149.19    8.90
  -1  -4  22  142.79    8.90
   0   0 -23    3.00    3.20
   0   0  23   -1.50    2.30
   0   0  23    3.00    2.00
   0   0 -23   -0.60    5.00
   0   0 -23    0.20    1.80
  -1   0 -23  453.15   24.50
   1   0 -23  438.06   24.80
  -1   0  23  464.25   23.50
  -1   0 -23  475.55   23.10
   1   0  23  471.45   23.60
  -1   0  23  477.35   23.80
  -1   0 -23  423.96   27.10
   1   0 -23  466.35   23.50
   1   0 -23  433.46   26.80
   2   0 -23   -0.40    4.20
  -2   0  23    2.80    3.60
  -2   0  23    1.90    3.90
  -2   0 -23   -0.40    1.40
   2   0  23    1.40    2.00
  -2   0 -23    1.30    3.00
   3   0 -23   -0.50    4.70
   3   0  23    4.40    2.00
  -3   0  23    1.80    2.40
  -3   0 -23   -3.40    3.40
   0   1 -23    0.60    3.60
   0  -1 -23   -1.80    3.00
   0  -1  23    0.40    2.50
   0   1  23    1.20    2.30
   0   1 -23   -1.10    2.20
   0   1  23    2.90    2.50
   0  -1  23    2.30    2.00
   0   1  23    4.40    3.90
   0  -1 -23   -1.80    1.80
   0  -1 -23   -0.80    4.20
   0   1 -23    2.30    6.10
  -1  -1 -23  616.74   29.90
   1   1 -23  531.35   31.30
  -1   1  23  589.14   30.60
  -1  -1 -23  551.74   32.50
   1   1 -23  550.54   33.80
   1  -1  23  617.04   30.20
  -1   1  23  602.34   30.20
  -1  -1 -23  595.94   30.90
   1   1  23  620.84   30.20
   1  -1 -23  593.44   33.10
  -1  -1  23  598.94   30.40
  -1   1 -23  571.04   31.40
   1  -1 -23  610.94   30.10
  -1  -1  23  626.04   30.20
   1   1  23  612.64   31.40
   2  -1  23  139.29    7.80
  -2  -1 -23  128.19    7.20
   2   1 -23  118.79   11.40
  -2   1  23  127.79    8.70
  -2  -1 -23  129.09    8.50
   2  -1 -23  118.39   11.00
   2  -1 -23  132.09    8.00
  -2  -1  23  137.99    7.80
  -2   1 -23  118.99    9.50
   2   1  23  140.29    7.90
  -2  -1  23  144.09    8.10
  -3  -1 -23   55.39    3.40
   3   1 -23   51.39    8.10
   3  -1  23   63.79    4.30
  -3   1  23   51.09    4.30
  -3  -1 -23   51.19    5.50
   3  -1 -23   49.90    7.70
   3   1  23   57.89    4.60
  -3  -1  23   55.59    4.50
   0  -2 -23   32.80    3.50
   0  -2 -23   34.10    4.50
   0   2 -23   40.50    5.90
   0  -2 -23   32.00    4.80
   0  -2 -23   41.70    6.70
   0   2  23   36.00    6.20
   0  -2  23   37.30    3.70
   0   2 -23   34.00    9.90
   1   2 -23  311.87   17.20
   1   2 -23  272.57   17.60
  -1  -2 -23  322.57   16.10
  -1   2  23  314.47   16.90
  -1  -2 -23  321.87   18.60
   1   2 -23  284.67   20.20
  -1  -2 -23  321.37   16.90
   1  -2  23  324.67   16.40
   1  -2 -23  295.57   16.30
  -1   2 -23  290.47   17.70
   1  -2 -23  315.37   19.00
   1   2  23  332.17   17.70
   1   2  23  325.07   16.40
  -1  -2  23  308.17   16.60
   1  -2 -23  306.97   17.00
  -1  -2  23  325.57   16.40
   2   2 -23  152.98    9.20
   2   2 -23  128.29   12.50
  -2  -2 -23  143.09    7.90
   2  -2  23  150.58    8.30
  -2  -2 -23  145.69    8.90
  -2  -2  23  155.68    8.20
   2   2  23  139.39    8.40
  -2  -2  23  153.68    8.60
   2  -2 -23  135.79    8.60
   2  -2 -23  133.29   11.10
   2   2  23  143.09    8.20
   3   2 -23   28.80    6.60
  -3  -2 -23   28.20    2.30
  -3   2  23   31.90    2.90
   3  -2  23   29.10    3.60
   3   2 -23   26.40    3.40
  -3  -2 -23   30.10    3.90
  -3  -2  23   31.80    3.00
   3   2  23   35.90    5.00
   3   2  23   28.40    3.00
  -3  -2  23   34.90    3.20
   0  -3  23   25.20    3.20
   0  -3 -23   25.10    5.90
   0   3 -23   25.20    7.00
   0   3  23   28.10    3.20
   0  -3 -23   20.40    3.20
   0  -3 -23   22.00    4.40
   1  -3  23  120.99    7.60
  -1  -3 -23  130.09    7.90
   1   3 -23  124.19   11.90
   1   3 -23  129.99    8.40
  -1  -3 -23  130.89    7.20
  -1  -3 -23  132.79    9.50
   1  -3 -23  131.19    9.70
   1  -3 -23  123.09    7.60
  -1  -3  23  128.39    7.40
   1   3  23  137.09    7.30
  -1  -3  23  125.99    7.80
  -2  -3 -23   39.20    2.70
   2   3 -23   36.40    3.90
   2   3 -23   33.80    7.30
  -2  -3 -23   36.90    3.60
   2  -3 -23   27.10    5.60
   2   3  23   39.90    3.00
  -2  -3  23   35.00    3.40
  -2  -3  23   35.70    3.30
  -2  -3  23   29.80    3.40
   2  -3 -23   28.40    3.60
   0  -4 -23    2.10    2.50
   0  -4 -23    2.40    2.80
   0   4  23    2.00    1.40
   0   0 -24 1192.18   56.89
   0   0 -24 1062.59   59.69
   0   0  24 1192.58   57.09
   0   0 -24 1080.99   57.99
   0   0  24 1182.08   57.29
  -1   0  24   42.70    4.30
   1   0 -24   46.50    4.20
  -1   0 -24   44.00    5.40
  -1   0  24   50.19    4.40
  -1   0 -24   41.60    3.40
  -1   0  24   48.20    7.30
   1   0 -24   32.80    6.20
  -1   0 -24   44.60   11.70
   1   0 -24   49.99    8.30
   1   0  24   45.30    4.10
  -2   0 -24  135.29    7.40
   2   0  24  135.79    8.00
   2   0 -24  120.49   11.40
  -2   0 -24  132.99    9.20
  -2   0  24  144.79    9.60
  -2   0  24  144.99    8.20
  -3   0 -24   11.80    4.00
  -3   0  24   18.60    3.00
   3   0 -24    9.70    4.20
   3   0  24   13.70    2.20
  -3   0  24   11.30    2.80
   0   1 -24  436.96   28.10
   0  -1  24  491.25   25.00
   0  -1 -24  471.45   25.60
   0   1  24  494.85   24.90
   0  -1 -24  491.15   24.50
   0  -1 -24  470.25   27.30
   0   1 -24  491.35   24.40
   0   1 -24  455.45   25.90
   0   1  24  493.15   25.70
   0   1  24  497.85   24.80
   0  -1  24  513.05   24.80
  -1  -1 -24   57.39    8.60
   1   1 -24   55.59    9.00
  -1  -1 -24   52.69    5.40
   1  -1  24   59.89    4.50
  -1  -1 -24   56.29    3.90
  -1   1  24   58.89    4.90
   1   1 -24   54.39    6.30
  -1   1  24   56.29    6.80
  -1  -1  24   55.19    4.90
   1   1  24   52.49    4.80
   1  -1 -24   56.69    7.90
   1   1  24   59.39    8.80
  -1  -1  24   53.69    4.40
  -1   1 -24   50.19    6.00
   1   1  24   56.79    4.80
   1  -1 -24   57.09    4.40
   2   1 -24   24.80    8.20
  -2  -1 -24   32.80    2.90
   2  -1  24   35.30    3.50
  -2  -1 -24   23.50    4.50
   2  -1 -24   26.70    7.50
   2  -1 -24   33.70    3.90
  -2   1 -24   25.70    5.80
   2   1  24   42.90    3.90
  -2  -1  24   34.10    3.70
  -2  -1  24   36.60    4.10
   3   1 -24  187.08   13.40
  -3  -1 -24  192.48   11.50
   3  -1  24  218.98   11.00
  -3  -1 -24  198.68   10.40
  -3   1  24  221.48   10.90
   3  -1 -24  173.68   13.20
   3   1  24  214.98   11.10
  -3  -1  24  237.48   11.00
   0  -2 -24    3.40    3.80
   0  -2  24    3.80    1.90
   0   2 -24    5.00    3.40
   0  -2 -24    4.00    2.90
   0   2 -24    7.40    7.40
   0  -2 -24    4.60    1.70
   0  -2  24    6.60    2.70
   0   2  24    6.10    4.10
  -1   2  24    3.70    4.10
  -1  -2 -24   15.30    2.00
   1  -2  24   11.60    2.20
  -1  -2 -24    9.70    2.90
   1   2 -24    4.80    5.40
  -1  -2 -24    8.80    4.40
   1   2 -24    9.50    3.90
   1   2 -24   14.10    3.60
   1  -2 -24   12.60    2.40
   1   2  24   12.00    5.10
   1   2  24   15.80    3.80
  -1   2 -24    7.20    4.00
   1  -2 -24   10.30    4.60
  -1  -2  24    8.10    1.90
  -1  -2  24    7.10    2.50
   2   2 -24   41.00    7.40
  -2  -2 -24   46.50    3.20
  -2  -2 -24   39.00    4.30
   2  -2  24   39.60    3.90
   2   2 -24   49.70    4.70
  -2  -2  24   50.59    3.90
  -2  -2  24   47.10    4.10
   2  -2 -24   35.30    6.10
   2   2  24   48.40    4.20
   2  -2 -24   45.20    4.10
  -2   2 -24   49.20    6.80
   0  -3 -24  102.89    7.20
   0   3 -24   92.49   11.20
   0  -3 -24  114.39    8.50
   0  -3 -24  112.49    6.40
   0  -3  24   97.19    7.90
   0  -3  24  119.79    6.40
  -1  -3 -24   29.40    3.60
   1   3 -24   30.50    4.30
   1   3 -24   31.30    7.60
  -1  -3 -24   27.70    5.60
  -1  -3 -24   32.00    2.70
  -1  -3  24   32.40    3.60
   1   3  24   27.00    2.90
  -1  -3  24   27.00    3.00
   1  -3 -24   29.60    5.20
   1  -3 -24   24.50    2.90
   2   3 -24    7.10    2.40
  -2  -3 -24    3.20    1.20
  -2  -3 -24    4.60    1.70
   2   3 -24    7.90    4.20
   2  -3 -24    4.10    3.30
  -2  -3  24    9.00    1.80
  -2  -3  24    8.50    1.70
  -2  -3  24    4.50    1.70
   2   3  24    7.70    1.70
   0   0  25    0.40    2.10
   0   0  25    2.50    1.90
   0   0 -25    4.50    1.70
   0   0 -25   -0.30    4.80
   0   0 -25    0.30    3.00
  -1   0  25    6.60    2.10
  -1   0 -25    7.80    6.20
  -1   0  25    4.50    2.10
  -1   0 -25    0.40    1.60
   1   0 -25    4.40    2.00
  -1   0  25    4.50    4.70
   1   0 -25    2.40    4.20
   1   0  25    3.60    2.10
   1   0 -25    5.60    3.60
   1   0  25    3.10    2.20
  -1   0 -25    4.60    2.80
  -2   0  25   45.50    4.30
  -2   0 -25   44.50    5.40
   2   0  25   51.29    4.00
   3   0  25   46.30    3.80
   3   0 -25   43.50    7.10
   0   1 -25  644.34   36.20
   0  -1 -25  706.83   35.00
   0   1  25  722.13   35.30
   0  -1  25  741.33   35.30
   0  -1  25  737.43   35.50
   0  -1 -25  666.13   35.90
   0  -1 -25  670.33   37.60
   0   1 -25  636.94   38.10
   0   1  25  719.13   36.20
   0   1  25  740.73   35.20
   1  -1  25  264.97   13.60
   1   1 -25  223.58   16.70
   1   1 -25  227.38   14.70
  -1   1  25  253.17   14.70
  -1  -1 -25  243.48   16.30
  -1   1  25  280.17   13.60
  -1  -1 -25  251.77   14.30
   1  -1  25  247.48   14.00
  -1  -1 -25  262.47   13.20
   1  -1 -25  259.47   13.50
  -1  -1  25  278.37   13.60
   1  -1 -25  248.98   16.40
  -1  -1  25  259.97   13.80
  -1   1 -25  242.28   14.80
   1   1  25  274.07   13.70
   1  -1 -25  232.68   14.70
   1   1  25  272.97   13.80
  -2  -1 -25    4.80    2.50
  -2   1  25    2.70    2.90
   2  -1  25    8.40    2.00
   2   1 -25    6.60    4.60
  -2  -1  25    5.20    2.50
  -2  -1  25    8.40    2.10
   2  -1 -25    3.40    3.60
   2   1  25    5.90    2.40
  -2   1 -25    9.90    3.40
   0  -2  25  268.17   13.30
   0   2 -25  232.28   17.10
   0  -2 -25  247.88   14.00
   0  -2  25  256.97   13.60
   0   2 -25  224.88   14.40
   0  -2 -25  260.67   15.70
   0  -2 -25  264.67   13.20
   1   2 -25   31.30    4.90
  -1  -2 -25   39.80    3.00
   1   2 -25   33.40    8.00
   1   2 -25   46.20    5.10
  -1  -2 -25   35.80    4.10
   1  -2  25   37.80    3.60
   1  -2  25   34.70    4.60
  -1  -2 -25   34.60    6.50
   1  -2 -25   32.10    6.30
  -1   2 -25   33.50    5.90
   1  -2 -25   38.80    3.40
  -1  -2  25   39.50    3.40
  -1  -2  25   38.90    3.80
   2  -2  25    7.00    2.50
   2   2 -25    4.20    3.70
  -2  -2 -25    6.30    1.20
   2  -2  25    4.10    1.90
   2   2 -25    8.40    2.50
  -2  -2 -25    3.70    2.00
  -2  -2  25    6.00    1.80
  -2  -2  25    4.10    1.90
  -2   2 -25    4.80    4.30
   2  -2 -25    1.60    3.10
   2  -2 -25    3.30    1.80
   0   3 -25   -3.80    6.20
   0  -3 -25    1.70    2.70
   0  -3  25    1.80    2.20
   0  -3 -25   -2.60    3.20
   0  -3  25    1.20    1.60
   0  -3 -25    1.50    1.40
  -1  -3 -25  110.59    8.30
   1   3 -25  108.59    7.00
  -1  -3 -25  100.39    6.60
   1  -3  25  111.59    6.50
  -1  -3 -25  103.39    6.00
   1  -3 -25  110.19    8.20
   1   3  25  113.09    6.70
  -1  -3  25  113.99    6.50
   1  -3 -25  104.29    6.30
  -1  -3  25  118.69    6.30
   0   0  26   78.89    5.50
   0   0 -26   61.49    6.50
   0   0  26   82.59    5.20
   0   0 -26   77.59    4.90
   0   0 -26   68.89    9.10
  -1   0 -26   54.79    3.80
   1   0  26   60.69    4.80
  -1   0  26   61.69    4.70
   1   0 -26   54.99    7.80
   1   0 -26   46.60    6.00
   1   0 -26   56.79    4.30
   1   0  26   63.39    4.40
  -1   0  26   60.39    4.60
  -1   0 -26   51.39    5.60
  -2   0 -26   92.79    6.90
   2   0 -26   90.69    8.60
   2   0  26  109.49    6.10
  -2   0  26  105.59    6.50
   0  -1 -26    9.70    1.90
   0  -1 -26   10.20    4.50
   0   1  26   13.60    3.70
   0   1 -26    8.60    3.40
   0  -1  26   10.80    2.40
   0  -1  26   11.30    2.10
   0   1  26   10.60    2.20
   0   1 -26    6.80    5.30
   0  -1 -26    9.80    3.10
   1   1 -26   64.99    6.30
  -1  -1 -26   70.59    4.50
   1  -1  26   83.59    5.40
  -1  -1 -26   64.89    5.70
   1  -1  26   81.59    5.00
  -1  -1 -26   59.99    8.90
   1   1 -26   62.89    8.50
   1   1  26   79.99    5.20
  -1  -1  26   79.09    5.00
   1  -1 -26   73.69    6.60
   1  -1 -26   72.39    8.00
  -1   1 -26   72.69    6.50
  -1  -1  26   81.79    5.30
   1  -1 -26   69.09    4.80
  -2   1  26   30.60    4.10
  -2  -1 -26   30.70    3.90
   2   1 -26   31.60    6.20
   2  -1  26   36.30    3.30
   2   1 -26   37.30    4.00
   2  -1  26   38.90    3.60
  -2  -1 -26   32.00    2.50
  -2  -1  26   36.70    3.40
   2   1  26   29.60    4.00
   2  -1 -26   28.70    5.80
  -2   1 -26   32.70    4.80
   0   2 -26  107.39   10.60
   0  -2 -26  111.49    7.30
   0  -2 -26  105.19    6.20
   0   2 -26  102.69    7.70
   0  -2  26  122.09    6.90
   0  -2  26  119.49    6.50
   0  -2 -26  106.19    8.70
  -1  -2 -26    9.40    4.30
   1  -2  26   14.90    2.60
   1   2 -26   15.20    3.90
   1   2 -26    6.50    4.30
  -1  -2 -26   11.90    2.50
   1  -2  26   13.80    2.30
  -1  -2 -26    9.10    1.60
   1  -2 -26   16.30    2.40
   1  -2 -26   11.20    3.70
  -1  -2  26   12.10    2.10
  -1   2 -26    8.20    3.50
  -1  -2  26   12.70    2.10
   2  -2  26   91.39    5.50
   2   2 -26   86.49    5.80
  -2  -2 -26   90.59    5.90
  -2   2  26   89.89    5.30
   2   2 -26   87.99    8.40
  -2  -2 -26   92.69    5.00
   2  -2 -26   76.79    7.40
  -2  -2  26   97.39    6.20
  -2  -2  26   97.29    5.50
  -2  -2  26   96.29    5.50
   0  -3 -26    6.60    3.40
   0  -3  26    8.60    1.80
   0  -3 -26    8.90    1.50
   0  -3  26   10.70    2.20
   0   0 -27    0.80    4.60
   0   0 -27   -0.20    1.50
   0   0 -27   -0.50    2.40
   0   0  27   -0.10    1.90
   0   0  27    0.70    1.80
  -1   0  27   26.50    4.40
   1   0 -27   18.80    6.10
  -1   0 -27   25.10    4.10
   1   0 -27   20.00    4.70
  -1   0 -27   19.30    2.50
  -1   0  27   27.50    3.30
   1   0  27   27.10    3.20
   1   0  27   26.60    3.30
  -2   0  27   24.10    4.10
   2   0  27   39.40    3.20
   2   0 -27   25.30    5.70
  -2   0 -27   29.90    4.20
   2   0  27   37.80    3.40
   0  -1 -27   73.69    6.00
   0  -1 -27   80.49    4.80
   0  -1  27   87.89    5.40
   0   1  27   86.29    5.30
   0  -1 -27   69.29    7.80
   0   1 -27   75.69    8.80
   0   1 -27   65.49    6.10
   0  -1  27   85.09    5.10
  -1  -1 -27   19.50    3.60
   1  -1  27   28.90    3.30
   1   1 -27   20.60    4.30
   1   1 -27   20.70    6.20
  -1  -1 -27   19.70    2.30
   1  -1  27   29.00    3.00
  -1  -1  27   27.40    3.10
   1  -1 -27   23.60    2.70
   1  -1 -27   19.90    5.40
   1   1  27   31.30    4.60
   1   1  27   28.80    3.20
   1  -1 -27   24.30    5.00
  -1  -1  27   26.40    3.20
  -1   1 -27   24.10    4.20
   2  -1  27   16.90    2.90
   2   1 -27   18.80    2.80
  -2  -1 -27   10.70    2.40
   2  -1  27   16.20    2.00
   2   1 -27   15.40    4.30
  -2  -1 -27   15.40    1.90
   2   1  27   18.00    3.00
  -2  -1  27   22.70    2.80
  -2  -1  27   17.40    2.30
   2  -1 -27   15.50    4.00
  -2   1 -27   13.70    3.10
   0  -2 -27    4.40    3.50
   0  -2 -27    3.20    2.30
   0   2 -27   -0.60    2.30
   0   2 -27    2.80    5.20
   0  -2  27   -0.10    1.60
   0  -2  27   -0.20    1.70
   1  -2  27   75.29    5.00
  -1  -2 -27   68.09    4.90
  -1  -2 -27   73.09    4.10
   1   2 -27   72.09    7.80
   1  -2  27   64.39    4.50
  -1  -2  27   79.79    4.70
  -1   2 -27   56.79    5.70
  -1  -2  27   78.79    4.80
   1  -2 -27   70.19    4.30
   1  -2 -27   70.99    6.70
   0   0 -28   50.99    7.00
   0   0  28   59.59    4.30
   0   0 -28   44.80    4.70
   0   0  28   52.39    4.00
   1   0  28   46.60    3.70
  -1   0  28   41.00    3.60
  -1   0 -28   34.30    4.20
   1   0  28   46.30    3.50
   1   0 -28   38.60    6.20
   1   0 -28   33.60    4.80
   0  -1 -28   44.20    4.60
   0  -1 -28   51.69    3.30
   0  -1 -28   45.50    6.20
   0  -1  28   52.99    3.90
   0   1 -28   47.30    7.40
   0   1 -28   43.70    4.50
   0   1  28   54.89    5.80
   0  -1  28   52.39    3.90
  -1  -1 -28   73.39    5.70
   1   1 -28   68.19    5.80
   1  -1  28   92.69    5.20
   1   1 -28   74.19    7.80
   1  -1  28   90.29    5.20
  -1  -1 -28   81.49    4.60
   1   1  28   92.79    5.30
  -1   1 -28   74.79    5.80
   1  -1 -28   83.09    4.80
  -1  -1  28   90.19    5.20
  -1  -1  28   84.39    5.40
   1  -1 -28   82.49    7.30
   0   0  29   -1.80    1.60
   0   0 -29    1.70    3.90
   0   0 -29    1.60    2.10
_computing_structure_solution     'SHELXT 2014/4 (Sheldrick, 2014)'
;
_shelx_hkl_checksum              45118
_shelx_res_file
;
TITL UMD644_a.res in P2(1)2(1)2(1)
REM Old TITL UMD644 in P2(1)2(1)2(1)
REM SHELXT solution in P2(1)2(1)2(1)
REM R1 0.111, Rweak 0.025, Alpha 0.002, Orientation as input
REM Flack x = 0.048 ( 0.082 ) from Parsons' quotients
REM Formula found by SHELXT: C8 N2 O2
CELL 1.54178 4.988 5.5522 24.2578 90 90 90
ZERR 4 0.0003 0.0003 0.0012 0 0 0
LATT -1
SYMM 0.5-X,-Y,0.5+Z
SYMM -X,0.5+Y,0.5-Z
SYMM 0.5+X,0.5-Y,-Z
SFAC C H N O F
UNIT 32 16 4 8 4
EQIV $1 -0.5+X,1.5-Y,1-Z
EQIV $2 -X,-0.5+Y,1.5-Z
EQIV $3 -1+X,1+Y,+Z
DFIX 0.87 0.01 N1 H1
L.S. 10
PLAN  5
SIZE 0.1 0.15 0.25
TEMP 24.8
HTAB N1 O1_$1
HTAB C5 F1_$2
HTAB C7 O2_$3
CONF
HTAB 2
BOND $H
LIST 6
MORE -1
fmap 2
acta 136.5
REM <olex2.extras>
REM <HklSrc "%.\\UMD644_a.hkl">
REM </olex2.extras>
WGHT    0.068800    0.191900
FVAR       2.05307
F1    5    0.076546    0.567621    0.709231    11.00000    0.06133    0.09275 =
         0.06222   -0.01807    0.01688    0.00841
O1    4    1.050298    0.474794    0.501421    11.00000    0.04069    0.03953 =
         0.04262    0.00857    0.00530   -0.00480
O2    4    1.052337    0.060147    0.576981    11.00000    0.04504    0.03416 =
         0.05215    0.00426   -0.00213    0.00891
N1    3    0.685541    0.582900    0.554797    11.00000    0.03926    0.02499 =
         0.03939    0.01071   -0.00162    0.00201
H1    2    0.644256    0.712119    0.536824    11.00000   -1.20000
C1    1    0.891901    0.441182    0.538837    11.00000    0.03299    0.02721 =
         0.03484    0.00397   -0.00391   -0.00459
C2    1    0.897086    0.224626    0.579865    11.00000    0.03292    0.02511 =
         0.03491    0.00258   -0.00477   -0.00167
C3    1    0.683522    0.278191    0.619163    11.00000    0.03452    0.02900 =
         0.03460    0.00267   -0.00363   -0.00243
C4    1    0.600767    0.160799    0.666545    11.00000    0.04819    0.03475 =
         0.03650    0.00901   -0.00216   -0.00379
AFIX  43
H4    2    0.683814    0.019043    0.677747    11.00000   -1.20000
AFIX   0
C5    1    0.391384    0.258347    0.697119    11.00000    0.05080    0.05406 =
         0.03538    0.00260    0.00318   -0.01039
AFIX  43
H5    2    0.329743    0.182705    0.728891    11.00000   -1.20000
AFIX   0
C6    1    0.277431    0.471133    0.678914    11.00000    0.03732    0.05463 =
         0.03771   -0.01277    0.00306   -0.00226
C7    1    0.353817    0.595066    0.632046    11.00000    0.03881    0.03488 =
         0.04584   -0.00589   -0.00596    0.00323
AFIX  43
H7    2    0.270526    0.737069    0.621087    11.00000   -1.20000
AFIX   0
C8    1    0.562429    0.493580    0.602571    11.00000    0.03208    0.02652 =
         0.03366    0.00061   -0.00546   -0.00225
HKLF 4
REM  UMD644_a.res in P2(1)2(1)2(1)
REM R1 =  0.0386 for    1184 Fo > 4sig(Fo)  and  0.0390 for all    1205 data
REM    112 parameters refined using      1 restraints
END
WGHT      0.0688      0.1919
REM Instructions for potential hydrogen bonds
HTAB N1 O1_$1
HTAB C5 F1_$2
HTAB C7 O2_$3
REM Highest difference peak  0.486,  deepest hole -0.229,  1-sigma level  0.061
Q1    1   0.7382 -0.0458  0.6796  11.00000  0.05    0.49
Q2    1   0.3677 -0.0672  0.6847  11.00000  0.05    0.20
Q3    1   0.5720  0.3611  0.6043  11.00000  0.05    0.18
Q4    1  -0.0551  0.3623  0.6827  11.00000  0.05    0.17
Q5    1   0.1723 -0.0060  0.6783  11.00000  0.05    0.17
;
_shelx_res_checksum              41859
_shelxl_version_number           2014/6
loop_
_space_group_symop_operation_xyz
'x, y, z'
'-x+1/2, -y, z+1/2'
'-x, y+1/2, -z+1/2'
'x+1/2, -y+1/2, -z'
loop_
_atom_site_type_symbol
_atom_site_label
_atom_site_fract_x
_atom_site_fract_y
_atom_site_fract_z
_atom_site_U_iso_or_equiv
_atom_site_adp_type
_atom_site_calc_flag
_atom_site_occupancy
F F1 0.0765(5) 0.5676(5) 0.70923(9) 0.0721(7) Uani d 1
O O1 1.0503(4) 0.4748(4) 0.50142(8) 0.0409(5) Uani d 1
O O2 1.0523(4) 0.0601(4) 0.57698(9) 0.0438(6) Uani d 1
N N1 0.6855(5) 0.5829(4) 0.55480(9) 0.0345(6) Uani d 1
H H1 0.644(7) 0.712(4) 0.5368(11) 0.041 Uiso d 1
C C1 0.8919(5) 0.4412(5) 0.53884(10) 0.0317(6) Uani d 1
C C2 0.8971(6) 0.2246(4) 0.57986(10) 0.0310(6) Uani d 1
C C3 0.6835(5) 0.2782(5) 0.61916(10) 0.0327(6) Uani d 1
C C4 0.6008(7) 0.1608(5) 0.66655(11) 0.0398(7) Uani d 1
H H4 0.6838 0.0190 0.6777 0.048 Uiso calc 1
C C5 0.3914(7) 0.2583(6) 0.69712(12) 0.0467(7) Uani d 1
H H5 0.3297 0.1827 0.7289 0.056 Uiso calc 1
C C6 0.2774(6) 0.4711(7) 0.67891(11) 0.0432(7) Uani d 1
C C7 0.3538(6) 0.5951(6) 0.63205(12) 0.0398(7) Uani d 1
H H7 0.2705 0.7371 0.6211 0.048 Uiso calc 1
C C8 0.5624(5) 0.4936(5) 0.60257(10) 0.0308(6) Uani d 1
loop_
_atom_site_aniso_label
_atom_site_aniso_U_11
_atom_site_aniso_U_22
_atom_site_aniso_U_33
_atom_site_aniso_U_12
_atom_site_aniso_U_13
_atom_site_aniso_U_23
F1 0.0613(12) 0.0928(17) 0.0622(12) 0.0084(15) 0.0169(10) -0.0181(12)
O1 0.0407(11) 0.0395(10) 0.0426(10) -0.0048(9) 0.0053(8) 0.0086(9)
O2 0.0450(11) 0.0342(10) 0.0522(11) 0.0089(10) -0.0021(9) 0.0043(9)
N1 0.0393(12) 0.0250(11) 0.0394(12) 0.0020(10) -0.0016(10) 0.0107(9)
C1 0.0330(12) 0.0272(12) 0.0348(12) -0.0046(11) -0.0039(10) 0.0040(10)
C2 0.0329(12) 0.0251(12) 0.0349(12) -0.0017(12) -0.0048(11) 0.0026(10)
C3 0.0345(13) 0.0290(13) 0.0346(13) -0.0024(12) -0.0036(11) 0.0027(10)
C4 0.0482(16) 0.0348(14) 0.0365(13) -0.0038(14) -0.0022(14) 0.0090(11)
C5 0.0508(17) 0.0541(16) 0.0354(13) -0.0104(18) 0.0032(13) 0.0026(13)
C6 0.0373(14) 0.0546(19) 0.0377(14) -0.0023(14) 0.0031(11) -0.0128(13)
C7 0.0388(16) 0.0349(14) 0.0458(14) 0.0032(13) -0.0060(13) -0.0059(11)
C8 0.0321(13) 0.0265(12) 0.0337(12) -0.0022(11) -0.0055(10) 0.0006(10)
loop_
_atom_type_symbol
_atom_type_description
_atom_type_scat_dispersion_real
_atom_type_scat_dispersion_imag
_atom_type_scat_source
C C 0.0181 0.0091 'International Tables Vol C Tables 4.2.6.8 and 6.1.1.4'
H H 0.0000 0.0000 'International Tables Vol C Tables 4.2.6.8 and 6.1.1.4'
N N 0.0311 0.0180 'International Tables Vol C Tables 4.2.6.8 and 6.1.1.4'
O O 0.0492 0.0322 'International Tables Vol C Tables 4.2.6.8 and 6.1.1.4'
F F 0.0727 0.0534 'International Tables Vol C Tables 4.2.6.8 and 6.1.1.4'
loop_
_geom_angle_atom_site_label_1
_geom_angle_atom_site_label_2
_geom_angle_atom_site_label_3
_geom_angle
C1 N1 H1 121(2)
C1 N1 C8 111.4(2)
C8 N1 H1 127(2)
O1 C1 N1 128.2(2)
O1 C1 C2 125.6(2)
N1 C1 C2 106.2(2)
O2 C2 C1 124.1(2)
O2 C2 C3 131.6(2)
C3 C2 C1 104.3(2)
C4 C3 C2 131.6(3)
C4 C3 C8 120.8(3)
C8 C3 C2 107.5(2)
C3 C4 H4 120.5
C3 C4 C5 118.9(3)
C5 C4 H4 120.5
C4 C5 H5 121.0
C6 C5 C4 118.1(3)
C6 C5 H5 121.0
F1 C6 C5 118.0(3)
F1 C6 C7 117.0(3)
C7 C6 C5 125.1(3)
C6 C7 H7 122.3
C6 C7 C8 115.5(3)
C8 C7 H7 122.3
C3 C8 N1 110.6(2)
C7 C8 N1 127.8(3)
C7 C8 C3 121.6(2)
loop_
_geom_bond_atom_site_label_1
_geom_bond_atom_site_label_2
_geom_bond_distance
F1 C6 1.353(4)
O1 C1 1.218(3)
O2 C2 1.199(3)
N1 H1 0.864(13)
N1 C1 1.352(4)
N1 C8 1.402(3)
C1 C2 1.561(3)
C2 C3 1.460(4)
C3 C4 1.384(4)
C3 C8 1.399(4)
C4 H4 0.9300
C4 C5 1.391(5)
C5 H5 0.9300
C5 C6 1.383(5)
C6 C7 1.382(4)
C7 H7 0.9300
C7 C8 1.383(4)
loop_
_geom_hbond_atom_site_label_D
_geom_hbond_atom_site_label_H
_geom_hbond_atom_site_label_A
_geom_hbond_site_symmetry_A
_geom_hbond_distance_DH
_geom_hbond_distance_HA
_geom_hbond_distance_DA
_geom_hbond_angle_DHA
N1 H1 O1 4_466 0.864(13) 2.025(14) 2.889(3) 177(3)
C5 H5 F1 3_546 0.93 2.60 3.425(4) 147.8
C7 H7 O2 1_465 0.93 2.36 3.273(4) 169.1
loop_
_geom_torsion_atom_site_label_1
_geom_torsion_atom_site_label_2
_geom_torsion_atom_site_label_3
_geom_torsion_atom_site_label_4
_geom_torsion
F1 C6 C7 C8 179.0(2)
O1 C1 C2 O2 -3.9(4)
O1 C1 C2 C3 175.1(3)
O2 C2 C3 C4 3.0(5)
O2 C2 C3 C8 -179.4(3)
N1 C1 C2 O2 178.2(3)
N1 C1 C2 C3 -2.8(3)
C1 N1 C8 C3 -1.9(3)
C1 N1 C8 C7 177.0(3)
C1 C2 C3 C4 -176.0(3)
C1 C2 C3 C8 1.7(3)
C2 C3 C4 C5 178.4(3)
C2 C3 C8 N1 -0.1(3)
C2 C3 C8 C7 -179.1(2)
C3 C4 C5 C6 -0.8(4)
C4 C3 C8 N1 177.9(2)
C4 C3 C8 C7 -1.1(4)
C4 C5 C6 F1 -179.0(3)
C4 C5 C6 C7 0.6(5)
C5 C6 C7 C8 -0.6(5)
C6 C7 C8 N1 -177.9(3)
C6 C7 C8 C3 0.8(4)
C8 N1 C1 O1 -175.0(3)
C8 N1 C1 C2 2.8(3)
C8 C3 C4 C5 1.1(4)
