#------------------------------------------------------------------------------
#$Date: 2016-03-04 10:39:01 +0200 (Fri, 04 Mar 2016) $
#$Revision: 177353 $
#$URL: svn://www.crystallography.net/cod/cif/1/54/27/1542703.cif $
#------------------------------------------------------------------------------
#
# This file is available in the Crystallography Open Database (COD),
# http://www.crystallography.net/
#
# All data on this site have been placed in the public domain by the
# contributors.
#
data_1542703
loop_
_publ_author_name
'Friese, Florian W.'
'Dreier, Anna-Lena'
'Matsnev, Andrej V.'
'Daniliuc, Constantin G.'
'Thrasher, Joseph S.'
'Haufe, G\"unter'
_publ_section_title
;
 Anti-Selective Aldol Reactions of Pentafluorosulfanylacetic Acid Esters
 with Aldehydes Mediated by Dicyclohexylchloroborane.
;
_journal_issue                   5
_journal_name_full               'Organic letters'
_journal_page_first              1012
_journal_paper_doi               10.1021/acs.orglett.6b00136
_journal_volume                  18
_journal_year                    2016
_chemical_formula_sum            'C16 H15 F5 O3 S'
_chemical_formula_weight         382.34
_space_group_crystal_system      triclinic
_space_group_IT_number           2
_space_group_name_Hall           '-P 1'
_space_group_name_H-M_alt        'P -1'
_symmetry_space_group_name_Hall  '-P 1'
_symmetry_space_group_name_H-M   'P -1'
_atom_sites_solution_hydrogens   mixed
_cell_angle_alpha                85.184(5)
_cell_angle_beta                 83.294(5)
_cell_angle_gamma                87.881(5)
_cell_formula_units_Z            2
_cell_length_a                   5.5840(4)
_cell_length_b                   11.7071(9)
_cell_length_c                   12.0947(9)
_cell_measurement_reflns_used    5304
_cell_measurement_temperature    100.(2)
_cell_measurement_theta_max      66.6522
_cell_measurement_theta_min      3.6917
_cell_volume                     782.18(10)
_computing_cell_refinement       'SAINT V8.34A (Bruker AXS Inc., 2013)'
_computing_data_collection
;
APEX2 v.2014.1-1 (Bruker AXS Inc., 2014)

;
_computing_data_reduction        'SAINT V8.34A (Bruker AXS Inc., 2013)'
_computing_molecular_graphics    'XP (Sheldrick, 2014)'
_computing_publication_material  'SHELXL-2014 (Sheldrick, 2014)'
_computing_structure_refinement  'SHELXL-2014 (Sheldrick, 2014)'
_computing_structure_solution    'SHELXL-2014 (Sheldrick, 2014)'
_diffrn_ambient_temperature      100.(2)
_diffrn_detector_area_resol_mean 10.4167
_diffrn_measured_fraction_theta_full 0.984
_diffrn_measured_fraction_theta_max 0.984
_diffrn_measurement_device_type  'Bruker D8 Venture PHOTON 100 CMOS'
_diffrn_measurement_method       'omega and phi scans'
_diffrn_radiation_monochromator  'MX mirror'
_diffrn_radiation_type           'Cu K\a'
_diffrn_radiation_wavelength     1.54178
_diffrn_reflns_av_R_equivalents  0.1382
_diffrn_reflns_av_unetI/netI     0.0848
_diffrn_reflns_limit_h_max       6
_diffrn_reflns_limit_h_min       -6
_diffrn_reflns_limit_k_max       13
_diffrn_reflns_limit_k_min       -13
_diffrn_reflns_limit_l_max       13
_diffrn_reflns_limit_l_min       -13
_diffrn_reflns_number            15047
_diffrn_reflns_theta_full        65.07
_diffrn_reflns_theta_max         65.07
_diffrn_reflns_theta_min         3.69
_diffrn_source                   'Cu ImS'
_diffrn_source_type              'micro focus tube'
_exptl_absorpt_coefficient_mu    2.511
_exptl_absorpt_correction_T_max  0.90
_exptl_absorpt_correction_T_min  0.67
_exptl_absorpt_correction_type   multi-scan
_exptl_absorpt_process_details
;
Bruker AXS (2014). SADABS, Version 2014/2, Bruker AXS Inc., Madison, Wisconsin,
USA.
;
_exptl_crystal_colour            colourless
_exptl_crystal_density_diffrn    1.623
_exptl_crystal_density_method    'not measured'
_exptl_crystal_description       needle
_exptl_crystal_F_000             392
_exptl_crystal_size_max          0.466
_exptl_crystal_size_mid          0.053
_exptl_crystal_size_min          0.043
_refine_diff_density_max         0.402
_refine_diff_density_min         -0.447
_refine_ls_extinction_method     none
_refine_ls_goodness_of_fit_ref   1.092
_refine_ls_hydrogen_treatment    mixed
_refine_ls_matrix_type           full
_refine_ls_number_parameters     230
_refine_ls_number_reflns         2631
_refine_ls_number_restraints     0
_refine_ls_restrained_S_all      1.092
_refine_ls_R_factor_all          0.1165
_refine_ls_R_factor_gt           0.0769
_refine_ls_shift/su_max          0.000
_refine_ls_shift/su_mean         0.000
_refine_ls_structure_factor_coef Fsqd
_refine_ls_weighting_details
'w=1/[\s^2^(Fo^2^)+(0.0613P)^2^+2.1893P] where P=(Fo^2^+2Fc^2^)/3'
_refine_ls_weighting_scheme      calc
_refine_ls_wR_factor_gt          0.1609
_refine_ls_wR_factor_ref         0.1793
_reflns_number_gt                1833
_reflns_number_total             2631
_reflns_threshold_expression     'I > 2\s(I)'
_cod_data_source_file            ol6b00136_si_002.cif
_cod_data_source_block           haf8005
_cod_database_code               1542703
_shelx_res_file
;
haf8005.res created by SHELXL-2014/7


TITL haf8005.res in P-1
CELL  1.54178   5.5840  11.7071  12.0947   85.184   83.294   87.881
ZERR    2.000   0.0004   0.0009   0.0009    0.005    0.005    0.005
LATT 1
SFAC C  H  O  F  S
UNIT 32  30  6  10  2
SIZE 0.043 0.053 0.466
TEMP -173.150
ACTA
CONF

L.S. 20
BOND $H
FMAP 2
PLAN 10

EQIV $1 x+1, y, z
HTAB O3 O2_$1
EQIV $2 x-1, y, z
HTAB C2 O3_$2

WGHT    0.061300    2.189300
FVAR       0.82811
S1    5    0.846399    0.382488    0.192267    11.00000    0.02207    0.02448 =
         0.02568   -0.00311   -0.00130   -0.00248
F1    4    0.703421    0.430789    0.091709    11.00000    0.04045    0.02791 =
         0.03463   -0.00612   -0.01520   -0.00069
F2    4    0.602153    0.335100    0.256448    11.00000    0.03240    0.02900 =
         0.04770   -0.00650    0.01033   -0.01173
F3    4    0.987160    0.323369    0.288945    11.00000    0.05152    0.02932 =
         0.03791   -0.00450   -0.01853    0.00929
F4    4    1.090835    0.419501    0.123542    11.00000    0.02603    0.03537 =
         0.04246   -0.01046    0.01129   -0.00420
F5    4    0.877703    0.264815    0.134917    11.00000    0.03909    0.02308 =
         0.03162   -0.01063   -0.00113    0.00130
O1    3    0.997885    0.662331    0.126145    11.00000    0.01735    0.03307 =
         0.02465   -0.00350    0.00108   -0.00839
O2    3    0.590808    0.658021    0.150424    11.00000    0.01931    0.02210 =
         0.02576   -0.00027   -0.00445   -0.00213
O3    3    1.217252    0.534647    0.303349    11.00000    0.01659    0.03847 =
         0.03515   -0.00288   -0.00053   -0.00314
H1    2    1.257353    0.571010    0.245728    11.00000    0.09134
C1    1    0.813279    0.621703    0.167692    11.00000    0.01660    0.02622 =
         0.01283    0.00027   -0.00477   -0.00286
C2    1    0.801011    0.520350    0.257880    11.00000    0.01861    0.02815 =
         0.01914   -0.00326   -0.00265   -0.00208
AFIX  13
H2    2    0.633204    0.521010    0.297170    11.00000   -1.20000
AFIX   0
C3    1    0.970874    0.539974    0.345568    11.00000    0.01580    0.02925 =
         0.02672   -0.00138   -0.00248   -0.00304
AFIX  13
H3    2    0.943999    0.477197    0.406680    11.00000   -1.20000
AFIX   0
C4    1    0.570104    0.754873    0.064890    11.00000    0.02988    0.02140 =
         0.02559    0.00345   -0.00664    0.00048
AFIX  23
H4A   2    0.453058    0.736519    0.013920    11.00000   -1.20000
H4B   2    0.728512    0.766857    0.020099    11.00000   -1.20000
AFIX   0
C11   1    0.894727    0.654029    0.396720    11.00000    0.02006    0.02628 =
         0.02361   -0.00083   -0.00647   -0.00458
C12   1    1.051973    0.744995    0.380373    11.00000    0.02440    0.03322 =
         0.03044   -0.00038   -0.00535   -0.00869
AFIX  43
H12   2    1.205972    0.736927    0.338770    11.00000   -1.20000
AFIX   0
C13   1    0.980087    0.848681    0.426114    11.00000    0.03826    0.03843 =
         0.03901   -0.00619   -0.00845   -0.01677
AFIX  43
H13   2    1.085482    0.911517    0.415114    11.00000   -1.20000
AFIX   0
C14   1    0.758882    0.859698    0.486488    11.00000    0.04436    0.03344 =
         0.02919   -0.00923   -0.00697   -0.00445
AFIX  43
H14   2    0.711670    0.930117    0.517492    11.00000   -1.20000
AFIX   0
C15   1    0.603939    0.769367    0.502680    11.00000    0.03078    0.04072 =
         0.02163   -0.00294   -0.00262   -0.00211
AFIX  43
H15   2    0.450842    0.777187    0.545138    11.00000   -1.20000
AFIX   0
C16   1    0.672779    0.667018    0.456649    11.00000    0.03035    0.03354 =
         0.02273   -0.00174    0.00326   -0.01252
AFIX  43
H16   2    0.564900    0.605157    0.466749    11.00000   -1.20000
AFIX   0
C21   1    0.488203    0.862473    0.119151    11.00000    0.01485    0.02577 =
         0.02519   -0.00414    0.00424   -0.00627
C22   1    0.276755    0.919164    0.093485    11.00000    0.02212    0.02762 =
         0.03082   -0.00347   -0.00877   -0.00527
AFIX  43
H22   2    0.179671    0.887512    0.044889    11.00000   -1.20000
AFIX   0
C23   1    0.206590    1.022066    0.138635    11.00000    0.02556    0.02946 =
         0.03644   -0.00013   -0.00102   -0.00300
AFIX  43
H23   2    0.062196    1.060666    0.120149    11.00000   -1.20000
AFIX   0
C24   1    0.344294    1.068809    0.210018    11.00000    0.02621    0.02520 =
         0.03814   -0.00712    0.00371   -0.00294
AFIX  43
H24   2    0.296378    1.139712    0.239890    11.00000   -1.20000
AFIX   0
C25   1    0.554088    1.011189    0.237910    11.00000    0.02852    0.03139 =
         0.03302   -0.00991   -0.00463   -0.00681
AFIX  43
H25   2    0.648723    1.042296    0.287855    11.00000   -1.20000
AFIX   0
C26   1    0.625212    0.908687    0.193076    11.00000    0.01900    0.02929 =
         0.03179   -0.00647   -0.00528    0.00069
AFIX  43
H26   2    0.768140    0.869537    0.212727    11.00000   -1.20000
AFIX   0
HKLF 4

REM  haf8005.res in P-1
REM R1 =  0.0769 for    1833 Fo > 4sig(Fo)  and  0.1165 for all    2631 data
REM    230 parameters refined using      0 restraints

END

WGHT      0.0612      2.1935

REM Highest difference peak  0.402,  deepest hole -0.447,  1-sigma level  0.093
Q1    1   0.9106  0.4218  0.0769  11.00000  0.05    0.40
Q2    1   1.1688  0.3416  0.2983  11.00000  0.05    0.40
Q3    1   0.7774  0.3281  0.2989  11.00000  0.05    0.38
Q4    1   0.5804  0.5614  0.4951  11.00000  0.05    0.33
Q5    1   0.2897  0.7186  0.1219  11.00000  0.05    0.32
Q6    1   0.4367  0.4729  0.0977  11.00000  0.05    0.31
Q7    1   0.3586  0.8757  0.1476  11.00000  0.05    0.30
Q8    1   0.4303  0.7835  0.5204  11.00000  0.05    0.30
Q9    1   0.5509  0.2603  0.1368  11.00000  0.05    0.30
Q10   1   0.6312  0.3372  0.1397  11.00000  0.05    0.29
;
_shelx_res_checksum              21112
_shelx_hkl_file
;
  -1   0   0  725.23   63.49
  -1   0   0  680.83   64.89
  -1   0   0  809.12   62.59
  -1   0   0  759.52   62.69
  -1   0   0  773.72   62.99
   1   0   0  721.83   61.59
   1   0   0  738.23   62.59
   1   0   0  738.93   62.59
   1   0   0  820.82   63.19
  -2   0   0   48.30   12.40
  -2   0   0   57.59   19.40
  -2   0   0   49.50   16.10
  -2   0   0   61.19   15.60
  -2   0   0   58.89   13.00
   2   0   0   80.89   14.40
   2   0   0   81.89   13.90
   2   0   0   67.99    9.30
   2   0   0   53.29   16.20
   2   0   0   45.50   14.50
   2   0   0   49.30   16.70
  -3   0   0  -13.90   45.50
  -3   0   0   24.30   62.19
  -3   0   0   51.79   15.60
  -3   0   0   33.00   13.60
  -3   0   0   18.60   42.90
   3   0   0   47.80   29.60
   3   0   0   43.20   20.50
  -4   0   0   20.70   31.50
  -4   0   0   19.30   22.50
  -4   0   0   33.40   10.20
  -4   0   0   89.69   34.50
  -4   0   0    9.80   37.20
   4   0   0   36.70   24.40
   4   0   0   60.59   22.10
   4   0   0    0.60   41.40
   4   0   0  100.79   35.10
   4   0   0   69.89   36.20
  -5   0   0  161.88   65.19
  -5   0   0  205.88   62.69
  -5   0   0  184.48   22.40
   5   0   0  208.28   41.30
   5   0   0  199.18   23.50
   5   0   0  224.08   36.20
   5   0   0  198.58   24.60
  -6   0   0   44.50   27.80
   6   0   0   25.60    7.10
   6   0   0   19.00   11.30
   6   0   0   11.80    9.30
   6  -1   0    6.40    7.80
  -6   1   0   22.20   25.30
  -6   1   0   66.69   33.90
   5  -1   0   -0.20   14.90
   5  -1   0   33.90   33.00
   5  -1   0   24.90   10.30
  -5   1   0    7.40   12.90
  -5   1   0   23.10   61.49
  -5   1   0   92.39   79.99
   4  -1   0  100.49   36.00
   4  -1   0   57.79   33.70
   4  -1   0   28.70   33.80
  -4   1   0   58.29   36.20
  -4   1   0   31.40   11.70
  -4   1   0   52.39   30.90
   3  -1   0   78.99   18.10
   3  -1   0   44.30   20.90
   3  -1   0  108.49   31.10
   3  -1   0   98.69   22.70
   3  -1   0   66.79   13.10
   3  -1   0   66.09   27.20
  -3   1   0   73.49   18.10
  -3   1   0   84.09   18.50
  -3   1   0   57.39   13.80
  -3   1   0  214.58   83.79
  -3   1   0   79.59   11.90
  -3   1   0   64.49   44.10
  -3   1   0   50.39   38.70
   2  -1   0  623.24   50.29
   2  -1   0  594.84   56.09
   2  -1   0  691.33   53.69
   2  -1   0  616.74   52.09
   2  -1   0  621.94   55.29
   2  -1   0  612.24   56.59
  -2   1   0  598.24   50.69
  -2   1   0  616.04   53.19
  -2   1   0  516.75   56.49
  -2   1   0  569.54   55.69
  -2   1   0  612.44   52.89
   1  -1   0 2125.99  163.18
   1  -1   0 1865.51  163.48
   1  -1   0 2032.00  162.88
   1  -1   0 2115.49  163.78
   1  -1   0 2237.58  162.28
   1  -1   0 1964.40  163.28
  -1   1   0 1809.62  163.28
  -1   1   0 1747.23  162.58
  -1   1   0 2055.89  162.88
  -1   1   0 2055.89  162.98
  -1   1   0 2041.10  165.28
  -1   1   0 1996.30  163.38
   0  -1   0 2955.10  254.47
   0  -1   0 3356.76  254.37
   0  -1   0 3426.26  254.87
   0   1   0 3107.09  254.37
   0   1   0 3088.39  254.47
   0   1   0 2975.00  254.87
  -1  -1   0 2800.52  212.18
  -1  -1   0 2984.20  212.38
  -1  -1   0 2404.86  211.68
  -1  -1   0 2715.83  212.18
  -1  -1   0 2571.64  212.08
   1   1   0 2574.94  211.88
   1   1   0 2401.36  211.78
   1   1   0 2468.55  211.88
   1   1   0 2527.05  210.88
   1   1   0 2667.83  212.28
  -2  -1   0  682.83   54.09
  -2  -1   0  685.53   66.09
  -2  -1   0  671.03   58.79
  -2  -1   0  602.64   59.49
  -2  -1   0  665.93   57.29
  -2  -1   0  698.53   59.39
   2   1   0  660.73   58.59
   2   1   0  660.53   58.99
   2   1   0  572.34   58.49
  -3  -1   0   -0.30   15.80
  -3  -1   0   38.20   35.10
  -3  -1   0    4.70   18.00
  -3  -1   0  -18.00   57.29
  -3  -1   0   24.70   36.40
   3   1   0  -13.70   29.70
   3   1   0    2.70   10.50
   3   1   0   -7.90   21.00
  -4  -1   0   61.19   34.80
  -4  -1   0   35.00   14.50
  -4  -1   0   54.89   10.70
   4   1   0   53.59   34.10
   4   1   0   79.79   30.70
   4   1   0   35.40   26.70
   4   1   0   52.49   19.90
   4   1   0   51.69   27.20
  -5  -1   0   92.79   14.50
  -5  -1   0  176.38   66.79
  -5  -1   0   57.99   66.59
  -5  -1   0  361.36  129.39
   5   1   0  105.89   15.70
   5   1   0  131.79   29.30
   5   1   0  111.69   19.10
  -6  -1   0   87.19   23.90
   6   1   0   80.59   14.80
   6   1   0   96.49   11.10
   6   1   0  107.19   26.40
  -6   2   0  104.09   29.70
   5  -2   0  101.59   17.90
   5  -2   0  121.39   21.40
  -5   2   0  167.18   68.49
  -5   2   0   98.39   19.10
  -5   2   0  145.29   39.60
   4  -2   0   -9.50   16.90
   4  -2   0    6.20   21.30
  -4   2   0   20.30   15.30
  -4   2   0   -6.80   11.20
  -4   2   0  -15.00   33.20
   3  -2   0  177.98   34.20
   3  -2   0  217.58   40.30
   3  -2   0  263.97   32.90
   3  -2   0  226.58   24.50
   3  -2   0  278.87   46.50
  -3   2   0  239.28   26.70
  -3   2   0  241.48   31.20
  -3   2   0  192.08   43.80
   2  -2   0 1760.72  136.89
   2  -2   0 1658.63  139.29
   2  -2   0 1818.32  138.69
   2  -2   0 1687.13  137.49
   2  -2   0 1534.25  142.59
  -2   2   0 1797.12  135.39
  -2   2   0 1368.26  139.19
  -2   2   0 1805.32  136.59
  -2   2   0 1472.05  135.89
  -2   2   0 1684.23  138.89
   1  -2   0  542.85   44.50
   1  -2   0  447.66   44.60
   1  -2   0  545.95   44.40
   1  -2   0  492.85   44.30
  -1   2   0  516.85   44.50
  -1   2   0  521.65   41.20
  -1   2   0  486.15   43.00
  -1   2   0  516.45   42.00
  -1   2   0  437.26   44.40
   0  -2   0   -2.50    6.20
   0  -2   0   -3.30    6.70
   0  -2   0    0.40    8.30
   0  -2   0    1.40    7.60
   0   2   0   -4.30    7.20
   0   2   0    1.90    6.20
   0   2   0   -0.80    5.80
  -1  -2   0  691.63   60.39
  -1  -2   0  809.12   59.69
  -1  -2   0  725.83   58.39
  -1  -2   0  597.04   57.29
  -1  -2   0  760.22   60.49
  -1  -2   0  774.02   58.29
   1   2   0  634.64   59.59
   1   2   0  737.73   59.49
   1   2   0  652.23   58.89
   1   2   0  669.13   59.59
  -2  -2   0  904.31   79.29
  -2  -2   0  936.61   78.69
  -2  -2   0 1025.90   75.19
  -2  -2   0  921.61   80.19
  -2  -2   0  801.52   80.39
  -2  -2   0 1007.60   78.49
   2   2   0  871.31   79.39
   2   2   0  843.72   79.29
  -3  -2   0   -9.10   31.70
  -3  -2   0    6.90    6.40
  -3  -2   0  -52.39   52.49
  -3  -2   0   -7.40   16.00
  -3  -2   0   39.40   41.50
   3   2   0   36.40   45.60
   3   2   0   13.60   10.50
   3   2   0   -0.70   14.00
   3   2   0  -20.40   19.60
   3   2   0   10.90   21.20
   3   2   0   27.40   32.10
  -4  -2   0  255.07   47.20
  -4  -2   0  318.57   43.60
  -4  -2   0  260.57   24.30
   4   2   0  223.48   50.39
   4   2   0  198.88   38.90
  -5  -2   0   -0.50   84.49
  -5  -2   0  104.79   70.29
  -5  -2   0   80.89   15.60
  -5  -2   0   42.80   92.69
   5   2   0  113.09   23.30
   5   2   0   77.29   13.80
   5   2   0   68.49   16.60
   5   2   0   94.89   23.10
  -6  -2   0  -17.40   17.80
   6   2   0   12.00   10.30
   6   2   0   11.80    6.80
   6   2   0   -6.50   25.90
   6   2   0  -10.40   11.00
   6  -3   0  113.79   16.70
   6  -3   0  154.18   15.00
   5  -3   0   92.09   20.20
   5  -3   0   76.69   15.90
   5  -3   0  101.69   44.00
  -5   3   0  136.09   77.99
  -5   3   0   27.90   27.70
  -5   3   0   49.70   24.60
   4  -3   0   34.60   22.20
   4  -3   0   65.49   42.90
   4  -3   0   23.30   12.40
   4  -3   0   48.60   24.90
  -4   3   0   38.10   26.40
  -4   3   0    5.00   35.30
  -4   3   0   -7.10   14.90
  -4   3   0   19.60   13.20
   3  -3   0  454.15   79.09
   3  -3   0  428.16   45.20
   3  -3   0  532.65   52.19
  -3   3   0  482.95   77.79
  -3   3   0  577.84   49.30
  -3   3   0  454.05   45.30
  -3   3   0  575.84   49.30
   2  -3   0 1125.89  104.79
   2  -3   0 1186.88  113.09
   2  -3   0 1351.06  107.29
   2  -3   0 1472.15  110.49
  -2   3   0 1303.17  106.19
  -2   3   0 1126.49  111.69
  -2   3   0 1409.26  111.99
   1  -3   0   15.40   14.80
   1  -3   0   13.30    7.20
   1  -3   0   31.70   11.90
   1  -3   0   15.60   12.20
   1  -3   0   26.30   10.90
  -1   3   0   22.90   13.00
  -1   3   0   27.10   11.60
  -1   3   0   35.00    9.10
  -1   3   0   10.40   11.80
   0  -3   0 2653.23  218.68
   0  -3   0 2456.25  218.78
   0  -3   0 2398.96  218.48
   0  -3   0 2875.11  218.98
   0  -3   0 2747.33  217.08
   0   3   0 2895.21  218.98
   0   3   0 2902.51  218.78
   0   3   0 2571.74  217.98
  -1  -3   0   53.79   12.50
  -1  -3   0   39.00   10.40
  -1  -3   0   50.89   15.50
  -1  -3   0   27.30   11.20
  -1  -3   0   46.90   10.50
   1   3   0   52.69   12.80
   1   3   0   24.80    9.80
   1   3   0   21.40   13.70
   1   3   0   40.00   13.00
  -2  -3   0    1.50   19.60
  -2  -3   0    3.00   12.90
  -2  -3   0  -34.20   23.30
  -2  -3   0   10.10   11.70
   2   3   0  -18.90   17.90
   2   3   0  -18.20   17.00
  -3  -3   0  125.29   29.00
  -3  -3   0  192.48   17.10
  -3  -3   0  117.29   59.19
  -3  -3   0  199.48   48.60
   3   3   0  186.78   26.40
   3   3   0  255.77   48.90
   3   3   0  164.88   19.60
   3   3   0  174.18   37.90
   3   3   0  163.48   27.20
   3   3   0  142.09   25.10
   3   3   0  163.58   29.60
  -4  -3   0  743.23   93.39
  -4  -3   0  838.62   67.69
  -4  -3   0  747.43   69.09
   4   3   0  851.81   71.39
   4   3   0  811.62   72.39
   4   3   0  854.21   69.69
   4   3   0  744.63   77.89
   4   3   0  865.91   67.69
   4   3   0  706.33   86.79
  -5  -3   0   71.79   67.69
  -5  -3   0  -23.30  115.29
  -5  -3   0  139.29   94.59
  -5  -3   0    4.10   11.80
   5   3   0   23.50   19.70
   5   3   0   23.40    9.30
   5   3   0   19.30   13.00
   5   3   0   10.00   14.40
   5   3   0    2.30   16.40
  -6  -3   0   61.39   16.20
  -6  -3   0   21.20   18.00
   6   3   0   39.50    8.70
   6   3   0   49.70   14.80
   6   3   0   23.10   12.70
   6  -4   0   81.99   11.60
   6  -4   0   83.59   11.10
  -6   4   0  111.69   26.70
   5  -4   0   33.10   24.00
   5  -4   0   20.40   12.20
   5  -4   0   24.80   16.70
  -5   4   0   23.40   19.30
  -5   4   0   62.99   20.50
  -5   4   0   24.10   16.90
   4  -4   0   70.69   28.70
   4  -4   0  -18.20   15.90
   4  -4   0   17.00   25.80
   4  -4   0   12.10   18.60
  -4   4   0   30.30   16.40
  -4   4   0   12.70   41.90
  -4   4   0   44.70   27.40
  -4   4   0   17.10   30.60
   3  -4   0  194.78   44.20
   3  -4   0  160.58   58.69
   3  -4   0  277.57   45.10
   3  -4   0  182.18   40.40
   3  -4   0  190.88   27.90
  -3   4   0  232.58   23.60
  -3   4   0  146.19   32.70
  -3   4   0  131.49   55.39
  -3   4   0  179.08   26.90
  -3   4   0  175.68   27.90
   2  -4   0  265.17   53.39
   2  -4   0  233.98   37.60
   2  -4   0  255.07   31.60
  -2   4   0  180.88   25.20
  -2   4   0  205.98   23.20
  -2   4   0  257.17   59.59
  -2   4   0  212.18   40.30
  -2   4   0  328.07   53.09
   1  -4   0    0.50   18.00
   1  -4   0   39.10   15.80
   1  -4   0   11.80   11.30
   1  -4   0   33.20    8.90
  -1   4   0    0.90   17.10
  -1   4   0    5.40   14.10
  -1   4   0   31.80   16.70
  -1   4   0   22.40    9.50
   0  -4   0  931.31   83.69
   0  -4   0  916.11   82.69
   0  -4   0 1017.60   84.49
   0  -4   0 1092.29   79.79
   0  -4   0  877.31   82.89
   0   4   0  957.40   81.49
   0   4   0 1026.30   83.59
   0   4   0  872.51   79.99
   0   4   0 1096.99   83.69
  -1  -4   0  395.36   32.40
  -1  -4   0  372.86   36.40
  -1  -4   0  397.46   42.80
  -1  -4   0  400.26   37.90
  -1  -4   0  379.86   51.19
   1   4   0  428.96   38.20
   1   4   0  362.86   43.80
   1   4   0  348.47   39.20
  -2  -4   0  223.28   41.70
  -2  -4   0  163.88   38.70
  -2  -4   0  166.58   19.20
   2   4   0  196.08   30.90
   2   4   0  151.58   30.80
  -3  -4   0  123.19   27.50
  -3  -4   0  161.48   15.30
  -3  -4   0  112.89   75.89
  -3  -4   0  116.09   19.50
   3   4   0  132.59   26.70
   3   4   0  100.19   23.00
   3   4   0  135.09   20.50
   3   4   0  135.69   29.80
   3   4   0  153.48   35.70
   3   4   0  159.48   29.90
   3   4   0  143.99   18.20
   3   4   0  133.89   24.40
  -4  -4   0   61.19   30.80
  -4  -4   0   22.80   52.29
  -4  -4   0   91.59   17.40
   4   4   0   64.29   17.40
   4   4   0   91.39   53.19
   4   4   0   75.89   15.20
   4   4   0   78.19   18.90
   4   4   0   62.39   20.50
   4   4   0   53.09   15.20
  -5  -4   0  127.59   16.70
  -5  -4   0   99.19   17.00
  -5  -4   0  -77.39  120.79
   5   4   0   96.59   22.70
   5   4   0   99.29   21.00
   5   4   0  101.29   17.30
   5   4   0  131.69   16.10
   5   4   0  113.09   19.60
   6   4   0  112.59   15.90
   6   4   0   81.69   10.20
   6   4   0   65.49   18.00
   6  -5   0   10.90    7.60
   6  -5   0   23.40    8.10
  -6   5   0    9.20   23.30
   5  -5   0  125.89   30.70
  -5   5   0   76.99   47.10
  -5   5   0  140.09   27.80
   4  -5   0  211.08   27.50
   4  -5   0  299.07   37.10
  -4   5   0  233.28   31.20
  -4   5   0  206.58   27.90
  -4   5   0  263.77   43.80
   3  -5   0   73.79   27.60
   3  -5   0   93.19   34.90
   3  -5   0   55.19   39.60
   3  -5   0   44.80   19.10
  -3   5   0   88.29   30.10
  -3   5   0   48.00   27.10
  -3   5   0   68.19   16.60
  -3   5   0  117.59   26.10
   2  -5   0  151.08   31.90
   2  -5   0  140.29   44.10
   2  -5   0  161.48   29.20
   2  -5   0  140.09   39.50
  -2   5   0  178.48   24.90
  -2   5   0  145.69   18.60
  -2   5   0   97.09   36.70
   1  -5   0  127.39   27.00
   1  -5   0  171.08   22.70
   1  -5   0  134.69   25.70
  -1   5   0  104.19   21.70
  -1   5   0   93.29   24.40
  -1   5   0  145.29   25.20
   0  -5   0  116.59   20.80
   0  -5   0   50.49   22.50
   0  -5   0  116.09   24.50
   0  -5   0   88.99   13.80
   0  -5   0   85.49   19.90
   0   5   0   94.29   22.10
   0   5   0  102.69   22.00
   0   5   0   98.89   24.30
   0   5   0   99.89   16.50
  -1  -5   0  237.58   25.10
  -1  -5   0  248.98   35.80
  -1  -5   0  292.87   32.10
  -1  -5   0  308.87   30.50
  -1  -5   0  225.08   39.50
   1   5   0  248.38   34.60
   1   5   0  253.77   50.79
  -2  -5   0   -4.50   10.30
  -2  -5   0  -44.30   50.19
  -2  -5   0  -20.40   20.30
  -2  -5   0    8.40    6.90
  -2  -5   0  -58.79   53.89
  -2  -5   0  -41.80   35.20
   2   5   0  -15.60   35.60
   2   5   0  -28.00   24.00
   2   5   0    3.70    8.80
  -3  -5   0  881.11   97.89
  -3  -5   0 1057.09   88.19
  -3  -5   0  971.60  103.49
  -3  -5   0  995.60   86.99
   3   5   0 1126.89   91.79
   3   5   0 1132.79   87.79
   3   5   0 1140.19   90.29
   3   5   0 1052.49   94.79
   3   5   0  998.30  113.79
   3   5   0 1130.89   89.79
   3   5   0 1069.09   89.89
  -4  -5   0  -10.60   14.10
  -4  -5   0   -0.80   11.00
  -4  -5   0    7.10   37.90
   4   5   0    3.20   12.80
   4   5   0   -3.20   37.20
   4   5   0  -11.40   35.20
   4   5   0  -23.80   18.90
   4   5   0    8.00   16.10
   4   5   0 -128.39   91.49
   4   5   0   -3.70   13.60
   4   5   0    4.70   11.00
  -5  -5   0    5.70   11.40
  -5  -5   0 -140.19   82.49
  -5  -5   0   -2.70   10.00
   5   5   0  -13.80   14.90
   5   5   0    0.80   11.80
   5   5   0   -1.00    9.80
   5   5   0   11.10   10.60
  -6  -5   0   50.59   24.40
   6   5   0   12.70   10.90
   6   5   0    9.70    5.60
   5  -6   0  271.67   25.50
   5  -6   0  307.97   37.40
   5  -6   0  245.48   25.60
  -5   6   0  199.68   35.60
   4  -6   0  176.38   35.30
   4  -6   0  177.98   27.00
   4  -6   0  135.69   22.40
  -4   6   0   97.29   26.60
  -4   6   0  213.38   43.50
  -4   6   0  137.89   50.79
  -4   6   0  142.29   29.30
   3  -6   0   -0.40   47.60
   3  -6   0   17.40   18.60
   3  -6   0   26.30   21.50
   3  -6   0   17.40   26.80
   3  -6   0  -47.40   40.40
  -3   6   0   21.60   28.60
  -3   6   0   13.50   15.60
   2  -6   0    8.70   26.50
   2  -6   0   41.20   20.30
   2  -6   0  122.09   57.79
   2  -6   0   70.19   17.70
   2  -6   0   74.79   25.00
   2  -6   0   99.49   29.70
  -2   6   0   59.99   20.20
  -2   6   0   74.69   16.90
  -2   6   0   65.09   16.80
  -2   6   0  120.29   51.79
  -2   6   0   62.79   25.00
  -2   6   0   56.49   27.60
   1  -6   0   42.80   18.20
   1  -6   0   18.80   10.10
   1  -6   0   67.99   22.50
   1  -6   0   38.00   13.00
   1  -6   0   -3.40   35.80
  -1   6   0   20.50   32.90
  -1   6   0  -15.30   56.19
  -1   6   0   47.10   24.80
  -1   6   0   28.80   15.10
   0  -6   0  -20.00   20.90
   0  -6   0   16.30    8.40
   0  -6   0  -13.80   37.90
   0   6   0   12.80   13.40
   0   6   0   37.10   29.80
  -1  -6   0   97.29   39.60
  -1  -6   0   56.29   11.30
  -1  -6   0   57.29   10.40
  -1  -6   0   71.69   57.19
  -1  -6   0   50.59   20.40
   1   6   0    5.20   27.50
   1   6   0   39.90   36.40
  -2  -6   0  626.04   50.49
  -2  -6   0  495.85   61.09
  -2  -6   0  543.75   66.09
  -2  -6   0  631.94   48.80
   2   6   0  591.84   53.39
   2   6   0  590.24   50.19
   2   6   0  486.25   67.49
   2   6   0  544.35   56.99
   2   6   0  641.54   53.69
  -3  -6   0   59.79   33.70
  -3  -6   0   54.19   33.50
  -3  -6   0   50.19   10.10
  -4  -6   0  110.49   77.49
  -4  -6   0  137.39   23.70
  -4  -6   0  106.79   51.29
  -4  -6   0   84.19   14.50
   4   6   0   88.59   50.49
   4   6   0  164.38   91.19
   4   6   0  161.98   26.00
   4   6   0  114.69   21.10
   4   6   0  140.69   26.00
   4   6   0  121.69   15.00
  -5  -6   0  107.89   18.70
  -5  -6   0   99.79   18.40
  -5  -6   0  309.37   91.39
   5   6   0  153.18   21.60
   5  -7   0  205.28   27.50
   5  -7   0  184.08   19.80
   5  -7   0  178.28   21.10
   4  -7   0  109.29   18.70
   4  -7   0   83.09   21.20
  -4   7   0  103.79   25.10
  -4   7   0  156.58   61.89
  -4   7   0   41.30   31.70
   3  -7   0  156.08   56.19
   3  -7   0   48.40   20.10
   3  -7   0  -49.20   53.99
   3  -7   0   22.70   21.00
   3  -7   0    8.60   40.70
  -3   7   0   36.60   22.50
  -3   7   0   31.80   22.60
  -3   7   0   50.59   38.70
   2  -7   0  578.34   55.69
   2  -7   0  474.25   48.40
   2  -7   0  550.94   60.59
   2  -7   0  591.34   59.99
   2  -7   0  417.76   61.39
  -2   7   0  469.25   45.60
  -2   7   0  496.85   52.09
  -2   7   0  468.15   50.89
  -2   7   0  479.65   49.70
  -2   7   0  401.96   45.60
   1  -7   0  231.08   31.60
   1  -7   0  261.97   35.30
   1  -7   0  182.88   39.30
   1  -7   0  217.28   41.80
   1  -7   0  329.27   62.69
   1  -7   0  297.77   39.90
   1  -7   0  253.37   27.30
  -1   7   0  295.27   33.90
  -1   7   0  266.27   29.00
  -1   7   0  252.17   35.60
  -1   7   0  217.58   56.59
  -1   7   0  234.38   30.40
   0  -7   0   42.20   23.20
   0  -7   0   60.89   13.40
   0  -7   0   61.39   27.20
   0  -7   0  102.59   72.99
   0  -7   0   64.19   12.40
   0   7   0  109.49   28.30
   0   7   0   39.50   16.90
   0   7   0  107.49   26.40
   0   7   0   57.29   47.20
   0   7   0   94.19   25.60
  -1  -7   0    1.80   31.90
  -1  -7   0  -33.30   68.59
  -1  -7   0   14.60   10.70
  -1  -7   0    0.90    7.60
  -1  -7   0    9.20   14.50
  -1  -7   0   15.00   23.40
   1   7   0   12.00    9.10
   1   7   0   24.60   19.40
   1   7   0   -1.70   17.10
   1   7   0  -35.20   75.59
   1   7   0    7.50   29.50
   1   7   0   75.39   64.59
  -2  -7   0  393.66   32.50
  -2  -7   0  320.07   63.49
  -2  -7   0  383.46   34.00
  -2  -7   0  336.07   54.39
   2   7   0  369.66   36.30
   2   7   0  357.66   50.69
   2   7   0  333.47   69.59
   2   7   0  417.16   42.50
   2   7   0  343.07   39.20
  -3  -7   0   82.49   48.20
  -3  -7   0   33.70   12.80
  -3  -7   0   45.00   12.00
  -3  -7   0  -10.10   39.00
   3   7   0   54.59   36.60
   3   7   0   21.10    8.80
   3   7   0   71.59   20.30
   3   7   0   24.20   25.40
   3   7   0   52.39   18.80
  -4  -7   0   58.79  106.59
  -4  -7   0   46.30   58.89
  -4  -7   0   63.29   14.00
   4   7   0   79.19   11.80
   4   7   0   83.39   17.70
  -5  -7   0   26.80   15.40
  -5  -7   0 -105.69  108.39
  -5  -7   0   -6.90   14.10
   5   7   0   13.10    6.30
   5   7   0   11.20    9.60
   5  -8   0   73.49   11.80
   5  -8   0   83.19   14.20
   5  -8   0   57.49   17.70
  -5   8   0  121.59   38.30
   3  -8   0 1292.27  117.99
   3  -8   0 1512.15  142.19
   3  -8   0 1283.57  111.79
  -3   8   0 1298.27  111.09
  -3   8   0 1400.76  112.79
  -3   8   0 1224.58  112.49
   2  -8   0  -13.50   33.70
   2  -8   0   32.00   17.00
   2  -8   0    0.90   41.20
   2  -8   0   -3.50   39.80
  -2   8   0  -19.80   19.10
  -2   8   0   38.50   32.00
  -2   8   0    8.70   22.90
  -2   8   0   31.70   20.90
   1  -8   0  -13.30   20.40
   1  -8   0  -21.70   32.00
   1  -8   0   12.80   22.10
   1  -8   0   54.39   20.80
   1  -8   0   11.80   34.80
   1  -8   0   28.70   15.60
  -1   8   0   45.40   25.60
  -1   8   0  -52.49   49.99
  -1   8   0  -11.20   26.40
  -1   8   0   80.39   32.60
   0  -8   0  123.79   26.10
   0  -8   0  116.89   22.20
   0  -8   0  105.19   38.80
   0  -8   0  156.08   36.10
   0  -8   0  116.29   20.20
   0  -8   0  123.19   36.20
   0  -8   0  111.49   16.20
   0   8   0  129.49   30.70
   0   8   0   85.79   24.60
   0   8   0  156.68   24.80
  -1  -8   0   83.89   12.80
  -1  -8   0  105.49   38.40
  -1  -8   0   -1.00   54.99
  -1  -8   0   66.19   14.00
  -1  -8   0   86.69   39.40
  -1  -8   0   70.49   16.40
   1   8   0   86.49   22.00
   1   8   0   62.09   42.50
   1   8   0  125.09   34.10
   1   8   0   67.39   17.00
  -2  -8   0   84.59   50.89
  -2  -8   0   38.40   16.90
  -2  -8   0   21.20   39.30
  -2  -8   0   49.90   13.90
   2   8   0   27.20   31.70
   2   8   0   62.59   15.60
   2   8   0   51.89   12.20
  -3  -8   0  256.07   29.40
  -3  -8   0  216.28   24.70
  -3  -8   0  315.77   28.00
   3   8   0  239.18   25.80
   3   8   0  312.57   29.90
   3   8   0  272.77   59.89
   3   8   0  334.27   54.09
  -4  -8   0   41.30   13.40
  -4  -8   0  -16.20   66.89
  -4  -8   0   27.00   14.40
  -4  -8   0   31.20   14.10
   4   8   0   44.90   12.10
   4   8   0   41.40    9.00
  -5  -8   0   10.10    6.40
  -5  -8   0   22.40   22.00
  -5  -8   0   37.20   20.40
   5   8   0    9.80    6.90
   5   8   0   12.00   10.90
   4  -9   0   -1.20   17.90
   4  -9   0   36.30   11.50
   4  -9   0   24.90   13.40
  -4   9   0   32.70   25.90
  -4   9   0   41.50   19.60
   3  -9   0  152.68   86.89
   3  -9   0   68.79   19.80
   3  -9   0  110.89   24.80
   3  -9   0   70.09   25.60
  -3   9   0   36.40   20.70
  -3   9   0  114.49   54.19
  -3   9   0   80.99   21.80
  -3   9   0   74.39   21.10
   2  -9   0   50.19   20.90
   2  -9   0   37.70   62.79
   2  -9   0   27.10   25.50
   2  -9   0   10.10   58.19
  -2   9   0   46.20   18.70
  -2   9   0   50.59   22.50
  -2   9   0   18.80   45.00
   1  -9   0   37.30   21.00
   1  -9   0   73.99   27.10
   1  -9   0   42.30   23.30
   1  -9   0   35.80   23.50
   1  -9   0  115.59   45.70
   1  -9   0  180.18   51.49
   1  -9   0   89.99   23.80
  -1   9   0   80.19   25.30
  -1   9   0   43.50   17.80
  -1   9   0  114.09   26.60
  -1   9   0   69.29   34.00
   0  -9   0   86.09   57.39
   0  -9   0  189.08   26.70
   0  -9   0  161.68   50.09
   0  -9   0  224.98   66.99
   0  -9   0  158.58   28.00
   0   9   0  139.19   23.00
   0   9   0  193.58   35.50
   0   9   0  212.68   34.80
  -1  -9   0  393.96  106.69
  -1  -9   0  262.97   30.90
  -1  -9   0  267.87   27.40
  -1  -9   0  158.08   53.79
  -1  -9   0  288.67   64.39
   1   9   0  227.88   31.60
   1   9   0  284.87   41.60
   1   9   0  282.57   45.00
  -2  -9   0  422.26   35.50
  -2  -9   0  406.86   94.49
  -2  -9   0  405.46   39.60
   2   9   0  281.27   42.70
   2   9   0  379.26   35.00
   2   9   0  373.56   33.80
   2   9   0  291.97   40.00
  -3  -9   0  813.62  134.19
  -3  -9   0  681.53  102.49
  -3  -9   0  589.14   63.09
   3   9   0  781.12   60.09
   3   9   0  711.03   75.39
   3   9   0  764.22   66.09
  -4  -9   0   75.69   17.70
  -4  -9   0   53.19   10.90
   4   9   0   54.09   40.40
   4   9   0   31.60   10.20
  -5  -9   0    4.50    5.80
   5   9   0   26.90   10.80
   5   9   0   -1.20    6.40
   4 -10   0   34.10    7.30
   4 -10   0   24.70   12.90
  -4  10   0   28.40   13.50
  -4  10   0   31.10   14.00
  -4  10   0   35.50   26.70
   3 -10   0  -13.90   98.49
  -3  10   0  -27.10   17.90
   2 -10   0   80.49   83.09
   2 -10   0   -6.40   70.79
   2 -10   0   39.50   16.40
   2 -10   0   32.40   24.20
   2 -10   0   47.20   29.30
  -2  10   0   61.29   22.10
  -2  10   0   60.19   23.90
  -2  10   0   57.49   22.60
  -2  10   0  -54.69   68.09
   1 -10   0  105.39   27.90
   1 -10   0   56.59   54.39
   1 -10   0   82.19   29.20
   1 -10   0  127.09   31.40
   1 -10   0  102.99   69.69
   1 -10   0   83.09   24.10
  -1  10   0   85.69   21.20
  -1  10   0  122.99   49.80
  -1  10   0   52.39   24.00
  -1  10   0   97.69   27.10
   0 -10   0  273.37   45.10
   0 -10   0  419.16   83.69
   0 -10   0  361.96   37.80
   0 -10   0  322.47   34.50
   0 -10   0  288.47   36.00
   0  10   0  334.47   33.80
   0  10   0  247.88   39.60
  -1 -10   0  173.98  109.89
  -1 -10   0   65.99   96.29
  -1 -10   0  129.59   41.10
  -1 -10   0  139.69   27.60
  -1 -10   0  262.77  102.39
  -1 -10   0   98.99   19.60
   1  10   0   67.79   20.40
   1  10   0   46.20   28.00
   1  10   0  103.69   19.30
  -2 -10   0  665.53   53.19
  -2 -10   0  833.92  138.39
  -2 -10   0  408.86  100.69
   2  10   0  564.04   56.49
   2  10   0  606.84   54.39
  -3 -10   0   91.89   18.70
  -3 -10   0   26.70   73.39
  -3 -10   0  107.89   26.60
  -3 -10   0  137.59   21.20
   3  10   0   40.40   24.10
   3  10   0   89.79   14.80
  -4 -10   0   26.90   21.10
  -4 -10   0   25.80   18.60
  -4 -10   0   30.60    9.40
   4  10   0   25.90   20.00
   3 -11   0  129.69   18.70
   3 -11   0  136.29   15.00
  -3  11   0  119.59   18.00
  -3  11   0  158.28   18.40
   2 -11   0   39.50   17.20
   2 -11   0 -101.09   91.09
  -2  11   0   33.10   23.40
   1 -11   0  -16.00   20.80
   1 -11   0   46.80   22.30
  -1  11   0    4.10   14.00
  -1  11   0   17.70   19.70
   0 -11   0   35.10   34.80
   0 -11   0  -10.20   20.90
   0 -11   0    1.00   18.30
   0 -11   0   18.50   23.40
   0  11   0   29.10   21.70
   0  11   0    4.20   13.00
   0  11   0   33.10   19.40
  -1 -11   0   67.99   19.80
   1  11   0   50.79   15.70
   1  11   0    9.40   23.60
   1  11   0   87.29   18.50
  -2 -11   0   18.10   15.20
  -2 -11   0   63.49  102.49
  -2 -11   0    5.80   18.50
   2  11   0    3.20   18.50
   2  11   0   -3.70   14.80
  -3 -11   0   27.20   11.00
  -3 -11   0    6.60   21.00
  -3 -11   0    8.80   19.30
   3  11   0   10.70   14.30
   3  11   0    9.20   11.20
  -4 -11   0   34.60    9.90
   4  11   0   57.19    8.70
   3 -12   0  154.98   21.60
   3 -12   0  150.78   18.60
  -3  12   0  179.68   19.40
   2 -12   0  110.39   17.10
   2 -12   0  112.19   20.80
   2 -12   0  161.98   22.00
  -2  12   0   75.69   18.70
  -2  12   0  130.99   15.50
   1 -12   0   49.99   14.00
   1 -12   0    0.70   68.19
   1 -12   0   40.10   16.40
  -1  12   0   22.20   14.40
  -1  12   0   63.39   16.40
  -1  12   0   62.69   29.60
   0 -12   0  179.48  107.79
   0  12   0  161.28   30.00
  -1 -12   0  -14.80   19.00
  -1 -12   0   23.30   31.90
  -1 -12   0   -0.80   20.70
  -1 -12   0    7.60   36.80
   1  12   0   26.10   16.00
   1  12   0   -2.70   11.20
   1  12   0    8.10   25.40
  -2 -12   0   43.80   20.80
  -2 -12   0   23.10   11.80
  -2 -12   0    0.80   32.40
   2  12   0    4.50    6.60
   2  12   0   17.20   17.90
  -3 -12   0  139.29   19.00
   3  12   0  166.38   21.30
   3  12   0  146.29   15.20
   1 -13   0   36.90   16.40
   1 -13   0   -7.30   13.20
  -1  13   0   57.49   22.40
  -1  13   0   15.50    8.10
   0 -13   0   36.60   11.70
   0 -13   0  -17.40   23.70
   0  13   0   23.10   14.30
   0  13   0   19.50    6.80
   0  13   0   23.30   14.90
   0  13   0   31.10   13.30
  -1 -13   0  -12.50   11.50
   1  13   0  -11.20    8.20
   1  13   0   17.90    8.90
  -2 -13   0   19.40   18.60
   2  13   0   -1.50    7.50
   2  13   0   14.70   11.50
   2  13  -1   43.60    8.60
   2  13  -1   67.79   11.70
   2  13  -1   76.99   16.80
  -2 -13   1   64.39   17.90
   1  13  -1   22.50    8.20
   1  13  -1   28.20    9.60
   1  13  -1   16.00    9.10
  -1 -13   1   23.90   16.50
   0  13  -1   15.60   14.90
   0  13  -1   17.40   16.80
   0  13  -1   26.40   13.50
   0  13  -1    0.70    8.40
   0 -13   1   -1.40   16.60
  -1  13  -1   17.40   18.10
  -1  13  -1   12.40   14.50
  -1  13  -1   17.40    9.10
   1 -13   1    2.30   24.70
   1 -13   1   31.70   22.60
   3  12  -1   15.40    7.10
   3  12  -1    1.30    9.30
   3  12  -1   10.50   14.20
  -3 -12   1   -0.90   31.50
  -3 -12   1  -21.40   19.90
   2  12  -1  104.59   12.60
   2  12  -1  111.09   15.40
  -2 -12   1  158.08   27.30
  -2 -12   1  101.89   30.40
  -2 -12   1  115.69   29.70
   1  12  -1   19.70   16.30
   1  12  -1  -15.90   31.80
  -1 -12   1   62.69   25.00
  -1 -12   1   42.80   24.90
  -1 -12   1   29.50   21.40
   0  12  -1   16.60   27.10
   0  12  -1  -33.80   24.90
   0  12  -1   -2.30   12.70
   0 -12   1   64.79   23.80
   0 -12   1  -51.29   36.30
  -1  12  -1   27.70   26.10
  -1  12  -1   25.30    7.70
  -1  12  -1   26.50   15.10
   1 -12   1   38.00   87.29
   1 -12   1   35.60   17.80
  -2  12  -1  126.59   18.60
  -2  12  -1  132.49   14.70
   2 -12   1  151.68   18.20
   2 -12   1  127.49   20.60
   2 -12   1  164.18   20.60
   3  11  -1   -7.40   14.90
   3  11  -1   14.70    7.80
  -3 -11   1   -1.50   15.80
  -3 -11   1   20.90   10.50
  -3 -11   1   33.40   15.70
  -2 -11   1    8.40   15.10
  -2 -11   1   36.10   17.50
  -2 -11   1  -17.10  101.29
  -2 -11   1    6.20   18.40
   1  11  -1   12.90   16.10
   1  11  -1   24.90   12.80
   1  11  -1  -40.40   25.80
  -1 -11   1    5.00   14.20
  -1 -11   1   39.70   17.50
  -1 -11   1 -261.07  190.88
   0  11  -1   71.79   22.30
   0  11  -1   32.80   16.30
   0 -11   1   42.70   25.00
   0 -11   1   53.09   21.60
   0 -11   1   71.69   21.20
   0 -11   1   78.39  164.38
  -1  11  -1   70.79   25.80
  -1  11  -1   44.40   16.90
  -1  11  -1   55.19   13.90
   1 -11   1   52.49   23.20
   1 -11   1   37.80   94.19
  -2  11  -1    6.40   25.40
   2 -11   1  174.28   89.99
   2 -11   1   45.40   21.50
  -3  11  -1   24.70   11.40
  -3  11  -1    4.00   22.50
  -3  11  -1   15.00   11.60
   3 -11   1   -1.80   12.20
   3 -11   1   49.99   15.80
   3 -11   1   37.40   11.80
   4  10  -1  196.28   35.70
   4  10  -1  122.39   16.50
  -4 -10   1  137.59   27.50
  -4 -10   1  149.59   21.20
  -4 -10   1  148.39   16.50
  -3 -10   1   57.79   13.80
  -3 -10   1   96.39   93.19
  -3 -10   1   45.10   15.60
   2  10  -1  278.67   28.60
   2  10  -1  331.47   51.39
   2  10  -1  215.58   33.00
  -2 -10   1  385.56   84.79
  -2 -10   1  307.37   32.60
  -2 -10   1  212.48   26.60
  -2 -10   1  269.07   32.50
  -2 -10   1  441.46  126.99
   1  10  -1   37.70   13.00
   1  10  -1   27.20   27.50
   1  10  -1   20.70   18.50
  -1 -10   1   14.90   67.69
  -1 -10   1  196.18  100.29
  -1 -10   1   42.30   18.80
  -1 -10   1   20.40   12.10
  -1 -10   1   56.69   18.10
   0  10  -1  100.49   17.80
   0  10  -1  146.69   32.80
   0  10  -1   63.19   42.60
   0  10  -1  115.79   26.50
   0 -10   1   72.59   16.40
   0 -10   1   64.59   50.99
   0 -10   1   96.49   20.50
   0 -10   1  140.89   33.50
   0 -10   1  236.88   76.19
   0 -10   1  145.89  107.09
  -1  10  -1  106.29   27.80
  -1  10  -1  165.48   30.50
   1 -10   1  146.29   69.99
   1 -10   1  161.88   59.59
  -2  10  -1   44.10   22.50
  -2  10  -1   79.59   55.19
  -2  10  -1   41.00   16.10
  -2  10  -1   25.00   18.60
   2 -10   1   60.19  121.49
   2 -10   1   65.09   82.19
   2 -10   1   27.50   24.80
   2 -10   1   72.39   23.40
   3 -10   1   27.10   15.00
   3 -10   1   37.90   98.69
   3 -10   1   17.00   24.40
   3 -10   1   62.19   17.70
  -4  10  -1   -3.10   18.90
  -4  10  -1    1.80    8.90
   4 -10   1   16.10    6.80
   4 -10   1   -5.10   16.70
   4 -10   1    2.90   11.60
   4   9  -1   18.70   10.50
   4   9  -1   16.00    6.40
   4   9  -1   71.39   30.30
  -4  -9   1   13.60    7.40
  -4  -9   1   11.30   14.00
  -4  -9   1  -87.59  105.39
   3   9  -1   23.50   11.40
   3   9  -1  -22.10   25.90
   3   9  -1   29.60   28.00
  -3  -9   1  -44.40   61.59
  -3  -9   1  -12.20   13.10
  -3  -9   1   -1.50   14.90
  -3  -9   1   68.49  136.89
   2   9  -1  829.52   71.69
   2   9  -1  831.42   76.99
   2   9  -1  903.11   82.09
   2   9  -1  821.22   73.19
  -2  -9   1  764.52  146.99
  -2  -9   1  919.61   72.19
  -2  -9   1  721.23  100.89
   1   9  -1   85.09   37.60
   1   9  -1   44.70   13.20
   1   9  -1   30.50   24.80
   1   9  -1   29.50   19.70
   1   9  -1  -41.80   38.10
  -1  -9   1   63.79   61.79
  -1  -9   1   -8.70   14.70
  -1  -9   1   22.40   71.69
  -1  -9   1   11.00   70.79
  -1  -9   1   30.90   13.90
  -1  -9   1   24.20   12.20
   0   9  -1  249.78   34.60
   0   9  -1  285.17   31.90
   0   9  -1  227.38   35.90
   0  -9   1  204.28   54.19
   0  -9   1  251.47   62.09
   0  -9   1  316.47   56.39
   0  -9   1  207.78   31.10
   0  -9   1  249.58   27.70
  -1   9  -1   62.59   25.20
  -1   9  -1   98.49   37.40
  -1   9  -1   75.69   26.80
  -1   9  -1   88.29   18.40
   1  -9   1  166.08   31.60
   1  -9   1  113.79   29.40
   1  -9   1  170.78   41.50
   1  -9   1  105.19   20.70
   1  -9   1  178.68   51.79
  -2   9  -1  815.12   73.39
  -2   9  -1  880.81   73.79
  -2   9  -1  851.81   91.09
   2  -9   1  737.83   73.99
   2  -9   1 1026.40  107.79
   2  -9   1  853.21   80.49
   2  -9   1  871.11   76.69
  -3   9  -1   18.30   19.60
  -3   9  -1    8.10   19.30
  -3   9  -1  -30.00   19.10
   3  -9   1   26.70   18.10
   3  -9   1   -5.90   23.10
   3  -9   1    3.40   20.20
   3  -9   1  -56.79  102.49
  -4   9  -1   15.60   14.90
  -4   9  -1   -0.90   13.90
  -4   9  -1   11.50   20.70
   4  -9   1   24.60   12.30
   4  -9   1   -7.80   19.50
   4  -9   1  -17.70   10.70
   5   8  -1  144.79   17.20
   5   8  -1  181.08   15.70
  -5  -8   1  193.38   24.50
   4   8  -1   24.70   14.00
   4   8  -1    3.40   10.50
  -4  -8   1    0.20   12.90
  -4  -8   1   -4.10   12.50
  -4  -8   1   23.00   78.09
   3   8  -1  332.27   29.40
   3   8  -1  334.97   32.40
   3   8  -1  272.17   46.20
   3   8  -1  210.98   70.59
   3   8  -1  379.06   45.00
   3   8  -1  370.36   42.30
  -3  -8   1  324.27   74.39
  -3  -8   1  374.86  107.29
  -3  -8   1  296.17   29.20
   2   8  -1  339.37   61.69
   2   8  -1  379.76   49.10
   2   8  -1  412.46   39.10
   2   8  -1  377.86   35.40
  -2  -8   1  367.76   40.60
  -2  -8   1  415.06   86.19
  -2  -8   1  403.76   65.09
  -2  -8   1  417.76   36.00
   1   8  -1  -14.00   41.30
   1   8  -1   69.99   28.10
   1   8  -1   20.40   16.40
   1   8  -1   24.60   12.30
  -1  -8   1   72.19   39.30
  -1  -8   1   19.50   19.70
  -1  -8   1   28.50   11.70
  -1  -8   1  108.09   43.00
   0   8  -1  674.33   61.39
   0   8  -1  742.03   64.99
   0   8  -1  667.63   66.19
   0   8  -1  726.23   81.69
   0  -8   1  686.73   74.59
   0  -8   1  710.93   59.69
   0  -8   1  643.04   73.09
  -1   8  -1  422.56   49.60
   1  -8   1  431.36   61.49
   1  -8   1  430.26   64.99
   1  -8   1  404.06   37.40
   1  -8   1  346.17   45.40
   1  -8   1  453.45   47.50
  -2   8  -1  132.59   45.00
  -2   8  -1  131.89   23.60
  -2   8  -1  151.68   28.60
  -2   8  -1  205.98   41.20
   2  -8   1   87.99   22.20
   2  -8   1  106.19   21.00
   2  -8   1  173.58   36.00
   2  -8   1  175.98   46.30
   2  -8   1  127.59   46.30
  -3   8  -1  160.68   30.90
  -3   8  -1  120.69   26.90
  -3   8  -1  121.49   47.50
   3  -8   1  193.18   72.69
   3  -8   1  196.58   24.70
   3  -8   1  207.78   35.50
   3  -8   1  103.09   72.19
   3  -8   1  164.58   31.70
  -4   8  -1  192.18   41.10
   4  -8   1  286.67  168.08
  -5   8  -1  -29.20   18.60
  -5   8  -1   10.80    9.10
   5  -8   1   16.00   21.70
   5  -8   1    6.80   11.30
   5  -8   1   10.60    9.30
   5   7  -1   76.99    9.30
   5   7  -1   49.99    9.10
   5   7  -1   72.79   27.10
   4   7  -1   -4.90    8.00
   4   7  -1   12.10   14.40
   4   7  -1  -20.00   19.90
  -4  -7   1   17.90   16.40
  -4  -7   1  -62.79  107.69
  -4  -7   1   20.50   11.10
   3   7  -1  344.77   66.69
   3   7  -1  467.85   65.09
   3   7  -1  340.27   31.80
   3   7  -1  336.57   35.00
   3   7  -1  358.06   46.00
   3   7  -1  392.96   37.10
   3   7  -1  325.47   42.90
  -3  -7   1  290.47   56.39
  -3  -7   1  350.06   31.50
  -3  -7   1  384.06   35.00
  -3  -7   1  464.35   81.99
   2   7  -1  136.59   32.70
   2   7  -1  132.19   25.10
   2   7  -1  166.28   24.70
   2   7  -1  140.39   30.10
   2   7  -1  101.39   17.00
   2   7  -1  130.49   32.30
  -2  -7   1  130.59   23.80
  -2  -7   1   73.19   38.00
  -2  -7   1  103.89   14.00
  -2  -7   1   61.29   34.80
   1   7  -1  257.57   38.00
   1   7  -1  196.28   24.90
   1   7  -1  224.38   35.90
   1   7  -1  243.48   41.60
   1   7  -1  226.98   29.80
   1   7  -1  415.16   75.49
  -1  -7   1  264.87   62.69
  -1  -7   1  231.28   47.70
  -1  -7   1  276.47   22.50
  -1  -7   1  266.67   33.60
   0   7  -1  -14.20   50.39
   0   7  -1   25.70   18.50
   0   7  -1   64.39   34.70
   0   7  -1   10.20   20.60
   0   7  -1   -4.10   16.40
   0   7  -1   11.50   13.40
   0  -7   1   -0.20    8.20
   0  -7   1   14.20   24.70
   0  -7   1    7.90   10.40
   0  -7   1   13.00   43.90
   0  -7   1  -47.10   48.80
  -1   7  -1  566.84   91.09
  -1   7  -1  387.26   51.29
  -1   7  -1  410.86   43.60
  -1   7  -1  415.96   43.60
  -1   7  -1  393.66   47.00
   1  -7   1  483.05   51.19
   1  -7   1  463.95   51.19
   1  -7   1  465.35   56.69
   1  -7   1  424.16   38.70
   1  -7   1  426.16   90.79
   1  -7   1  455.25   40.80
  -2   7  -1   85.49   38.30
  -2   7  -1   34.00   22.70
  -2   7  -1   54.79   27.30
  -2   7  -1   34.90   21.30
   2  -7   1   31.40   35.00
   2  -7   1   61.09   22.60
   2  -7   1    4.30   32.10
   2  -7   1   65.99   29.10
   2  -7   1   27.00   18.40
   2  -7   1   67.29   31.70
  -3   7  -1   41.70   22.20
  -3   7  -1    7.60   21.70
  -3   7  -1   38.60   23.30
  -3   7  -1    5.50   22.60
  -3   7  -1    7.80   40.00
   3  -7   1  -20.50   27.40
   3  -7   1  -18.90   20.10
   3  -7   1   72.69   53.09
   3  -7   1   51.69   21.10
  -4   7  -1   -6.30   24.80
  -4   7  -1   -9.30   20.10
  -4   7  -1   18.00   71.89
  -4   7  -1    9.40   20.30
   4  -7   1   17.50   18.10
   4  -7   1    8.20   17.00
  -5   7  -1   31.00   21.90
  -5   7  -1   18.00   16.90
   5  -7   1   67.49   12.60
   5  -7   1   48.40   13.20
   5  -7   1   45.60   19.60
   5   6  -1    9.20    6.10
   5   6  -1    8.90   12.30
   5   6  -1   29.20   14.50
  -5  -6   1   11.20   13.20
  -5  -6   1   11.90   14.60
  -5  -6   1  -55.99   80.59
   4   6  -1   27.80   15.30
   4   6  -1    2.60   15.30
   4   6  -1  -90.19   61.69
   4   6  -1  -11.30   16.10
   4   6  -1    4.40    9.90
  -4  -6   1   29.60   20.20
  -4  -6   1   37.90  103.79
  -4  -6   1   24.50   44.50
  -4  -6   1  -12.60    9.20
   3   6  -1  514.65   48.80
   3   6  -1  581.54   45.40
   3   6  -1  540.65   48.90
  -3  -6   1  487.55   48.00
  -3  -6   1  396.46   65.99
  -3  -6   1  425.36   83.09
  -3  -6   1  569.44   46.20
   2   6  -1  281.07   36.50
   2   6  -1  269.97   66.89
   2   6  -1  298.97   59.39
   2   6  -1  278.07   56.79
   2   6  -1  215.08   24.60
   2   6  -1  251.57   30.60
   2   6  -1  221.48   35.60
   2   6  -1  264.17   27.10
  -2  -6   1  198.78   69.19
  -2  -6   1  235.78   26.00
  -2  -6   1  200.98   40.70
  -2  -6   1  247.08   21.90
   1   6  -1  348.27   29.70
   1   6  -1  188.48   53.99
  -1  -6   1  321.07   26.60
  -1  -6   1  357.76   58.19
  -1  -6   1  308.67   28.50
  -1  -6   1  261.47   36.40
  -1  -6   1  268.97   36.50
  -1  -6   1  229.28   54.39
   0   6  -1   35.60   29.80
   0   6  -1    2.00   11.40
   0   6  -1   63.09   27.40
   0  -6   1   10.00    7.20
   0  -6   1    7.00   10.90
   0  -6   1   22.00   30.20
   0  -6   1   30.60   18.70
   0  -6   1  -29.40   33.90
   0  -6   1    3.60   22.20
  -1   6  -1   59.49   31.80
  -1   6  -1   66.89   21.80
  -1   6  -1    1.70   33.30
  -1   6  -1   54.79   27.70
  -1   6  -1   43.70   13.80
   1  -6   1   61.49   19.20
   1  -6   1   63.79   36.30
   1  -6   1   33.30   11.50
   1  -6   1   61.59   35.80
   1  -6   1   51.69   14.60
  -2   6  -1   21.90   76.99
  -2   6  -1   70.69   22.20
  -2   6  -1   40.90   20.40
  -2   6  -1   76.09   24.10
  -2   6  -1   61.99   18.90
   2  -6   1   54.69   23.40
   2  -6   1   43.80   18.80
   2  -6   1   30.10   29.10
   2  -6   1   48.40   14.30
   2  -6   1   51.49   19.30
  -3   6  -1   31.10   18.80
  -3   6  -1    8.10   31.70
  -3   6  -1   23.80   22.00
   3  -6   1   43.60   34.50
   3  -6   1  -54.49   47.80
   3  -6   1   54.49   30.00
   3  -6   1   26.10   20.50
   3  -6   1   32.70   44.00
  -4   6  -1  -13.80   51.69
  -4   6  -1   -0.10   26.70
  -4   6  -1   48.60   19.90
  -4   6  -1   -6.40   19.90
   4  -6   1   96.39   89.69
   4  -6   1   42.30   15.20
   4  -6   1    1.60   26.70
   4  -6   1   26.90   18.60
  -5   6  -1  516.05   44.90
   5  -6   1  437.76   44.20
   5  -6   1  407.66   54.09
   5  -6   1  512.45   42.90
   6   5  -1   77.89   12.10
   6   5  -1   41.90   21.00
   6   5  -1   45.40   16.90
  -6  -5   1   67.09   21.00
   5   5  -1   26.10   20.20
  -5  -5   1   57.29   15.40
  -5  -5   1  148.49   89.39
  -5  -5   1   27.30   13.40
   4   5  -1   -2.40   12.50
   4   5  -1   18.80   21.90
   4   5  -1  -19.30   17.10
   4   5  -1   45.80   72.19
   4   5  -1  -29.90   46.90
   4   5  -1   37.70   29.90
   4   5  -1    9.70   11.70
   4   5  -1   49.00   17.30
  -4  -5   1   -1.50   10.50
  -4  -5   1   25.80   48.70
  -4  -5   1   47.20   19.90
   3   5  -1   12.30   40.50
   3   5  -1    2.40   16.90
   3   5  -1   29.30   15.30
   3   5  -1   44.30   22.80
   3   5  -1   -1.90   33.60
   3   5  -1    3.40   19.20
  -3  -5   1   -7.80   28.50
  -3  -5   1  -18.40   32.90
   2   5  -1  294.37   45.20
   2   5  -1  299.47   27.60
   2   5  -1  295.17   33.30
   2   5  -1  333.67   32.00
  -2  -5   1  309.77   41.50
  -2  -5   1  303.07   27.50
  -2  -5   1  368.86   76.69
  -2  -5   1  286.77   52.89
   1   5  -1  -20.00   20.80
   1   5  -1   -5.50   25.10
  -1  -5   1   14.70   18.10
  -1  -5   1    1.00   14.20
  -1  -5   1   55.59   32.10
  -1  -5   1    5.50    5.60
  -1  -5   1    7.30   16.10
  -1  -5   1   51.09   27.00
   0   5  -1  264.47   29.10
   0   5  -1  217.08   36.00
   0  -5   1  332.27   42.10
   0  -5   1  270.87   35.40
   0  -5   1  268.37   25.00
   0  -5   1  277.77   31.40
  -1   5  -1  443.66   57.59
  -1   5  -1  425.46   47.90
  -1   5  -1  339.27   35.30
  -1   5  -1  303.07   32.40
  -1   5  -1  276.37   48.70
   1  -5   1  331.67   40.50
   1  -5   1  331.67   30.00
   1  -5   1  223.58   52.09
  -2   5  -1  109.79   23.70
  -2   5  -1  127.49   32.10
  -2   5  -1   86.29   18.40
  -2   5  -1  125.69   38.40
   2  -5   1  102.89   18.80
   2  -5   1  154.38   29.20
   2  -5   1  165.18   42.90
   2  -5   1  107.49   24.00
   2  -5   1  198.78   42.10
  -3   5  -1   63.19   20.60
  -3   5  -1   62.39   29.00
  -3   5  -1   36.00   16.90
  -3   5  -1   20.30   28.80
  -3   5  -1   97.69   26.30
  -3   5  -1   41.40   23.10
   3  -5   1   74.09   19.80
   3  -5   1   76.79   42.30
   3  -5   1   39.40   43.30
   3  -5   1   75.29   37.20
  -4   5  -1  135.99   27.00
  -4   5  -1   97.69   23.70
  -4   5  -1   96.79   25.10
   4  -5   1   79.69   21.70
   4  -5   1  109.59  113.39
   4  -5   1   99.99   18.70
   4  -5   1   67.39   28.20
   5  -5   1  172.58   27.20
  -6   5  -1   28.90   16.90
   6  -5   1   15.90   10.30
   6   4  -1   -3.70    7.50
   6   4  -1   10.50   13.90
   6   4  -1   37.70   14.60
   5   4  -1    0.20   12.30
   5   4  -1   20.80   15.90
   5   4  -1   27.10   10.80
   5   4  -1   10.10   15.40
   5   4  -1   16.70   14.40
  -5  -4   1   16.70   12.30
   4   4  -1   18.20   13.40
   4   4  -1   49.10   23.80
   4   4  -1  -46.20   38.40
   4   4  -1  -11.50   72.99
   4   4  -1   37.70   19.90
   4   4  -1   17.20   14.40
   4   4  -1    7.70   11.00
   4   4  -1   10.30   14.30
  -4  -4   1   22.00   13.00
  -4  -4   1   27.50   11.50
  -4  -4   1   13.40   40.10
   3   4  -1    9.70   19.30
   3   4  -1  -27.70   16.90
   3   4  -1   16.90   15.40
   3   4  -1  -44.30   35.60
   3   4  -1   18.60   15.10
   3   4  -1    3.60   15.40
   3   4  -1  -22.10   23.90
   3   4  -1   13.60    9.30
  -3  -4   1  -11.70   24.50
  -3  -4   1   -2.60    8.00
  -3  -4   1    3.10   12.70
   2   4  -1  172.98   34.10
   2   4  -1  209.48   35.90
  -2  -4   1  235.08   31.30
  -2  -4   1  174.38   32.30
  -2  -4   1  238.18   19.80
  -2  -4   1  224.78   58.19
  -2  -4   1  191.88   23.50
   1   4  -1  468.15   50.59
   1   4  -1  461.25   51.69
   1   4  -1  572.84   49.10
  -1  -4   1  565.84   55.09
  -1  -4   1  535.65   46.50
  -1  -4   1  519.15   47.30
  -1  -4   1  553.84   48.10
  -1  -4   1  519.65   43.90
   0   4  -1   15.40   14.50
   0   4  -1   -5.40   14.20
   0   4  -1    8.00    7.80
   0   4  -1    1.30   13.80
   0  -4   1    3.80   10.70
   0  -4   1   -6.60   13.10
   0  -4   1   13.90   11.90
   0  -4   1   -8.30   15.70
   0  -4   1    5.10    5.90
  -1   4  -1  309.97   33.20
  -1   4  -1  272.87   25.90
  -1   4  -1  206.28   24.80
  -1   4  -1  274.87   34.70
  -1   4  -1  184.78   41.80
   1  -4   1  216.08   47.50
   1  -4   1  222.18   29.90
   1  -4   1  237.18   30.30
   1  -4   1  316.27   32.10
   1  -4   1  266.97   24.00
  -2   4  -1  359.76   60.19
  -2   4  -1  350.36   36.20
  -2   4  -1  391.06   77.99
   2  -4   1  373.46   37.30
   2  -4   1  449.66   61.39
   2  -4   1  481.85   55.39
  -3   4  -1    9.70   12.30
  -3   4  -1   16.10   34.80
  -3   4  -1   22.80   20.30
  -3   4  -1   47.40   37.90
  -3   4  -1   23.20   23.70
  -3   4  -1    9.60   24.50
  -3   4  -1  -70.29   55.69
   3  -4   1   39.10   28.20
   3  -4   1   17.50   22.90
   3  -4   1   36.80   50.29
   3  -4   1   13.70   17.20
   3  -4   1   46.20   68.59
   3  -4   1   19.60   23.30
   3  -4   1   19.90   14.00
  -4   4  -1  164.48   32.80
  -4   4  -1  195.28   51.59
  -4   4  -1  168.68   31.40
   4  -4   1  158.08   27.70
   4  -4   1  160.28   24.40
   4  -4   1  182.78   47.10
   4  -4   1  321.17  106.59
   4  -4   1  184.68   42.20
  -5   4  -1  161.08   31.70
  -5   4  -1  198.28   29.50
   5  -4   1  176.08   25.70
   5  -4   1  185.38   22.50
  -6   4  -1  -11.80   19.30
   6  -4   1    7.10    5.80
   6  -4   1    3.00   10.90
   6   3  -1   16.00   11.20
   6   3  -1   41.60   18.80
   6   3  -1   15.10    7.40
   6   3  -1   32.20    9.30
  -6  -3   1   27.70   17.40
  -6  -3   1   30.70   19.30
   5   3  -1  229.98   33.90
   5   3  -1  233.78   24.10
   5   3  -1  189.38   38.00
   5   3  -1  223.28   25.20
   5   3  -1  227.48   29.20
  -5  -3   1  163.98  135.59
  -5  -3   1  214.28   91.99
  -5  -3   1  248.48   25.90
  -5  -3   1  262.37   34.40
   4   3  -1   57.59   15.30
   4   3  -1  103.89   49.00
   4   3  -1   86.09   18.10
   4   3  -1   85.49   20.70
   4   3  -1   42.70   26.20
   4   3  -1   90.19   14.90
   4   3  -1   77.49   18.70
  -4  -3   1   99.39   38.90
  -4  -3   1   66.19   40.30
  -4  -3   1   78.29   16.30
   3   3  -1  841.42   70.29
   3   3  -1  778.42   80.69
   3   3  -1  779.32   71.19
   3   3  -1  866.31   72.19
   3   3  -1  849.72   68.29
   3   3  -1  806.02   71.09
   3   3  -1  828.72   66.99
   3   3  -1  713.13   74.39
  -3  -3   1  844.82   66.29
  -3  -3   1  735.63  102.69
  -3  -3   1  758.22   76.09
  -3  -3   1  705.33   72.59
   2   3  -1   -4.80   24.90
   2   3  -1   28.50   18.10
  -2  -3   1    4.60    6.00
  -2  -3   1  -31.80   24.30
  -2  -3   1  -37.90   21.00
  -2  -3   1    2.80   16.20
  -2  -3   1    1.80   11.80
  -2  -3   1   -2.00   11.70
   1   3  -1   -1.40   11.20
   1   3  -1   24.00   12.30
  -1  -3   1   12.90    4.80
  -1  -3   1   10.00    8.40
  -1  -3   1    7.10    8.50
  -1  -3   1   20.40   10.50
   0   3  -1  808.52   73.49
   0   3  -1  985.50   74.79
   0   3  -1  885.61   75.09
   0  -3   1 1004.60   75.69
   0  -3   1  770.32   74.19
   0  -3   1  901.01   72.19
   0  -3   1  865.81   74.39
  -1   3  -1 1112.59  102.19
  -1   3  -1 1180.58   95.29
  -1   3  -1 1324.47   97.69
   1  -3   1 1039.50   97.79
   1  -3   1 1026.70   96.69
   1  -3   1 1335.47   98.79
   1  -3   1 1142.79   94.59
   1  -3   1 1120.29   97.49
  -2   3  -1   29.20   13.60
  -2   3  -1    1.60   23.40
  -2   3  -1   25.40   10.40
  -2   3  -1   47.40   19.70
   2  -3   1   18.50   13.30
   2  -3   1   31.40    8.80
   2  -3   1   24.10   18.90
   2  -3   1   33.20   22.60
   2  -3   1   31.50   24.50
   2  -3   1   35.20   12.60
  -3   3  -1  482.15   88.39
  -3   3  -1  692.63   57.69
  -3   3  -1  627.84   56.29
  -3   3  -1  769.32   62.19
  -3   3  -1  674.73   57.39
  -3   3  -1  548.65   64.79
  -3   3  -1  524.95   63.99
   3  -3   1  712.03   69.99
   3  -3   1  521.75   83.39
   3  -3   1  663.33   68.19
   3  -3   1  631.84   55.99
   3  -3   1  652.53   60.59
   3  -3   1  705.93   60.99
   3  -3   1  531.85   70.19
  -4   3  -1  332.97   31.50
  -4   3  -1  287.27   44.30
  -4   3  -1  306.27   52.59
   4  -3   1  262.77   43.70
   4  -3   1  304.57   52.09
   4  -3   1  251.87   32.50
   4  -3   1  258.77   33.60
  -5   3  -1   -8.70   23.70
  -5   3  -1  -19.00   91.19
  -5   3  -1  -23.10   40.30
  -5   3  -1   16.20   18.90
   5  -3   1    0.30   16.10
   5  -3   1   -7.70   29.10
   5  -3   1   -1.90   14.20
  -6   3  -1   34.00   23.60
   6  -3   1    9.80    6.00
   6  -3   1    5.50    7.80
   6   2  -1   -5.00    6.00
   6   2  -1   20.60   10.90
   6   2  -1    0.80   11.20
   6   2  -1  -15.80   30.50
  -6  -2   1   13.80   19.90
   5   2  -1   93.09   20.80
   5   2  -1  105.59   17.50
   5   2  -1   99.89   24.10
   5   2  -1  104.69   15.60
  -5  -2   1  107.99   70.59
  -5  -2   1   87.99   68.29
  -5  -2   1   95.29   15.80
  -5  -2   1  -93.89  122.29
   4   2  -1    6.40    8.60
   4   2  -1    1.90   24.40
   4   2  -1   44.90   42.30
   4   2  -1   24.60   25.00
   4   2  -1    9.70   13.00
   4   2  -1  -26.20   27.00
  -4  -2   1   -7.60   19.30
  -4  -2   1   35.70   40.60
   3   2  -1  346.77   28.30
   3   2  -1  309.57   33.20
   3   2  -1  301.37   30.20
   3   2  -1  306.27   31.20
   3   2  -1  218.68   48.00
   3   2  -1  285.27   38.10
  -3  -2   1  262.17   59.99
  -3  -2   1  292.57   50.99
  -3  -2   1  248.98   38.80
  -3  -2   1  239.28   55.29
  -3  -2   1  320.57   26.50
  -3  -2   1  254.87   37.90
   2   2  -1  100.19   17.30
   2   2  -1   76.49   17.70
  -2  -2   1   65.29   10.70
  -2  -2   1   90.99   19.40
  -2  -2   1  112.09   19.00
  -2  -2   1   64.19   14.90
  -2  -2   1   89.29   21.30
   1   2  -1  137.59   18.10
   1   2  -1  135.19   17.40
   1   2  -1  128.69   18.60
  -1  -2   1  154.08   17.10
  -1  -2   1  157.28   20.40
  -1  -2   1  170.38   20.80
   0   2  -1  178.18   17.40
   0   2  -1  152.88   15.70
   0   2  -1  120.59   15.40
   0   2  -1  161.48   17.20
   0  -2   1  149.29   17.30
   0  -2   1  187.18   16.90
   0  -2   1  124.39   17.10
   0  -2   1  148.19   16.70
  -1   2  -1  546.85   43.70
  -1   2  -1  439.96   45.20
  -1   2  -1  482.05   40.70
  -1   2  -1  487.85   43.00
   1  -2   1  479.95   42.70
   1  -2   1  510.35   43.20
   1  -2   1  495.95   40.00
   1  -2   1  458.15   42.50
   1  -2   1  427.36   43.30
  -2   2  -1  428.66   40.50
  -2   2  -1  371.86   45.40
  -2   2  -1  470.05   46.60
  -2   2  -1  491.25   42.00
   2  -2   1  483.35   42.30
   2  -2   1  413.36   48.10
   2  -2   1  501.45   44.20
   2  -2   1  471.25   39.60
   2  -2   1  496.15   44.00
   2  -2   1  425.96   46.60
  -3   2  -1  127.69   17.70
  -3   2  -1  141.39   36.30
  -3   2  -1  154.78   40.80
  -3   2  -1  122.59   20.70
  -3   2  -1  179.18   26.30
  -3   2  -1  110.49   21.50
   3  -2   1  174.98   40.60
   3  -2   1  111.69   24.30
   3  -2   1  132.99   24.60
   3  -2   1  125.19   26.30
   3  -2   1  171.58   42.40
   3  -2   1  138.39   24.60
   3  -2   1  135.89   30.00
  -4   2  -1  174.08   22.10
  -4   2  -1  190.88   39.60
  -4   2  -1  249.97   34.60
  -4   2  -1  245.58   47.80
  -4   2  -1  278.27   56.89
   4  -2   1  201.68   42.20
   4  -2   1  166.08   23.80
   4  -2   1  217.28   28.10
  -5   2  -1   34.30   70.19
  -5   2  -1   25.30   20.80
  -5   2  -1   -3.30   31.80
  -5   2  -1   36.90   18.60
   5  -2   1   10.50   16.90
   5  -2   1   45.60   34.20
   5  -2   1   18.80   13.90
  -6   2  -1   70.59   25.40
   6  -2   1   30.60    8.50
   6  -2   1   47.60    9.40
   6   1  -1   -3.80   10.00
   6   1  -1   11.70   11.30
   6   1  -1    4.00    8.00
  -6  -1   1    0.50   16.90
   5   1  -1  233.68   24.50
   5   1  -1  288.57   28.20
   5   1  -1  326.17   50.29
   5   1  -1  260.07   31.40
  -5  -1   1  222.28   25.60
  -5  -1   1  245.08   73.29
  -5  -1   1  365.26   73.39
   4   1  -1   86.89   17.60
   4   1  -1   37.50   27.90
   4   1  -1   55.89   25.80
  -4  -1   1   89.29   13.10
  -4  -1   1   68.29   18.00
  -4  -1   1  122.79   38.70
   3   1  -1  147.09   18.00
   3   1  -1  124.09   18.00
   3   1  -1  115.49   36.50
   3   1  -1  121.09   20.20
   3   1  -1  118.49   25.20
   3   1  -1   96.69   33.10
   3   1  -1  145.59   29.50
  -3  -1   1   84.79   20.80
  -3  -1   1   97.79   24.30
  -3  -1   1  129.59   16.00
  -3  -1   1   93.89   38.30
  -3  -1   1  161.68   38.40
  -3  -1   1  120.39   20.30
   2   1  -1   12.30   13.90
   2   1  -1   18.60   13.30
   2   1  -1    1.70    7.00
   2   1  -1   -3.20   13.50
  -2  -1   1   11.90   11.10
  -2  -1   1   13.60   13.40
  -2  -1   1   32.10   14.10
  -2  -1   1   14.20   11.10
  -2  -1   1   12.30   15.90
   1   1  -1 2760.92  221.78
   1   1  -1 2682.93  220.68
   1   1  -1 2616.74  221.08
  -1  -1   1 2704.33  221.08
  -1  -1   1 3027.80  221.68
  -1  -1   1 2715.03  221.08
  -1  -1   1 2585.54  221.28
   0   1  -1    4.60    3.70
   0   1  -1    6.30    3.20
   0   1  -1    9.90    3.90
   0   1  -1    4.60    3.80
   0   1  -1    0.30    3.70
   0  -1   1    2.30    3.50
   0  -1   1   13.80    4.60
   0  -1   1    2.40    9.90
   0  -1   1    0.40    3.50
  -1   1  -1 2788.72  226.68
  -1   1  -1 2733.13  225.68
  -1   1  -1 2735.03  227.48
  -1   1  -1 3011.90  225.58
  -1   1  -1 3061.59  226.78
  -1   1  -1 3162.08  226.58
  -1   1  -1 2524.55  226.58
   1  -1   1 2698.73  227.28
   1  -1   1 2753.82  226.18
   1  -1   1 2543.05  226.68
   1  -1   1 2671.73  226.78
   1  -1   1 2808.52  226.68
  -2   1  -1  216.38   23.20
  -2   1  -1  247.58   31.10
  -2   1  -1  284.57   26.60
  -2   1  -1  175.08   31.50
  -2   1  -1  274.37   25.70
  -2   1  -1  218.88   21.70
  -2   1  -1  256.77   37.50
   2  -1   1  242.38   36.00
   2  -1   1  266.17   25.20
   2  -1   1  266.47   31.00
   2  -1   1  243.78   21.00
   2  -1   1  287.17   32.90
   2  -1   1  210.38   22.30
  -3   1  -1  -10.20   16.70
  -3   1  -1    0.40   46.10
  -3   1  -1    1.10    7.40
  -3   1  -1    2.30   13.40
  -3   1  -1    0.00   59.29
  -3   1  -1  -32.90   38.00
   3  -1   1   -1.90   20.10
   3  -1   1   47.00   38.50
   3  -1   1   24.90   24.70
   3  -1   1    1.40   19.30
   3  -1   1   13.10    9.80
  -4   1  -1   50.59   35.30
  -4   1  -1   90.79   25.10
  -4   1  -1   79.09   15.10
  -4   1  -1   62.09   28.50
  -4   1  -1  145.99   33.40
   4  -1   1  101.39   57.39
   4  -1   1   75.29   54.99
  -5   1  -1  133.79   18.80
  -5   1  -1   -1.60   91.29
  -5   1  -1   78.49   26.90
  -5   1  -1  105.49   30.80
  -5   1  -1   95.79   55.69
   5  -1   1  122.39   27.30
   5  -1   1  104.59   18.20
   5  -1   1  127.49   20.40
   6  -1   1   91.59   12.90
   6   0  -1   16.70    8.90
   6   0  -1   -4.20   11.90
   6   0  -1   20.10   11.60
  -6   0   1   74.79   24.30
   5   0  -1   68.89   15.90
   5   0  -1   25.30   12.10
   5   0  -1   49.20   28.20
  -5   0   1   42.10   12.60
  -5   0   1   56.89   63.79
   4   0  -1   86.89   38.10
   4   0  -1  123.19   24.50
   4   0  -1  191.08   27.20
   4   0  -1  168.88   33.60
  -4   0   1  140.79   42.00
  -4   0   1  136.79   21.70
   3   0  -1 1687.33  125.69
   3   0  -1 1553.64  125.89
   3   0  -1 1628.04  129.49
   3   0  -1 1682.63  129.99
  -3   0   1 1567.54  143.09
  -3   0   1 1443.86  127.39
  -3   0   1 1530.25  150.78
  -3   0   1 1537.65  124.39
  -3   0   1 1301.67  125.59
  -3   0   1 1293.67  139.79
   2   0  -1    4.60    5.90
   2   0  -1   12.30   14.20
   2   0  -1    9.00   13.20
   2   0  -1   14.80   13.90
  -2   0   1    0.80   14.60
  -2   0   1   -5.20   13.40
  -2   0   1   15.00   15.40
  -2   0   1    6.20   11.80
  -2   0   1   15.60    6.80
  -2   0   1   -9.60    7.70
   1   0  -1 2643.84  189.48
   1   0  -1 2053.29  188.38
   1   0  -1 2333.07  187.98
  -1   0   1 2209.68  188.58
  -1   0   1 2383.46  188.58
  -1   0   1 2417.96  188.58
  -1   0   1 2231.38  188.58
   0   0  -1  915.31   71.29
   0   0  -1  862.11   71.69
   0   0  -1  912.51   71.39
   0   0   1  790.22   71.29
   0   0   1  916.41   71.49
  -1   0  -1  542.95   50.99
  -1   0  -1  586.64   55.79
  -1   0  -1  587.34   51.89
  -1   0  -1  624.74   51.19
  -1   0  -1  675.83   51.19
   1   0   1  612.54   51.19
   1   0   1  672.03   52.29
   1   0   1  564.74   50.79
   1   0   1  561.54   51.19
  -2   0  -1   96.19   17.80
  -2   0  -1  102.19   18.60
  -2   0  -1   90.59   11.20
  -2   0  -1   80.99   17.60
  -2   0  -1   94.09   21.00
   2   0   1  110.79   22.80
   2   0   1  117.99   19.50
   2   0   1  106.79   15.00
   2   0   1  106.99   12.30
   2   0   1   90.49   18.10
  -3   0  -1  141.89   31.80
  -3   0  -1  180.88   51.59
  -3   0  -1  130.89   49.99
  -3   0  -1  243.88   41.20
  -3   0  -1  175.48   26.20
  -3   0  -1  178.88   18.60
   3   0   1  190.88   26.60
   3   0   1  227.18   31.10
  -4   0  -1  372.36   33.90
  -4   0  -1  373.86   38.90
  -4   0  -1  364.06   50.09
  -4   0  -1  334.27   42.50
  -4   0  -1  421.06   58.59
  -4   0  -1  415.16   43.00
   4   0   1  356.66   44.60
   4   0   1  313.87   42.90
   4   0   1  431.66   52.49
  -5   0  -1  186.18   22.20
  -5   0  -1  206.88   40.50
  -5   0  -1  278.67   76.49
  -5   0  -1  123.79   57.59
   5   0   1  160.58   21.60
   5   0   1  238.58   28.00
   5   0   1  261.87   41.00
   6   0   1  -16.10   10.60
   6   0   1    2.20    7.60
   6   0   1   38.00   20.50
   6  -1  -1   12.60   11.10
   6  -1  -1    7.30    9.00
   6  -1  -1   14.20    7.50
  -6   1   1   39.50   21.70
   5  -1  -1   18.10   23.80
   5  -1  -1   -6.60   11.90
   5  -1  -1   76.89   43.60
   5  -1  -1   16.30   48.80
  -5   1   1    1.60   12.50
  -5   1   1  -92.19   61.79
   4  -1  -1  117.09   31.10
   4  -1  -1   73.09   15.80
   4  -1  -1  132.39   44.10
   4  -1  -1   76.29   20.10
  -4   1   1   95.79   16.80
  -4   1   1   80.39   18.90
  -4   1   1  100.79   27.10
  -4   1   1   93.19   41.30
   3  -1  -1   69.99   21.00
   3  -1  -1  107.89   36.10
   3  -1  -1  136.29   21.60
   3  -1  -1  181.08   40.00
   3  -1  -1  123.69   30.10
  -3   1   1   98.59   17.10
  -3   1   1   71.79   59.99
  -3   1   1  121.59   21.80
  -3   1   1   92.39   16.60
  -3   1   1   72.29   40.20
  -3   1   1  111.99   24.10
   2  -1  -1   45.60   10.60
   2  -1  -1   30.60   14.40
   2  -1  -1   37.30   15.10
   2  -1  -1   37.80    7.10
   2  -1  -1   67.69   18.20
   2  -1  -1   30.20   13.90
  -2   1   1   35.40   10.80
  -2   1   1   61.19   10.70
  -2   1   1   17.00   15.40
  -2   1   1   38.50   11.70
  -2   1   1   27.50   15.70
   1  -1  -1   99.09   10.90
   1  -1  -1   93.99   15.30
   1  -1  -1  119.39   14.90
   1  -1  -1  100.19   13.60
   1  -1  -1   88.69   13.60
  -1   1   1  113.19   14.10
  -1   1   1  101.19   12.20
  -1   1   1  107.69   15.50
  -1   1   1  124.19   13.40
  -1   1   1  111.09   14.10
   0  -1  -1   99.69    9.50
   0  -1  -1   71.89    8.30
   0  -1  -1   85.29   10.90
   0  -1  -1   74.09    8.00
   0  -1  -1   89.19    8.90
   0   1   1   98.39    9.10
   0   1   1   72.69    7.60
   0   1   1  100.99   10.00
  -1  -1  -1 1120.69  111.09
  -1  -1  -1 1337.87  107.89
  -1  -1  -1 1279.87  108.19
  -1  -1  -1 1372.16  107.99
  -1  -1  -1 1385.56  107.89
   1   1   1 1247.78  108.09
   1   1   1 1418.96  108.49
   1   1   1 1371.06  108.59
   1   1   1 1269.87  107.89
  -2  -1  -1   22.20   10.70
  -2  -1  -1   18.50   13.30
  -2  -1  -1    8.20    6.50
  -2  -1  -1   15.20   15.20
  -2  -1  -1   16.80   12.90
   2   1   1   19.00   19.70
   2   1   1    7.70   13.90
   2   1   1    9.70   13.80
   2   1   1   17.70   14.10
   2   1   1   15.90    6.80
  -3  -1  -1   22.20   11.60
  -3  -1  -1   55.39   36.50
  -3  -1  -1  -42.90   60.19
  -3  -1  -1   18.20    7.20
  -3  -1  -1   27.50   16.30
   3   1   1   15.30   19.80
   3   1   1   24.20   16.00
   3   1   1    7.80   34.70
  -4  -1  -1  490.05   66.49
  -4  -1  -1  534.65   59.49
  -4  -1  -1  468.65   47.70
  -4  -1  -1  556.84   69.49
   4   1   1  598.74   54.09
   4   1   1  573.24   64.19
   4   1   1  606.24   56.49
  -5  -1  -1   85.09   76.59
  -5  -1  -1   76.49   60.09
  -5  -1  -1   60.29   83.29
  -5  -1  -1   27.50   13.40
   5   1   1   49.80   20.60
   5   1   1   45.10   11.40
   5   1   1   60.59   33.70
   5   1   1   50.89   16.00
   6   1   1   64.69    9.00
   6   1   1   73.49   13.00
   6   1   1   74.49   15.50
   6   1   1   78.79   20.60
   6  -2  -1   29.50   11.10
   6  -2  -1    5.10    7.10
  -6   2   1  -27.00   19.80
  -6   2   1   55.39   33.90
   5  -2  -1  349.96   42.20
   5  -2  -1  317.97   30.50
   5  -2  -1  407.86   57.99
   5  -2  -1  318.87   33.50
  -5   2   1  268.57   38.10
  -5   2   1  285.77   72.59
  -5   2   1  288.47   31.30
   4  -2  -1   38.90   24.00
   4  -2  -1  104.69   31.00
   4  -2  -1   40.60   12.00
   4  -2  -1   39.80   17.70
  -4   2   1   60.59   17.40
  -4   2   1   75.79   15.20
  -4   2   1  102.59   35.50
   3  -2  -1   41.70   45.70
   3  -2  -1   84.19   34.70
   3  -2  -1   34.70   23.80
   3  -2  -1   65.19   33.20
   3  -2  -1   41.60   31.10
   3  -2  -1   41.10   18.60
  -3   2   1   60.29   10.80
  -3   2   1   41.00   15.60
  -3   2   1   59.49   31.90
  -3   2   1  -41.30   59.59
  -3   2   1  -16.10   38.00
   2  -2  -1   -0.10   13.80
   2  -2  -1   14.20   16.60
   2  -2  -1   -4.50   10.50
  -2   2   1    7.30   14.90
  -2   2   1   17.00    9.60
  -2   2   1   58.49   43.50
  -2   2   1   11.80   11.90
   1  -2  -1  658.93   55.99
   1  -2  -1  656.83   54.59
   1  -2  -1  711.53   55.59
  -1   2   1  603.04   52.39
  -1   2   1  621.64   54.99
  -1   2   1  747.93   55.19
  -1   2   1  567.44   52.99
  -1   2   1  554.64   54.09
   0  -2  -1 2117.69  193.18
   0  -2  -1 2490.55  193.38
   0  -2  -1 2420.06  193.48
   0  -2  -1 2175.68  193.48
   0   2   1 2307.17  192.88
   0   2   1 2574.24  193.38
   0   2   1 2558.44  193.28
  -1  -2  -1  157.98   19.60
  -1  -2  -1  134.89   20.90
  -1  -2  -1  158.58   17.50
  -1  -2  -1  154.68   18.90
  -1  -2  -1  129.19   18.50
  -1  -2  -1  127.89   13.10
   1   2   1  155.68   18.60
   1   2   1  128.49   19.10
   1   2   1  144.29   20.90
   1   2   1  150.28   19.50
  -2  -2  -1   58.59   18.90
  -2  -2  -1   88.99   19.80
  -2  -2  -1   61.09   21.90
  -2  -2  -1   73.89   29.50
  -2  -2  -1   73.29    9.80
  -2  -2  -1   77.39   17.90
   2   2   1   90.89   17.90
   2   2   1   64.19   20.00
   2   2   1   78.29   18.10
   2   2   1   64.29   21.70
  -3  -2  -1   23.80   41.80
  -3  -2  -1  -13.60    8.00
  -3  -2  -1  -43.60   33.40
  -3  -2  -1   13.90   23.20
  -3  -2  -1   -1.30   15.70
   3   2   1  -10.80   19.40
   3   2   1   20.80   24.10
   3   2   1   -2.40   20.60
  -4  -2  -1  158.38   42.30
  -4  -2  -1  164.78   33.70
  -4  -2  -1  138.19   21.30
  -4  -2  -1  137.09   17.70
   4   2   1  173.28   39.70
   4   2   1  141.99   29.40
   4   2   1  142.79   31.70
  -5  -2  -1   23.20   12.50
  -5  -2  -1   36.90   42.30
  -5  -2  -1 -133.39   97.49
  -5  -2  -1  146.89   90.39
   5   2   1   -5.20   13.70
   5   2   1   49.00   23.30
   5   2   1    0.40   18.60
   5   2   1  -96.99   62.39
   5   2   1   14.40   11.90
  -6  -2  -1  103.39   29.40
   6   2   1   32.70    8.80
   6   2   1   52.09   16.10
   6   2   1   58.99   11.50
   6   2   1   40.80   12.60
   6  -3  -1   10.00    7.20
   6  -3  -1   26.70   11.60
   5  -3  -1  232.48   26.60
   5  -3  -1  238.48   40.00
   5  -3  -1  278.37   44.40
   5  -3  -1  195.38   22.60
  -5   3   1  159.18   38.10
  -5   3   1  160.28   25.10
  -5   3   1  376.66   80.19
   4  -3  -1  427.76   37.30
   4  -3  -1  367.46   39.50
   4  -3  -1  334.47   45.90
   4  -3  -1  412.26   52.69
   4  -3  -1  404.86   45.90
  -4   3   1  306.17   44.30
  -4   3   1  340.87   37.40
  -4   3   1  363.26   51.19
   3  -3  -1   57.09   14.90
   3  -3  -1   64.79   28.30
   3  -3  -1   89.89   33.60
   3  -3  -1   80.29   29.10
   3  -3  -1   46.10   25.60
   3  -3  -1   74.19   42.90
   3  -3  -1   95.49   24.20
  -3   3   1   48.60   15.70
  -3   3   1  -12.60   48.10
  -3   3   1   45.60   13.70
  -3   3   1   75.99   15.00
   2  -3  -1  229.98   28.80
   2  -3  -1  227.68   26.00
   2  -3  -1  276.57   33.40
  -2   3   1  239.68   38.20
  -2   3   1  171.98   23.00
  -2   3   1  158.98   33.60
  -2   3   1  227.88   24.90
   1  -3  -1  291.97   30.70
   1  -3  -1  302.77   31.30
   1  -3  -1  325.97   31.30
  -1   3   1  267.77   31.90
  -1   3   1  297.17   28.30
  -1   3   1  298.37   30.60
  -1   3   1  300.37   26.30
   0  -3  -1  595.54   51.99
   0  -3  -1  513.95   57.09
   0  -3  -1  569.74   51.39
   0   3   1  623.24   51.59
   0   3   1  616.74   50.39
  -1  -3  -1 2247.28  183.58
  -1  -3  -1 2244.08  184.08
  -1  -3  -1 2542.95  183.88
  -1  -3  -1 2132.69  184.38
  -1  -3  -1 2163.68  181.48
  -1  -3  -1 2343.97  184.18
   1   3   1 2111.99  185.28
   1   3   1 2061.49  183.98
   1   3   1 2149.58  181.68
   1   3   1 2349.26  183.78
   1   3   1 2360.16  183.88
  -2  -3  -1   95.29   18.60
  -2  -3  -1   89.69   21.00
  -2  -3  -1  123.49   28.00
  -2  -3  -1  165.38   31.20
  -2  -3  -1  131.59   23.20
   2   3   1   94.29   22.80
   2   3   1  110.29   24.80
   2   3   1  119.69   27.10
  -3  -3  -1    3.80   36.00
  -3  -3  -1   64.89   18.60
  -3  -3  -1   -8.30   49.90
  -3  -3  -1   51.59   11.30
  -3  -3  -1   60.89   19.80
   3   3   1   46.80   20.90
   3   3   1   85.29   76.89
   3   3   1   63.49   10.60
   3   3   1   54.99   15.30
   3   3   1   78.39   28.30
  -4  -3  -1   -7.80   32.20
  -4  -3  -1   10.20   11.10
  -4  -3  -1   22.70   12.60
  -4  -3  -1  -36.10   29.20
   4   3   1   21.90   14.70
   4   3   1  -31.70   29.90
   4   3   1   44.60   43.00
   4   3   1   11.10   12.60
   4   3   1   31.70   20.70
  -5  -3  -1  348.77   69.59
  -5  -3  -1  383.66  109.89
  -5  -3  -1  316.37   90.89
  -5  -3  -1  517.25   41.40
   5   3   1  488.85   45.40
   5   3   1  539.05  103.09
   5   3   1  437.46   44.40
   5   3   1  492.85   42.90
   5   3   1  496.55   40.90
   5   3   1  410.36   44.70
   6   3   1  132.59   11.60
   6   3   1  133.89   19.40
   6   3   1   97.69   25.10
   6   3   1   90.49   12.40
   6  -4  -1   -5.70    7.10
   6  -4  -1   17.80    8.10
   5  -4  -1  334.87   33.90
   5  -4  -1  366.76   40.40
   5  -4  -1  261.17   32.30
  -5   4   1  369.76   51.79
  -5   4   1  329.77   35.60
   4  -4  -1  294.57   52.19
   4  -4  -1  256.97   30.90
   4  -4  -1  205.78   59.09
   4  -4  -1  305.57   36.80
  -4   4   1  195.38   45.60
  -4   4   1  316.77   48.60
  -4   4   1  257.77   30.20
   3  -4  -1  -73.39   81.99
   3  -4  -1   95.09   37.90
   3  -4  -1   78.89   30.40
   3  -4  -1   29.40   24.60
   3  -4  -1   17.80   12.50
   3  -4  -1  -13.10   31.10
  -3   4   1   17.40   14.30
  -3   4   1   -4.50   18.70
   2  -4  -1   96.79   45.10
   2  -4  -1  213.88   40.70
   2  -4  -1  192.08   41.80
   2  -4  -1  215.28   31.00
  -2   4   1  242.18   41.80
  -2   4   1  190.28   21.30
  -2   4   1  147.39   39.20
  -2   4   1  214.68   24.30
   1  -4  -1  548.45   50.79
   1  -4  -1  536.95   50.59
   1  -4  -1  529.85   53.69
  -1   4   1  558.44   55.79
  -1   4   1  501.95   46.60
  -1   4   1  591.84   49.30
  -1   4   1  594.24   51.89
   0  -4  -1  689.83   53.69
   0  -4  -1  610.34   56.99
   0  -4  -1  661.73   59.99
   0  -4  -1  617.34   57.89
   0   4   1  739.23   58.19
   0   4   1  658.23   55.59
   0   4   1  574.84   53.79
  -1  -4  -1  582.84   58.19
  -1  -4  -1  626.34   54.79
  -1  -4  -1  608.14   53.89
  -1  -4  -1  552.64   53.49
  -1  -4  -1  629.64   55.99
  -1  -4  -1  636.54   54.39
  -1  -4  -1  636.54   49.90
   1   4   1  642.64   55.99
   1   4   1  561.14   50.49
   1   4   1  550.34   56.89
   1   4   1  639.24   56.09
   1   4   1  593.94   54.89
  -2  -4  -1   18.20   17.10
  -2  -4  -1   28.20    6.60
  -2  -4  -1   27.50   26.30
   2   4   1    7.80   28.20
   2   4   1   21.30   12.70
   2   4   1    1.80   26.20
   2   4   1   26.50   18.80
  -3  -4  -1   18.30   10.20
  -3  -4  -1   -7.80   29.20
  -3  -4  -1  -32.00   63.09
  -3  -4  -1    9.90   17.60
  -3  -4  -1    8.90    7.00
   3   4   1  -22.50   17.80
   3   4   1   14.80   17.20
   3   4   1   -8.60   13.70
   3   4   1   44.70  110.39
   3   4   1   15.40   31.00
  -4  -4  -1   35.30   14.70
  -4  -4  -1   55.79   47.70
  -4  -4  -1   30.70   35.30
   4   4   1   61.49   14.60
   4   4   1    5.60   49.20
   4   4   1   26.80   11.90
   4   4   1   22.60   19.80
   4   4   1   35.60   16.30
  -5  -4  -1   27.40  110.49
  -5  -4  -1   39.20   14.60
  -5  -4  -1   42.20   15.90
  -5  -4  -1   51.39   78.99
   5   4   1   41.60   15.20
   5   4   1   40.80   12.40
   5   4   1   30.20   22.20
   5   4   1   27.90   18.20
   6   4   1  219.68   25.20
   6   4   1  258.67   21.80
   5  -5  -1  199.58   37.10
  -5   5   1  186.88   33.90
  -5   5   1  144.19   25.90
   4  -5  -1   90.19   23.80
   4  -5  -1   85.19   31.90
   4  -5  -1   19.30   29.40
   4  -5  -1  107.29   36.50
  -4   5   1   74.59   52.19
  -4   5   1   75.59   17.90
  -4   5   1   59.49   13.40
  -4   5   1    9.70   32.20
   3  -5  -1   13.70   26.20
   3  -5  -1  -24.40   39.10
   3  -5  -1   60.49   33.90
   3  -5  -1   21.40   21.90
   3  -5  -1    4.00   32.10
   3  -5  -1   80.29   65.09
  -3   5   1   30.70   12.10
  -3   5   1   25.70   41.60
  -3   5   1   17.40   40.40
  -3   5   1  -15.30   19.00
   2  -5  -1   79.49   33.50
   2  -5  -1   56.09   23.10
   2  -5  -1   88.79   28.20
   2  -5  -1   37.10   21.40
   2  -5  -1   14.20   16.90
  -2   5   1   31.50   60.89
  -2   5   1   22.80   33.40
  -2   5   1   33.80   15.20
  -2   5   1   54.49   12.40
   1  -5  -1  287.17   37.00
   1  -5  -1  287.87   42.50
   1  -5  -1  266.37   32.00
   1  -5  -1  319.87   38.00
   1  -5  -1  293.27   28.80
  -1   5   1  335.07   33.20
  -1   5   1  250.47   47.50
   0  -5  -1  142.19   31.30
   0  -5  -1   96.19   22.70
   0  -5  -1  105.79   16.40
   0  -5  -1   79.39   22.60
   0   5   1   78.09   21.20
   0   5   1   83.29   16.00
   0   5   1  103.09   18.80
   0   5   1   73.99   22.50
  -1  -5  -1  340.77   48.00
  -1  -5  -1  298.87   33.80
  -1  -5  -1  311.17   33.60
  -1  -5  -1  362.96   40.30
   1   5   1  310.07   40.10
   1   5   1  243.58   47.40
   1   5   1  287.67   28.60
   1   5   1  325.47   39.70
  -2  -5  -1  338.27   30.30
  -2  -5  -1  240.38   59.69
  -2  -5  -1  356.56   41.60
  -2  -5  -1  352.26   44.10
  -2  -5  -1  374.76   33.60
   2   5   1  395.96   68.39
   2   5   1  345.17   41.50
  -3  -5  -1  282.87   24.20
  -3  -5  -1  258.37   26.80
  -3  -5  -1  221.08   46.20
  -3  -5  -1  213.08   46.20
   3   5   1  223.38   29.60
   3   5   1  254.27   31.50
   3   5   1  285.17   28.60
   3   5   1  317.97   27.00
   3   5   1  229.38   47.00
  -4  -5  -1   67.89   41.70
  -4  -5  -1   56.79   16.00
   4   5   1   58.79   61.09
   4   5   1  136.89   40.80
   4   5   1   80.49   46.60
   4   5   1   54.89   14.60
   4   5   1   82.39   18.90
   4   5   1   17.50   18.70
   4   5   1   56.09   17.10
  -5  -5  -1  -53.49   71.59
  -5  -5  -1   -1.20   10.50
  -5  -5  -1    3.10   15.20
   5   5   1   -1.60   14.50
   5   5   1  -12.90    8.60
   5   5   1    2.30   16.60
   5   5   1 -162.58  114.89
   6   5   1   39.50   12.30
   6   5   1   35.30    7.50
   5  -6  -1   -7.50   13.10
   5  -6  -1    3.40    9.60
   5  -6  -1   15.40   37.70
   5  -6  -1   31.40   20.70
  -5   6   1   12.20   24.50
  -5   6   1   21.70   21.40
   4  -6  -1   30.40   24.70
   4  -6  -1    7.30   14.30
   4  -6  -1   51.59   20.70
  -4   6   1   44.60   15.30
  -4   6   1   17.30   51.39
  -4   6   1   -4.80   44.60
   3  -6  -1  138.19   71.69
   3  -6  -1   52.09   55.49
   3  -6  -1   16.70   30.60
   3  -6  -1   27.80   15.10
  -3   6   1   35.20   24.40
  -3   6   1   34.80   15.50
  -3   6   1   42.30   37.30
  -3   6   1   22.20   15.60
   2  -6  -1  621.84   59.39
   2  -6  -1  459.95   63.69
   2  -6  -1  541.55   94.09
   2  -6  -1  472.25   48.80
   2  -6  -1  534.25   55.39
   2  -6  -1  413.36   57.79
  -2   6   1  442.56   90.39
  -2   6   1  556.54   50.29
  -2   6   1  427.86   71.39
  -2   6   1  529.95   44.60
  -2   6   1  517.75   51.29
  -2   6   1  493.25   45.70
   1  -6  -1  120.29   26.10
   1  -6  -1   99.29   28.50
   1  -6  -1  171.68   39.50
   1  -6  -1  144.09   31.70
   1  -6  -1   97.89   36.70
  -1   6   1   76.99   40.40
  -1   6   1  109.49   19.70
  -1   6   1   93.59   17.50
  -1   6   1  138.99   23.30
  -1   6   1  115.79   33.80
   0  -6  -1 2390.16  211.48
   0  -6  -1 2603.14  217.38
   0  -6  -1 2912.11  221.18
   0  -6  -1 2750.82  211.78
   0  -6  -1 2560.44  219.58
   0   6   1 2937.21  225.18
   0   6   1 2372.86  213.68
   0   6   1 2245.38  211.78
   0   6   1 2812.52  229.18
  -1  -6  -1   61.49   18.90
  -1  -6  -1   37.30   10.10
  -1  -6  -1   88.89   44.50
  -1  -6  -1  -20.00   37.80
  -1  -6  -1   53.39    8.60
  -1  -6  -1   26.90   22.70
   1   6   1   60.29   33.80
   1   6   1   15.30   23.80
   1   6   1   42.70   12.20
  -2  -6  -1   79.29   26.50
  -2  -6  -1  105.29   13.00
  -2  -6  -1  125.39   15.60
  -2  -6  -1   56.19   77.49
   2   6   1   39.80   33.90
   2   6   1   85.19   21.10
   2   6   1   88.69   17.60
   2   6   1  121.29   17.20
   2   6   1   53.79   68.79
  -3  -6  -1  656.33   59.19
  -3  -6  -1  655.43   86.39
  -3  -6  -1  766.22   57.29
  -3  -6  -1  580.94   88.79
   3   6   1  661.83   69.49
  -4  -6  -1  -23.50   38.70
  -4  -6  -1   15.70   13.20
  -4  -6  -1   22.40   10.10
   4   6   1    9.30   27.90
   4   6   1   15.80   73.69
   4   6   1   38.80   11.70
   4   6   1   11.60   56.39
  -5  -6  -1   20.10   15.20
  -5  -6  -1   57.99   64.59
  -5  -6  -1   39.40   13.80
   5  -7  -1  191.18   27.10
   5  -7  -1  180.28   18.90
   5  -7  -1  217.38   22.00
  -5   7   1  230.18   25.80
   4  -7  -1  428.66   46.00
   4  -7  -1  346.47   39.10
   4  -7  -1  347.97   40.50
  -4   7   1  362.06   49.20
  -4   7   1  317.27   74.79
  -4   7   1  458.35   44.90
  -4   7   1  480.15   42.50
   3  -7  -1   99.59   29.10
   3  -7  -1   52.59   65.89
   3  -7  -1   37.10   56.89
   3  -7  -1  122.19   22.40
   3  -7  -1   56.99   43.50
  -3   7   1  102.49   65.09
  -3   7   1  104.69   19.00
  -3   7   1   72.99   33.80
  -3   7   1  156.68   36.00
   2  -7  -1    1.70   19.10
   2  -7  -1   49.80   31.60
   2  -7  -1   -1.90   21.30
   2  -7  -1   44.10   33.70
  -2   7   1   36.00   28.90
  -2   7   1   58.09   41.50
   1  -7  -1  726.83   98.79
   1  -7  -1  595.24   61.49
   1  -7  -1  611.04   64.09
   1  -7  -1  636.64   62.29
   1  -7  -1  591.84   54.59
  -1   7   1  662.53   56.89
  -1   7   1  600.54   76.99
  -1   7   1  585.64   55.19
  -1   7   1  601.44   56.79
  -1   7   1  620.24   59.09
   0  -7  -1  149.79   24.30
   0  -7  -1  143.49   19.70
   0  -7  -1  230.48   53.29
   0  -7  -1  168.78   35.80
   0   7   1   73.09   48.70
   0   7   1  142.59   29.40
   0   7   1  120.19   23.90
  -1  -7  -1   19.10   59.79
  -1  -7  -1  -19.00   28.30
  -1  -7  -1    6.50    9.70
  -1  -7  -1  -13.90   24.80
  -1  -7  -1    7.00    8.50
  -1  -7  -1    4.60   19.90
  -1  -7  -1   -1.90   27.40
  -1  -7  -1   36.20   52.39
  -1  -7  -1  -10.80   19.70
   1   7   1  -24.40   34.20
   1   7   1   26.90   10.00
   1   7   1  -25.20   20.20
  -2  -7  -1  362.16   35.90
  -2  -7  -1  377.26   33.70
  -2  -7  -1  422.36   47.60
  -2  -7  -1  408.66   32.40
  -2  -7  -1  262.67   56.79
  -2  -7  -1  405.96   64.49
   2   7   1  368.56   34.50
   2   7   1  288.97   44.80
   2   7   1  361.36   44.70
   2   7   1  371.86   36.10
   2   7   1  395.76  156.98
  -3  -7  -1  487.25   90.39
  -3  -7  -1  535.65   44.80
   3   7   1  504.95   44.20
   3   7   1  531.85   56.19
   3   7   1  493.55   46.70
   3   7   1  434.26   91.19
  -4  -7  -1   31.70   12.00
  -4  -7  -1   20.60   46.30
  -4  -7  -1  108.39  115.49
   4   7   1  116.49   96.89
   4   7   1   -5.40   30.40
   4   7   1   56.79   11.00
   4   7   1   21.80   13.50
  -5  -7  -1   18.90   16.60
  -5  -7  -1   -4.10   25.60
  -5  -7  -1    0.70   75.49
  -5  -7  -1    8.40   13.50
   5   7   1   22.20    6.70
   5  -8  -1   45.60   12.60
   5  -8  -1   57.89   16.60
   4  -8  -1   94.69   40.10
  -4   8   1  172.78   34.40
   3  -8  -1   32.60   21.30
   3  -8  -1   58.39   31.80
   3  -8  -1   13.10   14.80
   3  -8  -1   82.59   67.89
   3  -8  -1  183.48   81.09
  -3   8   1   43.60   28.00
  -3   8   1   60.09   50.69
   2  -8  -1   46.50   16.20
   2  -8  -1   55.89   42.90
   2  -8  -1  -10.80   26.50
   2  -8  -1   21.40   23.20
   2  -8  -1   14.30   17.30
   2  -8  -1   29.80   49.30
  -2   8   1  -35.40   27.20
  -2   8   1  -14.20   22.80
  -2   8   1    0.60   24.90
  -2   8   1   -7.70   23.30
  -2   8   1   29.50   19.00
   1  -8  -1  561.74   64.29
   1  -8  -1  520.15   50.39
   1  -8  -1  501.15   49.10
   1  -8  -1  568.44   63.39
   1  -8  -1  481.55   57.59
  -1   8   1  434.86   49.40
  -1   8   1  590.24   61.49
  -1   8   1  527.65   52.89
  -1   8   1  585.64   56.69
  -1   8   1  542.15   47.70
   0  -8  -1  607.54   70.09
   0  -8  -1  656.53   52.49
   0  -8  -1  474.75   56.39
   0  -8  -1  615.74   64.19
   0  -8  -1  584.54   50.99
   0   8   1  457.85   51.59
   0   8   1  606.54   66.89
   0   8   1  624.94   56.69
   0   8   1  459.15   53.59
   0   8   1  477.05   70.69
   0   8   1  577.84   56.29
  -1  -8  -1   25.20   14.10
  -1  -8  -1   54.39   13.90
  -1  -8  -1    3.60   37.40
  -1  -8  -1   22.00   11.80
  -1  -8  -1   60.19   38.50
  -1  -8  -1   52.19   24.10
   1   8   1   17.20   11.50
   1   8   1   52.59   35.90
   1   8   1   47.60   17.40
   1   8   1   -3.40   25.30
   1   8   1   36.30   30.90
  -2  -8  -1  488.05   41.30
  -2  -8  -1  445.86   42.50
  -2  -8  -1  382.66   69.09
  -2  -8  -1  441.96   84.79
   2   8   1  494.75   47.30
   2   8   1  462.15   44.10
   2   8   1  450.65   41.40
  -3  -8  -1   34.60   51.99
  -3  -8  -1    8.30   12.20
  -3  -8  -1    4.40   13.20
  -3  -8  -1   23.50   12.50
  -3  -8  -1   40.80   54.99
   3   8   1    3.80   17.70
   3   8   1   19.00    9.50
  -4  -8  -1  244.48   25.60
  -4  -8  -1  212.68   26.80
   4   8   1  260.07   34.10
   4   8   1  266.37   24.40
   5   8   1   63.09    8.80
   5   8   1   72.79   13.30
   4  -9  -1  -27.50   18.30
   4  -9  -1   27.20   11.40
   4  -9  -1   -3.10   14.60
  -4   9   1   -3.80   13.40
  -4   9   1  -14.50   23.60
  -4   9   1   39.90   23.30
   3  -9  -1   -7.20   21.80
   3  -9  -1   24.90   21.30
   3  -9  -1   -0.20   13.50
   3  -9  -1  265.87  188.98
  -3   9   1  -28.00   51.19
  -3   9   1   21.50   21.70
  -3   9   1   -0.60   20.20
   2  -9  -1  397.86   41.00
   2  -9  -1  416.26   54.89
   2  -9  -1  417.36   77.09
   2  -9  -1  436.66   79.29
   2  -9  -1  421.16   45.80
   2  -9  -1  321.37   43.60
  -2   9   1  438.96   44.50
  -2   9   1  350.76   42.30
  -2   9   1  472.55   42.70
  -2   9   1  425.16   57.29
   1  -9  -1   28.30   16.60
   1  -9  -1   41.80   25.80
   1  -9  -1   37.30   44.80
   1  -9  -1   42.60   16.60
   1  -9  -1   17.10   46.30
  -1   9   1   26.10   27.90
  -1   9   1   79.29   30.00
  -1   9   1   50.89   26.80
  -1   9   1   65.59   25.00
  -1   9   1   50.79   19.00
   0  -9  -1   59.29   15.30
   0  -9  -1   90.99   58.79
   0  -9  -1   21.30   21.70
   0  -9  -1   71.89   19.30
   0  -9  -1  116.09   34.40
   0  -9  -1   86.09   79.89
   0  -9  -1  -22.90   58.29
   0  -9  -1   48.40   18.00
   0  -9  -1  -25.20   43.20
   0   9   1   77.09   31.10
   0   9   1   57.69   16.40
   0   9   1  103.19   27.60
  -1  -9  -1    5.10   15.80
  -1  -9  -1   -3.20   12.50
  -1  -9  -1    0.60   62.29
  -1  -9  -1    2.00   15.80
  -1  -9  -1  107.29   87.79
   1   9   1  -21.60   13.00
   1   9   1   11.10   20.30
   1   9   1   14.20   22.20
   1   9   1   -5.10   30.00
  -2  -9  -1   54.79   54.79
  -2  -9  -1   43.80   19.80
  -2  -9  -1   33.70   28.80
  -2  -9  -1   43.30   12.20
  -2  -9  -1   49.80   13.50
   2   9   1   29.10   15.50
   2   9   1  101.49   38.50
  -3  -9  -1  394.36  110.89
  -3  -9  -1  419.16   98.79
  -3  -9  -1  609.64   51.09
   3   9   1  636.64   49.60
   3   9   1  543.35   55.19
   3   9   1  591.74   51.09
  -4  -9  -1  461.25   38.70
   4   9   1  329.67   42.00
   4   9   1  404.06   36.00
  -5  -9  -1   58.29   11.20
   5   9   1   70.79    8.40
   5   9   1   57.59   12.00
   4 -10  -1   51.19   13.00
   4 -10  -1   82.99   20.10
  -4  10   1   55.69   29.20
  -4  10   1   14.40   32.20
  -4  10   1   44.40   13.40
   3 -10  -1  -19.00   15.60
   3 -10  -1   31.40  129.59
  -3  10   1    3.00   22.80
  -3  10   1  -29.60   24.50
  -3  10   1   -7.10   19.80
   2 -10  -1  -70.99   88.49
   2 -10  -1   25.80   23.00
   2 -10  -1   32.60   14.80
   2 -10  -1   22.50   21.20
   2 -10  -1   29.50   20.50
   2 -10  -1   28.10  115.69
  -2  10   1   49.50   20.90
  -2  10   1   45.40   22.20
  -2  10   1  -38.30   47.70
   1 -10  -1   21.70   67.19
   1 -10  -1   30.50   24.30
   1 -10  -1   27.80   17.20
   1 -10  -1   17.40   25.00
   1 -10  -1   55.79   65.29
  -1  10   1   69.99   37.40
  -1  10   1   51.49   18.60
  -1  10   1   39.30   39.10
   0 -10  -1    0.60   22.30
   0 -10  -1    6.70   84.59
   0 -10  -1    8.70   13.80
   0 -10  -1    9.00   40.80
   0 -10  -1   23.40   22.00
   0  10   1  -11.70   19.80
   0  10   1   22.70   18.70
   0  10   1   -0.50   19.80
  -1 -10  -1   82.89   24.10
  -1 -10  -1  110.19   81.29
  -1 -10  -1   93.19   28.00
  -1 -10  -1  248.78   92.19
  -1 -10  -1   60.59   15.50
   1  10   1  112.39   42.60
   1  10   1  103.59   21.20
   1  10   1  123.89   24.60
  -2 -10  -1  105.89   63.39
  -2 -10  -1   82.09   14.10
  -2 -10  -1   16.70   31.30
  -2 -10  -1   42.90  110.59
  -2 -10  -1   68.39   17.30
   2  10   1   88.49   21.10
   2  10   1   56.59   12.60
   2  10   1   93.39   18.70
  -3 -10  -1   -5.10   76.19
  -3 -10  -1  188.98   25.30
  -3 -10  -1  181.28   22.10
   3  10   1  147.09   26.20
   3  10   1  158.38   18.10
  -4 -10  -1   81.29   11.40
   4  10   1   96.69   10.90
   4  10   1  134.89   27.20
   4  10   1  106.29   17.50
   3 -11  -1    7.20   10.10
   3 -11  -1   29.50   15.30
   3 -11  -1   61.29   21.50
  -3  11   1   12.60   14.10
  -3  11   1   54.49   14.40
  -3  11   1   15.60   16.10
   2 -11  -1  160.58   27.40
   1 -11  -1  143.69   96.49
   1 -11  -1   15.60   20.70
   1 -11  -1   -8.20   26.50
   1 -11  -1   26.20   24.80
  -1  11   1   -2.00   16.70
   0 -11  -1   29.20   28.70
   0 -11  -1  -28.10   25.40
   0 -11  -1    3.60   15.50
   0  11   1   20.00   20.70
   0  11   1   27.90   16.40
   0  11   1  -24.00   17.00
  -1 -11  -1   -1.10   21.80
  -1 -11  -1   68.09   13.50
  -1 -11  -1   38.70   25.30
   1  11   1   34.50   16.60
   1  11   1   24.80   28.10
   1  11   1   38.40   22.60
  -2 -11  -1   56.19   25.10
  -2 -11  -1   43.60   19.80
  -2 -11  -1  171.58  120.49
  -3 -11  -1  345.07   30.40
  -3 -11  -1  390.16   39.90
   3  11   1  306.67   34.00
  -4 -11  -1   -1.10    8.70
   4  11   1   18.20   20.80
   4  11   1   29.60    6.80
   2 -12  -1  141.19   23.30
   2 -12  -1  134.79   16.90
  -2  12   1  118.49   18.70
  -2  12   1  125.29   14.80
   1 -12  -1   52.09   17.90
   1 -12  -1   37.50   22.10
   1 -12  -1   33.30   25.80
   1 -12  -1  169.38   67.29
  -1  12   1   24.20   12.40
  -1  12   1   24.70   35.10
  -1  12   1   42.30   12.90
   0 -12  -1  190.28  110.59
   0 -12  -1   42.40   27.30
   0 -12  -1   26.40   17.60
   0  12   1   -0.30   28.70
  -1 -12  -1    3.40   25.10
  -1 -12  -1  -18.00   23.10
  -1 -12  -1   -0.10   12.40
   1  12   1   -8.20   28.20
  -2 -12  -1   86.49   13.50
  -2 -12  -1   44.30   32.60
  -2 -12  -1  102.29   20.70
   2  12   1   46.70   15.30
   2  12   1   68.39   12.00
  -3 -12  -1  100.59   13.20
   3  12   1   78.89   18.60
   3  12   1   84.29   11.50
   1 -13  -1   -5.70   10.10
   1 -13  -1    3.70   14.20
  -1  13   1  -13.80   13.10
  -1  13   1   -4.50   10.50
   0 -13  -1    4.10   15.70
   0 -13  -1   14.90   16.40
   0  13   1    3.80   13.60
  -1 -13  -1   10.40   11.80
  -1 -13  -1    5.40   20.30
  -1 -13  -1  -39.90   20.70
   1  13   1   32.30   18.70
   1  13   1   20.60   14.20
   1  13   1   -2.40    8.70
  -2 -13  -1   16.40   17.70
  -2 -13  -1  -11.00   13.00
   2  13   1   13.80   11.70
   2  13   1   -8.60    6.60
   1  13  -2   22.40    7.80
   1  13  -2   24.70    9.40
   1  13  -2   18.70   14.60
  -1 -13   2   40.00   17.10
   0  13  -2   46.20    9.80
   0  13  -2   51.29   14.90
   0  13  -2   35.30   17.30
   0  13  -2   53.99   13.60
   0 -13   2   63.99   19.20
  -1  13  -2    1.40    5.70
  -1  13  -2    4.00   13.20
   1 -13   2  -12.10   11.40
   2  12  -2   23.80    9.90
   2  12  -2   11.00    8.90
   2  12  -2    9.60    9.80
  -2 -12   2   -5.50   16.80
  -2 -12   2    4.10   21.00
   1  12  -2  148.89   20.60
   1  12  -2  172.78   17.60
  -1 -12   2  202.98   25.70
  -1 -12   2  195.98   27.80
   0  12  -2   44.70   14.30
   0  12  -2   -2.30   20.20
   0  12  -2   66.49   14.60
   0  12  -2   45.90   13.90
   0 -12   2   27.80   23.10
   0 -12   2   -7.90   29.10
   0 -12   2   42.20   23.20
  -1  12  -2   12.80    9.80
  -1  12  -2   17.50   15.20
  -1  12  -2   42.60   22.90
   1 -12   2   46.90   19.60
  -2  12  -2  116.29   15.10
   2 -12   2  174.88   29.00
   2 -12   2  146.19   21.30
   3  11  -2  -10.20   15.40
   3  11  -2    4.20    8.90
   3  11  -2   19.60   11.10
  -3 -11   2   39.00   13.40
  -3 -11   2   26.30   15.30
  -3 -11   2   26.10   18.10
  -2 -11   2   76.89   20.70
  -2 -11   2   65.59   16.00
  -2 -11   2   57.79   16.80
  -2 -11   2   53.39   85.29
   1  11  -2   59.89   14.80
   1  11  -2   58.99   20.50
  -1 -11   2   90.99   16.90
  -1 -11   2   77.19   93.39
   0  11  -2   27.00   15.00
   0  11  -2    7.50   17.50
   0  11  -2   39.30   16.30
   0  11  -2   15.50   23.30
   0 -11   2  -26.00   77.79
   0 -11   2   39.90   14.40
   0 -11   2   14.60   17.70
   0 -11   2   37.80   24.00
  -1  11  -2   46.00   17.50
  -1  11  -2   54.39   18.30
   1 -11   2   73.29   22.40
   1 -11   2   39.90  134.79
   1 -11   2   33.60   24.10
   1 -11   2   77.69   19.00
  -2  11  -2   68.09   30.30
  -2  11  -2  123.99   19.10
   2 -11   2  114.89   23.80
   2 -11   2   69.29   16.10
   2 -11   2   80.99   34.80
  -3  11  -2   -4.60   12.10
  -3  11  -2   44.80   23.50
  -3  11  -2    8.70    9.90
   3 -11   2   -4.40    8.20
   3 -11   2   18.60   15.60
   3 -11   2    7.90   13.30
   4  10  -2    4.50    5.90
   4  10  -2    5.60    9.40
   4  10  -2   -3.80   16.10
  -4 -10   2   14.20   11.10
   3  10  -2   33.80   20.50
   3  10  -2   21.60   10.40
  -3 -10   2    0.60   14.20
  -3 -10   2   -0.80   12.20
  -3 -10   2   -9.60   16.80
   2  10  -2    9.50   11.10
   2  10  -2   -3.50   24.30
   2  10  -2    6.50   17.70
  -2 -10   2  -22.50   13.70
   1  10  -2   91.59   34.70
   1  10  -2   -6.70   37.70
   1  10  -2   59.79   20.80
   1  10  -2   49.70   18.70
  -1 -10   2   75.59  159.78
  -1 -10   2  -86.79   84.29
  -1 -10   2   27.80   13.30
   0  10  -2  132.99   32.40
   0  10  -2  181.08   19.60
   0  10  -2  195.58   29.60
   0  10  -2  134.99   32.10
   0 -10   2  234.18   89.19
   0 -10   2  -35.60   97.79
   0 -10   2  113.69   18.40
   0 -10   2  258.57  129.99
  -1  10  -2   15.70   23.80
  -1  10  -2   36.70   16.70
  -1  10  -2   32.40   22.50
  -1  10  -2   79.29   26.90
   1 -10   2    2.80   24.00
   1 -10   2   26.90   64.29
   1 -10   2   50.09   15.70
   1 -10   2  152.68   77.09
   1 -10   2   18.50   40.00
  -2  10  -2  220.58   27.90
  -2  10  -2  246.48   29.80
   2 -10   2  248.88   34.60
   2 -10   2  221.88   93.09
  -3  10  -2   29.00   13.40
  -3  10  -2   64.09   23.40
  -3  10  -2   73.89   16.10
   3 -10   2   52.09   16.50
   3 -10   2   37.10   16.00
  -4  10  -2    7.40   10.80
  -4  10  -2   12.50   13.50
   4 -10   2   10.80   11.60
   4 -10   2   17.30   10.60
   4   9  -2   -4.60   20.70
   4   9  -2  -19.60   18.80
   4   9  -2   13.20   14.20
  -4  -9   2   37.90   17.70
  -4  -9   2   18.90   99.19
  -4  -9   2   37.40   10.60
  -4  -9   2   25.90   14.10
   3   9  -2   32.10   11.20
   3   9  -2   20.00   12.20
  -3  -9   2   52.09   11.00
  -3  -9   2   67.29   18.40
  -3  -9   2   36.80   17.60
  -3  -9   2  202.08  171.88
  -3  -9   2   79.59   71.19
   2   9  -2   32.60   21.00
   2   9  -2   39.70   12.30
   2   9  -2 -110.09  103.09
   2   9  -2   20.80   34.80
  -2  -9   2    8.00   17.80
  -2  -9   2   20.30   15.70
  -2  -9   2  -34.70   74.89
  -2  -9   2   53.09   55.29
   1   9  -2  131.39   40.90
   1   9  -2  123.49   24.10
   1   9  -2  162.38   31.40
   1   9  -2  181.58   20.20
   1   9  -2  171.48   31.20
   1   9  -2  184.88   94.29
  -1  -9   2  163.58   23.50
  -1  -9   2  112.59  107.69
  -1  -9   2   25.80  131.69
  -1  -9   2  157.78   66.99
  -1  -9   2  118.09   24.60
   0   9  -2   86.89   17.90
   0   9  -2  106.49   21.40
   0   9  -2   63.69   29.00
   0   9  -2    9.00   37.50
   0  -9   2   88.89   19.30
   0  -9   2  108.69   56.99
   0  -9   2   -1.80   51.09
   0  -9   2   21.30   54.09
  -1   9  -2  359.56   39.20
  -1   9  -2  352.16   37.70
  -1   9  -2  263.97   33.30
   1  -9   2  389.96   56.59
   1  -9   2  309.47   47.70
   1  -9   2  294.27   40.70
   1  -9   2  136.39   81.39
   1  -9   2  296.37   33.00
  -2   9  -2 1164.78   99.59
  -2   9  -2 1186.18  108.89
  -2   9  -2 1068.99   98.19
  -2   9  -2 1155.58  111.49
   2  -9   2 1077.49   99.39
   2  -9   2 1177.48  127.19
   2  -9   2 1326.37  103.69
   2  -9   2 1167.08  106.49
   2  -9   2 1219.18  100.69
  -3   9  -2   85.09   17.90
  -3   9  -2   94.49   26.80
  -3   9  -2  100.29   21.50
   3  -9   2  109.79   22.60
   3  -9   2   54.89   25.90
   3  -9   2   51.69   23.50
  -4   9  -2   -3.70   13.70
  -4   9  -2    1.30   12.20
  -4   9  -2   13.00   17.00
   4  -9   2   21.80   18.40
   4  -9   2  -10.60   11.90
   4  -9   2   17.40    8.60
   5   8  -2  103.89   14.80
  -5  -8   2  114.49   20.50
  -4  -8   2  -16.80   12.60
  -4  -8   2  -11.90   70.89
  -4  -8   2    6.50   10.90
   3   8  -2    9.20   37.80
   3   8  -2   48.90   11.10
   3   8  -2   16.20   53.29
   3   8  -2   31.10   12.40
   3   8  -2   65.69   20.80
   3   8  -2   30.30   25.70
  -3  -8   2   15.90   10.40
  -3  -8   2   89.29  110.99
  -3  -8   2  146.69   56.99
   2   8  -2   81.69   25.50
   2   8  -2   90.59   22.60
   2   8  -2   15.50   17.60
   2   8  -2   55.89   13.80
   2   8  -2   78.89   46.80
  -2  -8   2   40.00   11.00
  -2  -8   2   66.99   14.50
  -2  -8   2   93.59   21.90
  -2  -8   2  158.28   62.59
  -2  -8   2   27.60   42.10
   1   8  -2  133.49   43.70
   1   8  -2   15.40   35.40
   1   8  -2   91.99   34.40
   1   8  -2   72.19   23.50
  -1  -8   2   37.70   21.40
  -1  -8   2   30.10   34.60
  -1  -8   2   51.09   14.90
  -1  -8   2   70.09   11.90
  -1  -8   2  202.48   79.19
   0   8  -2  436.46   55.09
   0   8  -2  342.47   50.59
   0   8  -2  327.07   53.49
   0  -8   2  458.35   59.09
   0  -8   2  394.96   57.99
  -1   8  -2  199.58   35.30
  -1   8  -2  140.29   23.20
   1  -8   2  214.78   61.19
   1  -8   2  251.97   53.19
   1  -8   2  148.59   19.70
   1  -8   2  212.48   39.90
  -2   8  -2 1009.90   87.19
  -2   8  -2  889.31   86.19
  -2   8  -2  948.81   86.19
  -2   8  -2  878.51   79.59
  -2   8  -2  879.11   80.49
   2  -8   2 1010.60   97.39
   2  -8   2  836.32   79.59
   2  -8   2  870.61   88.59
   2  -8   2  904.31   79.19
   2  -8   2  985.70   98.39
  -3   8  -2  508.15   50.19
  -3   8  -2  488.75   47.20
  -3   8  -2  423.66   83.09
  -3   8  -2  452.85   46.90
   3  -8   2  416.96   46.60
   3  -8   2  492.85   48.30
   3  -8   2  526.05   97.79
   3  -8   2  528.15   52.99
  -4   8  -2  -42.40   24.30
  -5   8  -2   -2.90   14.00
  -5   8  -2   11.70   12.50
   5  -8   2   52.29   31.40
   5  -8   2   -1.20    9.10
   5  -8   2   23.50   13.60
   5   7  -2  113.39   55.09
   5   7  -2   36.40   19.60
   5   7  -2   35.70   11.30
   4   7  -2   96.39   17.90
   4   7  -2   97.79   18.70
   4   7  -2   70.19   10.70
   4   7  -2   60.69   22.10
   4   7  -2   91.99   25.60
  -4  -7   2  101.79  187.18
  -4  -7   2   61.19   13.30
  -4  -7   2   68.99   17.00
  -4  -7   2   16.30   74.99
   3   7  -2   97.69   23.30
   3   7  -2  120.79   22.20
   3   7  -2   75.39   22.60
   3   7  -2   90.19   15.10
   3   7  -2  143.39   34.70
   3   7  -2  119.19   22.60
  -3  -7   2   98.49   20.70
  -3  -7   2   37.20   46.80
  -3  -7   2   99.49   12.60
   2   7  -2   29.40   30.60
   2   7  -2   10.20   19.10
  -2  -7   2    9.80    8.80
  -2  -7   2   31.00   20.30
  -2  -7   2  -43.80   31.00
   1   7  -2  125.29   26.50
   1   7  -2  149.09   19.50
   1   7  -2  139.99   32.10
   1   7  -2  183.58   22.60
   1   7  -2  163.88   38.30
   1   7  -2  174.68   33.70
  -1  -7   2  161.78   16.50
  -1  -7   2  124.69   32.40
  -1  -7   2  170.28   58.39
  -1  -7   2  169.88   25.90
  -1  -7   2  187.78   20.90
  -1  -7   2   86.89   59.19
   0   7  -2   87.89   22.60
   0   7  -2   70.69   22.60
   0   7  -2   60.89   16.60
   0   7  -2   35.60   30.50
   0   7  -2  115.69   30.20
   0  -7   2  152.78   55.39
   0  -7   2   53.49   10.70
   0  -7   2   62.59   25.20
   0  -7   2   45.60   47.90
   0  -7   2   48.40   13.50
  -1   7  -2   96.59   20.90
  -1   7  -2  228.98   66.09
  -1   7  -2  155.08   31.50
  -1   7  -2  151.18   29.70
  -1   7  -2  126.39   25.00
  -1   7  -2  174.88   32.30
   1  -7   2  133.79   30.40
   1  -7   2  121.69   23.20
   1  -7   2  127.99   43.00
   1  -7   2   98.79   16.00
   1  -7   2  112.39   28.80
  -2   7  -2  689.53   73.69
   2  -7   2  795.12   72.89
   2  -7   2  824.02   77.69
   2  -7   2  621.64   70.39
   2  -7   2  634.94   60.39
   2  -7   2  664.43   85.49
  -3   7  -2   26.80   42.20
  -3   7  -2   27.70   20.20
  -3   7  -2   42.90   27.50
   3  -7   2   30.30   18.20
   3  -7   2    6.70   58.69
   3  -7   2   40.90   28.40
   3  -7   2   22.80   59.59
   3  -7   2   29.60   20.30
  -4   7  -2  235.88   31.80
  -4   7  -2  337.67   47.30
  -4   7  -2  279.47   35.40
   4  -7   2  324.67   33.50
   4  -7   2  310.37   31.20
  -5   7  -2   24.60   15.50
   5  -7   2   72.59   24.40
   5  -7   2   48.30   12.90
   5  -7   2   49.10    9.10
   5   6  -2   40.10   11.50
   5   6  -2   73.09   29.10
   5   6  -2   92.89   19.30
   5   6  -2   53.69   10.20
  -5  -6   2   54.79   12.50
   4   6  -2    3.80    9.20
   4   6  -2   20.30   22.60
   4   6  -2    9.00   14.20
   4   6  -2   14.20   15.50
   4   6  -2   17.70   13.30
  -4  -6   2  -56.39   61.19
  -4  -6   2   12.50  100.99
  -4  -6   2    4.40    9.50
   3   6  -2  320.57   30.40
   3   6  -2  310.07   32.30
   3   6  -2  226.28   31.90
   3   6  -2  244.08   26.70
   3   6  -2  321.57   37.80
  -3  -6   2  407.66   60.09
  -3  -6   2  256.77   28.70
  -3  -6   2  166.48   50.49
   2   6  -2   23.70   13.50
   2   6  -2   18.00   27.80
   2   6  -2   30.00   20.60
   2   6  -2   16.10   10.30
   2   6  -2   25.90   21.30
   2   6  -2   21.80   20.60
   2   6  -2   -5.00   15.80
  -2  -6   2   27.50   23.60
  -2  -6   2   15.50   12.40
  -2  -6   2   41.10   97.09
  -2  -6   2   20.90    6.80
   1   6  -2  163.68   24.40
   1   6  -2  120.69   29.20
   1   6  -2  159.88   25.00
   1   6  -2  107.59   17.00
   1   6  -2   44.60   47.90
   1   6  -2  202.48   33.20
  -1  -6   2  175.68   45.70
  -1  -6   2   50.09   43.70
  -1  -6   2   91.29   24.00
  -1  -6   2  137.29   14.20
  -1  -6   2  138.79   20.10
   0   6  -2  683.73   76.09
   0   6  -2  587.94   52.39
   0   6  -2  462.55   55.59
   0  -6   2  623.44   48.00
   0  -6   2  698.33   74.49
   0  -6   2  540.45   48.90
   0  -6   2  548.15   55.79
   0  -6   2  550.54   57.29
  -1   6  -2  -33.00   21.00
  -1   6  -2   36.80   25.60
  -1   6  -2   25.40   26.30
  -1   6  -2  -18.20   17.00
  -1   6  -2   -8.10   12.30
   1  -6   2   23.40   20.80
   1  -6   2  -10.90   18.80
   1  -6   2   19.80   55.09
   1  -6   2   58.89   34.40
   1  -6   2    4.40   39.30
   1  -6   2    8.30   11.90
  -2   6  -2  167.48   33.10
  -2   6  -2  125.59   25.20
  -2   6  -2   99.89   25.50
  -2   6  -2  261.07   63.49
  -2   6  -2   80.89   26.30
  -2   6  -2  126.59   23.10
   2  -6   2  214.48   43.30
   2  -6   2  135.59   44.50
   2  -6   2  141.89   18.90
   2  -6   2  136.39   34.10
   2  -6   2  134.19   31.50
  -3   6  -2   21.60   35.40
  -3   6  -2   17.60   26.70
  -3   6  -2    9.30   22.40
  -3   6  -2   34.00   20.20
   3  -6   2   45.30   49.60
   3  -6   2   38.40   24.90
   3  -6   2   15.60   23.20
   3  -6   2   31.30   35.20
   3  -6   2   40.90   18.00
   3  -6   2   57.79   41.50
   3  -6   2   -0.30   18.20
  -4   6  -2  165.68   79.39
  -4   6  -2  163.78   25.30
  -4   6  -2  139.49   30.60
  -4   6  -2  212.38   30.30
   4  -6   2   53.59  106.69
   4  -6   2  131.19   31.20
   4  -6   2  126.19   88.19
   4  -6   2  201.98   24.70
   4  -6   2  139.79   30.50
  -5   6  -2  169.18   22.70
  -5   6  -2  131.29   27.00
   5  -6   2  143.39   16.50
   5  -6   2  116.39   18.40
  -5  -5   2  149.99  147.49
  -5  -5   2   80.99   15.10
  -5  -5   2   60.59   14.40
   4   5  -2  185.58   30.80
   4   5  -2  206.98   26.20
   4   5  -2  302.97   28.50
   4   5  -2  291.87   59.99
   4   5  -2  247.48   29.50
   4   5  -2  291.77   37.70
   4   5  -2  234.78   29.10
  -4  -5   2  293.57   67.09
  -4  -5   2  254.07   24.40
   3   5  -2  770.92   64.19
   3   5  -2  750.02   66.59
   3   5  -2  734.93   60.79
   3   5  -2  693.83   70.29
  -3  -5   2  525.75   96.49
  -3  -5   2  674.33   77.69
  -3  -5   2  714.93   59.59
   2   5  -2  338.87   30.80
   2   5  -2  245.88   80.49
   2   5  -2  248.78   61.99
   2   5  -2  323.37   34.70
   2   5  -2  317.07   28.20
   2   5  -2  277.87   34.30
   2   5  -2  318.27   36.10
   2   5  -2  244.38   44.40
  -2  -5   2  171.28   57.69
  -2  -5   2  246.18   53.19
  -2  -5   2  269.57   29.70
  -2  -5   2  339.97   27.00
   1   5  -2  198.78   24.50
   1   5  -2  165.48   43.30
   1   5  -2  154.28   32.90
  -1  -5   2  194.08   34.90
  -1  -5   2  214.88   18.50
  -1  -5   2  213.38   28.60
  -1  -5   2  186.08   39.10
   0   5  -2 2360.26  192.48
   0   5  -2 2078.89  197.08
   0  -5   2 2733.93  189.68
   0  -5   2 2225.28  192.98
   0  -5   2 2268.97  193.18
  -1   5  -2  -13.70   39.40
  -1   5  -2   11.60   14.80
  -1   5  -2   12.40   26.80
   1  -5   2   -4.40   14.60
   1  -5   2   12.40    7.60
   1  -5   2  -11.00   18.20
   1  -5   2   11.70   27.50
  -2   5  -2  107.49   22.40
  -2   5  -2  101.39   41.80
  -2   5  -2  166.28   28.00
  -2   5  -2  129.49   32.00
  -2   5  -2  148.09   31.00
  -2   5  -2   93.79   27.80
   2  -5   2  166.28   46.90
   2  -5   2  122.69   19.30
   2  -5   2  192.98   34.00
   2  -5   2  134.19   31.00
  -3   5  -2  161.38   31.90
  -3   5  -2  110.19   23.90
  -3   5  -2  134.79   33.70
  -3   5  -2  143.99   31.10
   3  -5   2  156.18   40.20
   3  -5   2  168.48   29.10
   3  -5   2  217.38   45.40
   3  -5   2  158.68   39.50
   3  -5   2  123.09   25.90
   4  -5   2   16.20   15.50
   4  -5   2   41.50   85.59
   4  -5   2  -27.60   46.50
   4  -5   2   37.80   20.50
  -6   5  -2   63.09   19.30
  -6   5  -2   39.50   14.80
   6  -5   2   40.70    8.60
   6  -5   2   29.20    8.90
   6   4  -2   64.29   14.00
   5   4  -2  105.59   14.20
   5   4  -2  143.69   23.90
   5   4  -2   81.89   19.40
  -5  -4   2   93.79   93.19
  -5  -4   2  113.29   14.40
  -5  -4   2  116.69   22.90
   4   4  -2 1207.08  100.29
   4   4  -2 1039.80  103.49
   4   4  -2 1252.57   98.59
   4   4  -2 1160.58  114.59
   4   4  -2 1161.28  100.59
   4   4  -2 1283.07  109.59
   4   4  -2 1229.48  101.39
  -4  -4   2 1209.68  103.29
  -4  -4   2 1213.28   98.59
   3   4  -2  875.91   68.39
   3   4  -2  875.81   73.19
   3   4  -2  794.82   74.29
   3   4  -2  802.52   71.19
   3   4  -2  860.21   83.19
   3   4  -2  816.32   70.89
   3   4  -2  750.22   74.19
   3   4  -2  824.72   70.59
  -3  -4   2  759.82   81.69
  -3  -4   2  819.12   67.99
   2   4  -2   52.39   27.50
   2   4  -2   58.69   28.70
   2   4  -2    2.40   12.00
   2   4  -2    5.10   22.80
  -2  -4   2   30.90   38.20
  -2  -4   2  -62.79   42.20
  -2  -4   2   10.60    6.70
   1   4  -2  257.87   27.90
  -1  -4   2  252.47   38.90
  -1  -4   2  303.97   28.60
  -1  -4   2  273.27   23.90
  -1  -4   2  223.68   32.20
  -1  -4   2  234.28   30.40
   0   4  -2  860.61   74.59
   0   4  -2  865.41   76.39
   0   4  -2  852.21   72.99
   0   4  -2  846.52   73.79
   0  -4   2 1046.20   77.89
   0  -4   2  871.21   86.99
   0  -4   2  847.92   76.09
   0  -4   2  894.11   82.39
  -1   4  -2  425.36   54.39
  -1   4  -2  534.45   42.00
   1  -4   2  448.56   44.70
   1  -4   2  432.76   45.40
   1  -4   2  427.76   40.50
   1  -4   2  533.05   48.10
  -2   4  -2  -77.19   52.39
  -2   4  -2   17.60   11.60
   2  -4   2   23.90   15.30
   2  -4   2  -14.70   29.50
   2  -4   2   46.50   20.50
   2  -4   2   24.10   19.80
   2  -4   2   19.20   10.20
  -3   4  -2   35.80   14.80
  -3   4  -2   67.89   21.90
  -3   4  -2   36.80   34.40
  -3   4  -2    1.50   15.70
  -3   4  -2   74.69   28.60
  -3   4  -2  -36.50   60.69
   3  -4   2   35.00   19.90
   3  -4   2   78.19   31.50
   3  -4   2   34.90   13.90
   3  -4   2   58.59   19.60
   3  -4   2    4.00   24.80
   3  -4   2   69.89   69.89
  -4   4  -2   87.39   45.50
  -4   4  -2   -4.60   35.10
  -4   4  -2   50.99   32.90
  -4   4  -2   40.10   24.00
  -4   4  -2   28.10   33.00
  -4   4  -2   -0.10   24.50
   4  -4   2   26.50   19.10
   4  -4   2   88.39   37.20
   4  -4   2   93.39   76.09
   4  -4   2   45.60   15.20
   4  -4   2  153.68   71.69
  -5   4  -2  100.79   22.40
   5  -4   2   77.09   15.80
   5  -4   2   97.19   20.40
  -6   4  -2  -26.80   18.40
  -6   4  -2   27.10   13.80
   6  -4   2    6.10   10.60
   6   3  -2   35.60   12.30
   6   3  -2    6.60   10.20
  -6  -3   2   15.10   15.30
   5   3  -2   22.20    9.30
   5   3  -2    3.60   26.50
   5   3  -2   -3.30   15.20
   5   3  -2   10.50    7.70
   5   3  -2    4.40   13.30
  -5  -3   2   -3.00    9.60
  -5  -3   2    6.10   15.60
  -5  -3   2  120.69   86.79
  -5  -3   2 -146.29  106.59
   4   3  -2  165.98   43.90
   4   3  -2  152.28   32.40
   4   3  -2  172.38   23.40
   4   3  -2  188.58   38.80
   4   3  -2  157.28   22.00
   4   3  -2  148.59   24.50
   4   3  -2  133.39   25.80
   4   3  -2  109.19   40.20
  -4  -3   2  241.58   46.40
  -4  -3   2  176.38   23.00
  -4  -3   2  169.88   50.99
   3   3  -2  113.89   21.60
   3   3  -2   89.79   17.40
   3   3  -2  110.99   19.60
   3   3  -2  131.39   33.90
   3   3  -2  117.79   35.60
   3   3  -2   65.79   15.80
   3   3  -2  116.29   21.30
   3   3  -2   79.79   14.20
   3   3  -2   92.19   19.60
  -3  -3   2   58.09   20.30
  -3  -3   2   94.29   26.70
  -3  -3   2   34.60   43.70
  -3  -3   2   82.59   12.50
  -3  -3   2   64.39   76.79
   2   3  -2 1621.04  130.29
  -2  -3   2 1541.95  128.09
  -2  -3   2 1673.03  133.39
  -2  -3   2 1476.95  135.39
   1   3  -2  346.07   36.90
   1   3  -2  357.66   32.40
   1   3  -2  384.46   35.50
  -1  -3   2  320.77   30.60
  -1  -3   2  302.97   42.40
  -1  -3   2  410.16   33.60
  -1  -3   2  360.46   36.10
  -1  -3   2  437.56   34.20
   0   3  -2  366.86   33.90
   0   3  -2  287.37   27.70
   0   3  -2  288.77   29.10
   0   3  -2  296.47   29.00
   0  -3   2  327.07   32.60
   0  -3   2  296.87   30.10
   0  -3   2  356.66   26.60
   0  -3   2  337.07   30.50
  -1   3  -2   19.40   12.60
  -1   3  -2    5.60   13.70
  -1   3  -2   12.70    8.20
  -1   3  -2    7.80   16.80
   1  -3   2    5.10   12.90
   1  -3   2   16.20   12.20
   1  -3   2   -9.80   12.00
  -2   3  -2    8.20   13.90
  -2   3  -2   16.10   20.90
  -2   3  -2   16.60    9.70
  -2   3  -2   13.70    9.20
   2  -3   2  -28.80   25.20
   2  -3   2   -0.50   19.60
   2  -3   2    8.40   17.00
   2  -3   2   17.60   15.10
  -3   3  -2   37.70   17.60
  -3   3  -2  -69.49   47.80
  -3   3  -2   54.99   39.70
  -3   3  -2   25.00   15.80
  -3   3  -2   26.80   12.30
  -3   3  -2   22.50   21.10
   3  -3   2   74.69   37.80
   3  -3   2   59.59   49.00
   3  -3   2   38.60   13.10
   3  -3   2   51.89   27.00
   3  -3   2   17.20   19.60
   3  -3   2   68.39   22.90
   3  -3   2   61.09   42.40
   3  -3   2    1.80   37.80
  -4   3  -2   85.49   22.70
  -4   3  -2   94.29   20.10
  -4   3  -2   99.19   21.80
  -4   3  -2  105.99   34.50
   4  -3   2  101.59   71.79
   4  -3   2  125.09   61.69
   4  -3   2  128.29   58.29
   4  -3   2  117.59   23.50
   4  -3   2   83.19   21.00
  -5   3  -2   92.29   22.50
  -5   3  -2   64.79   25.30
   5  -3   2   78.19   32.60
   5  -3   2   50.19   13.20
   5  -3   2   91.09   22.40
  -6   3  -2  -15.50   19.30
   6  -3   2    3.00    7.70
   6  -3   2   10.30    5.80
   6   2  -2   21.10   14.90
   6   2  -2   -4.60    7.70
   6   2  -2  -11.60    9.30
  -6  -2   2   -9.60   13.80
   5   2  -2   35.70   10.50
   5   2  -2   26.40   13.10
   5   2  -2    8.50   13.70
   5   2  -2   30.00   53.19
   5   2  -2   25.40   17.20
   5   2  -2   33.20   25.10
  -5  -2   2   40.10   13.00
  -5  -2   2   92.09   73.89
  -5  -2   2    7.10   12.00
   4   2  -2   90.89   27.50
   4   2  -2   60.09   12.40
   4   2  -2   91.69   21.80
   4   2  -2   85.59   17.80
   4   2  -2   38.60   21.80
  -4  -2   2   69.49   16.80
  -4  -2   2   35.70   44.00
  -4  -2   2  106.89   49.60
   3   2  -2 2204.68  175.38
   3   2  -2 2189.18  176.08
   3   2  -2 2027.20  175.68
   3   2  -2 1857.01  179.38
   3   2  -2 2270.97  179.48
   3   2  -2 2415.46  176.48
   3   2  -2 2138.69  173.78
  -3  -2   2 2152.98  173.88
  -3  -2   2 1949.41  189.58
  -3  -2   2 2124.79  195.38
   2   2  -2 1177.68   91.29
   2   2  -2 1050.89   93.29
   2   2  -2 1145.39   94.19
  -2  -2   2  961.40   95.09
  -2  -2   2 1055.79   89.39
  -2  -2   2 1140.09   93.39
  -2  -2   2 1113.29   92.19
  -2  -2   2  986.30   95.79
  -2  -2   2 1236.48   94.49
   1   2  -2 3036.30  231.08
   1   2  -2 2925.51  229.98
  -1  -2   2 3113.59  230.18
  -1  -2   2 2697.93  229.58
  -1  -2   2 2699.53  230.48
  -1  -2   2 2561.14  230.48
   0   2  -2 4397.56  340.37
   0   2  -2 3982.20  339.77
   0   2  -2 4157.68  340.17
   0  -2   2 4503.25  340.47
   0  -2   2 4008.50  340.67
  -1   2  -2  323.57   29.60
  -1   2  -2  280.67   26.40
  -1   2  -2  327.67   25.70
  -1   2  -2  230.38   30.60
  -1   2  -2  286.07   29.00
   1  -2   2  225.38   31.10
   1  -2   2  288.37   24.40
   1  -2   2  260.47   29.30
   1  -2   2  305.07   29.00
   1  -2   2  261.97   29.00
   1  -2   2  271.37   28.20
  -2   2  -2  117.59   21.40
  -2   2  -2   99.39   15.10
  -2   2  -2  121.49   16.70
  -2   2  -2  117.29   15.90
  -2   2  -2  107.19   37.20
  -2   2  -2  129.69   22.80
  -2   2  -2  108.99   23.40
   2  -2   2  141.19   25.00
   2  -2   2  156.38   28.90
   2  -2   2  124.89   14.80
   2  -2   2  107.69   24.90
   2  -2   2  108.39   24.20
   2  -2   2  125.89   19.90
  -3   2  -2   18.60    9.40
  -3   2  -2   -8.00   16.80
  -3   2  -2  -32.10   21.10
  -3   2  -2   -0.40   40.10
  -3   2  -2   40.30   25.40
   3  -2   2   19.60   21.30
   3  -2   2   27.50   40.20
   3  -2   2   37.10   17.10
   3  -2   2   49.80   24.80
   3  -2   2   27.00   17.40
   3  -2   2   10.40   11.50
   3  -2   2   20.20   15.30
  -4   2  -2   97.59   31.80
  -4   2  -2  130.79   32.40
  -4   2  -2  115.39   20.60
  -4   2  -2  168.18   28.80
  -4   2  -2  110.19   31.20
   4  -2   2  143.89   24.80
   4  -2   2  170.08   23.60
   4  -2   2  105.99   44.50
   4  -2   2   81.49   45.50
  -5   2  -2  263.87   43.50
  -5   2  -2  276.17   38.80
  -5   2  -2  231.78   32.80
   5  -2   2  339.47   42.00
   5  -2   2  317.47   29.10
  -6   2  -2   -8.10   23.30
  -6   2  -2  -15.90   18.40
   6  -2   2  -11.00    9.20
   6  -2   2    6.50    8.50
   6   1  -2   -7.00   10.00
   6   1  -2   45.70   22.30
   6   1  -2    3.20    8.30
   6   1  -2   -4.70   10.70
  -6  -1   2    4.50   14.40
   5   1  -2    9.60   15.10
   5   1  -2    5.50   18.00
   5   1  -2   -2.90   19.20
   5   1  -2   19.90    8.20
   5   1  -2   23.90   34.50
   5   1  -2    8.20   26.80
  -5  -1   2   -1.90   10.10
  -5  -1   2  -28.80   69.69
  -5  -1   2    6.40   13.70
   4   1  -2  254.37   28.10
   4   1  -2  221.08   39.50
   4   1  -2  251.57   31.80
   4   1  -2  237.08   25.30
   4   1  -2  268.27   40.00
  -4  -1   2  190.58   67.69
  -4  -1   2  255.97   25.30
   3   1  -2 2557.24  203.08
   3   1  -2 2485.55  201.68
   3   1  -2 2687.83  201.38
   3   1  -2 2516.05  199.68
   3   1  -2 2191.98  201.28
   3   1  -2 2260.07  197.78
   3   1  -2 2559.54  199.38
  -3  -1   2 2730.73  199.78
  -3  -1   2 2158.18  209.38
  -3  -1   2 2595.14  211.98
  -3  -1   2 2419.36  197.98
  -3  -1   2 2015.90  208.98
   2   1  -2  611.84   50.99
   2   1  -2  456.25   50.39
   2   1  -2  467.55   50.59
  -2  -1   2  483.35   51.29
  -2  -1   2  579.74   51.39
  -2  -1   2  547.25   50.19
  -2  -1   2  585.94   44.70
  -2  -1   2  570.54   49.40
  -2  -1   2  482.25   49.90
   1   1  -2 5128.79  434.96
   1   1  -2 5559.54  434.76
  -1  -1   2 5857.81  435.06
  -1  -1   2 5008.10  435.06
   0   1  -2 2162.28  166.88
   0   1  -2 2190.68  167.88
   0   1  -2 1837.52  166.78
   0  -1   2 2036.10  166.98
   0  -1   2 2003.20  167.48
   0  -1   2 2153.58  166.98
  -1   1  -2 3588.54  271.47
  -1   1  -2 2915.81  271.87
  -1   1  -2 3285.97  272.77
  -1   1  -2 3450.05  274.27
  -1   1  -2 3924.51  270.97
   1  -1   2 3068.49  272.67
   1  -1   2 3453.65  270.67
   1  -1   2 3449.16  272.37
   1  -1   2 3113.69  272.77
   1  -1   2 3275.07  271.97
  -2   1  -2  326.07   39.60
  -2   1  -2  383.26   32.70
  -2   1  -2  371.36   31.40
  -2   1  -2  370.06   35.20
  -2   1  -2  429.36   44.10
  -2   1  -2  297.87   39.90
  -2   1  -2  325.57   32.40
   2  -1   2  366.06   39.60
   2  -1   2  352.46   41.40
   2  -1   2  384.46   31.40
   2  -1   2  335.57   38.40
   2  -1   2  391.36   35.20
   2  -1   2  391.46   46.80
  -3   1  -2   76.19   12.90
  -3   1  -2   63.79   19.20
  -3   1  -2   34.60   17.00
  -3   1  -2   72.39   14.80
   3  -1   2   34.40   37.40
   3  -1   2   56.29   26.90
   3  -1   2   64.59   16.70
   3  -1   2   64.79   21.70
   3  -1   2   72.29   20.20
  -4   1  -2   35.90   28.50
  -4   1  -2   61.39   33.20
  -4   1  -2  -52.69   32.00
  -4   1  -2   18.20   23.70
  -4   1  -2   28.40   27.10
  -4   1  -2   11.40   12.40
   4  -1   2   62.19   34.30
   4  -1   2   -1.70   30.00
  -5   1  -2   10.40   68.49
  -5   1  -2  -34.70   24.30
  -5   1  -2    8.30   21.20
  -5   1  -2   -2.70   26.60
   5  -1   2    5.70   15.90
   5  -1   2   -2.40   29.10
   5  -1   2    4.60   10.80
  -6   1  -2   27.90   23.30
   6  -1   2   12.30   11.30
   6  -1   2   14.60    8.50
   6   0  -2   32.10    7.90
   6   0  -2   12.50   10.90
   6   0  -2   30.80   12.50
  -6   0   2   42.20   17.30
   5   0  -2   14.10   15.00
   5   0  -2   46.40   11.80
   5   0  -2   45.90   24.00
  -5   0   2  130.89   66.49
   4   0  -2  578.44   63.59
   4   0  -2  609.44   64.39
   4   0  -2  695.03   62.09
   4   0  -2  630.84   55.69
   4   0  -2  576.04   51.49
   4   0  -2  666.93   73.09
  -4   0   2  499.65   80.09
  -4   0   2  472.55   63.59
  -4   0   2  578.94   53.99
  -4   0   2  673.63   54.99
   3   0  -2  127.79   24.50
   3   0  -2  157.68   18.60
   3   0  -2  115.79   20.70
   3   0  -2  100.49   35.40
   3   0  -2  152.38   19.00
   3   0  -2  145.09   32.90
   3   0  -2   89.79   39.10
  -3   0   2   90.89   42.90
  -2   0   2    2.40   19.40
  -2   0   2   27.50   14.80
  -2   0   2    9.30   12.20
  -2   0   2    7.70    9.50
  -2   0   2   32.20   15.50
  -2   0   2   16.00    6.60
   1   0  -2  787.62   72.39
   1   0  -2  942.71   72.49
  -1   0   2  944.51   72.69
  -1   0   2  884.21   72.69
  -1   0   2  958.00   72.89
  -1   0   2  785.62   72.49
   0   0  -2 2404.96  178.18
   0   0  -2 1931.11  176.78
   0   0   2 1886.71  176.88
   0   0   2 2356.66  179.88
   0   0   2 2213.78  176.88
   0   0   2 2358.56  177.28
  -1   0  -2   62.99   15.20
  -1   0  -2   82.79   14.70
  -1   0  -2   78.99   14.70
  -1   0  -2   77.89   15.50
   1   0   2   77.99   19.20
   1   0   2   87.29   16.20
   1   0   2   92.29   14.30
   1   0   2   57.79    8.60
   1   0   2   78.09   15.10
  -2   0  -2   30.50   12.60
  -2   0  -2    7.60   15.50
  -2   0  -2   16.20    6.40
  -2   0  -2   14.40   16.80
  -2   0  -2   15.10   22.00
  -2   0  -2   -1.90   15.50
   2   0   2   25.70   16.20
   2   0   2    9.70   14.50
   2   0   2   30.10   16.90
   2   0   2   17.60    5.70
   2   0   2   17.20   22.20
  -3   0  -2  195.98   24.90
  -3   0  -2  247.78   28.20
  -3   0  -2  208.98   20.60
  -3   0  -2  229.98   46.90
  -3   0  -2  189.48   23.70
  -3   0  -2  190.08   48.10
   3   0   2  197.48   22.10
   3   0   2  215.18   27.40
   3   0   2  195.98   31.40
   3   0   2  172.18   40.20
   3   0   2  206.28   29.60
  -4   0  -2  114.89   24.90
  -4   0  -2   85.49   15.30
  -4   0  -2   59.69   51.99
  -4   0  -2   60.99   28.00
  -4   0  -2   86.99   18.40
   4   0   2   59.59   35.70
   4   0   2   70.59   31.60
   4   0   2   56.59   31.10
  -5   0  -2  461.35   51.99
  -5   0  -2  510.75   76.39
  -5   0  -2  476.25   48.00
  -5   0  -2  530.15   48.90
   5   0   2  501.45   50.79
   5   0   2  551.24   46.10
   5   0   2  487.65   46.60
  -6   0  -2  131.39   36.00
   6   0   2   62.59   13.60
   6   0   2   84.69   11.90
   6  -1  -2    3.30   11.00
   6  -1  -2   17.40    7.80
  -6   1   2   -7.10   18.70
   5  -1  -2  236.18   27.40
   5  -1  -2  275.87   33.40
   5  -1  -2  235.48   27.60
  -5   1   2  230.08   24.50
  -5   1   2  258.77   84.39
   4  -1  -2   31.10   24.40
   4  -1  -2   17.30   29.40
   4  -1  -2   13.90    9.50
   4  -1  -2    0.20   22.40
   4  -1  -2    0.70   16.60
  -4   1   2    8.40   14.10
  -4   1   2   38.10   32.80
  -4   1   2   -5.30   32.40
   3  -1  -2  157.48   21.10
   3  -1  -2  184.08   40.00
   3  -1  -2  187.78   23.70
   3  -1  -2  197.98   36.50
   3  -1  -2  172.18   34.10
   3  -1  -2  199.58   36.30
   3  -1  -2  140.99   46.80
   3  -1  -2  203.38   29.50
  -3   1   2  171.18   18.70
  -3   1   2  238.98   33.10
  -3   1   2  144.59   26.30
  -3   1   2   56.39   49.60
  -3   1   2  191.18   28.40
  -3   1   2  159.08   43.10
  -3   1   2  145.69   22.50
   2  -1  -2    0.90   15.70
   2  -1  -2   33.30   21.10
   2  -1  -2    0.50    6.50
  -2   1   2   13.60   14.80
  -2   1   2   28.00   17.70
  -2   1   2   15.10    8.80
  -2   1   2  -11.80   15.80
   1  -1  -2 1929.61  160.18
   1  -1  -2 1996.60  160.38
   1  -1  -2 2016.70  159.68
   1  -1  -2 2026.40  160.68
   1  -1  -2 1749.43  160.08
  -1   1   2 2231.38  160.38
  -1   1   2 1990.90  160.28
  -1   1   2 1807.62  160.08
   0  -1  -2  281.07   22.90
   0  -1  -2  240.08   23.20
   0  -1  -2  287.57   23.00
   0   1   2  271.17   23.30
   0   1   2  232.38   22.60
  -1  -1  -2 4371.06  344.07
  -1  -1  -2 4094.69  342.87
  -1  -1  -2 4892.81  344.87
  -1  -1  -2 4454.05  344.17
  -1  -1  -2 4258.27  344.07
  -1  -1  -2 3865.11  344.07
   1   1   2 3787.52  342.67
   1   1   2 3973.70  344.07
   1   1   2 4278.87  344.27
   1   1   2 4530.55  344.97
  -2  -1  -2   91.09   12.60
  -2  -1  -2  115.29   19.00
  -2  -1  -2  114.99   24.10
  -2  -1  -2   79.59   19.90
  -2  -1  -2  107.89   20.10
   2   1   2   96.89   19.00
   2   1   2   92.79   21.10
   2   1   2  142.99   32.90
   2   1   2   89.49   18.80
   2   1   2   64.19   14.80
  -3  -1  -2   64.19   49.60
  -3  -1  -2   22.10   11.30
  -3  -1  -2   13.30   15.80
  -3  -1  -2   36.10   16.50
  -3  -1  -2  -21.40   37.10
  -3  -1  -2   42.90   52.29
   3   1   2   44.40   40.90
   3   1   2   30.90   22.10
   3   1   2   25.90   15.90
  -4  -1  -2 1073.09   93.99
  -4  -1  -2 1192.28   87.19
  -4  -1  -2  968.50   95.49
  -4  -1  -2 1071.69   99.49
  -4  -1  -2  864.21   95.89
  -4  -1  -2 1190.78   88.79
   4   1   2 1057.69   93.19
   4   1   2  948.81   99.69
   4   1   2 1006.60   98.59
  -5  -1  -2  708.53  119.59
  -5  -1  -2  664.13   61.59
  -5  -1  -2  649.34   78.39
  -5  -1  -2  556.84   74.59
  -5  -1  -2  750.62   59.19
   5   1   2  694.73   89.89
   5   1   2  677.33   60.59
   5   1   2  784.82   66.39
   5   1   2  667.23   58.99
   6   1   2   24.70    8.10
   6   1   2   28.40   16.40
   6   1   2   13.50    8.10
   6   1   2   49.30   12.50
   6  -2  -2   -2.70    7.70
   6  -2  -2    2.40   13.50
   6  -2  -2    8.10    7.90
   5  -2  -2   59.99   18.30
   5  -2  -2   74.99   14.90
   5  -2  -2   49.99   24.30
  -5   2   2   90.39   36.60
  -5   2   2  103.99   18.00
   4  -2  -2   51.39   28.60
   4  -2  -2   16.80   12.70
   4  -2  -2   29.40   24.00
   4  -2  -2   53.19   22.70
   4  -2  -2  -36.60   40.00
   4  -2  -2   79.59   32.50
  -4   2   2   21.20   14.80
  -4   2   2  -54.39   32.70
  -4   2   2    6.50   44.50
   3  -2  -2    3.10   38.80
   3  -2  -2   10.40   27.90
   3  -2  -2  -35.20   42.60
   3  -2  -2   16.80   10.10
   3  -2  -2   81.69   44.50
   3  -2  -2  -13.60   27.30
   3  -2  -2   28.80   22.10
  -3   2   2  -30.00   43.80
  -3   2   2   -0.50   11.40
  -3   2   2   -4.60   27.30
  -3   2   2   16.10   10.30
   2  -2  -2   87.39   18.30
   2  -2  -2   44.90   12.60
   2  -2  -2  114.79   37.30
  -2   2   2   52.99   27.00
  -2   2   2   48.10   20.60
   1  -2  -2   65.59   14.80
   1  -2  -2   56.79   10.10
   1  -2  -2   55.69   10.90
   1  -2  -2   29.00   11.40
   1  -2  -2   35.80    9.70
  -1   2   2   48.80   11.40
  -1   2   2   34.80    8.90
  -1   2   2   41.50   10.50
  -1   2   2   39.50    6.10
   0  -2  -2   79.69   11.40
   0  -2  -2   92.99   15.90
   0  -2  -2   73.09   12.60
   0  -2  -2   74.19   15.50
   0   2   2   79.39   13.80
   0   2   2   78.09   10.90
   0   2   2   80.19   13.10
  -1  -2  -2  398.06   42.40
  -1  -2  -2  430.36   38.10
  -1  -2  -2  417.66   38.20
  -1  -2  -2  349.77   39.10
   1   2   2  473.95   38.70
   1   2   2  384.56   34.60
   1   2   2  469.25   40.00
  -2  -2  -2  724.23   63.59
  -2  -2  -2  754.62   57.79
  -2  -2  -2  668.33   64.89
  -2  -2  -2  749.92   58.99
  -2  -2  -2  690.03   62.59
   2   2   2  747.13   66.59
   2   2   2  691.03   63.39
   2   2   2  634.14   64.19
   2   2   2  735.83   58.19
   2   2   2  580.44   64.29
  -3  -2  -2  158.08   47.50
  -3  -2  -2  172.18   17.50
  -3  -2  -2  178.88   32.00
  -3  -2  -2  227.08   29.00
   3   2   2  115.49   26.40
   3   2   2  152.78   34.00
   3   2   2  157.68   24.40
   3   2   2  294.77   60.79
  -4  -2  -2  156.38   30.10
  -4  -2  -2  148.99   41.40
  -4  -2  -2  232.58   29.60
  -4  -2  -2  252.57   21.90
   4   2   2  170.48   34.50
   4   2   2  193.38   45.50
   4   2   2  226.28   36.90
  -5  -2  -2 1185.08  132.99
  -5  -2  -2 1230.38  147.29
  -5  -2  -2 1344.77  120.79
   5   2   2 1582.44  115.89
   5   2   2 1454.15  117.59
   5   2   2 1460.35  116.89
   6   2   2   10.40   19.50
   6   2   2   -6.80   10.40
   6   2   2    7.60    7.60
   6   2   2   27.60   14.40
   6  -3  -2   16.30    8.10
   6  -3  -2    9.80    8.10
   6  -3  -2   36.40   13.10
   5  -3  -2   55.79   26.80
   5  -3  -2   11.00   23.30
   5  -3  -2   27.50   10.10
  -5   3   2   34.70   15.50
   4  -3  -2   24.90   11.90
   4  -3  -2    0.90   33.10
   4  -3  -2   82.99   25.30
   4  -3  -2   36.30   29.80
   4  -3  -2   90.09   30.20
   4  -3  -2   63.99   20.50
  -4   3   2   -6.50   30.20
  -4   3   2   49.40   16.40
  -4   3   2   53.99   32.50
   3  -3  -2  284.67   54.49
   3  -3  -2  288.37   36.20
   3  -3  -2  263.77   31.70
   3  -3  -2  295.37   47.90
   3  -3  -2  254.97   47.20
   3  -3  -2  370.36   49.90
   3  -3  -2  263.17   61.29
   3  -3  -2  313.27   65.19
   3  -3  -2  345.87   50.89
  -3   3   2  417.26   69.59
  -3   3   2  319.87   32.80
  -3   3   2  321.67   37.90
  -3   3   2  299.37   28.30
   2  -3  -2   -9.50   21.20
   2  -3  -2  -19.90   28.30
   2  -3  -2    7.90   19.20
   2  -3  -2   23.50   14.60
  -2   3   2    6.80    9.10
  -2   3   2   16.20   11.40
   1  -3  -2  174.18   20.60
   1  -3  -2  106.69   24.70
   1  -3  -2  144.29   25.60
  -1   3   2  158.78   21.40
  -1   3   2  121.69   19.40
  -1   3   2  147.59   14.80
  -1   3   2  163.68   26.80
   0  -3  -2 3317.57  273.77
   0  -3  -2 3178.18  272.97
   0  -3  -2 3555.54  273.17
   0  -3  -2 3070.89  271.87
   0  -3  -2 3371.26  273.27
   0   3   2 3525.35  273.97
   0   3   2 3052.99  271.17
   0   3   2 3818.22  273.37
  -1  -3  -2   26.50   25.60
  -1  -3  -2   32.80    6.10
  -1  -3  -2   19.30   10.50
  -1  -3  -2   39.70   13.80
   1   3   2   11.40   25.30
   1   3   2   23.70    5.30
   1   3   2    3.90   14.70
   1   3   2   21.70   11.80
   1   3   2   25.10   15.80
  -2  -3  -2 1231.88   93.59
  -2  -3  -2 1196.68   98.39
  -2  -3  -2 1222.38   97.99
  -2  -3  -2 1021.20  101.89
   2   3   2 1133.69  103.99
   2   3   2 1205.58   99.59
   2   3   2 1078.39   94.39
   2   3   2 1026.30  104.89
   2   3   2 1161.48  100.29
   2   3   2 1162.88   93.79
  -3  -3  -2  154.68   35.10
  -3  -3  -2  132.19   40.70
  -3  -3  -2  181.18   54.79
  -3  -3  -2  137.39   18.40
   3   3   2  196.88   26.90
   3   3   2  167.88   30.50
   3   3   2  167.78   70.09
   3   3   2  210.68   23.00
   3   3   2  162.98   32.20
   3   3   2  176.78   25.90
  -4  -3  -2   34.20   30.40
  -4  -3  -2  -11.40   28.90
  -4  -3  -2   34.10   32.70
  -4  -3  -2   15.60   11.80
  -4  -3  -2   27.70   15.50
   4   3   2   31.50   17.20
   4   3   2   17.20   15.70
   4   3   2   36.40   44.80
   4   3   2    0.20   15.30
   4   3   2   92.19   42.00
  -5  -3  -2  -24.20   51.79
  -5  -3  -2   56.19   25.10
   5   3   2   80.29   22.60
   5   3   2   88.09   69.39
   5   3   2   62.69   18.00
   6   3   2   10.80   10.00
   6   3   2    8.10    9.50
   6   3   2   -6.50    6.90
   6   3   2   31.20   19.00
   6  -4  -2   32.10    8.20
   6  -4  -2   33.50   11.90
  -6   4   2  124.59   39.30
   5  -4  -2   -6.90   27.10
   5  -4  -2   13.80   15.90
   5  -4  -2  -22.70   29.50
  -5   4   2   16.40   17.50
   4  -4  -2  176.68   24.90
   4  -4  -2  212.78   37.50
   4  -4  -2  234.78   30.90
   4  -4  -2  254.57   44.10
   4  -4  -2  279.27   42.80
   4  -4  -2  133.19   36.60
  -4   4   2  203.48   27.70
  -4   4   2  232.08   37.40
   3  -4  -2   63.39   26.20
   3  -4  -2   63.09   36.30
   3  -4  -2  105.69   22.80
   3  -4  -2  117.39   27.80
   3  -4  -2  126.99   68.39
   3  -4  -2   52.29   16.20
   3  -4  -2  -42.40   55.49
  -3   4   2   78.19   13.90
  -3   4   2   75.39   16.90
  -3   4   2   39.30   19.60
   2  -4  -2   50.29   19.20
  -2   4   2   26.90   28.80
  -2   4   2   41.00    8.80
  -2   4   2   22.50   13.30
  -2   4   2   32.50   14.40
  -2   4   2   52.49   37.20
   1  -4  -2   36.00   17.80
   1  -4  -2   27.60   17.30
  -1   4   2   25.00   14.60
  -1   4   2   12.70   11.70
   0  -4  -2 2504.85  211.48
   0  -4  -2 2608.64  213.08
   0  -4  -2 2442.66  213.18
   0  -4  -2 2516.55  213.48
   0  -4  -2 2447.85  210.28
   0  -4  -2 2597.64  213.28
   0   4   2 2704.23  211.48
   0   4   2 2984.10  214.08
   0   4   2 2794.82  213.18
   0   4   2 2412.86  210.18
  -1  -4  -2   63.69   15.40
  -1  -4  -2   60.29   20.40
  -1  -4  -2   71.59   10.90
  -1  -4  -2   72.79   16.20
  -1  -4  -2   81.49   17.20
  -1  -4  -2   84.49   37.40
   1   4   2   86.19   21.40
   1   4   2   35.40   16.50
   1   4   2   59.59   10.90
   1   4   2   79.19   21.50
  -2  -4  -2  484.95   49.30
  -2  -4  -2  408.76   39.90
  -2  -4  -2  494.25   40.80
  -2  -4  -2  452.95   57.29
   2   4   2  480.75   41.40
   2   4   2  410.66   62.99
   2   4   2  546.25   49.40
   2   4   2  474.55   55.09
   2   4   2  494.35   62.49
  -3  -4  -2  339.57   32.40
  -3  -4  -2  337.47   29.60
  -3  -4  -2  354.36   76.49
  -3  -4  -2  369.26   44.30
   3   4   2  294.97   32.20
   3   4   2  304.57   35.10
   3   4   2  338.87   45.30
   3   4   2  384.26   69.39
   3   4   2  408.46   88.49
   3   4   2  380.26   49.70
  -4  -4  -2   49.30   49.60
  -4  -4  -2    8.70   33.90
  -4  -4  -2   -4.60   14.40
  -4  -4  -2   27.90   33.70
  -4  -4  -2   -6.80   20.50
   4   4   2    3.10   11.90
   4   4   2    6.70   14.90
   4   4   2   70.09   49.40
   4   4   2    7.70   20.80
   4   4   2   11.10   14.80
  -5  -4  -2  347.47   34.60
  -5  -4  -2  347.17   52.79
  -5  -4  -2  274.97   31.90
  -5  -4  -2  256.97  156.08
   5   4   2  268.07   31.50
   5   4   2  316.37   28.80
   5   4   2  328.47   33.90
   6   4   2   -5.20    9.00
   6   4   2   -4.00    6.50
   5  -5  -2   69.99   14.70
  -5   5   2   22.50   26.40
  -5   5   2  119.29   25.90
   4  -5  -2   49.30   26.30
   4  -5  -2   28.20   16.20
   4  -5  -2   60.09   60.69
   4  -5  -2   63.19   26.20
  -4   5   2   60.79   24.80
  -4   5   2  -11.20   44.20
  -4   5   2   40.20   21.80
   3  -5  -2  207.08   58.89
   3  -5  -2  199.78   37.20
   3  -5  -2  200.48   43.80
   3  -5  -2  279.57   50.19
  -3   5   2  202.08   45.50
  -3   5   2  189.68   33.60
  -3   5   2  195.18   22.40
   2  -5  -2   23.40   32.30
   2  -5  -2  -20.10   28.90
   2  -5  -2    5.80   23.60
   2  -5  -2   29.20   35.00
   2  -5  -2   18.50   21.00
  -2   5   2    2.00   12.60
  -2   5   2   -3.70   10.10
  -2   5   2 -101.79   78.69
  -2   5   2  -43.60   40.00
   1  -5  -2 1322.17  122.99
   1  -5  -2 1585.24  127.39
  -1   5   2 1456.85  124.19
  -1   5   2 1483.35  117.99
  -1   5   2 1398.06  118.49
   0  -5  -2 1429.96  109.59
   0  -5  -2 1266.17  115.29
   0  -5  -2 1233.98  111.39
   0  -5  -2 1254.37  115.89
   0  -5  -2 1327.47  113.49
   0   5   2 1330.77  110.99
   0   5   2 1439.46  115.49
   0   5   2 1423.26  116.69
  -1  -5  -2   23.50   20.40
  -1  -5  -2   17.70   14.10
  -1  -5  -2   28.80   18.30
  -1  -5  -2   31.70   14.50
  -1  -5  -2   42.80   26.00
   1   5   2   23.00   21.80
   1   5   2    2.80   29.10
   1   5   2   31.10   24.20
   1   5   2   19.90   25.30
  -2  -5  -2   77.49   13.90
  -2  -5  -2   71.19   22.20
  -2  -5  -2   61.39   10.30
  -2  -5  -2   84.29   44.50
  -2  -5  -2   35.40   20.90
   2   5   2   42.20   23.10
   2   5   2   64.69   15.50
   2   5   2   39.90   46.20
   2   5   2   43.50   40.20
  -3  -5  -2   31.20   27.30
  -3  -5  -2   27.10   12.50
  -3  -5  -2    3.10   28.10
  -3  -5  -2    2.20    8.30
  -3  -5  -2  -18.10   25.00
   3   5   2    8.10    9.60
   3   5   2   35.20   18.80
   3   5   2   18.70   21.80
   3   5   2  -16.40   17.70
   3   5   2  -10.30   14.30
   3   5   2  -73.09  119.09
  -4  -5  -2    3.60   16.70
  -4  -5  -2   21.20   40.20
  -4  -5  -2   35.60   15.40
  -4  -5  -2   26.40   24.60
   4   5   2    0.80   10.60
   4   5   2  -25.80   21.10
   4   5   2   -3.30   18.00
   4   5   2   87.59   59.79
   4   5   2  -89.99   53.59
  -5  -5  -2  -64.69  101.19
  -5  -5  -2   24.90   20.10
  -5  -5  -2    6.30   17.20
   5   5   2   44.80  108.39
   5   5   2   41.50   12.40
   5   5   2   57.89   15.00
   5   5   2   20.00   15.70
  -6  -5  -2   61.19   12.40
   6   5   2   60.89   12.70
   6   5   2   65.49    7.70
   5  -6  -2  152.78   19.60
   5  -6  -2  198.58   30.50
   5  -6  -2  136.69   17.10
  -5   6   2  182.28   24.30
  -5   6   2  131.29   30.10
  -5   6   2  162.88   31.20
   4  -6  -2   44.80   35.20
   4  -6  -2   10.70   15.80
   4  -6  -2  -19.60   22.40
   4  -6  -2   12.30   22.90
  -4   6   2   70.29   47.40
  -4   6   2   13.80   20.70
   3  -6  -2  167.98   35.50
   3  -6  -2  307.37   61.69
   3  -6  -2  209.18   31.00
   3  -6  -2  265.87   45.40
   3  -6  -2  284.77   40.90
   3  -6  -2  213.08   63.99
  -3   6   2  240.08   39.10
  -3   6   2  263.97   29.40
   2  -6  -2   31.40   17.10
   2  -6  -2   15.60   16.80
   2  -6  -2   14.00   23.80
   2  -6  -2   21.30   33.70
   2  -6  -2   -0.10   36.60
   2  -6  -2  146.09   65.49
   2  -6  -2    7.20   64.29
  -2   6   2   17.30    9.80
  -2   6   2  -16.00   27.80
  -2   6   2   -6.80   12.90
  -2   6   2   -2.90   18.20
   1  -6  -2  996.20   91.89
   1  -6  -2 1092.89  149.88
   1  -6  -2 1109.09   96.39
   1  -6  -2 1166.18   97.79
   1  -6  -2 1156.58  103.19
   1  -6  -2 1193.48   99.09
  -1   6   2 1148.69  104.69
  -1   6   2  917.01   92.09
  -1   6   2 1058.49   90.49
  -1   6   2 1207.48   95.09
   0  -6  -2  250.27   31.60
   0  -6  -2  192.18   33.10
   0  -6  -2  146.89   27.00
   0   6   2  215.68   25.80
   0   6   2  133.19   39.00
   0   6   2  172.58   23.30
   0   6   2  202.88   19.70
  -1  -6  -2   27.00   10.30
  -1  -6  -2    1.40   24.60
  -1  -6  -2    4.70   23.60
  -1  -6  -2   55.29   40.20
  -1  -6  -2   21.30    8.70
   1   6   2  -67.49   43.40
   1   6   2   83.39   39.70
   1   6   2    9.50   13.60
   1   6   2   15.00   10.30
   1   6   2   39.90   26.50
  -2  -6  -2  413.76   76.69
  -2  -6  -2  469.45   37.80
  -2  -6  -2  440.76   55.39
  -2  -6  -2  412.16   36.50
   2   6   2  578.04   83.89
   2   6   2  346.67   84.09
   2   6   2  396.16   37.30
   2   6   2  359.56   40.40
  -3  -6  -2   -7.00   32.20
  -3  -6  -2   -0.80   15.60
  -3  -6  -2  -18.60   33.20
  -3  -6  -2  -23.00   24.10
  -3  -6  -2   -7.60    9.00
   3   6   2   32.20   45.30
  -4  -6  -2  152.08   88.29
  -4  -6  -2    8.40   43.30
  -4  -6  -2   45.40   26.80
   4   6   2   48.50   49.00
   4   6   2    2.60   72.49
   4   6   2   57.99   15.20
   4   6   2   17.80   30.50
  -5  -6  -2   37.20   20.10
  -5  -6  -2   32.40   24.80
  -5  -6  -2   12.30   75.89
   5   6   2   79.99   89.99
  -6  -6  -2   33.80    7.20
   6   6   2   28.60   10.50
   6   6   2   35.10    7.20
   5  -7  -2   16.90   17.20
   5  -7  -2   37.90   16.40
   5  -7  -2   24.00    8.70
  -5   7   2   -8.70   16.00
   4  -7  -2   88.99   18.30
   4  -7  -2  124.89   35.00
   4  -7  -2  165.98   34.30
  -4   7   2  128.09   24.00
  -4   7   2   99.09   24.00
   3  -7  -2   35.30   28.10
   3  -7  -2   45.30   30.70
   3  -7  -2   18.30   18.60
   3  -7  -2    1.90   74.89
  -3   7   2   38.30   15.90
  -3   7   2    6.40   13.30
  -3   7   2    5.50   24.60
  -3   7   2    2.20   33.00
   2  -7  -2   10.20   34.50
   2  -7  -2   69.69   27.40
   2  -7  -2   23.40   42.60
   2  -7  -2   38.30   32.80
   2  -7  -2  -11.30   16.80
   2  -7  -2   -0.40   35.10
  -2   7   2  -13.50   18.20
  -2   7   2   23.90   26.00
  -2   7   2  -12.20   36.00
  -2   7   2  -38.50   43.40
  -2   7   2    8.20   14.00
   1  -7  -2  258.17   29.90
   1  -7  -2  176.28   65.99
   1  -7  -2  219.18   27.10
   1  -7  -2  267.77   43.40
   1  -7  -2  259.97   42.00
  -1   7   2  223.18   34.10
  -1   7   2  240.38   24.10
  -1   7   2  289.47   46.30
  -1   7   2  206.58   26.00
   0  -7  -2  420.76   86.39
   0  -7  -2  485.15   49.00
   0  -7  -2  473.75   47.70
   0  -7  -2  504.05   54.39
   0  -7  -2  521.35   49.80
   0  -7  -2  525.95   53.69
   0  -7  -2  510.65   65.19
   0   7   2  448.26   83.99
   0   7   2  484.25   48.30
   0   7   2  441.06   43.90
  -1  -7  -2  363.26   74.69
  -1  -7  -2  417.56   46.80
  -1  -7  -2  472.35   45.50
  -1  -7  -2  510.05   68.69
  -1  -7  -2  430.76   49.99
  -1  -7  -2  478.55   42.80
   1   7   2  410.56   40.70
   1   7   2  423.36   39.60
   1   7   2  353.66   53.89
   1   7   2  475.95   52.79
   1   7   2  467.75   48.50
  -2  -7  -2   78.49   37.30
  -2  -7  -2  105.79   20.30
  -2  -7  -2  143.69   15.70
  -2  -7  -2  129.39   20.80
  -2  -7  -2  135.79   22.90
  -2  -7  -2   81.19   39.30
   2   7   2  116.19  111.89
   2   7   2  165.98   45.50
   2   7   2  120.79   18.80
   2   7   2  151.18   29.20
   2   7   2  123.59   17.10
  -3  -7  -2   79.89   15.80
  -3  -7  -2   86.39   50.99
  -3  -7  -2   10.80   43.00
  -3  -7  -2   68.59   17.80
  -3  -7  -2  118.69   24.10
   3   7   2  -11.80   58.99
   3   7   2   70.39   14.80
   3   7   2   92.59   18.90
   3   7   2   42.70   44.90
  -4  -7  -2   38.10   14.50
  -4  -7  -2   16.90   27.10
  -4  -7  -2  -66.59   70.59
   4   7   2   38.70   26.70
   4   7   2   44.90   10.20
   4   7   2   40.40   91.09
   4   7   2   55.29   14.60
  -5  -7  -2   22.90   21.00
  -5  -7  -2   15.80    9.80
  -5  -7  -2    0.10   89.29
   5   7   2    6.50    7.30
   5   7   2    1.10   12.20
   5  -8  -2   25.90   24.20
   5  -8  -2    4.20   10.90
   5  -8  -2   43.90   26.10
   5  -8  -2    8.10    8.20
  -5   8   2   16.60   14.00
   4  -8  -2   22.90   20.60
   4  -8  -2   24.30   22.20
   4  -8  -2   73.89   32.00
  -4   8   2   65.19   20.50
   3  -8  -2   65.49   83.19
   3  -8  -2  284.27  103.89
  -3   8   2   -7.70   40.30
   2  -8  -2   -8.60   65.39
   2  -8  -2  -13.80   46.00
   2  -8  -2   18.30   34.10
   2  -8  -2   21.80   25.50
   2  -8  -2   13.00   18.50
   2  -8  -2   38.20   21.30
  -2   8   2    8.10   26.30
  -2   8   2   -1.70   17.80
  -2   8   2  -23.80   26.70
  -2   8   2   20.80   22.60
   1  -8  -2  458.35   68.19
   1  -8  -2  546.15   73.09
   1  -8  -2  462.05   61.19
   1  -8  -2  406.66   43.00
  -1   8   2  493.55   53.99
  -1   8   2  369.86   49.70
  -1   8   2  405.96   40.00
  -1   8   2  451.35   57.99
  -1   8   2  512.85   52.09
   0  -8  -2  660.73   75.09
   0  -8  -2  584.74   58.49
   0  -8  -2  618.24   79.59
   0  -8  -2  687.43   55.09
   0  -8  -2  473.95   83.09
   0  -8  -2  597.34   53.19
   0  -8  -2  674.03   92.49
   0  -8  -2  643.74   70.79
   0  -8  -2  549.45   55.79
   0   8   2  542.35   51.79
   0   8   2  706.53   58.09
   0   8   2  521.55   52.89
   0   8   2  547.45   57.89
   0   8   2  630.04   57.49
  -1  -8  -2   14.60   61.89
  -1  -8  -2  -78.69   78.09
  -1  -8  -2    2.20   14.00
  -1  -8  -2  -21.10   20.50
  -1  -8  -2    7.40   16.20
  -1  -8  -2   31.00   12.90
   1   8   2   16.90   14.70
   1   8   2   49.60   62.29
   1   8   2   -2.50   30.80
   1   8   2   33.70   24.40
  -2  -8  -2  206.08   24.60
  -2  -8  -2  194.48   23.00
  -2  -8  -2  114.89   59.49
  -2  -8  -2  110.09   53.99
   2   8   2  181.78   20.20
   2   8   2  164.68   34.10
   2   8   2   63.29   81.99
   2   8   2  156.68   30.30
  -3  -8  -2  262.57   66.09
  -3  -8  -2  396.56   35.60
  -3  -8  -2  386.66   34.80
  -3  -8  -2  485.55  113.69
  -3  -8  -2  307.47   34.00
   3   8   2  395.46   33.60
   3   8   2  226.28   89.79
   3   8   2  291.67   44.30
   3   8   2  347.97   45.70
  -4  -8  -2  -12.90   89.29
  -4  -8  -2    3.30   12.00
  -4  -8  -2 -269.17  184.08
   4   8   2   12.40   16.20
   4   8   2   19.00    9.00
  -5  -8  -2   24.10    7.00
   5   8   2   36.10    7.20
   4  -9  -2   76.29   14.30
   4  -9  -2  103.69   21.90
   4  -9  -2   95.69   18.70
  -4   9   2   79.19   17.10
   3  -9  -2   98.59  134.69
   3  -9  -2  -29.10   24.80
   3  -9  -2    1.30   16.30
   3  -9  -2   -2.80   21.00
  -3   9   2   27.00   26.80
  -3   9   2  199.68  107.09
   2  -9  -2   38.90   31.80
   2  -9  -2   53.99   25.50
   2  -9  -2   40.60   16.50
   2  -9  -2   26.10   95.69
   2  -9  -2  107.99   65.29
   2  -9  -2   37.40   15.70
  -2   9   2   29.70   20.20
  -2   9   2   61.79   25.60
  -2   9   2   46.60   44.70
  -2   9   2    8.50   27.50
   1  -9  -2   15.70   18.90
   1  -9  -2   49.10   29.30
   1  -9  -2   76.79   51.89
   1  -9  -2   35.80   46.30
   1  -9  -2   49.30   15.60
  -1   9   2   20.30   22.50
  -1   9   2   14.60   18.20
  -1   9   2   12.10   26.80
  -1   9   2   41.60   22.80
  -1   9   2   62.89   31.30
  -1   9   2   27.00   29.80
   0  -9  -2   29.80   15.50
   0  -9  -2   12.20   24.40
   0  -9  -2    3.70   12.50
   0  -9  -2  -47.00   42.00
   0  -9  -2  -30.30   33.20
   0   9   2    6.10   25.10
   0   9   2   71.69   39.70
   0   9   2  -13.50   18.00
   0   9   2   50.79   26.10
   0   9   2   -2.40   18.20
  -1  -9  -2  477.35   50.49
  -1  -9  -2  629.84   50.09
  -1  -9  -2  530.35   52.39
  -1  -9  -2  659.53   53.39
  -1  -9  -2  410.56   97.79
  -1  -9  -2  528.85   79.29
   1   9   2  595.14   54.29
   1   9   2  568.84   55.59
   1   9   2  539.05   49.00
  -2  -9  -2  794.82  181.78
  -2  -9  -2  526.55   43.60
  -2  -9  -2  439.56   47.80
   2   9   2  363.56   54.99
   2   9   2  526.75   47.40
   2   9   2  475.25   42.90
   2   9   2  439.66   49.80
  -3  -9  -2  127.89   73.79
  -3  -9  -2  167.98   19.70
  -3  -9  -2  154.68   25.70
  -3  -9  -2  106.89   20.80
   3   9   2  120.39   27.00
   3   9   2  141.99   16.70
  -4  -9  -2   20.90   31.90
  -4  -9  -2   22.40   10.90
  -4  -9  -2   27.10   43.30
   4   9   2   13.30   11.00
   4   9   2    0.20   18.80
   5   9   2   -0.60    6.00
   5   9   2   11.20    5.90
   4 -10  -2  -14.80    9.90
   4 -10  -2    3.80   10.30
   3 -10  -2   25.00   11.40
   3 -10  -2  117.19  144.99
  -3  10   2   36.70   26.00
  -3  10   2   72.69   31.70
  -3  10   2   67.69   33.40
   2 -10  -2  -38.40   21.90
   2 -10  -2   13.60   13.60
  -2  10   2  112.39   54.19
  -2  10   2    6.00   28.80
  -2  10   2   28.20   20.00
   1 -10  -2   95.49   32.50
   1 -10  -2   55.39   15.50
   1 -10  -2  165.18   68.99
   1 -10  -2   19.90   19.20
  -1  10   2   78.79   26.50
  -1  10   2   66.69   19.40
  -1  10   2   35.10   41.10
   0 -10  -2    5.30   19.50
   0 -10  -2   42.90   80.39
   0 -10  -2  -13.30   13.40
   0  10   2   28.00   19.30
   0  10   2   17.00   16.80
   0  10   2   10.10   23.60
  -1 -10  -2   -8.30   21.60
  -1 -10  -2   -3.70   12.00
  -1 -10  -2   36.30   34.80
  -1 -10  -2   86.89   83.09
  -1 -10  -2   14.40   22.40
   1  10   2   -9.90   20.90
   1  10   2   20.40   25.30
  -2 -10  -2  660.13   57.69
  -2 -10  -2  599.04  114.69
  -2 -10  -2  651.93   54.39
   2  10   2  535.85   62.59
   2  10   2  667.83   57.59
   2  10   2  596.44   53.29
   2  10   2  623.44   54.39
  -3 -10  -2  143.29   97.69
  -3 -10  -2   44.10   22.00
  -3 -10  -2   46.90   12.70
   3  10   2   40.30   11.90
   3  10   2   30.30   17.90
  -4 -10  -2    5.50    6.50
   4  10   2   18.10    8.10
   4  10   2    4.70    8.80
   4  10   2    8.50   15.40
   3 -11  -2   -6.60   14.80
   3 -11  -2   -2.30    6.70
  -3  11   2    8.50   22.20
  -3  11   2    8.50   10.00
  -3  11   2   -6.10   15.40
   2 -11  -2  127.79  113.69
   2 -11  -2   11.30   17.40
   2 -11  -2   27.00   19.10
   2 -11  -2   10.10   31.10
  -2  11   2   -6.50   22.10
  -2  11   2   18.10   20.10
   1 -11  -2 -112.99  104.49
   1 -11  -2   37.70   14.00
  -1  11   2    7.60   17.10
  -1  11   2    7.70   18.00
   0 -11  -2   93.49   15.50
   0 -11  -2   64.59   18.20
   0 -11  -2   94.79   25.30
   0  11   2   47.70   25.80
   0  11   2   67.79   18.60
   0  11   2   77.09   46.40
  -1 -11  -2   87.49   15.90
  -1 -11  -2   46.90   20.90
   1  11   2   24.30   15.70
   1  11   2   59.29   17.50
  -2 -11  -2    8.40   12.10
   2  11   2   -1.80   27.00
  -3 -11  -2  170.08   20.60
   3  11   2  193.38   20.70
  -4 -11  -2   -2.80    5.50
   4  11   2   12.00   22.10
   4  11   2    4.20    9.10
   2 -12  -2   13.40    9.50
   2 -12  -2   12.10   14.90
  -2  12   2  -22.50   14.70
  -2  12   2   35.20   17.80
  -2  12   2    0.10   11.40
   1 -12  -2  -22.60   66.89
   1 -12  -2   13.70   13.20
   1 -12  -2    5.50   13.90
   1 -12  -2   31.50   15.80
  -1  12   2   20.20   18.10
  -1  12   2   -0.40   14.70
   0 -12  -2   46.00   17.20
   0 -12  -2  -56.59   66.99
   0  12   2   30.20   21.00
   0  12   2   32.00   17.50
   0  12   2   48.30   21.70
  -1 -12  -2   -0.80   11.20
  -1 -12  -2   10.40   21.90
   1  12   2   32.20   13.30
  -2 -12  -2   90.99   22.90
  -2 -12  -2  116.99   15.40
  -2 -12  -2  110.59   22.30
   2  12   2  136.49   15.10
   2  12   2  134.29   20.10
  -3 -12  -2   58.89   24.70
   3  12   2   -8.60   13.10
   3  12   2   11.90    8.70
   1 -13  -2   46.10   15.00
   1 -13  -2   35.40   11.30
  -1  13   2   31.90   12.40
  -1  13   2   66.09   13.70
   0 -13  -2   48.50   17.10
   0 -13  -2   45.10   13.50
   0 -13  -2   51.29   19.00
   0  13   2   50.79   16.70
  -1 -13  -2   49.40   17.30
  -1 -13  -2   36.90   12.20
  -1 -13  -2    8.30   12.70
   1  13   2   16.60    9.90
   1  13   2    4.50   13.50
   1  13   2   25.20   17.40
  -2 -13  -2  284.57   30.30
  -2 -13  -2  179.48   28.00
  -2 -13  -2  223.38   21.70
   2  13   2  223.08   21.20
   1  13  -3   26.10   12.10
   1  13  -3   46.80   10.10
   1  13  -3   52.29   11.10
  -1 -13   3   33.60   12.40
   0  13  -3   11.10    8.90
   0  13  -3    1.70   12.90
   0  13  -3  -21.30   27.20
   0  13  -3   29.30   12.80
   0 -13   3   20.50   11.70
  -1  13  -3   20.10   13.80
  -1  13  -3   20.10    7.40
   1 -13   3   39.00   20.20
   1 -13   3    4.10   11.50
   2  12  -3    2.50    6.80
   2  12  -3   33.00   21.60
   2  12  -3    3.70   10.30
  -2 -12   3   -6.70   23.20
  -2 -12   3   19.90   13.70
   1  12  -3   -4.10   10.20
   1  12  -3   12.20   14.80
   1  12  -3   -3.30   10.20
  -1 -12   3   20.60   17.20
  -1 -12   3   29.60   13.20
  -1 -12   3   10.30   19.00
   0  12  -3    6.70   18.10
   0  12  -3   21.90   11.00
   0  12  -3   46.80   15.60
   0 -12   3   23.90   24.20
   0 -12   3   34.70   13.10
   0 -12   3   11.30   20.20
  -1  12  -3   12.80    9.30
  -1  12  -3   58.69   26.10
  -1  12  -3   32.50   15.20
  -1  12  -3   24.50   10.70
   1 -12   3   10.40   12.60
  -2  12  -3   -1.90    8.10
  -2  12  -3  -10.40   10.30
   2 -12   3    6.50   16.10
   2 -12   3    1.00   11.60
   3  11  -3    3.10   16.80
  -3 -11   3   19.60   20.70
  -3 -11   3   39.80   20.30
   2  11  -3   14.60    7.90
   2  11  -3   13.50   10.70
   2  11  -3   -3.20   12.00
  -2 -11   3   -5.60   16.40
  -2 -11   3    6.40   16.40
  -2 -11   3   11.70  113.19
   1  11  -3   79.59   27.70
  -1 -11   3    6.20   81.89
  -1 -11   3   25.50   12.70
   0  11  -3   73.89   21.70
   0  11  -3   60.59   13.50
   0 -11   3  238.88  199.58
   0 -11   3   44.90   15.70
   0 -11   3   39.10   26.20
  -1  11  -3   49.90   18.70
   1 -11   3   11.60   73.49
   1 -11   3  -14.30   17.50
   1 -11   3   -3.00   15.30
  -2  11  -3   78.49   16.30
  -2  11  -3   45.10   11.00
   2 -11   3   46.10   21.20
  -3  11  -3  108.09   13.60
   3 -11   3  102.19   25.70
   3 -11   3  115.69   17.90
   3 -11   3  139.89   27.80
   4  10  -3  -26.10   20.50
  -4 -10   3  -15.40   12.40
   3  10  -3   95.99   16.10
   3  10  -3  109.29   16.00
   3  10  -3   72.39   22.00
   3  10  -3   82.99   23.90
   3  10  -3  106.19   18.00
  -3 -10   3  118.09   23.20
  -3 -10   3    0.00   85.69
  -3 -10   3   82.49   15.60
   2  10  -3    8.50   19.30
   2  10  -3   23.50   19.30
   2  10  -3    0.80   15.10
  -2 -10   3  -99.89   86.59
  -2 -10   3   -3.30   14.20
  -2 -10   3    6.30   14.30
   1  10  -3  214.48   50.79
   1  10  -3  246.28   35.70
   1  10  -3  270.27   26.20
   1  10  -3  253.17   33.00
  -1 -10   3  265.57   25.80
   0  10  -3   20.10   14.70
   0  10  -3    1.20   18.60
   0  10  -3   33.70   26.00
   0  10  -3   39.60   19.10
   0 -10   3   41.30  164.48
   0 -10   3   67.59   25.10
   0 -10   3   41.80   93.39
   0 -10   3  154.78   97.39
  -1  10  -3  387.96   39.00
  -1  10  -3  374.96   43.50
  -1  10  -3  382.56   41.60
  -1  10  -3  328.27   33.80
  -1  10  -3  285.17   36.40
   1 -10   3  460.75  103.99
   1 -10   3  401.36   86.19
   1 -10   3  295.77   32.70
   1 -10   3  323.47   44.10
  -2  10  -3  277.27   28.10
  -2  10  -3  230.48   28.40
   2 -10   3  495.25  176.98
   2 -10   3  241.68   35.30
   3 -10   3   33.90   12.90
   3 -10   3    0.00   22.00
   3 -10   3   32.00   17.30
   3 -10   3   21.80  167.18
  -4  10  -3   -9.30    9.60
  -4  10  -3   22.20   15.40
  -4  10  -3   -0.60   13.40
   4 -10   3    8.10    7.30
   4 -10   3  -24.30   17.80
   4   9  -3   45.10   18.80
   4   9  -3   19.10   15.30
   4   9  -3   33.70    7.30
  -4  -9   3   44.30   12.50
  -4  -9   3   34.40   11.40
  -4  -9   3   31.60   13.00
   3   9  -3  218.38   32.80
   3   9  -3  194.18   25.10
  -3  -9   3  215.38   22.30
  -3  -9   3  113.99  101.09
   2   9  -3  561.64   49.90
   2   9  -3  551.94   45.30
   2   9  -3  472.25   51.69
   2   9  -3  499.95   49.99
  -2  -9   3  426.36   87.99
  -2  -9   3  348.17  102.69
  -2  -9   3  467.75   43.20
   1   9  -3   95.39   22.70
   1   9  -3   92.39   23.00
  -1  -9   3   77.49   13.60
  -1  -9   3  -25.50  164.08
   0   9  -3   11.80   24.60
   0   9  -3   11.90   28.10
   0   9  -3   10.90   24.00
   0   9  -3   -2.50   25.70
   0  -9   3   -3.00    9.30
   0  -9   3   78.59   65.39
   0  -9   3   18.30   92.79
   0  -9   3   33.90   23.50
  -1   9  -3  323.67   43.40
  -1   9  -3  378.26   38.20
  -1   9  -3  365.16   46.00
  -1   9  -3  469.95   46.40
   1  -9   3  379.56   38.40
   1  -9   3  364.96   35.10
   1  -9   3  429.36   51.59
   1  -9   3  525.55   93.79
  -2   9  -3   24.60   14.50
  -2   9  -3    0.30   21.10
  -2   9  -3   12.20   22.50
  -2   9  -3    8.00   29.60
   2  -9   3   46.60   31.20
   2  -9   3  -21.00   56.59
   2  -9   3  100.99   49.40
   2  -9   3   84.29   84.99
  -3   9  -3    7.90   14.80
  -3   9  -3   43.70   21.00
   3  -9   3  -76.49   80.59
   3  -9   3   -6.50   32.80
   3  -9   3   18.20   11.60
  -4   9  -3   45.20   16.20
   4  -9   3   43.10   15.60
   4  -9   3   73.29   27.90
   4   8  -3   12.20   24.50
   4   8  -3   -6.30   15.20
   4   8  -3  -15.60   15.70
  -4  -8   3    5.80   14.10
  -4  -8   3    1.50  101.89
  -4  -8   3  -10.30   13.80
  -4  -8   3   17.30   13.70
   3   8  -3  119.09   15.90
   3   8  -3  204.28   45.70
   3   8  -3  146.59   20.10
   3   8  -3  135.29   26.50
   3   8  -3  123.69   22.30
  -3  -8   3  122.59  123.89
  -3  -8   3  120.49   15.60
  -3  -8   3   91.09   54.19
   2   8  -3  145.59   26.00
   2   8  -3  214.88   24.60
   2   8  -3  216.58   37.10
   2   8  -3  152.48   57.09
   2   8  -3  123.49   31.80
  -2  -8   3  152.48   32.10
  -2  -8   3  182.58   17.30
  -2  -8   3  156.78   25.50
  -2  -8   3  107.99   47.60
   1   8  -3   35.00   16.10
   1   8  -3   42.00   20.90
   1   8  -3   17.50   24.80
   1   8  -3   77.39   21.50
   1   8  -3   19.10   40.90
  -1  -8   3   48.10   12.80
  -1  -8   3  -15.30   82.79
  -1  -8   3   36.90   47.40
   0   8  -3   30.70   24.10
   0   8  -3   22.60   27.60
   0   8  -3    9.40   13.30
   0  -8   3    1.10   42.90
   0  -8   3   -4.50   16.60
   0  -8   3   -3.10   11.50
  -1   8  -3   28.80   17.20
  -1   8  -3   29.00   19.10
  -1   8  -3   69.19   26.50
   1  -8   3   17.20   14.00
   1  -8   3   59.19   43.30
   1  -8   3   35.90   22.20
   1  -8   3   13.10   41.30
  -2   8  -3    9.60   46.00
  -2   8  -3   -8.30   14.70
  -2   8  -3   61.19   34.50
  -2   8  -3  -38.00   22.10
  -2   8  -3  -13.20   28.50
   2  -8   3  -11.80   13.50
   2  -8   3  -68.79   49.50
   2  -8   3   60.89   38.70
   2  -8   3   70.09   32.40
   2  -8   3   27.20   18.90
   2  -8   3   55.59   55.19
  -3   8  -3  535.25  112.59
  -3   8  -3  687.23   62.29
  -3   8  -3  737.93   86.19
   3  -8   3  760.52   68.79
   3  -8   3  691.73   64.49
   3  -8   3  800.12   74.69
   3  -8   3  675.13   66.69
   3  -8   3  772.02  109.99
  -4   8  -3   29.50   15.50
  -4   8  -3    4.40   24.20
   4  -8   3   35.50   29.10
   4  -8   3   35.30  146.09
  -5   8  -3   53.89   11.70
   5  -8   3   31.60    9.90
   5  -8   3   25.70   12.90
   5   7  -3    5.00   13.60
   5   7  -3   64.89   27.80
   5   7  -3   32.10   10.30
   4   7  -3   88.79   19.50
   4   7  -3  110.79   29.70
   4   7  -3   61.89   15.10
  -4  -7   3  106.69   14.70
  -4  -7   3   88.19   74.89
  -4  -7   3   76.09   15.10
   3   7  -3   63.99   27.70
   3   7  -3   -6.80   14.40
   3   7  -3   33.60   17.60
   3   7  -3   39.70   42.00
   3   7  -3    7.20   10.20
   3   7  -3    8.30   12.50
   3   7  -3   22.80   57.49
  -3  -7   3   19.60   16.10
  -3  -7   3  -35.40  113.39
  -3  -7   3   -1.50   10.00
  -3  -7   3  -56.09   46.30
   2   7  -3   15.20   18.30
   2   7  -3    2.70   15.00
   2   7  -3    0.60   20.40
   2   7  -3  -11.80   20.00
   2   7  -3   23.80   10.50
   2   7  -3   13.40   49.50
  -2  -7   3   18.10   12.90
  -2  -7   3  -44.80   37.10
  -2  -7   3    2.00   11.90
   1   7  -3   19.70   13.90
   1   7  -3   12.00   26.90
   1   7  -3  -22.60   22.20
   1   7  -3   23.00   26.80
   1   7  -3  -17.10   19.80
  -1  -7   3    2.20   32.50
  -1  -7   3  -34.90   36.40
  -1  -7   3    6.30    9.70
  -1  -7   3   -9.50   12.00
  -1  -7   3  -39.60   65.89
   0   7  -3   -0.40   22.00
   0   7  -3   10.40   27.30
   0   7  -3  -16.60   23.10
   0   7  -3   46.20   29.60
   0   7  -3    1.00   21.50
   0   7  -3    4.20   15.30
   0  -7   3   10.60   34.00
   0  -7   3   -3.40    7.50
   0  -7   3   -0.50   15.10
  -1   7  -3  138.79   24.50
  -1   7  -3  196.28   33.60
  -1   7  -3   89.99   24.30
  -1   7  -3  152.48   30.40
  -1   7  -3  162.68   36.70
   1  -7   3  117.89   35.40
   1  -7   3  141.49   22.30
   1  -7   3  159.68   40.10
   1  -7   3  131.99   21.70
  -2   7  -3  391.76   52.39
  -2   7  -3  475.15   50.29
  -2   7  -3  433.46   44.80
  -2   7  -3  487.85   58.29
   2  -7   3  559.94   64.39
   2  -7   3  437.46   42.20
   2  -7   3  539.45   64.39
   2  -7   3  446.26   46.10
  -3   7  -3  231.78   36.80
  -3   7  -3  238.28   48.00
  -3   7  -3  218.38   29.50
   3  -7   3  266.57   81.79
   3  -7   3  195.48   30.90
   3  -7   3  187.78   32.70
   3  -7   3  194.18   32.00
   3  -7   3  231.78   49.80
   3  -7   3  193.18   65.99
  -4   7  -3   11.00   15.20
  -4   7  -3   14.40   29.70
  -4   7  -3   18.80   18.50
   4  -7   3   -0.60   27.20
   4  -7   3   20.50   15.80
   4  -7   3  -39.80  114.29
  -5   7  -3  100.89   12.40
  -5   7  -3   81.29   16.40
   5  -7   3   98.69   14.00
   5  -7   3   72.29   15.10
   5   6  -3   50.09   25.80
   5   6  -3   -7.30   11.90
   5   6  -3    8.00   12.70
  -5  -6   3    5.50   11.30
   4   6  -3   88.59   13.00
   4   6  -3   90.39   16.10
   4   6  -3   93.99   21.40
  -4  -6   3  206.38  167.38
  -4  -6   3  108.89   20.80
  -4  -6   3   97.79   14.80
  -4  -6   3   38.90   71.89
   3   6  -3   51.59   20.70
   3   6  -3   17.20   15.50
   3   6  -3   50.79   11.70
   3   6  -3   98.99   45.50
   3   6  -3   25.60   14.10
   3   6  -3   19.30   33.50
   3   6  -3   31.90   24.60
  -3  -6   3   88.99   54.69
  -3  -6   3   40.50   15.50
  -3  -6   3  -56.59   45.00
   2   6  -3  230.08   40.90
   2   6  -3  250.37   35.30
   2   6  -3  286.97   41.70
   2   6  -3  235.18   49.90
   2   6  -3  260.97   26.70
   2   6  -3  289.97   30.30
   2   6  -3  265.67   37.80
  -2  -6   3  299.37   24.50
  -2  -6   3  276.87   31.40
   1   6  -3   42.00   31.00
   1   6  -3   62.99   22.80
   1   6  -3   50.69   14.00
   1   6  -3   45.40   11.00
   1   6  -3   26.80   26.30
   1   6  -3   22.30   18.40
  -1  -6   3   44.80    9.70
  -1  -6   3   95.59   52.99
  -1  -6   3   23.30   23.70
   0   6  -3   35.40   16.90
   0   6  -3   75.59   43.80
   0   6  -3   75.09   21.50
   0   6  -3   49.99   27.00
   0  -6   3   39.90   14.00
   0  -6   3   36.00    9.10
   0  -6   3   20.90   42.10
   0  -6   3   37.90   24.00
   0  -6   3   68.89   22.30
   0  -6   3  -44.00   54.99
  -1   6  -3  141.09   28.60
  -1   6  -3  126.69   39.50
  -1   6  -3  156.18   28.00
  -1   6  -3   42.80   49.90
  -1   6  -3   83.79   22.00
  -1   6  -3  121.29   19.20
   1  -6   3  104.29   15.70
   1  -6   3   74.89   53.89
   1  -6   3   63.19  107.59
   1  -6   3   95.79   25.60
  -2   6  -3  819.52   75.19
  -2   6  -3  897.51  186.28
  -2   6  -3  906.81   74.39
  -2   6  -3  737.13   76.09
  -2   6  -3  773.12   71.09
  -2   6  -3  808.42   74.69
   2  -6   3  936.91   80.69
   2  -6   3  794.22   68.79
   2  -6   3  693.43   78.79
   2  -6   3  828.62   70.29
   2  -6   3  805.92   85.79
  -3   6  -3   -3.90   29.20
  -3   6  -3    0.70   22.50
  -3   6  -3   20.80   15.10
  -3   6  -3   62.59   39.70
   3  -6   3  -31.10   21.30
   3  -6   3   -9.10   46.50
   3  -6   3  -15.10   23.20
   3  -6   3  -18.20   25.70
   3  -6   3   -6.80   47.10
   3  -6   3    7.60   29.40
  -4   6  -3   34.00   23.40
  -4   6  -3  -16.40   33.20
  -4   6  -3   -0.10   15.00
   4  -6   3  133.19  118.59
   4  -6   3   69.79   30.30
   4  -6   3    1.20   17.30
   4  -6   3   -0.80   91.49
  -5   6  -3   67.89   15.80
   5  -6   3   56.29   14.90
   5  -6   3   43.10   13.60
   5   5  -3   92.69   12.10
   5   5  -3   90.69   28.10
   5   5  -3   83.59   19.60
  -5  -5   3   74.99   13.90
  -5  -5   3   54.89   22.60
   4   5  -3   -0.30   21.30
   4   5  -3   -3.10   12.90
   4   5  -3    5.80   17.90
   4   5  -3   27.40   14.90
   4   5  -3   31.30   12.80
   4   5  -3  117.99   87.49
  -4  -5   3  -27.10   63.29
  -4  -5   3    5.60   10.50
  -4  -5   3  -57.09   99.09
   3   5  -3  375.76   45.30
   3   5  -3  376.26   37.70
   3   5  -3  341.57   34.50
   3   5  -3  308.37   37.00
  -3  -5   3  337.87   36.30
  -3  -5   3  396.36   60.49
  -3  -5   3  350.46   31.40
  -3  -5   3  271.97   59.99
   2   5  -3  591.54   57.89
   2   5  -3  660.23   56.39
   2   5  -3  643.04   58.89
   2   5  -3  564.74   57.09
   2   5  -3  565.84   52.09
   2   5  -3  622.74   54.29
  -2  -5   3  620.74   51.09
  -2  -5   3  635.44   96.99
  -2  -5   3  651.53   69.09
   1   5  -3   34.40   13.10
   1   5  -3    7.70   37.40
   1   5  -3   47.40   27.90
  -1  -5   3   17.90    5.90
  -1  -5   3   17.50   14.20
  -1  -5   3  -28.90   28.00
  -1  -5   3   24.80   33.30
   0   5  -3  743.13   67.69
   0  -5   3  611.94   56.59
   0  -5   3  689.13   54.99
   0  -5   3  664.73   61.69
   0  -5   3  769.52   69.19
   0  -5   3  523.95   68.19
  -1   5  -3  -17.00   36.80
  -1   5  -3   -1.30   26.10
   1  -5   3    9.40   17.30
   1  -5   3   11.60   22.30
   1  -5   3    9.10   12.50
   1  -5   3   22.30    9.00
  -2   5  -3  186.98   34.50
  -2   5  -3  192.68   28.00
  -2   5  -3  196.78   40.00
  -2   5  -3  205.18   45.70
  -2   5  -3  198.88   36.20
  -2   5  -3  310.97   69.49
  -2   5  -3  289.87   90.39
   2  -5   3  240.98   45.20
   2  -5   3  177.68   21.90
   2  -5   3  243.48   26.10
   2  -5   3  171.38   55.49
   2  -5   3  316.27   62.09
  -3   5  -3   52.29   31.50
   3  -5   3   80.29   20.50
   3  -5   3   36.20   37.40
   3  -5   3   47.30   40.90
   3  -5   3   38.30   29.40
   3  -5   3  131.29   34.70
   3  -5   3  100.39   22.20
   3  -5   3   73.39   20.10
  -4   5  -3   20.20   16.00
  -4   5  -3   25.40   40.00
  -4   5  -3   71.59   20.60
   4  -5   3  104.79   93.29
   4  -5   3  -50.59   84.99
   4  -5   3   37.30   19.20
   4  -5   3   89.69   41.40
   4  -5   3   33.10   16.50
  -5   5  -3   29.30   25.70
   5  -5   3   -1.10   14.70
   5  -5   3   57.19   28.60
  -5  -4   3   55.39   11.90
   4   4  -3   65.29   14.60
   4   4  -3  130.09   49.60
   4   4  -3   84.69   15.50
   4   4  -3   15.50   25.40
   4   4  -3   72.99   19.40
   4   4  -3   56.99   17.10
   4   4  -3   62.39   20.30
  -4  -4   3   30.60   19.30
  -4  -4   3   16.10   55.49
  -4  -4   3   65.79   12.70
   3   4  -3  463.95   47.90
   3   4  -3  415.06   39.40
   3   4  -3  341.67   36.50
   3   4  -3  413.96   43.30
   3   4  -3  372.66   57.89
   3   4  -3  424.76   61.19
   3   4  -3  413.26   40.40
  -3  -4   3  496.75   61.29
  -3  -4   3  457.25   58.09
  -3  -4   3  363.46   34.80
   2   4  -3  273.37   34.30
   2   4  -3  334.17   32.30
   2   4  -3  237.78   42.40
   2   4  -3  308.67   32.90
   2   4  -3  332.07   35.00
  -2  -4   3  323.37   43.60
  -2  -4   3  297.67   26.90
  -2  -4   3  332.87   71.29
   1   4  -3   41.60   18.00
   1   4  -3   18.50   11.90
  -1  -4   3    6.00   16.10
  -1  -4   3   20.20   16.00
  -1  -4   3   30.30   21.30
  -1  -4   3   27.00   19.30
   0   4  -3   48.40   17.50
   0   4  -3   74.09   17.80
   0   4  -3   50.69   10.00
   0  -4   3   49.10    8.50
   0  -4   3   83.59   19.60
   0  -4   3   65.89   17.00
   0  -4   3   53.29   15.30
   0  -4   3   53.99   19.80
  -1   4  -3   12.90   10.40
  -1   4  -3   32.60   21.40
  -1   4  -3    6.40   24.10
   1  -4   3   12.20   17.60
   1  -4   3   16.40    7.20
   1  -4   3  -17.00   16.40
  -2   4  -3  333.37   33.90
  -2   4  -3  415.86   37.80
  -2   4  -3  328.97   44.60
   2  -4   3  374.96   40.90
   2  -4   3  376.86   40.80
   2  -4   3  336.47   65.99
   2  -4   3  316.07   31.90
  -3   4  -3  266.37   36.30
  -3   4  -3  286.37   42.40
  -3   4  -3  382.66   39.50
  -3   4  -3  442.36   80.99
   3  -4   3  320.87   53.69
   3  -4   3  351.66   38.80
   3  -4   3  329.47   32.90
   3  -4   3  357.76   35.60
   3  -4   3  292.77   40.10
   3  -4   3  449.86   56.59
  -4   4  -3   79.69   23.70
  -4   4  -3   15.00   16.20
  -4   4  -3   49.20   54.39
  -4   4  -3  115.09   30.90
   4  -4   3  -20.00   42.90
   4  -4   3   58.99   66.19
   4  -4   3   45.10   20.10
   4  -4   3   -4.50   72.49
   4  -4   3   22.90   19.10
  -5   4  -3   26.00   20.80
  -5   4  -3  -33.50   24.20
   5  -4   3   -2.90   13.30
   5  -4   3   -1.10   16.10
  -6   4  -3    2.80    9.20
   6  -4   3   -4.10   10.30
   6  -4   3    5.50    5.60
   6   3  -3   22.60   10.20
   6   3  -3   26.80   12.30
  -6  -3   3   24.20   21.80
   5   3  -3   63.99   27.80
   5   3  -3   12.50   13.30
   5   3  -3    6.70   15.40
  -5  -3   3   -5.50   19.20
   4   3  -3   33.30   34.40
   4   3  -3   21.00   17.00
   4   3  -3   -3.20   18.80
   4   3  -3   11.70   10.90
   4   3  -3   12.50   14.40
   4   3  -3    1.30   42.20
   4   3  -3   17.40   25.50
   4   3  -3   10.80   13.60
  -4  -3   3   -3.80   57.49
  -4  -3   3   15.80   27.00
  -4  -3   3   18.20    9.20
  -4  -3   3   33.70   70.49
   3   3  -3  242.78   29.90
   3   3  -3  264.97   22.70
   3   3  -3  168.98   29.10
   3   3  -3  230.18   26.00
   3   3  -3  210.48   41.90
   3   3  -3  212.28   30.40
   3   3  -3  205.18   29.00
   3   3  -3  220.78   30.90
  -3  -3   3  112.69   75.49
  -3  -3   3  234.68   21.70
   2   3  -3   -2.40   10.50
  -2  -3   3    7.00    6.50
  -2  -3   3   42.80   28.60
  -1  -3   3  173.98   22.40
  -1  -3   3  188.08   22.40
  -1  -3   3  190.48   25.70
  -1  -3   3  171.38   19.30
  -1  -3   3  217.68   27.60
   0   3  -3  582.64   47.50
   0  -3   3  562.44   51.29
   0  -3   3  533.65   49.99
   0  -3   3  607.64   46.10
   0  -3   3  515.75   49.20
  -1   3  -3  720.23   69.69
  -1   3  -3  815.12   63.99
  -1   3  -3  818.22   67.19
   1  -3   3  687.03   66.09
  -2   3  -3  204.78   39.90
  -2   3  -3  214.38   23.40
  -2   3  -3  220.98   37.90
   2  -3   3  179.28   23.90
   2  -3   3  246.58   31.30
   2  -3   3  213.48   43.90
   2  -3   3  225.88   25.60
   2  -3   3  239.08   45.80
  -3   3  -3  238.48   45.00
  -3   3  -3  138.19   28.70
  -3   3  -3  130.59   26.80
  -3   3  -3  184.38   31.80
  -3   3  -3  146.89   65.39
   3  -3   3  169.78   33.00
   3  -3   3  159.18   25.10
   3  -3   3  257.07   44.10
   3  -3   3  135.79   53.59
   3  -3   3  126.09   59.59
   3  -3   3  190.28   37.40
   3  -3   3  184.58   46.10
   3  -3   3  186.28   20.90
  -4   3  -3  226.58   48.70
  -4   3  -3  170.28   30.00
  -4   3  -3  164.98   49.40
  -4   3  -3  116.79   23.00
   4  -3   3  116.99   23.10
   4  -3   3  161.08   25.80
   4  -3   3  218.38   37.70
   4  -3   3  106.29   67.39
  -5   3  -3  143.19   23.60
  -5   3  -3   98.69   27.90
   5  -3   3  157.08   23.20
   5  -3   3  155.78   37.10
   5  -3   3  142.59   19.60
  -6   3  -3  186.08   18.60
  -6   3  -3  205.18   21.80
   6  -3   3  150.48   18.80
   6  -3   3  139.29   17.40
   6   2  -3   -0.90   16.10
   6   2  -3   19.30   10.80
  -6  -2   3   13.60   16.50
   5   2  -3    5.60   15.80
   5   2  -3   18.60   13.30
   5   2  -3   18.20   15.70
   5   2  -3   13.20   14.60
   5   2  -3   12.80   26.20
  -5  -2   3   18.50   15.10
  -5  -2   3   68.39   92.59
  -5  -2   3    4.30   17.20
   4   2  -3  417.86   35.00
   4   2  -3  375.06   44.80
   4   2  -3  351.06   35.60
   4   2  -3  284.47   42.30
   4   2  -3  437.96   61.79
   4   2  -3  288.47   48.20
   4   2  -3  376.56   37.90
  -4  -2   3  322.77   70.29
  -4  -2   3  324.27   46.40
  -4  -2   3  271.57   55.59
   3   2  -3   48.80   18.50
   3   2  -3   44.90   17.00
   3   2  -3   57.19   26.60
   3   2  -3   35.90   18.40
   3   2  -3   60.89   33.20
   3   2  -3   49.10   35.00
  -3  -2   3   31.10   97.39
  -3  -2   3   49.00   29.10
  -3  -2   3   98.59   28.90
   2   2  -3  880.21   77.39
   2   2  -3  979.60   79.59
  -2  -2   3  925.51   82.09
  -2  -2   3 1023.30   80.69
  -2  -2   3  932.11   79.89
  -2  -2   3  793.52   78.49
   1   2  -3  600.54   55.99
  -1  -2   3  654.33   54.59
  -1  -2   3  685.23   54.49
  -1  -2   3  590.84   53.29
   0   2  -3  135.19   16.50
   0   2  -3   98.19   13.80
   0   2  -3  113.69   12.50
   0  -2   3   93.09   14.10
   0  -2   3  110.69   16.50
  -1   2  -3  234.28   24.50
  -1   2  -3  223.38   30.60
  -1   2  -3  211.48   25.60
  -1   2  -3  257.27   21.40
   1  -2   3  205.88   32.50
   1  -2   3  179.88   25.20
   1  -2   3  199.58   24.40
   1  -2   3  233.48   26.00
   1  -2   3  221.88   29.70
  -2   2  -3   -1.80   18.20
  -2   2  -3   16.70   10.90
  -2   2  -3   42.80   14.20
  -2   2  -3   27.90    9.10
   2  -2   3    4.50   18.00
   2  -2   3   16.90   23.50
   2  -2   3   20.10   27.30
  -3   2  -3   16.80   18.30
  -3   2  -3   29.60   14.10
  -3   2  -3   87.59   45.20
  -3   2  -3   23.50   18.50
  -3   2  -3   48.40   16.60
   3  -2   3   23.90   12.20
   3  -2   3   25.40   18.40
   3  -2   3  -22.90   36.30
   3  -2   3   -1.60   28.00
   3  -2   3   38.40   25.20
   3  -2   3   15.50   54.29
  -4   2  -3   25.80   22.90
  -4   2  -3  -19.60   27.10
  -4   2  -3    9.10   19.40
  -4   2  -3  -23.40   21.40
  -4   2  -3   31.00   40.00
   4  -2   3  -37.50   39.40
   4  -2   3   28.30   26.90
   4  -2   3  -53.29  103.39
   4  -2   3   -3.40   17.60
   4  -2   3    9.20   14.30
   4  -2   3   46.20   56.09
  -5   2  -3  441.26   49.90
  -5   2  -3  429.86   43.50
   5  -2   3  423.86   43.60
   5  -2   3  531.45   43.00
  -6   2  -3   77.29   15.50
  -6   2  -3   43.30   16.60
   6  -2   3   51.29    9.60
   6  -2   3   60.69   13.00
   6  -2   3   58.39   21.00
   6   1  -3   24.80   15.10
   6   1  -3   16.00    7.60
  -6  -1   3   26.50   16.40
   5   1  -3    9.30   22.50
   5   1  -3   15.70   13.20
   5   1  -3    6.70   13.90
   5   1  -3   53.59   25.50
   5   1  -3   -0.80   26.00
   5   1  -3   16.80   15.00
  -5  -1   3    2.20   11.60
  -5  -1   3   20.50   12.80
   4   1  -3  112.39   17.80
   4   1  -3  119.79   20.70
   4   1  -3   89.29   18.70
   4   1  -3  140.49   31.90
  -4  -1   3   75.49   54.59
   3   1  -3  607.34   58.99
   3   1  -3  704.73   65.69
   3   1  -3  665.53   57.39
   3   1  -3  680.23   63.19
   3   1  -3  590.44   58.09
  -3  -1   3  682.53   85.19
  -3  -1   3  672.53   63.09
   2   1  -3 2582.54  215.88
  -2  -1   3 2517.95  219.48
  -2  -1   3 2601.44  217.18
  -2  -1   3 2592.54  217.28
  -2  -1   3 2918.71  214.98
  -2  -1   3 2693.93  216.88
   1   1  -3  916.11   75.59
   0   1  -3 4145.69  323.97
   0   1  -3 4261.57  325.17
   0  -1   3 3557.64  323.67
   0  -1   3 4081.69  324.87
  -1   1  -3  394.06   42.60
  -1   1  -3  478.65   39.70
  -1   1  -3  387.76   39.70
  -1   1  -3  504.15   36.20
  -1   1  -3  420.56   38.60
   1  -1   3  417.36   36.90
   1  -1   3  448.66   40.50
   1  -1   3  345.77   44.30
   1  -1   3  397.36   39.90
   1  -1   3  447.86   39.80
   1  -1   3  442.86   36.40
  -2   1  -3  297.37   39.90
  -2   1  -3  317.87   35.10
  -2   1  -3  273.17   27.90
  -2   1  -3  293.57   28.40
  -2   1  -3  283.37   26.40
   2  -1   3  283.17   60.89
   2  -1   3  288.07   39.70
   2  -1   3  265.57   31.40
   2  -1   3  226.68   39.30
  -3   1  -3  189.98   27.70
  -3   1  -3  178.38   25.20
  -3   1  -3  169.48   30.70
  -3   1  -3  134.49   26.20
  -3   1  -3  221.28   33.30
  -3   1  -3  185.68   45.70
  -3   1  -3  180.68   23.40
   3  -1   3  163.58   45.50
   3  -1   3  139.49   33.50
   3  -1   3  175.68   20.10
   3  -1   3  226.08   27.40
  -4   1  -3  573.44   79.19
  -4   1  -3  573.54   65.29
  -4   1  -3  578.44   55.99
   4  -1   3  670.03   58.79
   4  -1   3  623.24  110.09
   4  -1   3  532.35   68.39
   4  -1   3  684.73   63.29
  -5   1  -3  607.34   81.39
  -5   1  -3  633.04   58.09
  -5   1  -3  562.04   59.19
   5  -1   3  567.74   60.29
   5  -1   3  650.03   56.49
   5  -1   3  695.73   54.89
  -6   1  -3   21.20   15.70
  -6   1  -3   66.79   22.70
   6  -1   3   34.90    8.50
   6  -1   3    6.80   17.30
   6   0  -3   27.60   11.60
   6   0  -3   18.30    8.20
   6   0  -3   16.90   30.00
  -6   0   3   28.10   25.80
   5   0  -3  -11.90   14.60
   5   0  -3   18.30   16.80
   5   0  -3   -3.00   26.50
   5   0  -3  -21.70   18.40
   5   0  -3    2.90   10.10
   5   0  -3   75.29   30.00
  -5   0   3   51.49   71.99
   4   0  -3   75.29   20.90
   4   0  -3  118.89   27.20
   4   0  -3  166.98   29.30
   4   0  -3  123.09   28.90
  -4   0   3  119.19   20.80
  -4   0   3   56.29   37.90
   3   0  -3  454.65   50.09
   3   0  -3  394.66   39.40
   3   0  -3  492.15   42.50
   3   0  -3  444.46   44.50
   3   0  -3  488.55   51.09
   3   0  -3  459.15   47.70
   3   0  -3  460.35   44.90
  -3   0   3  408.96   41.00
  -3   0   3  459.15   39.00
  -3   0   3  585.04  125.69
  -3   0   3  517.35   69.69
  -3   0   3  384.46   47.30
  -2   0   3  368.36   29.80
  -2   0   3  324.37   34.70
  -2   0   3  324.87   37.70
  -2   0   3  328.37   37.70
  -2   0   3  370.56   34.40
   1   0  -3  200.18   24.00
   1   0  -3  196.68   19.80
  -1   0   3  232.08   20.20
   0   0  -3 5360.46  463.45
   0   0   3 6057.69  463.95
   0   0   3 5788.72  462.35
  -1   0  -3   86.09   18.60
  -1   0  -3   65.99   14.10
  -1   0  -3   92.59   19.30
  -1   0  -3   78.89   15.90
  -1   0  -3   63.69   11.70
  -1   0  -3   91.79   17.00
   1   0   3   65.79   12.80
   1   0   3   97.79    9.50
   1   0   3   89.09   19.00
   1   0   3   91.29   17.10
   1   0   3   62.19   13.30
  -2   0  -3    1.70   10.30
  -2   0  -3   10.90    9.60
  -2   0  -3    6.70   17.30
  -2   0  -3   -3.80    7.50
  -2   0  -3    4.90   12.90
  -2   0  -3    2.30   10.80
   2   0   3   -8.00   16.80
   2   0   3   13.20   14.70
   2   0   3  -20.70   21.30
   2   0   3    7.90    5.70
  -3   0  -3   50.19   16.80
  -3   0  -3   16.10   11.00
  -3   0  -3   25.60   30.40
  -3   0  -3   -3.90   13.60
  -3   0  -3   17.70   33.80
  -3   0  -3   41.70   34.30
  -3   0  -3   38.90   39.50
   3   0   3  -23.20   50.09
   3   0   3   11.20    9.80
   3   0   3   17.10   20.90
  -4   0  -3  774.72   69.09
  -4   0  -3  779.12   85.59
  -4   0  -3  794.82   77.39
   4   0   3  830.62   86.59
  -5   0  -3  -10.80   16.90
  -5   0  -3   49.90   25.90
  -5   0  -3   18.50   40.40
   5   0   3  -28.00   57.19
   5   0   3    8.00   11.40
   5   0   3   41.20   21.60
   5   0   3    5.10   15.30
  -6   0  -3  104.49   21.70
   6   0   3   84.89   11.70
   6   0   3   61.59   17.40
   6   0   3   74.49   13.40
   6  -1  -3   32.00   11.40
   6  -1  -3   37.90   12.10
  -6   1   3   79.39   22.50
   5  -1  -3   49.60   26.60
  -5   1   3   96.99   73.59
   4  -1  -3   79.99   24.80
   4  -1  -3   49.40   20.40
   4  -1  -3  125.59   33.60
   4  -1  -3   93.79   27.40
   4  -1  -3   55.69   14.40
   4  -1  -3  108.39   25.00
  -4   1   3   64.99   37.90
  -4   1   3  170.68   63.49
  -4   1   3   81.99   18.40
   3  -1  -3  101.99   23.30
   3  -1  -3  108.99   21.90
   3  -1  -3  103.39   24.20
   3  -1  -3   90.39   17.80
   3  -1  -3  115.79   29.30
   3  -1  -3  109.89   43.30
   3  -1  -3  125.99   27.10
   3  -1  -3  128.59   28.40
  -3   1   3  191.88   42.20
  -3   1   3  103.09   15.30
   2  -1  -3 1377.56  104.59
  -2   1   3 1052.89  105.09
  -2   1   3 1341.77  103.39
  -2   1   3 1385.16  107.09
  -2   1   3 1187.58  104.79
   1  -1  -3   56.19    9.70
   1  -1  -3   71.69   15.20
  -1   1   3   76.39   12.10
  -1   1   3   65.29   15.30
   0  -1  -3 2208.18  164.18
   0  -1  -3 1899.91  165.08
   0   1   3 1825.32  164.08
   0   1   3 1816.72  163.68
   0   1   3 2378.46  166.18
  -1  -1  -3  166.28   21.90
  -1  -1  -3  178.08   20.30
  -1  -1  -3  182.48   20.30
  -1  -1  -3  202.98   24.70
   1   1   3  174.38   24.80
   1   1   3  165.38   23.30
   1   1   3  197.78   21.40
   1   1   3  145.79   15.30
  -2  -1  -3  284.17   31.70
  -2  -1  -3  293.07   25.70
  -2  -1  -3  261.07   38.70
  -2  -1  -3  341.57   40.30
  -2  -1  -3  328.27   36.80
   2   1   3  289.87   25.60
   2   1   3  240.78   45.50
   2   1   3  268.87   35.20
   2   1   3  284.57   37.70
  -3  -1  -3  166.98   52.69
  -3  -1  -3  164.98   21.10
  -3  -1  -3  226.18   33.50
  -3  -1  -3  225.38   29.40
  -3  -1  -3  185.98   25.40
   3   1   3  202.98   21.70
   3   1   3  305.87   61.09
  -4  -1  -3  131.19   24.10
  -4  -1  -3  126.49   19.50
  -4  -1  -3  150.98   37.30
  -4  -1  -3  136.29   30.50
  -4  -1  -3  146.79   46.60
  -4  -1  -3  169.28   47.10
   4   1   3   86.59   40.70
  -5  -1  -3   82.79   49.50
  -5  -1  -3   52.09   17.30
  -5  -1  -3  -49.90   68.49
  -5  -1  -3   52.79   24.10
   5   1   3   -9.40   48.60
   5   1   3   23.10   14.90
   5   1   3   10.30   24.50
   6   1   3  374.76   36.40
   6   1   3  373.56   36.80
   6   1   3  328.87   33.50
   6   1   3  424.36   33.10
   6  -2  -3   28.50   12.70
   6  -2  -3    8.70   11.60
   5  -2  -3   45.10   16.30
   5  -2  -3   12.70   23.70
  -5   2   3   32.20   15.20
   4  -2  -3   22.80   12.10
   4  -2  -3   48.50   33.30
   4  -2  -3   15.10   24.20
   4  -2  -3   13.40   22.50
   4  -2  -3   28.50   25.30
   4  -2  -3   39.60   18.30
   4  -2  -3    4.90   38.10
  -4   2   3   -5.30   15.00
  -4   2   3   37.70   33.80
  -4   2   3   70.09   41.40
   3  -2  -3   47.20   22.00
   3  -2  -3   60.89   32.70
   3  -2  -3   63.19   37.00
   3  -2  -3   59.79   25.10
   3  -2  -3   71.39   25.60
   3  -2  -3   49.60   13.00
   3  -2  -3   87.89   26.00
  -3   2   3   68.39   15.10
  -3   2   3  116.19   49.50
  -3   2   3   56.89   10.80
  -3   2   3   23.20   15.10
   2  -2  -3  224.78   31.60
  -2   2   3  161.68   38.10
  -2   2   3  250.37   22.50
  -2   2   3  305.77   34.60
   1  -2  -3   47.90   15.60
   1  -2  -3   49.30   12.80
   1  -2  -3   63.79   12.70
  -1   2   3   34.80    8.00
  -1   2   3   40.70   10.30
  -1   2   3   44.50    8.30
  -1   2   3   54.59   12.40
   0  -2  -3   25.90    9.00
   0  -2  -3   29.60   10.10
   0  -2  -3   21.20   10.80
   0   2   3   15.80    3.80
   0   2   3   24.20    6.70
  -1  -2  -3   55.09   13.70
  -1  -2  -3   55.59   14.00
  -1  -2  -3   38.10   13.00
  -1  -2  -3   43.80   10.80
   1   2   3   23.50   12.00
   1   2   3   34.40   14.00
   1   2   3   37.40    6.80
   1   2   3   31.70   15.70
   1   2   3   51.79   18.30
  -2  -2  -3   88.79   24.50
  -2  -2  -3  122.19   20.60
  -2  -2  -3  144.79   14.30
  -2  -2  -3  107.19   22.70
  -2  -2  -3  115.09   21.10
  -2  -2  -3   84.19   24.40
   2   2   3  161.08   32.40
   2   2   3  119.29   25.00
   2   2   3  134.99   24.00
   2   2   3  113.99   23.60
  -3  -2  -3  205.28   25.50
  -3  -2  -3  218.88   29.80
  -3  -2  -3  141.19   33.60
  -3  -2  -3  189.18   50.09
  -3  -2  -3  163.98   18.50
  -3  -2  -3  158.88   28.80
   3   2   3  208.98   19.70
   3   2   3  172.28   25.00
   3   2   3   61.89   62.29
   3   2   3  213.58   28.80
   3   2   3  172.68   28.20
   3   2   3  107.59   46.90
  -4  -2  -3  336.77   30.70
  -4  -2  -3  328.67   39.70
  -4  -2  -3  380.26   63.49
  -4  -2  -3  333.27   68.09
  -4  -2  -3  333.27   44.30
   4   2   3  348.87   36.80
   4   2   3  284.17   32.70
   4   2   3  269.77   55.09
  -5  -2  -3  262.67   56.19
  -5  -2  -3  475.95  107.59
  -5  -2  -3  300.77   30.20
   5   2   3  235.28   32.70
   5   2   3  284.37   28.00
   5   2   3  225.98   28.20
   5   2   3  238.48   71.39
  -6  -2  -3   18.90   17.20
   6   2   3    0.20    8.40
   6   2   3   32.00   13.60
   6  -3  -3   -7.80   10.90
  -6   3   3   26.20   20.80
   5  -3  -3   59.99   14.20
   5  -3  -3    2.10   23.60
  -5   3   3   28.70   13.60
   4  -3  -3    6.60   27.90
   4  -3  -3   22.40   20.10
   4  -3  -3  -27.90   28.90
   4  -3  -3   54.69   31.70
   4  -3  -3  -19.40   28.40
   4  -3  -3    3.80   13.20
   4  -3  -3   32.00   26.50
  -4   3   3   39.50   16.50
   3  -3  -3   50.99   22.00
   3  -3  -3   23.70   25.00
   3  -3  -3   51.69   25.10
   3  -3  -3   63.89   37.40
   3  -3  -3   40.00   23.80
   3  -3  -3  -16.60   26.40
  -3   3   3   -8.70   17.20
  -3   3   3    8.20   12.70
   2  -3  -3   -2.00   22.30
  -2   3   3   -2.20   11.70
  -2   3   3   17.30    8.10
  -2   3   3   -0.10   22.80
  -2   3   3  -34.20   27.60
   1  -3  -3  228.08   31.10
   1  -3  -3  221.78   26.00
   1  -3  -3  215.88   28.90
   1  -3  -3  251.57   37.20
   1  -3  -3  180.48   36.20
  -1   3   3  213.98   22.60
  -1   3   3  169.68   32.60
  -1   3   3  265.57   27.60
  -1   3   3  201.58   19.60
   0  -3  -3 1569.24  131.39
   0  -3  -3 1580.04  131.99
   0  -3  -3 1637.84  130.69
   0   3   3 1703.63  131.19
   0   3   3 1376.46  128.49
   0   3   3 1660.33  129.49
  -1  -3  -3   17.50   14.50
  -1  -3  -3    2.70   11.40
  -1  -3  -3   19.00   14.60
  -1  -3  -3   -4.80   10.40
   1   3   3    9.20   15.80
   1   3   3   19.50   19.80
   1   3   3   10.70   19.00
   1   3   3   -3.70   13.70
   1   3   3   11.20    4.50
  -2  -3  -3  189.58   32.00
  -2  -3  -3  219.38   45.80
  -2  -3  -3  216.08   29.90
  -2  -3  -3  201.48   46.80
  -2  -3  -3  197.88   19.50
  -2  -3  -3  174.68   32.90
   2   3   3  155.08   31.00
   2   3   3  203.18   50.49
   2   3   3  223.98   30.80
   2   3   3  193.78   24.70
  -3  -3  -3   24.70    9.00
  -3  -3  -3    6.10   17.10
  -3  -3  -3  -11.10   55.89
  -3  -3  -3   11.80   21.00
   3   3   3    6.00   69.99
   3   3   3   27.20   10.30
   3   3   3    0.60   26.20
   3   3   3  -79.29   51.59
   3   3   3   11.60   11.80
  -4  -3  -3   14.40   31.50
  -4  -3  -3   84.59   43.80
  -4  -3  -3   59.99   14.60
  -4  -3  -3   48.30   14.70
   4   3   3   43.80   12.00
   4   3   3   50.99   18.40
   4   3   3    9.90   46.10
   4   3   3   81.99   33.40
  -5  -3  -3   56.79   63.59
  -5  -3  -3   71.69   85.69
   5   3   3  223.88   74.99
   5   3   3  114.99   22.20
   5   3   3   72.09   28.50
  -6  -3  -3    4.10   21.60
   6   3   3    0.50    7.30
   6   3   3   14.00   10.20
   6   3   3   10.50   10.50
   5  -4  -3  147.49   23.30
  -5   4   3  118.19   23.30
   4  -4  -3   12.90   29.60
   4  -4  -3   21.50   25.70
   4  -4  -3   38.10   12.30
   4  -4  -3   50.79   22.80
   4  -4  -3   20.80   32.10
  -4   4   3   38.10   41.00
  -4   4   3   35.70   18.10
   3  -4  -3   88.69   53.09
   3  -4  -3   43.20   23.80
   3  -4  -3    4.30   26.20
   3  -4  -3   13.00   15.50
   3  -4  -3   29.40   22.40
   3  -4  -3   22.60   25.90
  -3   4   3   -9.10   26.00
  -3   4   3   12.90   12.30
  -3   4   3   23.40   14.00
   2  -4  -3   18.40   25.90
   2  -4  -3   -6.80   39.20
   2  -4  -3   21.20   23.40
   2  -4  -3    8.00   28.90
   2  -4  -3   42.10   17.40
   2  -4  -3   41.10   14.90
  -2   4   3   -0.30   12.10
  -2   4   3   12.80   13.30
  -2   4   3   67.29   27.70
  -2   4   3  -33.10   73.49
   1  -4  -3  -13.60   15.60
   1  -4  -3   -7.00   21.00
   1  -4  -3   37.00   16.90
   1  -4  -3   38.90   18.20
  -1   4   3   13.30   15.70
  -1   4   3   26.30   25.50
  -1   4   3   20.50    9.90
   0  -4  -3 9222.18  750.72
   0  -4  -3 8979.40  750.82
   0  -4  -3 8203.28  748.63
   0   4   3 9993.10  750.52
   0   4   3 9999.00  749.13
  -1  -4  -3  338.07   36.00
  -1  -4  -3  339.87   41.80
  -1  -4  -3  308.37   34.80
  -1  -4  -3  257.07   34.00
   1   4   3  381.06   42.60
   1   4   3  307.27   39.90
   1   4   3  283.07   42.20
   1   4   3  348.17   38.70
  -2  -4  -3  463.85   41.50
  -2  -4  -3  485.45   60.29
   2   4   3  471.55   41.80
   2   4   3  560.24  104.09
   2   4   3  350.56   73.79
   2   4   3  486.95   40.40
   2   4   3  484.85   52.19
  -3  -4  -3  281.07  130.39
  -3  -4  -3  367.96   31.80
  -3  -4  -3  353.46   48.20
  -3  -4  -3  390.26   34.30
   3   4   3  299.57   46.90
   3   4   3  381.76   34.90
   3   4   3  212.88  106.79
   3   4   3  371.36   33.50
   3   4   3  166.58   89.29
  -4  -4  -3  -13.20   22.30
  -4  -4  -3   79.39   63.59
  -4  -4  -3  -22.50   33.00
   4   4   3   16.70   13.00
   4   4   3   10.00   19.60
   4   4   3   13.50   15.80
   4   4   3   11.20   48.90
   4   4   3   66.09   44.60
  -5  -4  -3    9.60   53.39
  -5  -4  -3  153.78   98.29
  -5  -4  -3   21.90   23.10
   5   4   3   14.10   16.70
   5   4   3   -7.70    9.90
   5   4   3  -45.70   79.49
   5   4   3   16.10   17.10
  -6  -4  -3   12.10   11.40
   6   4   3   24.60    7.00
   6   4   3   14.00   12.30
   5  -5  -3   31.10    9.60
   5  -5  -3   12.70   19.10
   5  -5  -3   -0.10   14.10
   4  -5  -3   60.99   29.50
   4  -5  -3    0.60   26.40
   4  -5  -3   -4.40   14.40
   4  -5  -3    9.00   20.70
   4  -5  -3   -8.20   23.50
   4  -5  -3    6.00   33.00
  -4   5   3   -3.60   43.90
   3  -5  -3  406.36   48.20
   3  -5  -3  431.26   54.29
   3  -5  -3  290.17   57.39
   3  -5  -3  389.26   38.70
  -3   5   3  432.46   43.60
  -3   5   3  400.36   51.59
  -3   5   3  403.56   38.00
   2  -5  -3   56.19   30.50
   2  -5  -3   52.19   29.70
   2  -5  -3   84.19   30.70
   2  -5  -3   25.00   30.20
   2  -5  -3   88.39   30.10
   2  -5  -3   43.40   17.10
   2  -5  -3   -4.30   80.99
   2  -5  -3   63.79   14.20
  -2   5   3   34.80   38.70
  -2   5   3   66.29   18.50
  -2   5   3   31.70   33.80
  -2   5   3   43.40   13.20
  -2   5   3   58.69   11.60
   1  -5  -3 1056.19   95.69
   1  -5  -3 1219.78  102.59
   1  -5  -3 1191.08   96.19
  -1   5   3 1112.49   91.29
  -1   5   3  999.00   89.49
  -1   5   3  891.81  103.79
  -1   5   3 1251.27  100.19
  -1   5   3  976.70   88.59
   0  -5  -3 4842.92  406.76
   0  -5  -3 5216.28  409.46
   0  -5  -3 5303.37  410.66
   0  -5  -3 4431.76  406.96
   0   5   3 4773.62  405.56
   0   5   3 5566.24  407.06
  -1  -5  -3 1158.28   86.99
  -1  -5  -3 1120.69  101.69
  -1  -5  -3 1117.89   95.59
  -1  -5  -3 1103.79   92.69
  -1  -5  -3 1006.10   89.19
  -1  -5  -3  998.00   98.79
  -1  -5  -3 1027.60   92.29
   1   5   3  958.90   97.59
   1   5   3  929.21   88.09
   1   5   3 1057.49   96.69
   1   5   3 1231.68   94.69
   1   5   3  943.31  103.29
   1   5   3 1065.19   86.79
  -2  -5  -3   -0.80   20.70
  -2  -5  -3   66.99   54.59
  -2  -5  -3    4.50   24.60
  -2  -5  -3   11.60    9.90
  -2  -5  -3   28.00   22.80
  -2  -5  -3   12.30   11.80
   2   5   3   54.79   27.60
   2   5   3   31.30    9.80
   2   5   3   40.40   45.80
   2   5   3   12.70   59.29
  -3  -5  -3   43.50   29.70
  -3  -5  -3   28.70   13.60
  -3  -5  -3    6.70   53.69
  -3  -5  -3   27.40   18.10
   3   5   3   -4.20   13.50
   3   5   3   20.40   26.00
   3   5   3   49.20   15.70
   3   5   3   21.00   34.60
  -4  -5  -3   86.69   34.60
  -4  -5  -3   15.90   21.70
   4   5   3   -1.30   15.10
   4   5   3   70.59   29.10
   4   5   3   41.90   60.59
   4   5   3   -9.90   15.60
   4   5   3   -6.90   13.10
  -5  -5  -3   92.19   55.59
   5   5   3   82.49   16.70
   5   5   3   76.29   15.90
   5   5   3   52.69   79.79
  -6  -5  -3   19.40   10.90
   6   5   3   27.40    7.90
   6   5   3   37.00    9.00
   5  -6  -3   60.29   19.70
   5  -6  -3   47.60   10.20
   5  -6  -3   49.10   19.60
   5  -6  -3   87.59   22.70
  -5   6   3   52.19   18.20
  -5   6   3   -8.80   26.60
   4  -6  -3  769.92   73.19
   4  -6  -3  836.62   75.09
   4  -6  -3  757.32   90.89
  -4   6   3  844.02   70.69
  -4   6   3  786.22   98.89
   3  -6  -3  116.99   28.00
   3  -6  -3  152.78   21.90
   3  -6  -3  171.48   41.20
   3  -6  -3  133.29   37.90
   3  -6  -3   84.39   97.59
   3  -6  -3   76.69   39.90
  -3   6   3   50.99   41.90
  -3   6   3  153.28   38.50
  -3   6   3  161.78   20.60
  -3   6   3  121.69   26.20
   2  -6  -3  195.88   30.70
   2  -6  -3  216.18   37.30
   2  -6  -3  245.38   50.69
   2  -6  -3  212.88   38.40
   2  -6  -3  206.88   29.10
   2  -6  -3  257.07   47.20
   2  -6  -3  297.97   53.49
  -2   6   3  186.98   41.60
  -2   6   3  209.38   31.50
   1  -6  -3  459.65   54.99
   1  -6  -3  561.34   58.49
   1  -6  -3  551.04   61.39
   1  -6  -3  475.25   49.70
  -1   6   3  511.95   69.69
  -1   6   3  533.55   47.50
  -1   6   3  517.65   43.80
  -1   6   3  379.76  102.19
   0  -6  -3  675.23   70.09
   0  -6  -3  711.13   76.09
   0  -6  -3  681.53   70.69
   0  -6  -3  833.12   72.59
   0   6   3  777.62   66.79
   0   6   3  962.50  107.09
   0   6   3  755.02   62.59
  -1  -6  -3   -1.10   13.10
  -1  -6  -3    8.90   37.10
  -1  -6  -3   45.20   44.10
  -1  -6  -3   22.50   15.50
  -1  -6  -3   25.80   24.80
  -1  -6  -3  -16.00   17.70
   1   6   3  -24.60   40.70
   1   6   3   47.70   24.40
   1   6   3   18.00   66.79
   1   6   3    5.10    8.10
   1   6   3  -12.00   19.10
   1   6   3  -15.00   27.70
  -2  -6  -3  126.29   31.40
  -2  -6  -3   81.09   70.19
  -2  -6  -3   57.99   26.60
  -2  -6  -3  123.59   19.00
  -2  -6  -3   99.49   18.80
  -2  -6  -3  116.89   20.00
  -2  -6  -3   85.69   16.00
   2   6   3   90.89   17.70
   2   6   3   85.59   20.10
   2   6   3  125.99   34.30
   2   6   3  103.29   19.10
   2   6   3  242.88   91.19
   2   6   3   92.29   17.40
  -3  -6  -3   16.70   28.10
  -3  -6  -3   92.39   65.39
  -3  -6  -3   27.30   36.50
  -3  -6  -3   51.29   13.40
   3   6   3   -7.60   26.00
   3   6   3  -45.10   43.60
  -4  -6  -3  -50.29   77.89
  -4  -6  -3    7.70   17.80
  -4  -6  -3  -28.40   48.50
  -4  -6  -3   16.20   20.30
   4   6   3    8.70   24.90
   4   6   3   14.40   30.00
   4   6   3  117.89   74.09
   4   6   3    9.90   11.80
  -5  -6  -3   -3.00   61.69
  -5  -6  -3  -21.40   29.20
   5   6   3   -7.60   12.10
   5   6   3   37.60  109.59
   5  -7  -3  134.19   15.90
   5  -7  -3  150.48   26.50
   5  -7  -3  176.58   30.90
  -5   7   3  173.78   24.40
  -5   7   3  174.48   36.60
   4  -7  -3   42.20   24.30
   4  -7  -3    6.00   12.30
  -4   7   3   29.20   24.90
  -4   7   3    4.70   16.20
   3  -7  -3  701.43   70.89
   3  -7  -3  550.14   56.79
   3  -7  -3  489.55   53.89
  -3   7   3  541.55   60.39
  -3   7   3  555.14   51.69
  -3   7   3  640.54   53.69
  -3   7   3  720.73   81.39
   2  -7  -3   58.39   50.59
   2  -7  -3   29.90   41.30
   2  -7  -3   71.69   18.70
   2  -7  -3   29.00   19.30
   2  -7  -3   62.69   29.40
   2  -7  -3   80.19   31.40
  -2   7   3   34.80   16.10
  -2   7   3   41.40   24.10
  -2   7   3   30.70   12.90
   1  -7  -3  661.23   60.89
   1  -7  -3  679.33   78.99
   1  -7  -3  722.23   71.99
   1  -7  -3  780.92   61.39
   1  -7  -3  585.84   70.59
  -1   7   3  691.23   59.59
  -1   7   3  696.33   57.69
  -1   7   3  613.74   63.69
  -1   7   3  694.43   82.79
   0  -7  -3   51.99   31.10
   0  -7  -3  110.29   34.10
   0  -7  -3  106.29   18.40
   0  -7  -3  107.19   20.80
   0  -7  -3   10.90   66.89
   0   7   3   85.79   15.70
   0   7   3   70.59   54.79
   0   7   3   71.79   19.20
   0   7   3  111.69  112.39
   0   7   3  117.59   18.30
  -1  -7  -3  405.56   36.60
  -1  -7  -3  343.27   34.20
  -1  -7  -3  370.96   51.19
  -1  -7  -3  360.86   79.29
  -1  -7  -3  333.57   33.30
   1   7   3  356.46   39.40
   1   7   3  385.96   52.39
   1   7   3  327.97   34.90
   1   7   3  507.75  105.49
   1   7   3  320.07   32.50
   1   7   3  334.37   36.00
   1   7   3  161.28   96.49
  -2  -7  -3  373.56   36.70
  -2  -7  -3  402.46   69.29
  -2  -7  -3  394.06   34.40
  -2  -7  -3  313.07   70.29
   2   7   3  307.57   40.30
   2   7   3  334.97   87.19
   2   7   3  370.06   36.90
   2   7   3  414.76   40.80
   2   7   3  416.96   35.40
   2   7   3  373.06   40.80
  -3  -7  -3   75.89   48.50
  -3  -7  -3  102.29   24.60
  -3  -7  -3  115.79   19.90
  -3  -7  -3  157.48   24.10
  -3  -7  -3  144.09   63.49
   3   7   3  116.69   22.40
   3   7   3  138.89   29.80
   3   7   3   99.69   18.80
   3   7   3   39.20   64.59
  -4  -7  -3  280.17   29.70
  -4  -7  -3  199.58   25.90
   4   7   3  231.08   27.00
   4   7   3  209.08   92.19
   4   7   3  311.27   49.99
   4   7   3  222.38   23.30
  -5  -7  -3  -36.50   93.29
  -5  -7  -3   19.00    9.60
   5   7   3   -7.20   11.60
   5   7   3   12.30    7.20
   5   7   3   -3.90   31.00
   4  -8  -3  -31.70   21.00
   4  -8  -3   -4.00   10.30
  -4   8   3   -4.70   23.60
  -4   8   3  -40.10   30.30
  -4   8   3    2.80   15.10
   3  -8  -3   45.20   27.20
   3  -8  -3  -66.49  101.39
   3  -8  -3   17.30   13.70
   3  -8  -3   50.29   33.30
  -3   8   3   17.40   23.90
  -3   8   3   29.60   15.90
  -3   8   3   31.80   45.70
   2  -8  -3  118.09   53.79
   2  -8  -3   35.60   36.70
   2  -8  -3   46.90   27.50
   2  -8  -3   37.10   18.10
   2  -8  -3   57.19   25.60
   2  -8  -3   14.70   16.00
  -2   8   3   43.20   23.70
  -2   8   3   32.60   17.20
  -2   8   3   -8.70   45.10
  -2   8   3   44.60   17.40
  -2   8   3  110.69   42.00
   1  -8  -3  -50.39   57.59
   1  -8  -3   -7.80   40.80
   1  -8  -3   34.20   14.80
   1  -8  -3   -4.70   46.10
   1  -8  -3   32.40   48.00
   1  -8  -3   37.30   23.50
  -1   8   3  -28.00   34.50
  -1   8   3   -5.80   30.00
  -1   8   3  -14.70   15.90
  -1   8   3   34.30   14.40
   0  -8  -3  878.21   70.59
   0  -8  -3  825.72   71.19
   0  -8  -3  793.72   87.19
   0   8   3  745.93   77.99
   0   8   3  824.82   70.09
   0   8   3  818.92   69.69
  -1  -8  -3  724.13   86.69
  -1  -8  -3  622.84   82.09
  -1  -8  -3  758.82   63.49
  -1  -8  -3  571.94   93.09
  -1  -8  -3  689.13   65.39
   1   8   3  723.83   60.39
   1   8   3  697.73   74.39
  -2  -8  -3  110.79   61.99
  -2  -8  -3   83.69   15.60
  -2  -8  -3   91.49   20.40
  -2  -8  -3  142.69   54.29
  -2  -8  -3  123.39   24.90
  -2  -8  -3   89.99   19.30
   2   8   3  113.49   16.70
   2   8   3   25.20   54.49
   2   8   3  110.59   24.00
   2   8   3  119.99   24.80
  -3  -8  -3   14.80   19.90
  -3  -8  -3   -1.70   95.89
  -3  -8  -3   25.60   69.19
  -3  -8  -3   45.40   30.90
  -3  -8  -3   43.60   23.60
  -3  -8  -3   23.20   15.00
   3   8   3    2.00   20.00
   3   8   3   13.10   11.20
   3   8   3   59.09   74.99
  -4  -8  -3  204.48   21.80
  -4  -8  -3  232.78  104.19
   4   8   3  167.58   22.70
   4   8   3  176.98   21.00
   4   8   3    5.60  118.29
   4   8   3  204.78   31.10
  -5  -8  -3   51.39   25.30
  -5  -8  -3   59.79   11.80
   5   8   3   89.49   52.99
   5   8   3   70.69   10.40
   5   8   3   60.09    9.40
   4  -9  -3   13.80    8.90
   4  -9  -3  -16.20   11.40
  -4   9   3   15.50    9.80
   3  -9  -3 -145.79  148.69
   3  -9  -3   24.50   14.60
   3  -9  -3    4.00   21.40
  -3   9   3   29.70   21.00
  -3   9   3   30.30   16.80
   2  -9  -3   -6.80   60.99
   2  -9  -3  -17.70   15.10
   2  -9  -3    3.90   17.00
   2  -9  -3   39.50   25.00
   2  -9  -3   61.39   28.90
  -2   9   3   14.70   22.20
  -2   9   3  -20.40   16.30
  -2   9   3   88.89   39.00
  -2   9   3    5.50   22.20
  -2   9   3  -42.60   40.20
   1  -9  -3   42.50   18.10
   1  -9  -3   -3.90   49.10
   1  -9  -3   25.10   14.90
   1  -9  -3  107.19   39.20
  -1   9   3   44.20   46.10
  -1   9   3   58.49   18.30
  -1   9   3   -2.90   34.60
  -1   9   3   61.99   23.10
   0  -9  -3  388.86   34.80
   0  -9  -3  355.36   53.59
   0  -9  -3  351.46   34.90
   0  -9  -3  318.67   67.29
   0   9   3  430.56   48.20
   0   9   3  340.87   78.09
   0   9   3  416.96   43.80
   0   9   3  276.87   41.60
   0   9   3  318.47   49.00
   0   9   3  303.87   36.40
  -1  -9  -3  370.86   35.30
  -1  -9  -3  346.17   34.60
   1   9   3  364.86   45.80
   1   9   3  278.57   38.60
   1   9   3  183.68   75.19
   1   9   3  311.97   32.00
  -2  -9  -3   56.79   20.30
  -2  -9  -3   71.99   72.99
  -2  -9  -3   50.29   15.60
   2   9   3 -111.19   97.59
   2   9   3   40.70   14.70
   2   9   3   48.20   13.00
   2   9   3   57.09   19.30
  -3  -9  -3  582.24  143.29
  -3  -9  -3  723.53   62.69
  -3  -9  -3  795.32  124.09
   3   9   3  706.13   63.59
   3   9   3  772.62   61.89
  -4  -9  -3  129.19  103.19
  -4  -9  -3   18.40   12.20
  -4  -9  -3   28.80   20.90
   4   9   3   47.70   10.70
   4   9   3   51.79   16.10
   5   9   3   17.50    6.70
   5   9   3   18.10    6.40
   4 -10  -3   62.39   19.90
   4 -10  -3   -0.10   15.40
  -4  10   3   23.60   15.10
   3 -10  -3   11.70    9.90
   3 -10  -3   35.20   17.70
  -3  10   3   -5.80   22.10
  -3  10   3    9.20   28.60
   2 -10  -3    9.40   21.40
   2 -10  -3   15.70   14.70
  -2  10   3   18.60   16.10
  -2  10   3   31.10   56.79
  -2  10   3  -27.90   30.30
   1 -10  -3   37.50   14.50
   1 -10  -3    1.40   72.49
   1 -10  -3   50.49   26.20
   1 -10  -3   54.79   15.50
  -1  10   3   19.20   50.09
  -1  10   3   64.39   25.80
  -1  10   3   74.69   47.00
  -1  10   3   19.60   21.80
   0 -10  -3  -25.50   73.69
   0 -10  -3    1.50   12.10
   0 -10  -3  -24.90   25.00
   0  10   3   15.50   24.10
   0  10   3   35.00   22.20
   0  10   3   54.59   22.60
   0  10   3   32.50   24.60
  -1 -10  -3   59.39   17.10
  -1 -10  -3   68.79   29.80
  -1 -10  -3   53.79   13.60
   1  10   3   46.40   18.50
   1  10   3   60.79   24.20
  -2 -10  -3  261.37   27.80
  -2 -10  -3  317.97   31.80
   2  10   3  256.57   32.80
   2  10   3  271.17   27.10
  -3 -10  -3   72.39   33.50
  -3 -10  -3  -29.20  105.19
  -3 -10  -3   55.79   13.90
   3  10   3   54.39   13.70
   3  10   3   58.19   19.30
  -4 -10  -3   58.39   18.60
  -4 -10  -3    6.20    5.80
   4  10   3   18.30   10.40
   4  10   3   17.90   14.90
   4  10   3    3.00    7.30
   3 -11  -3   13.40    8.70
   3 -11  -3    2.40   10.30
  -3  11   3  -21.80   17.30
  -3  11   3   -3.10   16.80
   2 -11  -3    7.30   11.30
   2 -11  -3   30.60   13.00
   2 -11  -3  -23.10  118.39
   2 -11  -3   45.90   12.80
  -2  11   3   16.40   17.10
  -2  11   3   55.69   23.10
   1 -11  -3   11.50   16.70
   1 -11  -3   28.90   21.50
   1 -11  -3  -81.69  110.49
   1 -11  -3   18.80   13.60
  -1  11   3   22.50   40.80
  -1  11   3    2.70   19.10
   0 -11  -3   45.10   14.90
   0 -11  -3   59.39   13.10
   0 -11  -3   40.00   23.90
   0  11   3   10.40   19.00
   0  11   3   44.40   21.60
  -1 -11  -3   39.10   12.20
  -1 -11  -3   25.10   17.50
  -1 -11  -3   76.89   24.00
   1  11   3   51.19   21.90
   1  11   3   46.80   18.40
  -2 -11  -3    8.40   14.00
   2  11   3    9.20   21.00
  -3 -11  -3   84.59   10.80
  -3 -11  -3  116.29   25.20
   3  11   3   83.59   14.40
  -4 -11  -3   44.00   21.50
  -4 -11  -3   -5.70    5.20
   4  11   3    3.80   18.00
   4  11   3    7.50   14.40
   2 -12  -3   19.20    6.70
   2 -12  -3   17.30   10.60
  -2  12   3   16.00   19.00
  -2  12   3   28.30   11.50
  -2  12   3   35.80   16.50
   1 -12  -3   -0.50   11.70
   1 -12  -3   -3.90   11.30
   1 -12  -3    3.10   10.80
  -1  12   3   40.30   17.20
  -1  12   3  -13.00   14.80
   0 -12  -3   36.10   11.60
   0 -12  -3   45.90   12.50
   0 -12  -3   38.90   20.00
   0  12   3   -7.20   29.70
   0  12   3   24.70   16.20
   0  12   3   35.00   15.50
  -1 -12  -3   -9.50   15.20
  -1 -12  -3   38.80   18.10
   1  12   3   25.30   13.50
   1  12   3   27.30   21.60
   1  12   3   -3.20   15.80
  -2 -12  -3   36.90   15.20
  -2 -12  -3   19.00    8.70
  -2 -12  -3   -4.00   19.30
   2  12   3    5.90   11.70
   2  12   3   11.10   10.70
  -3 -12  -3  107.39   13.60
  -3 -12  -3  155.68   28.70
   3  12   3  135.49   15.00
   1 -13  -3   -7.00    6.50
  -1  13   3   18.60   15.20
   0 -13  -3   -3.10   11.30
   0 -13  -3   -2.10   10.30
   0 -13  -3   23.20   16.30
   0  13   3   36.60   19.10
   0  13   3    3.00   14.00
   0  13   3   -5.20    8.60
  -1 -13  -3   14.50   17.90
  -1 -13  -3   10.70    9.20
  -1 -13  -3    9.20    9.00
   1  13   3   21.30   15.10
   1  13   3   12.70   10.70
   1  13   3   13.50   14.00
  -2 -13  -3  -15.80   23.40
  -2 -13  -3    2.80   18.20
  -2 -13  -3   31.30    7.40
   2  13   3   26.30    7.20
   2  13   3   40.20   12.00
   2  12  -4  113.59   15.10
   2  12  -4  108.89   23.70
  -2 -12   4  141.09   19.90
  -2 -12   4  155.38   20.80
   1  12  -4  115.69   18.10
   1  12  -4   89.19   11.60
   1  12  -4   70.89   13.90
  -1 -12   4   89.89   20.50
  -1 -12   4   45.90   17.80
  -1 -12   4   92.89   16.40
   0  12  -4   33.40   20.60
   0  12  -4   30.80   13.80
   0 -12   4   67.79   18.00
   0 -12   4   35.80   16.90
   0 -12   4   30.80   18.00
  -1  12  -4   10.40    7.70
  -1  12  -4   21.40   14.80
   1 -12   4   -2.00   17.70
  -2  12  -4   22.80    7.60
  -2  12  -4   32.00   11.20
   2 -12   4   35.70   11.20
   3  11  -4   20.90   34.30
   3  11  -4   -1.70   10.30
   2  11  -4   38.70   24.80
   2  11  -4   44.20   11.00
   2  11  -4   31.20   11.80
  -2 -11   4   42.30   22.60
   1  11  -4   22.90   13.10
   1  11  -4   -3.20   10.90
   1  11  -4    7.60   20.50
  -1 -11   4  147.39  118.79
  -1 -11   4    7.90   14.80
  -1 -11   4   40.50   15.80
   0  11  -4  298.47   41.40
   0 -11   4  259.07   29.40
   0 -11   4  298.97   42.60
  -1  11  -4  330.47   35.70
  -1  11  -4  359.06   34.60
  -1  11  -4  323.77   32.70
   1 -11   4  301.27   35.60
   1 -11   4  576.04  192.58
   1 -11   4  393.56   41.60
  -2  11  -4   -6.10    9.60
  -2  11  -4   30.80   12.10
   2 -11   4  -12.00   22.10
   2 -11   4  -12.40   31.20
   2 -11   4   64.69   34.40
  -3  11  -4   34.40   10.70
  -3  11  -4    5.40    7.70
   3 -11   4   15.80    7.80
   3  10  -4   74.89   26.90
   3  10  -4   70.39   25.20
   3  10  -4   48.20   17.20
  -3 -10   4   70.69   15.50
   2  10  -4    9.80   23.80
  -2 -10   4  179.18   97.99
  -2 -10   4   20.50   14.80
   1  10  -4  314.67   29.60
   1  10  -4  348.27   37.50
   1  10  -4  352.56   36.20
  -1 -10   4  269.57   29.00
  -1 -10   4  686.03  209.88
   0  10  -4  703.33   58.09
   0  10  -4  605.34   54.09
   0  10  -4  535.15   57.59
   0  10  -4  554.84   59.69
   0 -10   4  641.84   63.59
   0 -10   4  656.73   54.59
  -1  10  -4    3.50   23.20
  -1  10  -4   -8.40   18.60
  -1  10  -4  -21.20   23.10
  -1  10  -4   13.50   12.50
   1 -10   4   18.50   33.30
   1 -10   4    1.60   16.20
   1 -10   4   27.10   14.10
   1 -10   4   30.30  128.59
  -2  10  -4  -13.20   31.60
  -2  10  -4    1.90   21.80
   2 -10   4   58.39  126.09
   2 -10   4   34.70   17.90
   2 -10   4   15.10   16.30
  -3  10  -4   34.80   12.70
  -3  10  -4   24.70   29.00
  -3  10  -4   17.70    9.50
   3 -10   4   21.90   11.50
   3 -10   4   63.69   32.30
   4   9  -4  -24.60   18.00
   4   9  -4    2.30    9.90
  -4  -9   4  -10.80   17.90
  -4  -9   4    5.60   12.50
   3   9  -4   20.80   18.40
   3   9  -4   17.50   36.00
   3   9  -4   16.30   14.60
  -3  -9   4   23.30   25.80
  -3  -9   4   -1.20   13.20
  -3  -9   4   15.40   76.59
   2   9  -4  290.07   32.30
   2   9  -4  242.18   37.40
   2   9  -4  345.67   40.70
   2   9  -4  289.87   35.40
   2   9  -4  267.27   30.60
  -2  -9   4  319.07   29.30
   1   9  -4  114.69   16.90
   1   9  -4   99.19   27.30
   1   9  -4   75.19   21.80
  -1  -9   4  132.59   26.30
  -1  -9   4   65.29   96.59
  -1  -9   4  119.29   16.20
   0   9  -4   78.79   24.50
   0   9  -4   98.49   27.20
   0   9  -4   66.59   18.40
   0   9  -4   43.60   19.70
   0   9  -4  118.49   40.20
   0  -9   4   -3.80   84.99
   0  -9   4   55.89   22.40
  -1   9  -4   23.20   15.90
  -1   9  -4   -4.40   18.70
  -1   9  -4   40.80   25.10
  -1   9  -4  -23.50   24.80
  -1   9  -4    6.40   14.80
   1  -9   4   -4.50   78.09
   1  -9   4   -3.20   22.10
   1  -9   4  -15.30   27.30
   1  -9   4   15.40   11.00
   1  -9   4  132.59   73.89
  -2   9  -4  320.47   36.20
  -2   9  -4  367.46   31.50
   2  -9   4  281.07   31.90
   2  -9   4  286.17   99.19
   2  -9   4  467.25  100.89
   2  -9   4  285.17   44.00
  -3   9  -4   39.10   30.80
   3  -9   4   70.79   28.90
   3  -9   4  -10.20   28.80
   3  -9   4  151.68   87.29
   3  -9   4   20.80   22.30
  -4   9  -4   13.20    7.20
  -4   9  -4   20.00   15.10
  -4   9  -4   25.50   15.10
   4  -9   4    6.80   11.90
   4  -9   4   35.20   17.60
   4   8  -4   21.00   28.40
   4   8  -4   79.09   14.70
   4   8  -4   55.09   13.10
  -4  -8   4  105.49   18.40
  -4  -8   4   30.10   12.60
   3   8  -4    6.50   35.60
   3   8  -4   -8.50   13.40
   3   8  -4    5.30   15.50
   3   8  -4   -5.10   20.40
   3   8  -4    1.70   18.20
   3   8  -4  -10.30   18.60
   3   8  -4    7.10   11.30
  -3  -8   4   15.40    9.00
  -3  -8   4   23.90   25.40
  -3  -8   4    2.60   17.00
  -3  -8   4  200.88   94.59
   2   8  -4   11.20   68.59
   2   8  -4   33.80   12.90
   2   8  -4   22.50   17.10
   2   8  -4   56.99   24.30
   2   8  -4   74.19   19.30
   2   8  -4   28.60   23.90
  -2  -8   4   36.50    9.60
  -2  -8   4   75.99   80.39
  -2  -8   4   50.99   32.30
  -2  -8   4   30.60   49.80
  -2  -8   4   44.70   14.30
   1   8  -4  148.89   22.70
   1   8  -4  143.29   33.50
   1   8  -4  171.08   31.00
  -1  -8   4  166.28   21.70
  -1  -8   4   87.09   54.09
   0   8  -4   36.10   35.30
   0   8  -4    4.30   21.80
   0   8  -4    5.30   17.50
   0   8  -4   69.09   30.70
   0   8  -4   32.80   19.40
   0  -8   4   55.19   56.49
   0  -8   4   12.70   12.50
   0  -8   4  -71.79   62.59
  -1   8  -4  127.79   20.70
  -1   8  -4  137.29   30.60
  -1   8  -4  165.28   28.90
  -1   8  -4  125.49   28.00
   1  -8   4  104.99   20.00
   1  -8   4  103.09   52.59
   1  -8   4  135.09   53.79
   1  -8   4  106.19   33.20
  -2   8  -4  443.06   42.10
  -2   8  -4  394.56   61.39
  -2   8  -4  475.55   68.99
  -2   8  -4  431.86   45.40
  -2   8  -4  377.96   46.50
   2  -8   4  433.86   64.99
   2  -8   4  476.15   44.30
   2  -8   4  505.55  100.49
  -3   8  -4   51.19   25.30
  -3   8  -4   74.89   22.20
  -3   8  -4   55.59   14.20
   3  -8   4  100.29   24.40
   3  -8   4   15.10   17.60
   3  -8   4   48.10   71.79
   3  -8   4   35.70   27.70
   3  -8   4   70.79   54.99
   3  -8   4  112.59   36.00
  -4   8  -4  107.79   15.80
  -4   8  -4  128.19   21.60
   4  -8   4  131.49  212.78
   5   7  -4   54.59   17.80
  -5  -7   4   68.29   22.10
   4   7  -4   16.00   22.60
  -4  -7   4   24.50   11.30
  -4  -7   4  -38.80   85.39
  -4  -7   4   13.20   13.10
   3   7  -4  108.19   19.90
   3   7  -4  117.29   28.30
   3   7  -4   98.19   20.20
   3   7  -4  127.89   30.60
   3   7  -4  123.29   43.10
   3   7  -4   79.89   72.19
  -3  -7   4  136.49   66.99
  -3  -7   4   94.09   13.80
  -3  -7   4 -102.29  102.19
   2   7  -4   41.10   15.60
   2   7  -4  -14.00   18.80
   2   7  -4   34.00   25.30
   2   7  -4    7.40   45.50
   2   7  -4   19.10   19.60
   2   7  -4  -16.10   17.10
  -2  -7   4   31.80   60.29
  -2  -7   4   39.40   18.90
   1   7  -4  -75.69   38.60
   1   7  -4   51.29   29.70
  -1  -7   4    7.20   11.40
  -1  -7   4    8.40    7.70
   0   7  -4   30.30   16.80
   0   7  -4  -25.60   36.90
   0   7  -4   35.90   31.90
   0   7  -4   26.10   30.20
   0   7  -4   -3.10   17.10
   0   7  -4   13.50   37.70
   0  -7   4   64.49   45.20
   0  -7   4   12.40   10.20
   0  -7   4   24.70   13.10
   0  -7   4   33.90   36.00
   1  -7   4   36.60   16.30
   1  -7   4   96.09   38.10
   1  -7   4  113.49   38.10
   1  -7   4   36.30   12.20
   1  -7   4   42.00   39.30
  -2   7  -4  145.59   43.10
  -2   7  -4   98.19   20.10
  -2   7  -4   92.49   27.40
  -2   7  -4  106.69   25.20
  -2   7  -4   79.79   23.90
  -2   7  -4  139.59   27.80
   2  -7   4  117.69   48.00
   2  -7   4  148.19   23.70
   2  -7   4  136.69   47.70
   2  -7   4  148.29   47.10
  -3   7  -4  160.08   26.70
  -3   7  -4  155.48   30.10
  -3   7  -4  147.99   22.60
   3  -7   4   89.99   39.60
   3  -7   4   77.49   23.20
   3  -7   4   98.79   72.39
   3  -7   4   92.59   40.90
   3  -7   4  134.99   69.29
   3  -7   4  102.29   24.50
   3  -7   4  123.69   24.10
  -4   7  -4    4.30   17.70
  -4   7  -4   46.30   16.90
   4  -7   4   13.30   16.70
   4  -7   4 -111.99  111.89
  -5   7  -4   20.40   10.40
  -5   7  -4   44.50   13.40
   5  -7   4   20.20   11.30
   5  -7   4   21.80   11.40
   5   6  -4  -13.60   17.50
   5   6  -4    4.50   15.20
   5   6  -4  -11.60   10.70
  -5  -6   4   25.50   15.50
   4   6  -4   26.00   13.20
   4   6  -4   25.00   14.00
   4   6  -4   14.20   10.20
   4   6  -4  -19.10   19.40
  -4  -6   4  -13.10   14.60
  -4  -6   4  -11.20   12.10
   3   6  -4  -32.60   47.00
   3   6  -4    6.80   14.00
   3   6  -4    2.90   11.20
   3   6  -4  -26.60   23.00
   3   6  -4    2.30   17.20
   3   6  -4   35.00   17.40
   3   6  -4   28.20   21.40
  -3  -6   4   -8.10    9.10
  -3  -6   4  -12.50   53.89
  -3  -6   4   41.30   18.10
   2   6  -4   76.99   24.10
   2   6  -4   32.70   25.90
  -2  -6   4   63.79   11.20
  -2  -6   4   99.49   44.70
   1   6  -4  389.16   33.50
   1   6  -4  251.17   38.40
   1   6  -4  296.07   47.20
   1   6  -4  307.67   32.50
   1   6  -4  263.47   40.70
   1   6  -4  314.37   49.30
   1   6  -4  353.76   50.09
  -1  -6   4  350.66   27.90
  -1  -6   4  280.67   36.60
   0   6  -4   18.30   21.10
   0   6  -4   81.59   21.90
   0   6  -4   97.39   25.60
   0   6  -4   46.90   17.20
   0   6  -4   29.00   21.00
   0  -6   4   49.30    9.50
   0  -6   4  107.69   49.60
   0  -6   4  157.58   56.49
  -1   6  -4  179.28   32.30
  -1   6  -4  145.09   39.60
  -1   6  -4  146.89   27.60
  -1   6  -4  178.78   32.80
  -1   6  -4  181.18   24.40
   1  -6   4  144.89   21.70
   1  -6   4  151.28   44.00
   1  -6   4  132.19   16.80
  -2   6  -4   -3.50   41.40
  -2   6  -4  -29.30   27.40
  -2   6  -4   22.80   30.00
  -2   6  -4   71.69   29.00
   2  -6   4  -30.30   43.80
   2  -6   4   61.49   35.40
   2  -6   4   -7.20   33.40
   2  -6   4   28.90   36.70
  -3   6  -4   -0.30   17.50
  -3   6  -4  -80.79   49.50
  -3   6  -4    6.60   20.50
  -3   6  -4  -20.00   26.70
   3  -6   4    2.90   23.00
   3  -6   4  -30.10   53.99
   3  -6   4  -10.10   41.20
   3  -6   4    1.30   19.10
   3  -6   4   37.90   85.59
   3  -6   4    8.30   41.80
  -4   6  -4   72.19   20.70
  -4   6  -4   99.39   24.30
   4  -6   4  117.59  123.69
   4  -6   4   73.69   23.80
   4  -6   4  130.89  113.39
  -5   6  -4   26.50    8.80
  -5   6  -4   28.60   16.00
   5  -6   4   32.90    9.40
   5  -6   4    0.60   12.00
   5  -6   4   60.49   30.60
   5   5  -4  130.29   16.90
   5   5  -4  113.29   19.60
   5   5  -4  138.29   24.00
   5   5  -4  161.88   19.00
  -5  -5   4  119.99   19.00
  -5  -5   4  135.09   18.30
   4   5  -4   60.39   14.50
   4   5  -4   67.99   13.50
   4   5  -4   70.29   16.70
   4   5  -4   32.00   36.30
  -4  -5   4  260.57  133.29
  -4  -5   4   35.40   92.39
  -4  -5   4   76.69   13.20
   3   5  -4  171.28   43.70
   3   5  -4  223.48   29.80
   3   5  -4  198.08   26.20
   3   5  -4  200.08   22.30
   3   5  -4  231.98   27.90
   3   5  -4  210.78   39.90
  -3  -5   4  102.99   49.90
  -3  -5   4  242.28   29.30
   2   5  -4  529.15   59.79
   2   5  -4  523.55   46.00
   2   5  -4  575.34   53.89
   2   5  -4  473.45   52.79
   2   5  -4  487.15   50.89
   2   5  -4  532.55   68.59
   2   5  -4  565.94   48.80
  -2  -5   4  518.95   44.50
  -2  -5   4  650.13   91.89
  -2  -5   4  386.46   86.89
   1   5  -4  356.16   54.59
   1   5  -4  382.26   53.09
   1   5  -4  414.46   49.40
   1   5  -4  420.06   41.00
   1   5  -4  416.36   39.50
  -1  -5   4  420.06   45.90
  -1  -5   4  405.26   33.50
  -1  -5   4  333.17   42.50
   0   5  -4 1260.27  104.99
   0   5  -4 1188.98  106.49
   0   5  -4 1184.98  106.39
   0  -5   4 1336.77  111.19
   0  -5   4 1127.29  101.39
   0  -5   4 1354.86   99.99
   0  -5   4 1167.48  125.49
   0  -5   4 1164.18  106.79
  -1   5  -4  110.19   26.20
  -1   5  -4   59.29   22.90
  -1   5  -4   68.99   20.10
  -1   5  -4  135.49   50.59
  -1   5  -4   49.00   38.20
  -1   5  -4   53.69   19.20
   1  -5   4   93.79   18.80
   1  -5   4   70.59   23.60
   1  -5   4   69.09   13.60
   1  -5   4  100.49   33.70
   1  -5   4   55.89   58.09
  -2   5  -4  207.38   34.40
  -2   5  -4  200.38   42.90
  -2   5  -4  218.38   46.70
  -2   5  -4  211.68   64.79
  -2   5  -4  248.18   27.10
  -2   5  -4  336.87   54.39
   2  -5   4  295.97   42.60
   2  -5   4  233.58   24.70
   2  -5   4  311.87   47.10
  -3   5  -4   24.40   24.90
  -3   5  -4    7.90   22.60
  -3   5  -4   20.90   41.80
  -3   5  -4   13.80   16.80
   3  -5   4   36.30   45.60
   3  -5   4    3.50   20.10
   3  -5   4    1.80   39.60
   3  -5   4   -5.70   16.60
   3  -5   4   22.00   24.40
  -4   5  -4    2.50   20.60
  -4   5  -4    9.90   14.60
  -4   5  -4  -33.50   23.90
   4  -5   4  -21.70   84.29
   4  -5   4   14.30   17.20
   4  -5   4   44.30   23.00
   4  -5   4   42.40  105.99
  -5   5  -4   35.50   13.10
   5  -5   4   45.60   10.70
   5  -5   4   69.09   41.90
   5   4  -4  233.38   25.40
   5   4  -4  211.78   30.70
   5   4  -4  188.98   22.90
   5   4  -4  179.78   40.40
  -5  -4   4  250.57   30.00
  -5  -4   4  156.88   29.60
   4   4  -4   -1.80   16.80
   4   4  -4   10.50   19.90
   4   4  -4    5.40   10.00
   4   4  -4  -38.30   59.09
   4   4  -4   35.00   30.10
   4   4  -4   -1.60   12.70
   4   4  -4   10.90   15.80
  -4  -4   4    0.60   11.60
  -4  -4   4  -44.40   81.99
   3   4  -4  100.09   20.90
   3   4  -4  137.09   34.30
   3   4  -4   89.19   18.70
   3   4  -4  118.49   22.70
  -3  -4   4  144.19   53.09
  -3  -4   4   64.69   74.09
   2   4  -4   50.69   14.80
   2   4  -4   33.10   19.30
   2   4  -4   76.99   38.30
   2   4  -4   47.20   21.70
   2   4  -4   48.70   16.80
  -2  -4   4    1.20   49.80
  -2  -4   4  -17.20   55.49
  -2  -4   4   30.70    8.60
   1   4  -4  526.35   42.70
   1   4  -4  419.56   48.10
  -1  -4   4  438.16   51.69
  -1  -4   4  411.86   52.09
  -1  -4   4  410.66   50.19
   0   4  -4  468.25   38.30
   0  -4   4  399.66   41.40
   0  -4   4  350.96   42.90
   0  -4   4  395.26   44.90
  -1   4  -4   91.59   36.50
  -1   4  -4   27.30   46.90
  -1   4  -4   75.69   26.20
   1  -4   4   83.89   26.00
   1  -4   4   83.79   29.60
   1  -4   4  105.79   12.20
   1  -4   4   74.29   36.80
   1  -4   4   67.89   13.50
  -2   4  -4 1187.48  123.19
  -2   4  -4 1601.64  140.99
  -2   4  -4 1309.07  116.49
  -2   4  -4 1173.78  117.49
  -2   4  -4 1384.56  114.79
   2  -4   4 1544.15  113.69
   2  -4   4 1340.47  122.39
   2  -4   4 1426.86  115.89
   2  -4   4 1538.35  119.89
  -3   4  -4  -17.30   33.90
  -3   4  -4    7.80   27.90
   3  -4   4    5.80   15.30
   3  -4   4   35.40   20.80
   3  -4   4   99.69   38.50
   3  -4   4   39.20   12.90
   3  -4   4   41.50   33.20
   3  -4   4  -12.70   22.90
  -4   4  -4   15.70   19.90
  -4   4  -4  -11.50   18.40
  -4   4  -4   11.10   32.10
   4  -4   4   -3.80   18.40
   4  -4   4  -38.90   83.29
   4  -4   4   -9.90   22.90
   4  -4   4    4.10   25.00
   4  -4   4   91.99   42.50
   5  -4   4   19.10   23.00
  -6   4  -4    3.80   11.40
  -6   4  -4    6.40   11.20
   6  -4   4   -8.60    8.20
   6  -4   4   -2.80    9.90
   5   3  -4  140.09   26.10
   5   3  -4  147.99   29.80
  -5  -3   4   89.89   17.60
   4   3  -4    4.00   14.60
   4   3  -4   12.00   36.20
   4   3  -4  -44.60   48.70
   4   3  -4   17.20   11.90
   4   3  -4  -12.00   16.80
   4   3  -4   42.00   22.90
   4   3  -4    8.30   15.80
   4   3  -4    0.20   21.70
  -4  -3   4    9.40   61.89
   3   3  -4 1389.46  112.79
   3   3  -4 1309.17  115.99
   3   3  -4 1292.07  121.99
   3   3  -4 1356.56  110.49
   3   3  -4 1474.25  115.09
  -3  -3   4 1205.98  112.39
  -3  -3   4 1464.05  111.89
  -3  -3   4 1271.67  128.99
   2   3  -4 1652.43  141.29
   2   3  -4 1514.35  139.59
   2   3  -4 1861.81  139.69
   2   3  -4 1617.94  139.69
  -2  -3   4 1792.12  144.79
  -1  -3   4  183.68   29.00
  -1  -3   4  195.68   32.20
  -1  -3   4  175.38   18.10
  -1  -3   4  204.88   26.70
   0   3  -4  102.09   20.90
   0   3  -4   95.79   13.50
   0  -3   4  118.19   10.50
   0  -3   4   80.59   20.20
   0  -3   4   85.59   17.30
   0  -3   4   57.69   22.40
  -1   3  -4 2336.17  192.48
  -1   3  -4 2684.23  198.08
   1  -3   4 2233.38  195.98
   1  -3   4 2211.68  196.88
  -2   3  -4   27.70   33.70
  -2   3  -4   32.90   21.40
  -2   3  -4   -0.90   50.09
   2  -3   4   15.30    8.80
   2  -3   4   25.60   21.60
   2  -3   4   -0.70   31.20
   2  -3   4    1.10   43.50
   2  -3   4    3.90   13.40
   2  -3   4  -32.90   24.70
  -3   3  -4  169.08  111.49
  -3   3  -4  205.68   35.20
  -3   3  -4  128.19   22.80
  -3   3  -4  158.48   34.00
  -3   3  -4  162.28   33.40
   3  -3   4  222.08   48.10
   3  -3   4  132.59   34.30
   3  -3   4  188.48   20.70
   3  -3   4  216.68   31.60
   3  -3   4  174.88   36.60
  -4   3  -4   10.30   29.30
  -4   3  -4   34.20   14.30
  -4   3  -4    9.20   19.60
   4  -3   4  112.49  104.99
   4  -3   4   30.30   19.50
   4  -3   4  -18.80   64.89
   4  -3   4   17.50   20.20
  -5   3  -4   25.10   24.40
  -5   3  -4   48.50   19.00
   5  -3   4   12.70   31.80
   5  -3   4   26.60   17.10
  -6   3  -4   -4.10   12.50
  -6   3  -4    5.60   11.80
   6  -3   4    1.10    5.80
   6  -3   4   24.60   35.40
   6  -3   4  -18.10   10.90
   5   2  -4   15.90   19.50
   5   2  -4    7.90   22.20
  -5  -2   4   47.50   14.20
  -5  -2   4   15.80   14.40
   4   2  -4  181.98   45.90
   4   2  -4  181.18   37.30
   4   2  -4  114.59   24.20
   4   2  -4  118.99   31.90
   4   2  -4  115.29   17.10
   4   2  -4  139.69   25.30
   4   2  -4  154.68   27.00
   4   2  -4  127.29   28.30
  -4  -2   4  104.29   24.10
  -4  -2   4   48.60   71.19
  -4  -2   4  159.48   16.90
   3   2  -4 1531.55  113.59
   3   2  -4 1256.97  121.29
   3   2  -4 1482.65  114.49
   3   2  -4 1396.86  110.79
   3   2  -4 1495.75  123.49
   3   2  -4 1345.97  114.79
  -3  -2   4 1277.97  110.39
  -3  -2   4 1079.59  142.19
  -3  -2   4 1097.29  134.49
   2   2  -4   32.90   11.70
  -2  -2   4    9.70   22.20
  -2  -2   4  -15.00   21.60
   1   2  -4    3.00    8.80
  -1  -2   4   -7.20   11.50
   0   2  -4    9.70    6.80
   0   2  -4   21.00   13.70
   0   2  -4    0.00    6.60
   0   2  -4   -0.50    6.60
   0  -2   4    4.70    9.20
   0  -2   4    0.60   11.70
  -1   2  -4 2043.60  153.88
  -1   2  -4 1922.71  153.98
   1  -2   4 1791.02  153.48
   1  -2   4 2070.29  154.88
   1  -2   4 1579.94  154.38
   1  -2   4 1800.82  156.38
  -2   2  -4   13.00   21.70
  -2   2  -4   38.20   12.70
  -2   2  -4   63.39   37.10
  -2   2  -4    6.40   14.00
   2  -2   4    6.70   23.40
   2  -2   4   32.20   11.80
   2  -2   4   22.10   26.40
   2  -2   4   25.90   32.00
   2  -2   4   18.70   29.00
  -3   2  -4  141.89   25.10
  -3   2  -4  192.88   33.20
  -3   2  -4  112.19   54.79
  -3   2  -4  182.78   39.30
  -3   2  -4  151.78   28.60
  -3   2  -4  239.38   44.30
   3  -2   4  200.88   48.80
   3  -2   4  188.08   37.90
   3  -2   4  176.58   24.00
   3  -2   4  141.29   28.00
   3  -2   4  156.58   21.20
   3  -2   4  246.98   41.30
   3  -2   4  167.68   30.90
   3  -2   4  121.59   61.59
  -4   2  -4   23.50   19.10
  -4   2  -4    5.30   14.60
  -4   2  -4   71.69   29.10
   4  -2   4   47.60   18.40
   4  -2   4   15.20   16.20
   4  -2   4   45.90   24.00
   4  -2   4    8.40   44.50
   4  -2   4   27.40   21.00
   4  -2   4   29.60   60.59
   4  -2   4   -9.60  101.29
  -5   2  -4   11.90   14.30
  -5   2  -4   -1.10   20.70
   5  -2   4    8.80   15.80
   5  -2   4    5.20   15.70
   5  -2   4   24.80   22.10
  -6   2  -4   30.00   12.60
  -6   2  -4   57.59   13.80
   6  -2   4   38.20   16.90
   6  -2   4   38.00    7.30
   6   1  -4   -9.20   10.20
   6   1  -4   30.10   19.30
   5   1  -4   78.39   29.80
   5   1  -4   41.70   13.40
  -5  -1   4   38.80   12.30
  -5  -1   4   38.00   13.80
   4   1  -4   27.20   16.00
   4   1  -4   35.60   27.50
   4   1  -4   44.40   16.00
   4   1  -4   23.80   21.60
   4   1  -4   11.00   46.30
   4   1  -4   39.00   21.10
  -4  -1   4   51.79   10.80
   3   1  -4 1250.77  102.59
   3   1  -4 1059.69  103.99
   3   1  -4 1237.18  102.69
   3   1  -4 1192.38   99.09
   3   1  -4 1329.17  102.19
   3   1  -4 1234.08  104.49
  -3  -1   4 1108.89  116.29
   2   1  -4   11.90    9.90
  -2  -1   4    5.20   14.80
  -2  -1   4   11.20    6.80
  -2  -1   4   13.10   18.90
  -1  -1   4  137.39   22.10
   0   1  -4  573.04   46.70
   0   1  -4  549.65   49.40
   0  -1   4  535.55   49.90
  -1   1  -4 1337.87  104.79
  -1   1  -4 1418.56  110.39
  -1   1  -4 1108.69  104.19
  -1   1  -4 1225.18  109.29
   1  -1   4 1303.07  104.99
   1  -1   4 1183.48  104.89
   1  -1   4 1364.16  101.89
   1  -1   4 1081.99  107.59
  -2   1  -4 1443.76  125.19
  -2   1  -4 1543.65  121.29
  -2   1  -4 1440.16  120.79
   2  -1   4 1464.15  119.09
   2  -1   4 1323.47  125.09
   2  -1   4 1293.97  122.59
   2  -1   4 1333.97  115.59
  -3   1  -4  399.86   60.69
  -3   1  -4  385.26   37.50
  -3   1  -4  348.47   43.50
  -3   1  -4  361.06   45.30
  -3   1  -4  372.06   45.60
   3  -1   4  434.26   38.70
   3  -1   4  452.45   36.00
   3  -1   4  402.46   50.39
   3  -1   4  409.46   47.40
   3  -1   4  432.86   93.69
   3  -1   4  398.96   45.20
  -4   1  -4   29.60   18.00
  -4   1  -4   47.90   19.00
  -4   1  -4   38.20   28.10
   4  -1   4   42.60   18.40
   4  -1   4   21.40   19.50
   4  -1   4   88.59   45.30
   4  -1   4   44.50   16.10
   4  -1   4   42.40   23.50
   4  -1   4   52.09   55.59
  -5   1  -4  169.58   24.90
  -5   1  -4  171.38   29.40
  -5   1  -4  125.69   54.89
   5  -1   4  163.68   21.10
   5  -1   4  156.68   30.00
  -6   1  -4   33.70   13.20
   6  -1   4   22.00   10.70
   6  -1   4   31.30   16.40
   6  -1   4   35.20    8.60
   6   0  -4   23.10   23.20
   6   0  -4   18.70    7.60
   5   0  -4  -13.00   24.10
   5   0  -4   23.00   38.20
   5   0  -4    9.20   19.40
   5   0  -4   13.50   20.10
  -5   0   4    8.00   14.90
  -5   0   4   -6.80   13.00
   4   0  -4  276.57   28.20
   4   0  -4  311.37   34.80
   4   0  -4  302.97   32.80
   4   0  -4  331.17   34.60
   4   0  -4  206.68   48.90
  -4   0   4  272.57   29.00
   3   0  -4   16.20   16.60
   3   0  -4   10.90   52.19
   3   0  -4   49.00   32.50
   3   0  -4   -3.20   10.60
   3   0  -4   -2.10   29.10
   3   0  -4   -4.20   21.70
   3   0  -4    7.30   18.70
   3   0  -4    0.40   19.50
  -3   0   4    2.90    9.50
  -3   0   4   -5.50   48.00
   2   0  -4   -3.60   14.80
  -2   0   4   19.20   16.20
  -2   0   4   -0.30   13.40
  -2   0   4   19.70   15.70
   1   0  -4  144.29   22.70
   0   0  -4  772.62   68.89
   0   0   4  834.02   70.89
  -1   0  -4 4371.56  403.56
  -1   0  -4 5408.56  404.06
  -1   0  -4 4762.12  404.46
   1   0   4 5549.34  404.66
   1   0   4 4722.43  404.06
   1   0   4 5113.29  402.06
   1   0   4 4823.02  404.06
   1   0   4 5129.29  405.76
  -2   0  -4 1649.54  120.39
  -2   0  -4 1534.85  118.79
  -2   0  -4 1307.47  122.89
   2   0   4 1255.47  116.79
   2   0   4 1466.15  125.29
   2   0   4 1402.96  124.69
   2   0   4 1460.95  120.59
   2   0   4 1339.77  127.89
  -3   0  -4   -5.60   23.80
  -3   0  -4    8.10   17.10
  -3   0  -4  -24.30   29.90
  -3   0  -4   13.80   16.60
  -3   0  -4  -24.10   32.60
  -3   0  -4   -7.20   17.50
  -3   0  -4  -32.50   44.60
   3   0   4   90.29   93.49
   3   0   4  -11.00   25.40
   3   0   4  -10.00   12.80
   3   0   4  -35.80   28.80
  -4   0  -4  182.18   25.80
  -4   0  -4  133.29   28.00
   4   0   4   96.69   74.59
   4   0   4  137.19   31.00
   4   0   4   97.99   59.19
   4   0   4  202.48   47.30
   4   0   4  163.78   25.30
   4   0   4  123.79   24.10
   4   0   4  167.08   32.90
  -5   0  -4  466.25   38.90
  -5   0  -4  430.46   70.59
  -5   0  -4  384.56   41.20
   5   0   4  474.45   39.00
   5   0   4  321.57   75.19
   5   0   4  323.27   44.50
   5   0   4  388.96   39.50
  -6   0  -4    2.60   30.30
  -6   0  -4   -7.40   12.60
   6   0   4  -11.30    7.80
   6   0   4  -11.40   10.70
   6   0   4  -23.90   15.00
   6  -1  -4    4.40   10.70
   6  -1  -4    3.20   11.30
   5  -1  -4   20.60   31.00
   5  -1  -4  -27.70   16.70
  -5   1   4  -17.00   19.10
  -5   1   4   10.70   14.00
   4  -1  -4   37.70   30.60
   4  -1  -4   35.40   23.40
   4  -1  -4   69.29   20.00
   4  -1  -4   86.99   44.60
   4  -1  -4   25.90   22.20
   4  -1  -4   62.59   13.00
   4  -1  -4   65.09   32.30
  -4   1   4   58.49   12.20
  -4   1   4   83.19   22.10
   3  -1  -4  205.78   44.20
   3  -1  -4  214.28   38.00
   3  -1  -4  275.27   51.69
   3  -1  -4  207.48   26.40
   3  -1  -4  259.57   36.20
   3  -1  -4  310.87   46.50
  -3   1   4  276.57   24.60
  -3   1   4  239.98   44.00
  -2   1   4   70.19   20.90
   1  -1  -4   -5.00   11.80
  -1   1   4    3.60    7.60
  -1   1   4   -5.30    6.60
   0  -1  -4   84.69   17.60
   0   1   4   63.19   13.10
   0   1   4   55.59    8.70
  -1  -1  -4   60.09   12.10
  -1  -1  -4   76.09   13.30
  -1  -1  -4   67.09   13.90
  -1  -1  -4   96.29   19.10
  -1  -1  -4   99.49   19.80
   1   1   4   80.19   15.10
   1   1   4   56.29   26.50
   1   1   4   60.59    8.90
   1   1   4   85.09   18.70
   1   1   4  103.19   22.30
  -2  -1  -4  224.18   41.40
  -2  -1  -4  280.07   29.70
  -2  -1  -4  335.47   56.19
  -2  -1  -4  324.27   32.00
  -2  -1  -4  321.57   33.40
   2   1   4  269.37   35.90
   2   1   4  256.47   27.70
   2   1   4  300.57   49.30
   2   1   4  271.37   51.69
  -3  -1  -4    2.80   24.70
  -3  -1  -4    5.60   55.89
  -3  -1  -4  -10.50   17.80
  -3  -1  -4   20.60   19.10
  -3  -1  -4  -10.50   19.00
  -3  -1  -4  -12.20   15.70
  -3  -1  -4   -8.20   14.20
   3   1   4   12.80   15.30
   3   1   4   11.00   32.80
   3   1   4   -3.20   13.70
   3   1   4  -43.30   65.19
  -4  -1  -4  907.21   84.39
  -4  -1  -4  923.81   76.69
  -4  -1  -4  898.11   99.79
   4   1   4  906.51   74.59
   4   1   4  736.93   75.99
   4   1   4  833.52   75.99
   4   1   4  876.01   78.89
  -5  -1  -4  231.38   55.39
  -5  -1  -4  351.56   31.80
  -5  -1  -4  324.67   42.50
   5   1   4  170.08   73.39
   5   1   4  296.47   36.30
   5   1   4  340.67   30.70
   5   1   4  296.87   33.90
  -6  -1  -4   10.70   15.00
   6   1   4   -6.40    9.90
   6   1   4   14.90   11.10
   6   1   4   -0.80    7.90
  -5   2   4    8.60   13.00
   4  -2  -4  -57.59   40.30
   4  -2  -4   35.60   29.10
   4  -2  -4   31.00   20.70
   4  -2  -4   10.50   29.80
   4  -2  -4  -29.70   26.30
   4  -2  -4   59.39   29.50
   4  -2  -4   21.30   16.80
  -4   2   4   12.00   17.80
   3  -2  -4  346.57   51.59
   3  -2  -4  317.37   60.49
   3  -2  -4  421.66   43.60
   3  -2  -4  319.07   52.29
   3  -2  -4  366.06   45.40
   3  -2  -4  323.57   34.30
   3  -2  -4  399.96   40.70
  -3   2   4  342.87   92.29
  -3   2   4  380.86   35.00
  -2   2   4   25.30   13.70
  -2   2   4   29.60   31.40
  -2   2   4   54.09   11.50
  -2   2   4   81.79   28.70
   1  -2  -4  103.89   20.60
  -1   2   4  145.29   14.90
  -1   2   4  110.39   21.60
  -1   2   4  106.69   16.00
   0  -2  -4   89.49   15.70
   0  -2  -4  107.49   16.70
   0   2   4   91.99   12.10
   0   2   4  115.79   24.00
   0   2   4   73.59    9.30
   0   2   4   74.39   14.10
   0   2   4  110.99   18.30
  -1  -2  -4 1181.18   88.49
  -1  -2  -4 1029.60   87.89
  -1  -2  -4 1020.70   88.09
   1   2   4  936.81   84.99
   1   2   4 1147.09   89.19
   1   2   4 1080.29   91.89
   1   2   4  928.71   88.49
  -2  -2  -4   54.69   28.50
  -2  -2  -4   32.80   27.90
  -2  -2  -4   13.10   14.50
  -2  -2  -4   49.80   19.00
   2   2   4   49.20   52.99
   2   2   4   41.40   12.30
   2   2   4   31.90    9.50
   2   2   4   46.90   18.90
   2   2   4   56.29   34.10
  -3  -2  -4  128.29   26.90
  -3  -2  -4  125.99   29.80
  -3  -2  -4   79.19   55.89
  -3  -2  -4   91.69   33.70
  -3  -2  -4  122.79   19.70
  -3  -2  -4  137.59   21.90
   3   2   4  133.19   32.00
   3   2   4  142.59   22.90
   3   2   4   32.00  117.39
   3   2   4  124.19   26.20
   3   2   4  137.39   53.49
   3   2   4  111.19   21.00
   3   2   4  174.88   22.10
  -4  -2  -4  286.27   29.80
  -4  -2  -4  212.48   41.80
   4   2   4  275.57   43.70
   4   2   4  250.77   41.40
   4   2   4  223.38   39.50
   4   2   4  316.47   28.90
   4   2   4  292.47   34.40
  -5  -2  -4  123.39   34.70
  -5  -2  -4  287.57  101.09
  -5  -2  -4  188.78   22.90
   5   2   4   35.40   61.59
   5   2   4  158.28   27.00
   5   2   4  173.98   22.30
   5   2   4  112.19   23.20
  -6  -2  -4   49.40   15.60
   6   2   4   74.99   18.50
   6   2   4   16.30   11.00
   6   2   4   35.40    6.70
   5  -3  -4  134.69   27.80
   5  -3  -4  141.79   16.30
   5  -3  -4  125.29   25.00
   5  -3  -4  187.38   34.20
  -5   3   4  153.58   22.40
   4  -3  -4   26.00   24.40
   4  -3  -4   -3.00   66.09
   4  -3  -4   24.20   12.80
   4  -3  -4  -12.20   37.10
   4  -3  -4   44.50   21.10
   4  -3  -4   29.50   31.20
   4  -3  -4   25.50   20.90
  -4   3   4   26.70   17.80
  -4   3   4    9.70   45.80
   3  -3  -4  213.58   31.60
   3  -3  -4  154.88   35.60
   3  -3  -4  183.08   23.70
   3  -3  -4   85.09   44.00
   3  -3  -4  174.48   32.10
   3  -3  -4  166.58   32.80
  -3   3   4  178.98   20.80
  -3   3   4  148.29   32.70
   2  -3  -4   85.29   36.40
   2  -3  -4  192.18   37.30
   2  -3  -4  147.99   27.40
   2  -3  -4   91.59   33.30
   2  -3  -4  141.59   31.90
  -2   3   4  107.59   24.40
  -2   3   4  133.99   15.50
  -2   3   4   85.19   30.60
  -2   3   4  114.79   26.60
   1  -3  -4   31.70   17.50
   1  -3  -4   10.40   16.20
  -1   3   4   -7.70    6.10
  -1   3   4  -22.40   17.70
  -1   3   4  -22.00   16.10
  -1   3   4  -11.90   10.30
   0  -3  -4   60.39   17.20
   0  -3  -4   68.89   16.80
   0   3   4   36.40    6.50
   0   3   4   55.89   10.80
   0   3   4   23.30   22.30
   0   3   4   51.89   13.00
  -1  -3  -4   36.70   17.90
  -1  -3  -4   55.99   16.70
  -1  -3  -4   57.19   16.90
  -1  -3  -4   52.29   12.20
   1   3   4   42.30   16.80
   1   3   4   56.39   17.90
   1   3   4   21.40   23.00
   1   3   4   -1.00   26.30
  -2  -3  -4  964.40   82.19
  -2  -3  -4  850.01   93.39
  -2  -3  -4  959.00   90.39
  -2  -3  -4 1010.60   99.49
   2   3   4  927.71   93.19
   2   3   4  799.82   80.69
   2   3   4  965.10   83.69
   2   3   4  934.91   96.09
  -3  -3  -4  140.69   29.90
  -3  -3  -4  105.59   23.50
  -3  -3  -4  173.68   19.70
  -3  -3  -4  174.38   34.90
  -3  -3  -4  109.99  112.19
   3   3   4  152.28   26.90
   3   3   4  152.48   64.29
   3   3   4  165.28   24.50
   3   3   4  238.78  121.79
   3   3   4  141.49   18.40
   3   3   4  165.48   23.70
  -4  -3  -4   15.60   18.10
  -4  -3  -4   -1.30   19.90
  -4  -3  -4    7.90   40.70
  -4  -3  -4   55.19   24.50
  -4  -3  -4   12.50   22.80
  -4  -3  -4   13.40   32.20
   4   3   4   29.50   16.60
   4   3   4    2.70   43.30
   4   3   4   10.30   11.70
  -5  -3  -4    9.80   15.60
  -5  -3  -4 -104.09   85.29
  -5  -3  -4   30.80   53.29
   5   3   4   11.10   16.70
   5   3   4  -18.60   72.29
   5   3   4   19.80   18.40
   5   3   4   -6.70   15.00
  -6  -3  -4  268.97   31.80
  -6  -3  -4  248.38   24.90
   6   3   4  307.77   27.30
   6   3   4  216.68   25.40
   6   3   4  285.07   24.00
   5  -4  -4   -5.40   20.40
   5  -4  -4   37.80   13.70
   5  -4  -4  -13.00   14.50
   5  -4  -4    7.70    9.60
   5  -4  -4   21.90   29.00
  -5   4   4   10.30   38.30
  -5   4   4   -8.00   24.10
   4  -4  -4  512.15   48.40
   4  -4  -4  440.06   55.69
   4  -4  -4  479.05   46.70
   4  -4  -4  448.76   53.99
   4  -4  -4  443.96   42.10
   4  -4  -4  399.76   49.70
  -4   4   4  440.86   42.20
  -4   4   4  454.55   80.99
   3  -4  -4  118.49   32.60
   3  -4  -4  107.59   34.20
  -3   4   4   78.39   23.50
  -3   4   4   40.50   43.80
  -3   4   4  106.89   21.80
   2  -4  -4   20.60   15.80
   2  -4  -4   48.20   16.20
   2  -4  -4   52.49   24.20
   2  -4  -4   32.80   25.60
   2  -4  -4   64.29   33.00
  -2   4   4   32.10   14.70
  -2   4   4   54.19   11.00
  -2   4   4   42.50   31.30
   1  -4  -4 2236.28  181.48
   1  -4  -4 2375.56  183.78
   1  -4  -4 1986.80  183.78
  -1   4   4 2027.50  194.58
  -1   4   4 2412.26  176.78
  -1   4   4 1997.20  178.28
   0  -4  -4   64.19   23.30
   0  -4  -4   77.59   40.70
   0   4   4   97.69   25.80
   0   4   4   78.19   14.70
   0   4   4   88.99   10.80
   0   4   4  104.59   33.10
  -1  -4  -4  101.79   26.60
  -1  -4  -4   98.39   19.00
  -1  -4  -4  122.99   26.30
   1   4   4  128.69   29.40
   1   4   4   93.59   17.90
   1   4   4  140.39   33.20
  -2  -4  -4   51.49   20.50
  -2  -4  -4   80.29   21.80
  -2  -4  -4  107.89   24.80
   2   4   4   35.10   45.80
   2   4   4   62.19   24.00
   2   4   4   22.80   53.29
   2   4   4   16.40   36.30
   2   4   4   86.29   18.10
  -3  -4  -4   67.69   15.20
  -3  -4  -4  127.89   21.40
  -3  -4  -4  107.29   31.20
  -3  -4  -4   88.69   49.50
  -3  -4  -4  117.39   85.59
   3   4   4  108.49   18.10
   3   4   4  131.19   25.50
   3   4   4   65.99   34.40
   3   4   4   48.40   21.20
   3   4   4   92.69   19.70
  -4  -4  -4  129.49   30.70
  -4  -4  -4  211.18   65.69
  -4  -4  -4   60.69   33.40
  -4  -4  -4  119.99   23.10
   4   4   4   38.50   51.29
   4   4   4   83.29   24.20
   4   4   4   98.39   17.10
   4   4   4   88.59   20.20
  -5  -4  -4  102.79   64.89
   5   4   4  129.39   25.30
   5   4   4  151.88   19.70
   5   4   4  166.88   29.00
  -6  -4  -4   22.70   15.00
  -6  -4  -4   -9.00   13.50
   6   4   4    5.10    8.50
   6   4   4   -3.50    7.30
   5  -5  -4   51.19   15.30
   5  -5  -4   16.80   18.60
   5  -5  -4   39.60   21.10
   5  -5  -4   63.59   16.00
  -5   5   4   42.30   21.00
   4  -5  -4   77.09   27.00
   4  -5  -4    1.40   11.30
   4  -5  -4  -18.20   22.60
   4  -5  -4   16.40   20.80
   4  -5  -4  -14.00   24.70
  -4   5   4   22.40   22.10
  -4   5   4   31.90   50.39
   3  -5  -4  463.75   51.19
   3  -5  -4  466.55   58.19
   3  -5  -4  465.75   58.59
   3  -5  -4  463.45   56.89
  -3   5   4  501.75   46.90
  -3   5   4  466.95   59.29
   2  -5  -4  557.94   59.79
   2  -5  -4  587.04   70.09
   2  -5  -4  507.75   69.79
   2  -5  -4  588.44   54.59
   2  -5  -4  649.34   59.09
  -2   5   4  626.44   51.09
  -2   5   4  606.04   52.99
  -2   5   4  623.24   58.19
   1  -5  -4  183.68   34.10
   1  -5  -4  123.69   42.70
   1  -5  -4  188.88   40.10
   1  -5  -4  126.29   20.90
   1  -5  -4  141.39   20.40
   1  -5  -4  183.08   35.40
  -1   5   4  148.69   24.10
  -1   5   4  150.88   20.00
  -1   5   4  132.19   32.80
   0  -5  -4  601.54   59.39
   0  -5  -4  634.64   81.29
   0  -5  -4  490.85   66.39
   0   5   4  597.44   68.39
   0   5   4  748.53   77.39
   0   5   4  600.24   50.29
   0   5   4  579.24   52.49
  -1  -5  -4  465.55   50.09
   1   5   4  461.25   40.10
   1   5   4  409.26   42.90
   1   5   4  514.35   62.99
   1   5   4  523.45   70.79
   1   5   4  466.15   61.19
   1   5   4  547.65   52.29
  -2  -5  -4   76.69   26.50
  -2  -5  -4   43.80   24.30
  -2  -5  -4  -27.10   52.89
  -2  -5  -4   38.40   14.80
  -2  -5  -4   88.09   22.10
  -2  -5  -4   59.69   18.00
   2   5   4   61.69   13.10
   2   5   4    2.10   62.69
   2   5   4   69.69   12.10
   2   5   4   13.00   55.19
  -3  -5  -4  197.48   39.30
  -3  -5  -4  135.59   57.59
  -3  -5  -4  231.58   24.00
  -3  -5  -4  137.19   32.80
  -3  -5  -4  297.17   59.99
   3   5   4  218.28   33.50
   3   5   4  171.68   24.30
   3   5   4  185.08   26.50
   3   5   4  256.37   46.20
  -4  -5  -4  186.88   49.50
   4   5   4  160.08   35.10
   4   5   4  135.19   38.20
   4   5   4  128.39   64.19
   4   5   4  191.58   20.70
  -5  -5  -4  136.19   60.69
  -5  -5  -4  197.78   39.50
   5   5   4  261.87   28.20
   5   5   4  207.78   99.89
   5   5   4  220.78   24.70
  -6  -5  -4   -5.90   22.50
  -6  -5  -4   -6.70   20.60
   6   5   4    6.50   11.30
   6   5   4    1.50    6.90
   5  -6  -4   42.80   19.10
   5  -6  -4    5.30    8.50
   5  -6  -4   38.60   16.90
  -5   6   4    0.40   18.90
  -5   6   4   -1.40   22.10
   4  -6  -4   18.30   12.50
   4  -6  -4    7.50   22.20
   4  -6  -4   65.99   38.30
   4  -6  -4  -11.50   34.10
  -4   6   4  -65.99   62.29
   3  -6  -4   19.60   26.30
   3  -6  -4  -51.69   96.59
   3  -6  -4   -7.50   13.80
   3  -6  -4   18.00   24.40
   3  -6  -4   61.19   33.10
  -3   6   4   17.50   14.60
  -3   6   4   -3.80   64.79
   2  -6  -4  328.27   61.29
   2  -6  -4  329.37   58.69
   2  -6  -4  206.48   36.40
   2  -6  -4  238.08   48.20
   2  -6  -4  284.07   38.10
   1  -6  -4   50.89   31.10
   1  -6  -4   18.50   32.60
   1  -6  -4    3.00   14.00
   1  -6  -4   -3.60   16.00
   1  -6  -4    7.00   35.10
  -1   6   4  -18.00   45.00
  -1   6   4    4.50   11.60
  -1   6   4   11.30    8.90
  -1   6   4  -17.60   14.90
   0  -6  -4  910.11   80.99
   0  -6  -4  990.40   90.49
   0  -6  -4 1015.30   81.59
   0   6   4 1082.89   98.89
   0   6   4  932.61   79.19
   0   6   4  810.62  115.19
   0   6   4  851.41   85.19
   0   6   4 1145.99  117.49
  -1  -6  -4  422.56   36.90
  -1  -6  -4  402.16   36.40
  -1  -6  -4  315.17   56.69
   1   6   4  395.56   33.60
   1   6   4  302.57   41.00
   1   6   4  269.67   58.59
   1   6   4  382.66   35.80
   1   6   4  419.46   50.69
  -2  -6  -4  146.29   21.40
  -2  -6  -4   78.19   41.40
  -2  -6  -4  -63.79   83.39
  -2  -6  -4   89.89   35.50
  -2  -6  -4  128.79   24.60
   2   6   4  108.79   16.30
   2   6   4  165.48   20.60
   2   6   4  114.59   27.50
  -3  -6  -4  -14.40   51.69
  -3  -6  -4  -32.30   44.40
  -3  -6  -4   23.90   17.30
  -3  -6  -4   27.90   17.90
   3   6   4    1.80   19.40
   3   6   4   37.50   12.90
   3   6   4   25.30   20.10
   3   6   4   52.89   29.90
   3   6   4   68.09   46.20
  -4  -6  -4  269.07   30.20
  -4  -6  -4   89.39   90.69
  -4  -6  -4  323.77   64.19
   4   6   4  311.97   29.00
   4   6   4  302.47   36.60
   4   6   4  253.47   38.00
   4   6   4  229.38   80.19
  -5  -6  -4  194.28   23.20
  -5  -6  -4  170.88   94.09
  -5  -6  -4  163.88   19.80
   5   6   4   37.80   87.69
   5   6   4  133.69   41.10
   5  -7  -4   44.40   18.80
   5  -7  -4   30.50    8.90
   5  -7  -4   14.90   17.00
   5  -7  -4   10.40   15.80
  -5   7   4   41.00   25.80
  -5   7   4   15.70   17.20
  -4   7   4  204.18   26.10
   3  -7  -4  -29.90   41.00
   3  -7  -4  -11.30   24.60
   3  -7  -4  113.19  111.99
   3  -7  -4   45.80   17.50
   3  -7  -4    3.90   24.10
   3  -7  -4   72.89   37.80
  -3   7   4   16.60   13.60
  -3   7   4  -17.20   33.70
   2  -7  -4    9.60   16.00
   2  -7  -4    2.20   17.00
   2  -7  -4   -1.40   27.70
   2  -7  -4   70.39   49.00
   2  -7  -4   85.39   31.40
   2  -7  -4   34.40   23.90
  -2   7   4    2.80   30.40
  -2   7   4  -33.20   35.20
  -2   7   4   28.50   14.00
   1  -7  -4  555.94   51.89
   1  -7  -4  496.55   54.89
   1  -7  -4  554.74   64.69
   1  -7  -4  550.94   66.39
   1  -7  -4  524.65   67.09
  -1   7   4  506.45   47.80
  -1   7   4  582.24   57.29
  -1   7   4  605.04   50.69
   0  -7  -4  954.20  133.59
   0  -7  -4  833.92   73.59
   0  -7  -4  797.82   72.39
   0  -7  -4  886.11   90.89
   0   7   4  824.62   71.49
   0   7   4  847.52   72.29
   0   7   4  892.11   80.09
   0   7   4  909.31   77.69
  -1  -7  -4  244.88   49.00
  -1  -7  -4  282.17   29.80
  -1  -7  -4  165.58   86.09
  -1  -7  -4  317.47   53.09
  -1  -7  -4  295.87   28.10
   1   7   4  149.09  177.68
   1   7   4  262.77   36.10
   1   7   4  286.17   30.20
   1   7   4  269.37   27.20
   1   7   4  251.77   38.10
  -2  -7  -4   43.40   17.60
  -2  -7  -4   -7.40   46.00
   2   7   4   36.90   27.00
   2   7   4   23.90   12.70
   2   7   4   22.40   18.30
   2   7   4   -4.70   41.80
  -3  -7  -4  160.48   22.10
  -3  -7  -4  125.99   53.69
  -3  -7  -4  172.98   22.30
  -3  -7  -4   73.59   76.39
   3   7   4  153.08   20.30
   3   7   4  149.99   62.09
   3   7   4  184.18   30.20
   3   7   4  170.68   24.60
  -4  -7  -4  217.08  128.39
   4   7   4  -91.89  124.09
   4   7   4  133.09   29.30
   4   7   4   82.39   20.70
   4   7   4   95.69   15.20
  -5  -7  -4   52.99   10.00
  -5  -7  -4   73.89   16.30
   5   7   4   87.19   14.90
   5   7   4   86.99   21.90
   5   7   4   60.89   12.10
   4  -8  -4   67.29   26.00
   4  -8  -4   57.69   12.10
   4  -8  -4  100.99   23.30
  -4   8   4   87.49   23.00
  -4   8   4   65.79   19.30
  -4   8   4   83.09   15.10
   3  -8  -4   37.80   16.00
   3  -8  -4   20.10   40.20
   3  -8  -4   15.10   22.80
  -3   8   4  106.59   50.59
  -3   8   4   16.60   16.00
  -3   8   4   25.60   17.50
  -3   8   4   18.20   36.00
   2  -8  -4   31.20   29.60
   2  -8  -4   68.49   34.00
   2  -8  -4   55.39   15.40
   2  -8  -4  130.59   75.69
   2  -8  -4   84.39   25.60
   2  -8  -4   35.00   19.20
  -2   8   4   54.29   16.10
  -2   8   4   47.40   14.80
  -2   8   4   60.09   23.60
   1  -8  -4  107.39   22.30
   1  -8  -4  109.39   31.30
   1  -8  -4  115.59   22.50
   1  -8  -4  -17.20   59.99
   1  -8  -4  107.89   46.30
  -1   8   4   87.79   29.90
  -1   8   4  111.19   21.40
  -1   8   4  122.69   22.30
   0  -8  -4   -1.40   43.50
   0  -8  -4   40.90   53.19
   0  -8  -4   25.70   25.50
   0   8   4   -0.80   31.30
   0   8   4   15.90   41.10
   0   8   4   14.70   26.60
   0   8   4   19.50   13.10
   0   8   4   16.70   11.30
  -1  -8  -4  455.95   80.39
  -1  -8  -4  345.07   35.10
   1   8   4  355.16   34.70
   1   8   4  366.66   36.00
  -2  -8  -4   -3.40   66.19
  -2  -8  -4   60.59   74.59
  -2  -8  -4  108.59   18.40
  -2  -8  -4  135.39   21.60
   2   8   4  109.49   25.10
   2   8   4   34.20   33.70
   2   8   4   61.49  100.69
   2   8   4  136.09   26.80
   2   8   4   80.69   21.60
  -3  -8  -4   82.09   15.00
  -3  -8  -4  401.26  153.48
  -3  -8  -4  -50.99   63.19
  -3  -8  -4   95.49   21.00
   3   8   4   87.89   21.50
   3   8   4   48.30   66.99
   3   8   4   60.79   18.80
   3   8   4  125.59   19.00
  -4  -8  -4  -94.89   87.09
  -4  -8  -4   27.30   12.00
   4   8   4  -48.80  113.09
  -5  -8  -4   16.60   17.10
  -5  -8  -4   17.40    6.70
   5   8   4   14.30    7.00
   5   8   4   67.59   24.60
   5   8   4   20.60    9.90
   4  -9  -4   -4.00    8.10
   4  -9  -4   13.80   10.80
   4  -9  -4    2.10   18.20
  -4   9   4   23.30    9.90
   3  -9  -4  -32.80   54.79
  -3   9   4  -21.50   17.80
  -3   9   4   -7.40   34.90
  -3   9   4    6.10   20.50
   2  -9  -4   58.69   85.09
   2  -9  -4   33.50   25.10
   2  -9  -4   -4.40   14.40
   2  -9  -4  -25.90   29.90
   2  -9  -4    3.50   13.00
   2  -9  -4    4.80   30.90
  -2   9   4    3.10   15.50
  -2   9   4   47.30   48.80
  -2   9   4  -12.70   21.70
   1  -9  -4   20.80   52.89
   1  -9  -4   97.59   20.00
   1  -9  -4  107.09   17.70
   1  -9  -4   67.79   39.00
   1  -9  -4   85.09   33.60
  -1   9   4   66.19   17.90
  -1   9   4   69.49   24.40
  -1   9   4  131.09   46.30
  -1   9   4  107.49   17.20
   0  -9  -4  135.49   22.80
   0  -9  -4  155.98   21.30
   0  -9  -4  209.38   63.19
   0  -9  -4  149.49   33.60
   0   9   4  162.98   24.80
   0   9   4  210.28   45.00
   0   9   4   94.79   71.59
  -1  -9  -4   21.50   12.70
  -1  -9  -4   59.29   37.50
  -1  -9  -4   29.90   14.60
   1   9   4   44.20   22.80
   1   9   4   26.50   16.90
   1   9   4   63.19   74.39
   1   9   4   21.60   22.90
  -2  -9  -4   34.60   12.20
  -2  -9  -4   32.80   70.39
   2   9   4   28.10   16.30
   2   9   4   90.69   85.79
   2   9   4   28.10   18.70
  -3  -9  -4   89.79  148.69
  -3  -9  -4   83.09   12.30
  -3  -9  -4   87.59   18.40
   3   9   4   83.89   14.80
   3   9   4   58.19   30.10
  -4  -9  -4  101.79   18.20
  -4  -9  -4  124.29   15.60
  -4  -9  -4  344.77  180.88
   4   9   4  114.59   21.20
   4   9   4  135.99   24.10
   4   9   4  133.09   14.00
  -5  -9  -4    3.50    5.70
  -5  -9  -4   63.39   20.10
   5   9   4    7.30    6.80
   5   9   4    8.00   40.10
   5   9   4   17.10    9.20
   3 -10  -4   12.40   16.40
   3 -10  -4    4.60   11.30
  -3  10   4   31.40   28.10
  -3  10   4   36.40   21.20
   2 -10  -4   32.70   16.50
   2 -10  -4   97.19  118.89
   2 -10  -4   56.49   22.40
   2 -10  -4   36.10   20.90
  -2  10   4   43.70   21.40
  -2  10   4   43.60   24.70
  -2  10   4   63.79   17.30
   1 -10  -4   15.90   24.40
   1 -10  -4   44.80   13.30
   1 -10  -4  174.98   85.59
  -1  10   4   10.30   21.00
  -1  10   4   34.30   54.89
  -1  10   4   11.40   31.90
   0 -10  -4   95.29   20.70
   0 -10  -4  113.79   20.80
   0 -10  -4  136.99   34.90
   0  10   4  175.98   35.70
   0  10   4  131.89   25.40
   0  10   4   68.79   21.70
   0  10   4   83.99   87.89
   0  10   4   95.99   30.40
  -1 -10  -4    6.30   17.20
  -1 -10  -4   36.20   28.00
  -1 -10  -4  -20.30   11.10
   1  10   4    4.30   18.40
  -2 -10  -4  426.36   38.00
  -2 -10  -4  452.35   39.30
  -2 -10  -4  330.37   56.49
   2  10   4  394.36   39.30
   2  10   4  348.67   46.30
  -3 -10  -4    9.60   44.90
  -3 -10  -4   17.80   13.60
  -4 -10  -4   24.60   15.80
  -4 -10  -4   32.00    6.60
   4  10   4   25.90    7.90
   4  10   4   21.20   10.20
   4  10   4   37.20   15.80
   3 -11  -4   13.90   10.80
   3 -11  -4   -5.30    7.80
  -3  11   4    8.40   15.60
  -3  11   4    7.10   17.60
   2 -11  -4   10.50   15.50
   2 -11  -4   11.10   17.00
  -2  11   4    6.40   13.70
   1 -11  -4   49.60   28.00
   1 -11  -4   19.20   55.89
  -1  11   4    6.70   21.30
  -1  11   4   49.60   26.40
   0 -11  -4   90.29   26.70
   0 -11  -4   22.20   12.20
   0 -11  -4   59.99   16.90
   0  11   4   45.00   17.30
  -1 -11  -4   21.40   11.40
  -1 -11  -4   19.50   13.90
   1  11   4    6.00   21.70
   1  11   4   12.00   23.00
  -2 -11  -4    4.70   24.80
  -3 -11  -4  162.28   18.10
  -3 -11  -4  204.38   43.00
   3  11   4  171.28   28.30
  -4 -11  -4   29.70   15.40
   4  11   4   30.30   13.50
   2 -12  -4    9.00   15.60
   2 -12  -4   16.80    9.00
  -2  12   4   18.80   15.70
  -2  12   4   13.80   13.80
   1 -12  -4  105.09   14.00
   1 -12  -4  125.19   22.20
   1 -12  -4  113.09   14.70
  -1  12   4  161.68   23.60
  -1  12   4  117.69   19.50
   0 -12  -4  120.69   25.00
   0 -12  -4  131.29   16.20
   0 -12  -4  130.79   15.80
   0  12   4   86.79   20.70
  -1 -12  -4    6.60    8.90
  -1 -12  -4   34.80   12.10
  -1 -12  -4    5.10   26.90
   1  12   4   12.00   16.60
   1  12   4   23.90   16.60
   1  12   4   46.90   14.40
  -2 -12  -4   95.99   22.00
  -2 -12  -4   52.29   13.60
  -2 -12  -4   65.89    9.80
   2  12   4   66.39   14.50
   2  12   4   74.49   14.80
  -3 -12  -4   15.20   14.40
   3  12   4   13.90    9.50
   3  12   4   11.20   12.20
   1 -13  -4   35.60   18.60
   1 -13  -4   43.80    7.60
  -1  13   4   19.80   19.60
  -1  13   4   42.70   13.60
   0 -13  -4   75.59   12.20
   0 -13  -4   71.39   15.50
   0  13   4   47.80   14.80
   0  13   4   48.10   17.00
  -1 -13  -4   13.50    8.20
  -1 -13  -4   -0.10   23.00
  -1 -13  -4   12.00   10.90
   1  13   4   -6.60   15.60
   1  13   4   14.20    8.60
  -2 -13  -4  101.59   15.00
  -2 -13  -4  103.09   12.00
   1  12  -5  187.28   23.00
   1  12  -5  191.18   19.20
  -1 -12   5  171.78   23.90
   0  12  -5   48.00   10.30
   0 -12   5   87.49   24.60
   0 -12   5  -20.80   34.70
  -1  12  -5   59.99   22.20
  -1  12  -5    0.40   16.10
  -1  12  -5    5.80    8.40
   2  11  -5   91.49   13.70
   2  11  -5   75.39   19.90
  -2 -11   5   53.49   23.10
   1  11  -5  183.48   19.60
   1  11  -5  165.98   18.20
  -1 -11   5  144.79   19.70
  -1 -11   5  159.68   21.10
   0  11  -5   14.30   16.00
   0  11  -5   37.40   21.80
   0  11  -5   18.10    9.00
   0 -11   5   36.70   20.90
   0 -11   5   52.99   27.80
  -1  11  -5  181.98   17.40
  -1  11  -5  187.78   23.50
  -1  11  -5  158.78   22.50
   1 -11   5  149.39   28.70
  -2  11  -5   -9.50   14.40
  -2  11  -5    5.80    7.80
   2 -11   5   16.80    8.70
   3  10  -5   37.40    9.90
   3  10  -5   45.80   15.30
  -3 -10   5   75.89   20.80
  -3 -10   5   51.69   15.80
   2  10  -5    9.00   18.30
   2  10  -5   37.20   18.70
   2  10  -5   32.00   19.20
  -2 -10   5   -0.50   19.20
  -2 -10   5    0.10   99.09
   1  10  -5   30.50   26.80
   1  10  -5    4.30   18.80
  -1 -10   5   50.79   16.90
  -1 -10   5   22.10   14.30
   0  10  -5  110.29   19.00
   0  10  -5  155.78   34.00
   0  10  -5   89.99   25.90
   0 -10   5   96.89   17.00
  -1  10  -5    9.00   15.30
  -1  10  -5   34.40   22.70
  -1  10  -5   -1.30   22.60
   1 -10   5   32.20   15.00
   1 -10   5   26.80   20.20
  -2  10  -5   48.30   15.20
   2 -10   5   95.49   20.80
   2 -10   5   52.69   32.70
   2 -10   5  -57.49   59.99
  -3  10  -5    3.90    8.70
  -3  10  -5   18.20   11.70
   3 -10   5    4.60   10.90
   4   9  -5   33.30   13.10
  -4  -9   5   -3.90   18.90
   3   9  -5  -13.00   14.30
   3   9  -5    7.90   13.80
   3   9  -5   15.60   16.80
  -3  -9   5   55.29   22.80
  -3  -9   5   16.00   15.30
   2   9  -5   27.60   30.20
   2   9  -5   27.10   17.40
   2   9  -5   -8.80   15.90
   2   9  -5   15.10   19.50
  -2  -9   5    2.60   13.90
  -2  -9   5    2.00   12.00
  -2  -9   5  -52.39   68.29
   1   9  -5   50.09   16.40
   1   9  -5   44.50   15.30
   1   9  -5   47.30   16.60
   1   9  -5   33.70   18.80
   1   9  -5   68.09   22.40
  -1  -9   5  -50.59  116.89
  -1  -9   5   57.59   13.40
   0   9  -5  318.57   37.40
   0   9  -5  357.46   38.40
   0   9  -5  268.87   35.10
   0   9  -5  370.46   31.80
   0   9  -5  336.87   33.40
   0   9  -5  288.97   38.90
   0  -9   5  248.18   71.19
   0  -9   5  249.88  102.19
   0  -9   5  253.37   28.60
  -1   9  -5   37.70   25.10
  -1   9  -5   73.19   14.90
  -1   9  -5   63.19   20.70
  -1   9  -5   45.70   15.30
  -1   9  -5    9.10   18.00
   1  -9   5 -122.59   96.99
   1  -9   5   49.00   88.09
   1  -9   5    7.60   39.40
   1  -9   5   30.90   12.10
  -2   9  -5  216.48   32.00
  -2   9  -5  165.68   22.00
   2  -9   5  194.78   25.70
   2  -9   5  161.38  107.69
  -3   9  -5   24.80   23.10
  -3   9  -5   23.20   11.10
   3  -9   5   14.50    9.40
   3  -9   5  107.79   93.29
   3  -9   5  -18.60   21.20
   3  -9   5   26.70   32.40
  -4   9  -5   17.30   18.30
   4  -9   5    1.70    7.00
   4   8  -5   -7.20    9.50
   4   8  -5   -2.30   10.80
  -4  -8   5   -2.40   15.90
  -4  -8   5   -3.40   14.50
   3   8  -5   31.30   25.00
  -3  -8   5  -39.60   74.09
  -3  -8   5   33.20   14.40
  -3  -8   5   22.60   11.90
   2   8  -5   -6.30   33.20
   2   8  -5   -0.80   17.90
   2   8  -5  -16.60   14.70
   2   8  -5   11.80   18.10
   2   8  -5   -3.90   20.40
  -2  -8   5   -6.70   11.40
  -2  -8   5   49.00   58.79
  -2  -8   5  124.99   91.89
   1   8  -5  412.06   41.30
   1   8  -5  471.85   46.90
   1   8  -5  364.96   41.30
   1   8  -5  438.86   46.40
   0   8  -5   13.60   21.60
   0   8  -5    2.70   24.40
   0   8  -5  -15.20   16.40
   0   8  -5    8.50   17.70
   0   8  -5   42.20   29.60
   0  -8   5    6.10   11.20
   0  -8   5    5.10   74.29
   0  -8   5   92.69   70.99
  -1   8  -5   15.80   21.70
  -1   8  -5   49.30   25.40
  -1   8  -5  -30.90   25.80
  -1   8  -5   13.00   17.10
   1  -8   5   47.10   75.79
   1  -8   5   11.90   38.70
   1  -8   5   14.60   11.80
   1  -8   5    9.10   15.70
  -2   8  -5  377.56   37.10
  -2   8  -5  323.47   43.00
  -2   8  -5  437.16   40.80
   2  -8   5  554.04   98.39
   2  -8   5  412.46   52.59
   2  -8   5  439.76   92.79
  -3   8  -5    0.60   24.90
  -3   8  -5    8.80   12.30
   3  -8   5   40.30   17.00
   3  -8   5    6.60   20.40
   3  -8   5  -20.70   18.10
   3  -8   5   17.40  117.39
  -4   8  -5    7.10   13.70
  -4   8  -5   17.50   13.70
  -4   8  -5   31.80   11.50
   4  -8   5   14.40   12.40
   4   7  -5   39.30   17.90
   4   7  -5   44.10   12.90
  -4  -7   5   50.09   16.10
  -4  -7   5   77.69   15.20
   3   7  -5   20.70   24.20
   3   7  -5    4.70   13.30
   3   7  -5   33.60   14.10
   3   7  -5   16.20   16.00
  -3  -7   5  176.88  190.28
  -3  -7   5    7.10  125.39
  -3  -7   5   39.60   12.00
   2   7  -5   33.40   19.20
   2   7  -5   64.89   24.60
   2   7  -5   77.39   17.40
   2   7  -5   23.70   19.80
   2   7  -5   53.89   59.29
   2   7  -5   60.49   20.60
  -2  -7   5   50.99   10.80
  -2  -7   5  -60.09  133.69
   1   7  -5  247.88   41.10
   1   7  -5  250.47   31.20
   1   7  -5  246.98   34.40
   1   7  -5  277.37   32.10
   1   7  -5  188.98   38.30
   1   7  -5  398.66   90.19
   0   7  -5   16.50   18.40
   0   7  -5  -11.60   19.90
   0   7  -5   29.10   19.00
   0   7  -5  -14.90   23.60
   0  -7   5  -30.00   80.09
   0  -7   5  -16.40    9.80
   0  -7   5    5.00   52.19
   0  -7   5   21.90   12.50
  -1   7  -5  177.88   22.90
  -1   7  -5  208.28   38.00
  -1   7  -5  169.08   31.20
  -1   7  -5  188.98   37.50
   1  -7   5  162.78   51.29
   1  -7   5  222.08   51.09
   1  -7   5  172.68   26.20
  -2   7  -5  688.23   64.19
  -2   7  -5  776.92   70.39
  -2   7  -5  737.33   60.69
  -2   7  -5  596.84   65.99
   2  -7   5  590.84   76.59
   2  -7   5  671.43   58.29
   2  -7   5  712.83   66.89
  -3   7  -5  240.78   40.20
  -3   7  -5  171.18   23.90
   3  -7   5  150.48   23.80
   3  -7   5  197.08   26.90
   3  -7   5  128.99   80.99
   3  -7   5  193.08   68.99
   4  -7   5   88.99   31.90
   4  -7   5   10.40   32.70
   4  -7   5   59.69   33.60
  -5   7  -5   58.69   14.70
  -5   7  -5   31.00    7.60
   5  -7   5   60.69   20.80
   5   6  -5   67.59   12.50
   5   6  -5   59.79   10.00
   5   6  -5   54.89   13.90
  -5  -6   5   60.69   15.10
   4   6  -5   75.39   23.60
  -4  -6   5  -62.89  115.59
  -4  -6   5   72.69   16.50
   3   6  -5  -31.50   48.50
   3   6  -5  -21.80   18.70
   3   6  -5    4.00   14.00
   3   6  -5   -7.40   16.80
  -3  -6   5  -47.00   66.89
  -3  -6   5 -124.59   95.59
  -3  -6   5    2.60   10.10
   2   6  -5   37.60   19.10
   2   6  -5  -17.30   16.20
   2   6  -5   41.80   36.40
   2   6  -5   14.50   21.40
   2   6  -5  -34.60   24.10
   2   6  -5    8.90   14.10
  -2  -6   5   33.50   56.99
   1   6  -5   -8.60   38.90
   1   6  -5  -19.90   30.80
   1   6  -5   15.60   35.60
   1   6  -5   30.40   19.30
   1   6  -5   15.30   27.70
  -1  -6   5   15.90    7.90
  -1  -6   5  -14.30   16.10
   0   6  -5  -19.40   35.50
   0   6  -5   18.70   34.00
   0   6  -5  -22.00   28.60
   0   6  -5   26.10   31.70
   0   6  -5   28.70   21.50
   0   6  -5   12.70   20.60
   0   6  -5   12.60   18.90
   0  -6   5   -0.10    9.40
   0  -6   5   10.90   43.90
   0  -6   5    0.30   16.50
  -1   6  -5   41.10   18.10
  -1   6  -5   78.79   25.00
  -1   6  -5  148.69   33.90
  -1   6  -5  108.99   31.00
  -1   6  -5   81.79   25.50
   1  -6   5   60.79   35.40
   1  -6   5  124.99   38.70
   1  -6   5  123.69   53.09
   1  -6   5   90.39   15.10
   1  -6   5   61.49   13.00
  -2   6  -5  175.48   31.20
  -2   6  -5  122.99   30.60
  -2   6  -5  162.38   21.40
   2  -6   5  180.38   26.20
   2  -6   5  119.59   19.90
   2  -6   5  183.58   44.70
   2  -6   5  151.48   45.80
  -3   6  -5   86.59   28.60
  -3   6  -5   83.19   17.20
  -3   6  -5  106.79   21.30
   3  -6   5   56.09   21.70
   3  -6   5  100.49   64.19
   3  -6   5   44.90   21.60
  -4   6  -5   14.60   18.20
  -4   6  -5   -4.90   12.50
  -4   6  -5    5.30   27.90
   4  -6   5   12.90   45.50
   4  -6   5   47.00  117.49
   4  -6   5  -11.30   16.40
  -5   6  -5   12.50   10.20
   5  -6   5    1.30   21.80
   5  -6   5   28.70   13.40
   5  -6   5   33.80    8.60
   5   5  -5   -1.80   10.20
   5   5  -5   11.40   11.00
   5   5  -5    3.00   11.60
  -5  -5   5  -34.80   23.10
  -5  -5   5   -1.10   13.20
   4   5  -5   45.20   15.50
   4   5  -5   34.80   19.20
  -4  -5   5   21.20   23.40
  -4  -5   5 -129.49  108.89
  -4  -5   5   12.10   10.90
   3   5  -5   53.39   37.10
   3   5  -5    5.90   17.30
   3   5  -5   19.30   16.10
   3   5  -5   37.50   31.00
   3   5  -5  -14.50   27.00
   3   5  -5   35.10   15.50
  -3  -5   5    7.50   14.40
  -3  -5   5  -18.20   58.29
   2   5  -5   59.09   30.30
   2   5  -5   81.89   29.70
  -2  -5   5   55.79   78.49
  -2  -5   5   80.79   12.20
   1   5  -5   23.70   18.50
   1   5  -5   51.99   22.60
   1   5  -5    3.90   28.30
   1   5  -5    8.50   25.00
   1   5  -5   57.19   22.10
   1   5  -5   25.70   18.30
  -1  -5   5   41.10    7.90
  -1  -5   5   45.10   51.59
   0   5  -5   86.09   23.40
   0   5  -5  111.19   28.20
   0   5  -5  -12.90   37.80
   0   5  -5   30.00   19.30
   0   5  -5   56.79   17.50
   0   5  -5   58.79   17.90
   0   5  -5   51.79   18.90
   0  -5   5   35.40   25.70
   0  -5   5    3.10   23.50
   0  -5   5   29.40   49.60
  -1   5  -5  979.10   83.49
  -1   5  -5  842.82   85.89
  -1   5  -5 1051.69   86.29
  -1   5  -5 1055.39   89.49
  -1   5  -5  921.51   88.69
   1  -5   5 1032.80   81.49
   1  -5   5 1005.10   90.29
  -2   5  -5   81.69   33.00
  -2   5  -5   71.69   29.40
  -2   5  -5   72.89   27.00
  -2   5  -5   53.99   14.80
   2  -5   5   68.59   20.20
   2  -5   5   71.89   13.70
   2  -5   5   52.29   31.80
   2  -5   5   60.29   36.20
  -3   5  -5  131.69   22.80
  -3   5  -5  118.79   29.40
  -3   5  -5  185.18   31.20
   3  -5   5   88.59   50.59
   3  -5   5   93.29   52.79
   3  -5   5  128.39   29.90
  -4   5  -5  107.19   22.20
  -4   5  -5   92.39   25.10
   4  -5   5   41.00  104.99
   4  -5   5  103.39   24.90
   4  -5   5   77.99  103.59
   4  -5   5  105.19   22.50
  -5   5  -5    8.20   10.90
  -5   5  -5   20.10   10.00
   5  -5   5    5.50   14.00
   5  -5   5   -1.70   24.00
   5  -5   5   13.10   12.60
   5   4  -5   20.40   19.50
  -5  -4   5  -10.50   18.70
  -5  -4   5   32.90   14.50
   4   4  -5  372.76   60.69
   4   4  -5  278.57   40.50
   4   4  -5  400.06   42.90
   4   4  -5  352.86   35.80
   4   4  -5  358.86   36.50
  -4  -4   5  368.66   32.40
   3   4  -5   26.40   37.70
   3   4  -5   41.30   20.60
   3   4  -5  103.89   64.49
   3   4  -5   57.09   18.30
   3   4  -5   47.20   17.10
   3   4  -5   69.39   19.90
  -3  -4   5  -37.10  106.29
  -3  -4   5   24.60   56.79
   2   4  -5  343.77   41.80
   2   4  -5  364.26   44.00
   2   4  -5  304.97   40.20
   2   4  -5  381.96   42.30
   2   4  -5  372.96   37.90
   2   4  -5  325.77   43.00
  -2  -4   5  404.86   31.70
  -2  -4   5  337.67   65.29
   1   4  -5  526.75   46.40
   1   4  -5  463.85   45.40
   1   4  -5  428.96   43.40
   1   4  -5  505.65   50.79
  -1  -4   5  445.96   39.20
  -1  -4   5  372.06   64.49
   0   4  -5    5.60   20.40
   0   4  -5   49.20   16.40
   0   4  -5   25.80   14.60
   0  -4   5  -19.20   43.60
   0  -4   5   68.29   40.80
  -1   4  -5   27.00   22.00
  -1   4  -5   19.90   29.60
  -1   4  -5   92.09   26.40
  -1   4  -5   37.80   22.00
  -1   4  -5   68.19   31.60
  -1   4  -5   26.30   28.40
   1  -4   5   41.30   10.10
   1  -4   5   96.39   28.50
   1  -4   5   61.89   64.69
   1  -4   5   72.59   23.30
  -2   4  -5  557.34   57.79
  -2   4  -5  397.26   51.59
  -2   4  -5  490.45   54.59
  -2   4  -5  488.55   45.40
  -2   4  -5  477.45   49.50
   2  -4   5  476.75   46.60
   2  -4   5  540.15   88.29
   2  -4   5  506.95   42.70
   2  -4   5  552.54   56.29
  -3   4  -5  760.62   74.79
  -3   4  -5  747.53   66.79
  -3   4  -5  857.81   73.79
   3  -4   5  855.31   86.89
   3  -4   5  644.54   69.19
   3  -4   5  761.82   66.99
   3  -4   5  809.82   68.09
   3  -4   5  850.41   86.19
  -4   4  -5   26.40   23.90
  -4   4  -5   12.00   24.20
   4  -4   5   -5.30   26.00
   4  -4   5  -27.80   26.90
   4  -4   5   16.90   18.60
   4  -4   5  126.29   81.59
   4  -4   5    8.00   23.10
   4  -4   5  -39.90   91.69
   5  -4   5   23.20   14.50
   5  -4   5    4.70   18.90
   5  -4   5  -18.00   18.70
   5   3  -5   87.89   19.40
   5   3  -5   85.99   14.80
   5   3  -5   87.29   17.90
  -5  -3   5   90.29   15.40
  -5  -3   5  109.69   21.40
   4   3  -5  233.18   56.29
   4   3  -5  257.37   47.80
   4   3  -5  243.38   26.90
   4   3  -5  214.98   29.30
   4   3  -5  293.77   35.30
  -4  -3   5  219.88   23.30
   3   3  -5  245.38   29.80
   3   3  -5  194.38   31.60
   3   3  -5  199.78   34.80
  -3  -3   5  222.78   22.70
  -3  -3   5  196.38   92.29
   2   3  -5  613.44   52.09
   2   3  -5  654.73   55.49
   2   3  -5  438.96   60.79
   2   3  -5  660.73   57.39
   2   3  -5  517.35   50.19
   2   3  -5  586.24   72.89
   2   3  -5  434.66   54.99
  -2  -3   5  487.45   48.70
   1   3  -5  551.14   47.60
  -1  -3   5  492.55   51.49
   0  -3   5  445.46   42.00
   0  -3   5  298.27   55.59
   0  -3   5  427.56   34.50
  -1   3  -5  121.39   33.80
  -1   3  -5  222.18   49.90
  -1   3  -5  156.28   34.80
   1  -3   5  170.68   35.80
   1  -3   5  106.79   32.00
   1  -3   5  202.78   17.60
   1  -3   5  153.48   29.60
   1  -3   5  179.98   36.40
  -2   3  -5 1988.80  195.68
  -2   3  -5 2074.19  194.28
  -2   3  -5 2521.75  199.28
  -2   3  -5 2305.47  191.38
   2  -3   5 2588.24  189.38
   2  -3   5 2660.43  201.68
   2  -3   5 2184.88  196.98
  -3   3  -5  664.53   56.79
  -3   3  -5  534.95   49.20
  -3   3  -5  486.15   56.29
   3  -3   5  507.55   52.69
   3  -3   5  525.05   48.10
   3  -3   5  548.25   67.79
   3  -3   5  637.04   66.79
  -4   3  -5   -2.40   26.80
  -4   3  -5   30.60   19.40
  -4   3  -5   21.50   18.00
   4  -3   5   -4.20   24.20
   4  -3   5   12.60   79.39
   4  -3   5   25.20   19.40
   4  -3   5   -7.50   17.80
   4  -3   5  -10.00   22.90
  -5   3  -5   26.30   15.10
  -6   3  -5   19.20    7.50
  -6   3  -5   12.40   12.60
   6  -3   5   30.00    9.20
   6  -3   5   15.60   10.70
   6  -3   5  -18.30   17.00
   5   2  -5   13.00   18.80
   5   2  -5   11.90   11.60
   5   2  -5    5.60    8.90
   5   2  -5    3.60   15.30
  -5  -2   5   30.40   15.90
   4   2  -5   20.30   21.80
   4   2  -5    0.30   16.70
   4   2  -5   31.10   17.00
   4   2  -5   44.10   54.79
   4   2  -5    2.00   14.10
  -4  -2   5   15.80   11.80
   3   2  -5  194.38   44.00
   3   2  -5  229.38   32.00
   3   2  -5  114.99   26.90
   3   2  -5  157.78   31.90
  -3  -2   5  155.88   25.80
  -3  -2   5  172.68   51.49
  -3  -2   5  181.28   29.40
   2   2  -5  202.08   32.80
   2   2  -5  166.08   24.70
   2   2  -5  163.68   29.20
   2   2  -5  226.28   51.09
   2   2  -5  128.99   24.30
   1   2  -5  649.64   51.99
  -1  -2   5  533.35   52.99
   0   2  -5  400.86   53.89
   0  -2   5  291.97   40.30
  -1   2  -5   22.60   47.00
   1  -2   5   20.90   26.40
   1  -2   5   28.20   26.50
  -2   2  -5  653.43   52.09
  -2   2  -5  719.23   91.69
  -2   2  -5  544.25   69.39
  -2   2  -5  551.74   59.49
   2  -2   5  559.14   84.79
   2  -2   5  534.45   56.19
   2  -2   5  631.34   48.90
   2  -2   5  477.85   77.39
   2  -2   5  560.14   56.19
   2  -2   5  535.35   60.79
   2  -2   5  525.85   73.39
  -3   2  -5   -8.00   14.30
  -3   2  -5   85.79  105.89
  -3   2  -5   -5.80   17.00
  -3   2  -5   26.20   23.20
   3  -2   5  -11.80   19.40
   3  -2   5  -56.09   34.40
   3  -2   5    4.40   15.50
   3  -2   5   -5.70    9.70
  -4   2  -5  495.35   46.00
  -4   2  -5  454.95   51.49
  -4   2  -5  528.15   49.30
   4  -2   5  431.56   46.80
   4  -2   5  554.74   51.99
   4  -2   5  489.55   46.70
   4  -2   5  408.56   83.49
  -5   2  -5  351.96   32.80
  -5   2  -5  334.87   45.00
   5  -2   5  298.57   34.80
   5  -2   5  373.26   39.70
  -6   2  -5    4.10   12.50
   6  -2   5   -5.70    8.80
   6  -2   5    6.40   16.10
   6  -2   5    1.70    9.70
   5   1  -5  -38.80   32.90
  -5  -1   5   31.10   14.30
  -5  -1   5   15.10   15.90
   4   1  -5   95.49   17.70
   4   1  -5   41.20   22.00
   4   1  -5   96.79   29.70
   4   1  -5   55.89   19.30
   4   1  -5   72.59   17.20
  -4  -1   5   60.89   13.10
  -4  -1   5   -2.90   54.89
   3   1  -5  858.31   70.49
   3   1  -5  734.63   73.29
   2   1  -5  296.07   34.80
   2   1  -5  251.37   47.70
   2   1  -5  263.47   30.00
   2   1  -5  264.97   42.40
  -2  -1   5  383.56   64.09
  -2  -1   5  239.38   55.99
   1   1  -5   90.09   16.30
  -1  -1   5   43.80   30.20
   0   1  -5  460.25   46.20
   0  -1   5  485.55   49.30
  -1   1  -5  175.68   43.50
  -1   1  -5  105.49   22.40
   1  -1   5  111.59   26.30
   1  -1   5   91.69   21.70
   1  -1   5  127.59   28.10
   1  -1   5   92.99   18.90
  -2   1  -5  231.28   43.80
  -2   1  -5  230.98   28.40
  -2   1  -5  152.88   33.10
   2  -1   5  202.88   38.20
   2  -1   5  188.88   42.70
   2  -1   5  243.48   20.10
   2  -1   5  189.98   23.50
   2  -1   5  166.98   43.40
   2  -1   5  168.88   31.90
  -3   1  -5  687.33   66.49
  -3   1  -5  697.53  135.29
  -3   1  -5  752.62   68.69
  -3   1  -5  735.23   64.89
   3  -1   5  729.23   85.69
   3  -1   5  743.43   68.59
   3  -1   5  737.33   74.19
   3  -1   5  784.32   63.19
   3  -1   5  818.72   65.69
  -4   1  -5  135.89   25.50
  -4   1  -5   97.89   19.00
   4  -1   5  136.49   29.70
   4  -1   5   83.69   28.80
   4  -1   5  103.89   48.60
   4  -1   5  136.89   28.60
   4  -1   5  111.09   60.89
   4  -1   5  108.29   65.99
   4  -1   5  128.89   23.70
  -5   1  -5  298.37   35.00
  -5   1  -5  308.37   31.00
   5  -1   5  321.27   41.00
   5  -1   5  254.37   31.30
   5  -1   5  292.37   31.60
  -6   1  -5   34.10   12.70
  -6   1  -5    4.40   10.60
   6  -1   5   10.30   15.20
   6  -1   5   11.60    6.20
   6  -1   5  -14.10   10.90
   5   0  -5   14.00   14.80
   5   0  -5   44.00   15.50
   5   0  -5   33.70   24.90
   5   0  -5   78.79   38.90
   5   0  -5   18.90   12.90
  -5   0   5   50.39   16.20
   4   0  -5  325.37   71.99
   4   0  -5  202.68   36.80
   4   0  -5  324.47   39.10
   4   0  -5  303.97   31.70
   4   0  -5  281.97   42.30
   4   0  -5  295.07   31.40
  -4   0   5  244.78   26.90
  -4   0   5  311.47   69.39
   3   0  -5  173.58   33.20
   3   0  -5  160.18   44.70
  -3   0   5  117.59   24.90
  -3   0   5  132.99   22.80
   2   0  -5  134.79   30.20
   2   0  -5  158.98   27.10
   2   0  -5   97.79   29.00
   2   0  -5  107.59   17.00
  -2   0   5  115.29   23.60
  -2   0   5   92.19   25.50
   1   0  -5    2.90   15.70
  -1   0   5   31.80   21.70
   0   0  -5  883.91   75.49
   0   0   5  858.71   76.99
  -1   0  -5  222.38   29.10
   1   0   5  180.08   29.30
   1   0   5  206.08   39.00
   1   0   5  223.78   19.70
   1   0   5  261.57   35.60
   1   0   5  174.78   31.30
  -2   0  -5   53.09   19.20
  -2   0  -5   64.49   18.60
  -2   0  -5   35.50   27.00
  -2   0  -5  133.19   35.40
   2   0   5  103.19   32.10
   2   0   5   89.79   32.20
   2   0   5  105.29   42.50
   2   0   5   43.70   21.80
   2   0   5   81.09   12.60
  -3   0  -5  168.78   40.00
  -3   0  -5  227.88   28.10
  -3   0  -5  170.38   63.39
  -3   0  -5  253.97   36.00
   3   0   5  213.48   40.20
   3   0   5  253.37   37.80
   3   0   5  272.87   24.10
   3   0   5  333.37   65.39
  -4   0  -5  479.45   46.90
  -4   0  -5  465.05   44.60
  -4   0  -5  508.05   58.59
   4   0   5  422.06   48.80
   4   0   5  459.95   44.10
   4   0   5  560.74   49.70
   4   0   5  323.67   77.19
  -5   0  -5   71.59   22.40
  -5   0  -5   53.79   14.30
  -5   0  -5   14.00   54.39
   5   0   5  100.29   19.00
   5   0   5   81.59   20.80
   5   0   5    9.10   62.89
  -6   0  -5   23.30   16.30
  -6   0  -5   63.09   11.80
   6   0   5   45.70   11.40
   6   0   5   42.20   15.50
   6   0   5   67.39   10.80
   5  -1  -5   30.40   15.60
   5  -1  -5   63.49   16.00
   5  -1  -5   64.79   16.40
   5  -1  -5   48.90   30.50
  -5   1   5   26.90   15.10
  -5   1   5   30.00   16.70
   4  -1  -5  141.79   21.80
   4  -1  -5  148.79   31.70
   4  -1  -5  153.58   40.40
   4  -1  -5  108.39   22.80
   4  -1  -5  145.29   31.00
   4  -1  -5  132.09   24.60
   4  -1  -5  104.99   27.20
  -4   1   5  187.78   52.49
  -4   1   5  122.79   16.70
   3  -1  -5   -4.60   45.10
   3  -1  -5  -11.40   20.90
   3  -1  -5  -26.00   47.60
   3  -1  -5   38.70   13.10
  -3   1   5   19.20   11.60
  -3   1   5    8.80   24.00
   2  -1  -5  280.67   47.50
   2  -1  -5  225.48   44.50
   2  -1  -5  161.28   36.60
  -2   1   5  196.88   20.00
  -2   1   5  206.78   28.50
  -1   1   5   83.29   19.00
   0  -1  -5   62.49   15.30
   0   1   5   80.59   20.20
   0   1   5   56.89   12.10
  -1  -1  -5   11.10   19.60
  -1  -1  -5   23.80   13.20
  -1  -1  -5   17.90   12.20
  -1  -1  -5   17.30   16.40
   1   1   5   27.20    6.40
   1   1   5   45.50   19.30
   1   1   5   65.69   28.70
   1   1   5   18.90   16.80
   1   1   5   28.20   19.30
  -2  -1  -5    7.00   12.30
  -2  -1  -5   -9.20   26.10
  -2  -1  -5    8.90   16.00
  -2  -1  -5   36.30   34.20
   2   1   5   52.09   21.20
   2   1   5   29.90   42.00
   2   1   5   29.60   28.40
   2   1   5   12.80    7.40
   2   1   5  -16.20   17.60
  -3  -1  -5  405.36   48.50
  -3  -1  -5  305.87   32.90
  -3  -1  -5  229.28   70.59
  -3  -1  -5  363.36   39.90
   3   1   5  312.67  126.79
   3   1   5  331.67   32.30
   3   1   5  376.86   36.00
  -4  -1  -5  291.47   48.70
  -4  -1  -5  291.97   56.69
  -4  -1  -5  208.28   26.70
   4   1   5  239.28   62.19
   4   1   5  123.89   48.80
   4   1   5  201.98   31.50
   4   1   5  210.88   32.20
   4   1   5  247.78   32.00
   4   1   5  211.28   34.30
   4   1   5  164.28   32.80
  -5  -1  -5   20.50   17.20
  -5  -1  -5   29.20   17.60
   5   1   5   10.80   28.20
   5   1   5  -39.90   95.09
   5   1   5    8.00   12.20
  -6  -1  -5   -0.60   23.90
  -6  -1  -5    9.60    7.60
   6   1   5   24.80    9.90
   6   1   5   -5.80    8.40
   6   1   5    6.00   16.40
   5  -2  -5   92.79   18.60
   5  -2  -5   76.79   19.20
   5  -2  -5   44.20   22.90
   5  -2  -5   61.89   14.90
   4  -2  -5   29.00   19.10
   4  -2  -5   12.20   27.10
   4  -2  -5   -3.00   19.50
   4  -2  -5   36.40   41.90
   4  -2  -5   41.80   23.90
   4  -2  -5   10.40   12.10
   4  -2  -5   54.79   23.30
  -4   2   5   98.09   61.99
   3  -2  -5  274.37   60.99
   3  -2  -5  315.57   36.70
  -3   2   5  390.56   38.70
  -3   2   5  398.26   37.40
  -3   2   5  460.65   51.79
   2  -2  -5  198.38   37.40
   2  -2  -5  288.67   40.10
   2  -2  -5  167.38   36.00
   2  -2  -5  214.68   34.50
  -2   2   5  211.38   39.90
  -2   2   5  221.08   21.80
  -2   2   5  237.58   29.70
   1  -2  -5   64.99   18.00
  -1   2   5   88.09   10.00
  -1   2   5   73.99   16.30
   0  -2  -5  308.67   32.80
   0  -2  -5  264.87   31.70
   0   2   5  307.47   26.10
   0   2   5  211.28   31.10
   0   2   5  322.77   44.50
  -1  -2  -5  -13.20   17.40
  -1  -2  -5   12.50   12.80
  -1  -2  -5   24.70   16.70
  -1  -2  -5   24.80   17.50
   1   2   5  -12.70   23.90
   1   2   5    7.80   19.20
   1   2   5   18.70   22.60
  -2  -2  -5 1040.30   87.09
  -2  -2  -5  970.80   84.99
   2   2   5 1006.30   86.09
   2   2   5  840.82   92.29
   2   2   5  963.90   80.49
   2   2   5  994.10  100.89
   2   2   5  876.21   95.39
  -3  -2  -5    8.60   12.20
  -3  -2  -5    2.00   22.70
  -3  -2  -5   22.80   16.30
   3   2   5    3.60   10.50
   3   2   5   15.90   25.30
   3   2   5    3.40   17.80
  -4  -2  -5   37.90   13.80
  -4  -2  -5   22.40   34.00
  -4  -2  -5   49.50   22.40
  -4  -2  -5   86.89   40.40
  -4  -2  -5   95.79   63.49
   4   2   5   58.89   20.70
   4   2   5   52.19   28.40
   4   2   5   36.60   19.20
   4   2   5   24.30   24.60
   4   2   5   34.70   16.90
   4   2   5    4.50   45.70
  -5  -2  -5  761.02   69.09
  -5  -2  -5  684.83   60.99
   5   2   5  698.93   59.89
   5   2   5  644.24   62.19
  -6  -2  -5  -14.60   10.60
   6   2   5   15.30   13.00
   6   2   5    0.30    5.80
   5  -3  -5  -17.90   13.20
   5  -3  -5   -3.40   17.70
   5  -3  -5    2.00   14.90
   5  -3  -5  -19.70   19.50
  -5   3   5  -19.70   30.20
   4  -3  -5   39.60   23.30
   4  -3  -5   12.50   11.00
   4  -3  -5    5.90   20.70
   4  -3  -5   42.40   25.20
   4  -3  -5   22.30   26.40
   4  -3  -5  -18.60   29.10
   4  -3  -5  -17.50   26.20
  -4   3   5   25.30   52.09
   3  -3  -5  857.11   72.69
   3  -3  -5  678.63   82.89
   3  -3  -5  641.14   70.49
   3  -3  -5  831.32   80.79
   3  -3  -5  686.83   70.59
   3  -3  -5  780.12   71.29
  -3   3   5  684.23   63.79
  -3   3   5  796.12   81.39
  -3   3   5  767.62   67.09
   2  -3  -5 1098.19  113.99
   2  -3  -5 1256.87  109.59
   2  -3  -5 1344.37  111.19
   2  -3  -5 1360.26  116.09
   2  -3  -5 1212.98  114.99
  -2   3   5 1331.77  122.99
  -2   3   5 1444.76  110.39
  -2   3   5 1311.87  129.29
  -2   3   5 1334.77  106.59
   1  -3  -5  127.79   26.70
  -1   3   5  116.69   16.90
  -1   3   5  139.59   29.00
  -1   3   5   80.99   25.20
  -1   3   5   82.09   24.50
   0  -3  -5   44.70   17.50
   0  -3  -5   60.19   20.80
   0   3   5   68.29   31.60
   0   3   5   59.99   17.90
   0   3   5   55.99   13.10
  -1  -3  -5  187.68   41.10
  -1  -3  -5  266.97   29.40
  -1  -3  -5  193.38   36.60
   1   3   5  273.17   40.60
   1   3   5  204.78   20.30
   1   3   5  162.78   41.20
   1   3   5  210.48   36.70
  -2  -3  -5   19.70   21.20
  -2  -3  -5   43.70   37.80
  -2  -3  -5   24.50   18.90
  -2  -3  -5   15.90   12.90
  -2  -3  -5  -12.40   27.40
   2   3   5 -104.09   60.19
   2   3   5   48.40   45.40
   2   3   5    6.10    7.70
   2   3   5    5.50   47.40
   2   3   5   22.40   12.60
   2   3   5   14.70   23.10
  -3  -3  -5  199.38   44.30
  -3  -3  -5  170.78   30.70
  -3  -3  -5  232.38   48.90
  -3  -3  -5  238.88   24.30
   3   3   5  218.78   31.00
   3   3   5  189.38   44.40
   3   3   5  222.18   22.80
   3   3   5  260.57   31.10
  -4  -3  -5   68.09   67.39
  -4  -3  -5   48.70   50.09
  -4  -3  -5   22.00   30.90
  -4  -3  -5   83.39   38.70
  -4  -3  -5   65.09   17.90
   4   3   5  128.69   32.40
   4   3   5   54.19   24.20
   4   3   5   87.99   49.20
   4   3   5   62.79   14.30
   4   3   5   45.60   19.50
  -5  -3  -5  127.59   25.10
  -5  -3  -5   89.89  123.09
  -5  -3  -5  166.98   20.40
   5   3   5  136.99   80.49
   5   3   5  106.09   21.50
   5   3   5  140.49   20.60
   5   3   5  100.09   35.90
  -6  -3  -5   76.69   13.00
   6   3   5   48.30    9.90
   6   3   5   40.60   13.50
   5  -4  -5  289.97   30.60
   5  -4  -5  233.58   30.80
   5  -4  -5  222.18   29.70
   5  -4  -5  283.27   26.70
   4  -4  -5  910.01   96.89
   4  -4  -5 1028.60   90.39
   4  -4  -5  888.01   81.29
   4  -4  -5  936.91   83.89
   4  -4  -5  996.80   87.49
   4  -4  -5  992.80   87.09
   4  -4  -5 1098.69   85.49
  -4   4   5  899.31  104.29
  -4   4   5  882.51   81.69
   3  -4  -5  579.84   74.29
   3  -4  -5  601.34   54.69
   3  -4  -5  614.54   65.49
   3  -4  -5  560.24   63.69
  -3   4   5  637.84   58.29
  -3   4   5  624.04   70.89
   2  -4  -5   83.09   29.20
   2  -4  -5   27.50   16.00
   2  -4  -5    9.80   25.80
   2  -4  -5   16.60   27.90
   2  -4  -5   37.30   19.20
   2  -4  -5   29.10   29.10
  -2   4   5   49.40   10.80
  -2   4   5   46.20   19.20
  -2   4   5  123.09   61.49
  -2   4   5   28.60   21.60
   1  -4  -5   38.90   21.20
   1  -4  -5   36.40   30.30
   1  -4  -5  -22.70   47.00
   1  -4  -5   62.29   16.50
  -1   4   5   18.80   29.30
  -1   4   5   62.09   40.20
  -1   4   5   49.40   10.80
  -1   4   5   80.09   27.30
  -1   4   5   64.09   13.80
   0  -4  -5 1007.40  135.89
   0  -4  -5 1231.78  100.79
   0   4   5 1085.59   96.39
   0   4   5 1216.78   96.79
   0   4   5 1137.09   95.39
   0   4   5 1168.18  109.19
   0   4   5 1090.09  103.79
   0   4   5 1349.66  111.09
  -1  -4  -5    1.10   16.80
  -1  -4  -5   32.00   23.20
  -1  -4  -5   35.60   34.10
   1   4   5  101.59   45.40
   1   4   5   36.10   27.00
   1   4   5   -1.20   29.20
   1   4   5   26.10   26.80
   1   4   5   26.50   14.00
  -2  -4  -5    8.20   25.30
  -2  -4  -5   46.90   14.40
  -2  -4  -5   12.60   21.10
  -2  -4  -5   95.19   51.19
  -2  -4  -5   -2.40   22.30
  -2  -4  -5   45.60   23.50
   2   4   5   90.09   61.59
   2   4   5    8.10   24.90
   2   4   5   74.29   50.69
   2   4   5   12.30    7.80
   2   4   5  -82.59   70.49
  -3  -4  -5   71.49   35.60
  -3  -4  -5    3.80   22.30
  -3  -4  -5   23.40   16.60
  -3  -4  -5   10.20   29.90
  -3  -4  -5   17.60   15.80
   3   4   5   -0.80   11.10
   3   4   5  -10.50   17.70
   3   4   5   26.50   14.90
   3   4   5    9.50   18.90
   3   4   5   24.20   37.40
  -4  -4  -5   47.50   14.00
  -4  -4  -5  -35.30   70.99
  -4  -4  -5   43.10   17.40
  -4  -4  -5  -28.30   42.90
  -4  -4  -5   17.60   22.10
   4   4   5   33.30   19.30
   4   4   5   44.90   32.50
   4   4   5   21.00   16.10
   4   4   5   -0.20   56.69
  -5  -4  -5  139.29   54.29
  -5  -4  -5  128.49   27.10
   5   4   5   90.09   16.50
   5   4   5  -73.59   93.19
   5   4   5   97.79   20.00
  -6  -4  -5   -8.90   11.20
   6   4   5   26.70   11.40
   6   4   5  -10.40    7.30
   5  -5  -5   37.20   12.50
  -5   5   5   24.30   28.00
   4  -5  -5  -34.10   29.40
   4  -5  -5   86.09   37.40
   4  -5  -5   39.30   14.20
   4  -5  -5   17.80   23.50
   4  -5  -5   26.30   42.00
  -4   5   5   48.70   18.30
  -4   5   5   24.80   17.50
   3  -5  -5 1264.27  114.09
   3  -5  -5 1106.19  107.29
   3  -5  -5 1286.67  116.19
   3  -5  -5 1324.47  111.09
   3  -5  -5 1310.87  113.69
  -3   5   5 1412.26  116.69
  -3   5   5 1336.17  107.49
   2  -5  -5   -3.70   29.20
   2  -5  -5  -21.90   33.10
   2  -5  -5    2.50   28.40
   2  -5  -5   42.50   22.40
   2  -5  -5   88.79   29.90
  -2   5   5   25.00   17.40
  -2   5   5   31.00   20.80
   1  -5  -5  444.36   46.70
   1  -5  -5  544.05   77.79
   1  -5  -5  566.84   51.99
   1  -5  -5  430.96   45.40
   1  -5  -5  468.65   66.49
   1  -5  -5  520.15   79.89
  -1   5   5  498.45   47.50
  -1   5   5  492.75   41.70
  -1   5   5  390.86   76.79
   0  -5  -5  970.10  112.89
   0  -5  -5 1130.89   90.19
   0  -5  -5 1183.28   93.99
   0   5   5 1012.40  101.09
   0   5   5 1158.78   89.19
   0   5   5 1018.20  126.29
   0   5   5  956.10  122.59
  -1  -5  -5   73.09   15.80
  -1  -5  -5   40.30   29.50
  -1  -5  -5   31.90   42.80
  -1  -5  -5   11.00   25.80
  -1  -5  -5   29.60   14.30
  -1  -5  -5   53.29   49.10
   1   5   5  -37.60   44.40
   1   5   5   26.90   54.29
  -2  -5  -5    3.00   15.40
  -2  -5  -5   40.40   52.19
  -2  -5  -5   88.09   78.79
  -2  -5  -5   47.00   15.70
  -2  -5  -5   10.70   30.00
  -2  -5  -5   87.09   32.50
   2   5   5  -14.20   75.59
   2   5   5  -20.30  104.39
   2   5   5   27.30   14.50
   2   5   5   32.60    9.00
   2   5   5  -34.80   34.20
  -3  -5  -5   23.70   14.40
  -3  -5  -5  -25.90   35.80
  -3  -5  -5   31.20   49.50
   3   5   5   45.40   17.30
   3   5   5   37.40   17.90
   3   5   5    2.80   22.00
   3   5   5   -0.80   40.50
  -4  -5  -5   -8.80   51.59
  -4  -5  -5   38.10   17.40
  -4  -5  -5  273.97  126.99
   4   5   5   52.79   63.19
   4   5   5   42.10   23.90
  -5  -5  -5  478.75   93.79
  -5  -5  -5  396.36   42.40
   5   5   5  482.55   53.49
  -6  -5  -5   32.10   13.40
   6   5   5    7.10    7.20
   6   5   5   17.60    7.90
   5  -6  -5   13.90   22.60
  -5   6   5   11.50   28.10
  -5   6   5   12.40   22.20
   4  -6  -5   -8.80   39.70
   4  -6  -5   82.89   27.70
   4  -6  -5   30.20   24.80
   3  -6  -5   30.30   26.50
   3  -6  -5    1.20   26.40
   3  -6  -5   -1.60   22.60
   3  -6  -5   15.70   24.00
  -3   6   5   24.00   12.90
  -3   6   5  101.39   56.49
   2  -6  -5   72.99   31.50
   2  -6  -5   37.20   18.10
   2  -6  -5  130.29   28.60
   2  -6  -5   85.39   40.50
   2  -6  -5   56.79   17.40
  -2   6   5   52.79   26.50
  -2   6   5   86.19   20.60
  -2   6   5   75.59   16.60
   1  -6  -5  629.44   69.69
   1  -6  -5  691.23   65.59
   1  -6  -5  657.23   59.39
   1  -6  -5  642.04   59.89
   1  -6  -5  601.24   73.09
   1  -6  -5  633.34   84.89
   1  -6  -5  640.14   89.89
  -1   6   5  722.13   63.59
  -1   6   5  690.03   57.99
  -1   6   5  705.33   59.69
   0  -6  -5   70.39   63.19
   0  -6  -5   61.39   18.80
   0  -6  -5   56.19   16.40
   0  -6  -5   74.49   41.10
   0   6   5   14.40   25.20
   0   6   5   67.59   13.30
   0   6   5    2.00   49.10
   0   6   5  123.49   35.70
  -1  -6  -5  407.46   69.09
  -1  -6  -5  488.55   61.39
  -1  -6  -5  475.55   43.50
  -1  -6  -5  446.86   42.40
   1   6   5  478.95   43.20
   1   6   5  438.56   39.50
  -2  -6  -5 -159.38  173.38
  -2  -6  -5   26.80   18.60
  -2  -6  -5  109.59   63.49
  -2  -6  -5   15.60   14.60
   2   6   5   32.80   22.20
   2   6   5   -6.50   37.80
   2   6   5   22.70   15.10
   2   6   5   19.50    9.90
   2   6   5   40.80   29.40
  -3  -6  -5   -7.90   12.70
  -3  -6  -5   43.00   74.69
  -3  -6  -5   -4.40   14.00
  -3  -6  -5  -48.40   44.30
   3   6   5    4.80   13.80
   3   6   5    4.20   16.70
   3   6   5   51.09   49.30
   3   6   5   27.90   26.40
  -4  -6  -5  123.59   20.50
  -4  -6  -5   77.99   64.89
   4   6   5  102.29   24.40
   4   6   5  120.29   19.60
   4   6   5  109.79   22.10
  -5  -6  -5  365.66   38.60
   5   6   5  469.45   42.60
   5   6   5  402.16   45.50
   5   6   5  449.76   36.80
   4  -7  -5  102.49   24.40
   4  -7  -5   96.09   21.70
   4  -7  -5   83.19   22.90
  -4   7   5   88.19   20.00
   3  -7  -5   96.89   37.30
   3  -7  -5   15.40   32.50
   3  -7  -5   -1.20   24.70
   3  -7  -5   71.49   16.70
   3  -7  -5   41.40   22.90
  -3   7   5   14.30   50.09
  -3   7   5   71.09   58.39
  -3   7   5   49.10   14.80
   2  -7  -5    2.30   27.00
   2  -7  -5   15.00   28.60
   2  -7  -5   13.30   16.30
   2  -7  -5   39.00   17.10
   2  -7  -5   -8.60   24.10
   2  -7  -5  -23.60   24.10
  -2   7   5   82.19   35.00
  -2   7   5   18.80   16.30
  -2   7   5   29.00   15.00
  -2   7   5  -26.50   32.50
   1  -7  -5   13.30   26.20
   1  -7  -5  -25.60   33.40
   1  -7  -5   28.00   42.80
   1  -7  -5    3.90   17.60
  -1   7   5    9.80   13.60
  -1   7   5    4.50   11.70
   0  -7  -5  898.41  110.09
   0  -7  -5 1138.79   93.89
   0  -7  -5 1248.28  108.39
   0  -7  -5  937.71  104.99
   0  -7  -5 1010.00   93.39
   0   7   5 1272.17  100.09
   0   7   5 1254.17   94.39
   0   7   5 1007.10   98.29
   0   7   5 1192.68   93.79
  -1  -7  -5   48.90   19.70
  -1  -7  -5   64.69   15.80
   1   7   5   74.29   13.70
   1   7   5  111.19   23.90
   1   7   5   28.90   40.30
   1   7   5   73.19   29.80
   1   7   5   92.99   25.50
  -2  -7  -5  151.78   58.79
  -2  -7  -5  182.58   27.20
  -2  -7  -5  232.78   58.79
  -2  -7  -5  236.18   27.30
   2   7   5  284.77   28.70
   2   7   5  256.17   27.20
   2   7   5  257.07   34.40
  -3  -7  -5   -7.40   12.80
  -3  -7  -5   26.70   15.60
  -3  -7  -5    3.10   69.49
   3   7   5   35.60   67.89
   3   7   5  -17.40   15.00
   3   7   5   34.20   18.90
   3   7   5    8.70   29.00
   3   7   5  -43.60   27.00
  -4  -7  -5  198.18   22.00
  -4  -7  -5  190.38   22.90
   4   7   5   90.99  114.09
   4   7   5  159.78   20.50
   4   7   5  167.68   24.60
   4   7   5  182.38   38.10
  -5  -7  -5  102.19   12.30
  -5  -7  -5  102.89   14.90
   5   7   5   86.59   14.20
   5   7   5   95.89   10.60
   4  -8  -5   23.40    8.30
   4  -8  -5   14.00   17.10
  -4   8   5   45.00   19.30
   3  -8  -5   -1.80   14.80
   3  -8  -5  -25.90   22.20
   3  -8  -5  -29.90   20.80
  -3   8   5   21.80   16.70
  -3   8   5   35.00   17.20
   2  -8  -5   67.69   16.50
   2  -8  -5   77.89   25.50
   2  -8  -5   54.69   33.30
   2  -8  -5   67.49   24.60
   2  -8  -5   34.80   14.40
  -2   8   5   33.10   13.30
  -2   8   5   59.19   24.10
  -2   8   5  -62.39   44.00
   1  -8  -5  221.08   47.20
   1  -8  -5  362.66   69.09
   1  -8  -5  227.68   31.20
   1  -8  -5  252.67   28.40
  -1   8   5  280.87   28.60
  -1   8   5  308.87   30.10
  -1   8   5  343.87   54.79
   0  -8  -5 1332.67  109.09
   0  -8  -5 1253.57  110.59
   0   8   5 1441.66  109.39
   0   8   5 1201.48  120.39
  -1  -8  -5  928.21   78.69
  -1  -8  -5  910.41   78.79
   1   8   5  845.22   80.89
   1   8   5  948.51   79.39
   1   8   5 1004.00   83.39
  -2  -8  -5   19.70   12.90
  -2  -8  -5  -19.30   77.39
   2   8   5   38.90   14.70
   2   8   5   53.49   19.60
   2   8   5  140.09   59.99
   2   8   5   29.20   17.30
  -3  -8  -5  -21.60  113.49
  -3  -8  -5   19.70   15.70
  -3  -8  -5   17.40   74.49
  -3  -8  -5    3.00   11.90
   3   8   5   63.99   82.39
   3   8   5    1.30   11.90
   3   8   5   54.89   19.30
   3   8   5   -0.80   14.30
  -4  -8  -5  345.17  101.89
   4   8   5  -23.10  113.09
  -5  -8  -5  137.49   18.30
  -5  -8  -5  162.28   17.20
   5   8   5  163.88   14.40
   5   8   5  155.08   32.00
   5   8   5  136.69   15.40
   4  -9  -5   17.10   19.20
   4  -9  -5   37.80   16.00
   4  -9  -5   29.10    9.00
  -4   9   5   26.60   28.20
   3  -9  -5   -6.80   17.00
   3  -9  -5    3.80   10.20
   3  -9  -5   41.30   29.80
  -3   9   5   55.49   17.60
  -3   9   5   -8.40   21.80
  -3   9   5   20.10   28.60
   2  -9  -5    6.50   23.50
   2  -9  -5    3.30   17.40
   2  -9  -5   50.99   22.90
   2  -9  -5   -9.50   13.80
  -2   9   5   22.30   29.20
  -2   9   5  -12.30   16.50
  -2   9   5  -10.00   13.10
  -2   9   5   -5.40   62.29
   1  -9  -5  446.96   42.00
   1  -9  -5  354.36   51.79
  -1   9   5  432.46   39.80
  -1   9   5  510.85   43.40
   0  -9  -5  404.26   37.00
   0  -9  -5  283.17   56.89
   0  -9  -5  334.87   36.60
   0   9   5  439.66   37.80
   0   9   5  370.76   34.90
   0   9   5  255.57   53.99
   0   9   5  375.26   92.79
   0   9   5  429.26   45.30
  -1  -9  -5  101.29   19.90
  -1  -9  -5  161.48   39.90
  -1  -9  -5  132.69   22.90
   1   9   5  169.18   23.90
   1   9   5  156.38   33.70
   1   9   5   16.00   76.69
  -2  -9  -5  154.78   23.70
  -2  -9  -5  178.18   21.90
  -2  -9  -5  148.19   48.00
   2   9   5  194.98   26.00
   2   9   5  107.39   79.09
   2   9   5  183.88   30.10
   2   9   5  190.38   38.60
  -3  -9  -5    6.80   10.90
  -3  -9  -5  -18.80   12.80
   3   9   5   30.90   14.90
   3   9   5  -14.00  110.19
   3   9   5   19.30   20.00
  -4  -9  -5    7.40    6.40
  -4  -9  -5   -6.50    9.50
   4   9   5    6.30   10.90
   4   9   5   18.30   10.60
   4   9   5   10.90    9.80
   3 -10  -5   11.30   15.10
   3 -10  -5   10.60    8.80
  -3  10   5   23.70   22.30
  -3  10   5  -26.10   20.30
   2 -10  -5   14.10   30.50
  -2  10   5   57.39   22.20
   1 -10  -5  -15.10   12.10
  -1  10   5   -4.30   21.00
  -1  10   5  -10.40   17.70
  -1  10   5  -30.90  104.59
   0 -10  -5   37.10   25.90
   0 -10  -5    8.50   11.60
   0 -10  -5   13.20   12.60
   0  10   5  -29.50   91.69
   0  10   5  -23.60   31.00
   0  10   5   33.60   18.60
  -1 -10  -5   14.20   11.60
  -1 -10  -5   11.90   12.40
   1  10   5  -13.30   27.00
   1  10   5    2.30   24.40
   1  10   5    1.90   27.90
   1  10   5   19.90  135.69
  -2 -10  -5  155.48   19.40
  -2 -10  -5  151.58   19.80
   2  10   5  144.29   32.00
   2  10   5  131.49  127.49
   2  10   5  162.98   24.10
  -3 -10  -5   26.60   10.10
  -3 -10  -5    4.30   14.60
   3  10   5   23.30   13.80
  -4 -10  -5   -0.30    5.70
  -4 -10  -5    7.90   11.70
   4  10   5   -3.30   14.40
   4  10   5  -15.80   14.90
   4  10   5    5.90    5.70
   3 -11  -5   30.60   15.80
   3 -11  -5   24.00    7.20
  -3  11   5   -1.50   12.90
  -3  11   5   20.50   29.70
   2 -11  -5   13.30    6.50
   2 -11  -5   17.60   30.00
   2 -11  -5   18.30   11.80
   2 -11  -5    1.20    9.80
  -2  11   5   18.20   15.20
   1 -11  -5   11.50   19.80
   1 -11  -5   47.50   22.80
   1 -11  -5   -9.50   18.60
  -1  11   5   11.50   20.80
  -1  11   5   55.39   24.50
   0 -11  -5  158.58   23.50
   0 -11  -5  165.28   24.60
   0  11   5  204.68   29.30
   0  11   5  188.28   30.70
   0  11   5  158.88   33.20
  -1 -11  -5   36.80   18.20
  -1 -11  -5   -8.70   11.90
  -2 -11  -5    9.30   31.60
  -2 -11  -5   12.50   14.30
  -2 -11  -5   14.20    6.80
   2  11   5   33.10   18.40
  -3 -11  -5    3.80    7.80
  -3 -11  -5   24.50   12.20
   3  11   5   12.40   12.40
   2 -12  -5    8.60    7.90
  -2  12   5   13.70   10.50
  -2  12   5   13.80   15.30
   1 -12  -5   31.30   22.90
   1 -12  -5    7.00   16.80
   1 -12  -5    4.70    8.80
  -1  12   5    0.00   15.90
   0 -12  -5  107.99   26.40
   0 -12  -5   97.09   13.40
   0 -12  -5  110.19   14.60
   0  12   5   80.99   17.30
   0  12   5   57.49   24.10
  -1 -12  -5   23.20   25.40
  -1 -12  -5   33.70    8.60
  -1 -12  -5   26.90    8.70
   1  12   5   21.90   15.60
   1  12   5   31.90   15.80
   1  12   5   53.59   17.00
  -2 -12  -5   10.60    7.60
  -2 -12  -5   10.00    8.00
   2  12   5    5.70   12.60
   2  12   5   16.70   19.30
   2  12   5    2.10   13.20
  -3 -12  -5   11.90    5.60
  -3 -12  -5    9.10   10.90
   3  12   5   21.00   10.30
   0 -13  -5   74.69   12.00
   0 -13  -5   66.29    9.40
   0  13   5   71.39   16.10
   0  13   5   63.99   21.90
  -1 -13  -5   -3.80    6.60
  -1 -13  -5    4.50    8.10
   1  13   5  -19.30   18.30
   1  13   5    3.40   13.90
   1  13   5   -2.10   15.80
   2  11  -6   17.40    9.60
   2  11  -6   -7.70   13.70
  -2 -11   6    4.90   15.00
   1  11  -6  112.49   14.80
   1  11  -6   72.19   16.70
  -1 -11   6   84.99   22.00
  -1 -11   6  110.39   22.70
   0  11  -6   81.59   14.00
   0 -11   6  111.49   19.60
   0 -11   6   76.39   29.00
  -1  11  -6   15.70   10.40
  -1  11  -6   28.80   15.40
  -1  11  -6   36.80   16.90
   1 -11   6   30.10   18.50
   1 -11   6   26.30   16.10
  -2  11  -6    8.40    8.70
  -2  11  -6   -2.30   14.10
   2  10  -6   35.60   19.30
   2  10  -6   43.90   15.90
   2  10  -6   37.00   14.50
   2  10  -6   69.89   13.20
  -2 -10   6   63.59   14.70
  -2 -10   6   65.69   18.50
   1  10  -6  227.58   28.80
   1  10  -6  285.47   29.80
   1  10  -6  245.28   25.80
  -1 -10   6  219.48   26.20
   0  10  -6  -15.20   33.80
   0  10  -6   49.40   20.20
   0  10  -6   44.70   14.50
   0 -10   6   38.00   13.30
   0 -10   6   43.10   14.70
   0 -10   6   55.99   27.30
  -1  10  -6   44.60   15.40
  -1  10  -6   19.50   22.60
  -1  10  -6   44.20   12.40
   1 -10   6  266.57  170.98
   1 -10   6   46.50   13.30
  -2  10  -6   24.30   16.80
  -2  10  -6   29.00   10.50
   2 -10   6   22.50   20.40
   2 -10   6   -9.10   21.90
  -3  10  -6   31.00    8.20
   3   9  -6   -1.20   13.30
   3   9  -6   -2.60   12.60
   3   9  -6  -12.50   10.50
  -3  -9   6    8.50   18.60
   2   9  -6   49.10   18.70
   2   9  -6   19.30   24.80
  -2  -9   6   28.70   12.50
  -2  -9   6   99.49   75.69
  -2  -9   6   34.50   15.10
   1   9  -6   11.80   14.90
   1   9  -6   19.60   17.70
   1   9  -6   45.70   22.30
  -1  -9   6 -206.58  178.88
   0   9  -6   27.70   31.30
   0   9  -6   65.39   41.10
   0   9  -6   60.39   20.50
   0   9  -6   28.70   15.00
   0   9  -6   22.90   15.30
   0  -9   6    6.20   41.60
   0  -9   6   10.10   14.30
  -1   9  -6  104.89   25.30
  -1   9  -6   78.79   17.50
  -1   9  -6  110.19   21.10
   1  -9   6  101.39   21.30
   2  -9   6  -23.00   15.70
   2  -9   6    6.60   15.70
   2  -9   6   -4.10   89.79
  -3   9  -6   47.10   17.40
  -3   9  -6   41.40    9.10
   3  -9   6   23.70   11.90
   3  -9   6   31.40   22.40
  -4   9  -6   39.90   24.10
  -4   9  -6   24.90   12.10
  -4   9  -6   40.30    6.40
   4  -9   6   25.80    7.40
   4   8  -6   -1.80   10.70
   4   8  -6    0.70   10.10
  -4  -8   6    2.80   15.10
   3   8  -6   41.30   23.40
  -3  -8   6    2.40   19.10
  -3  -8   6  304.07  120.59
   2   8  -6   70.99   15.40
   2   8  -6   46.20   27.00
  -2  -8   6   49.00   12.20
  -2  -8   6 -277.17  196.38
  -2  -8   6  149.19  113.39
   1   8  -6   40.40   24.50
   1   8  -6   39.60   22.80
  -1  -8   6   63.09   13.40
  -1  -8   6   44.20  111.69
   0   8  -6  -13.70   21.90
   0   8  -6   52.09   35.00
   0   8  -6   29.90   23.10
   0   8  -6   13.20   20.70
   0   8  -6    7.80   16.00
   0  -8   6   21.40   11.80
   0  -8   6  -91.09   71.89
  -1   8  -6   48.60   16.10
  -1   8  -6   75.69   26.50
  -1   8  -6   46.30   21.10
  -1   8  -6   29.70   15.90
  -1   8  -6   15.50   22.80
   1  -8   6   48.20   12.10
   1  -8   6   46.90   23.20
   1  -8   6  -51.99   53.59
   1  -8   6  137.79   74.39
  -2   8  -6   13.70   14.90
  -2   8  -6   -9.90   19.60
  -2   8  -6   41.70   19.50
   2  -8   6   18.80   12.90
  -3   8  -6  118.39   22.80
  -3   8  -6  146.29   31.70
  -3   8  -6   76.99   25.60
   3  -8   6   42.50   16.80
   3  -8   6   49.00   20.00
   3  -8   6  200.78   91.99
   3  -8   6   88.49   23.10
  -4   8  -6   60.69   10.90
  -4   8  -6   94.49   17.10
   4   7  -6   57.69   17.50
   4   7  -6   11.80   12.80
  -4  -7   6   28.50   17.30
  -4  -7   6   39.00   11.30
   3   7  -6   41.10   24.80
   3   7  -6   16.90   18.90
  -3  -7   6  -39.70   98.39
  -3  -7   6   18.50   12.10
   2   7  -6   74.59   22.00
   2   7  -6  124.59  106.89
   2   7  -6   78.39   41.90
   2   7  -6   72.19   29.60
   2   7  -6   55.19   22.40
  -2  -7   6  150.58   86.79
  -2  -7   6   39.50   13.00
   1   7  -6  -54.39   76.19
   1   7  -6   -2.80   25.70
   1   7  -6  -12.70   28.00
   1   7  -6   38.50   20.10
   1   7  -6  -13.40   22.50
  -1  -7   6    5.00   10.60
   0   7  -6   24.00   20.60
   0   7  -6   -7.50   17.50
   0   7  -6    0.00   23.00
   0   7  -6   34.70   44.80
   0   7  -6   -5.00   25.20
   0   7  -6   -1.80   15.70
   0  -7   6   -6.90   14.50
   0  -7   6   41.60   74.29
   0  -7   6   24.00   86.09
  -1   7  -6   26.80   30.90
  -1   7  -6    1.30   16.00
  -1   7  -6   14.70   15.50
  -1   7  -6   11.20   22.60
  -1   7  -6  -20.10   20.60
   1  -7   6    7.30   19.70
   1  -7   6  -82.39   83.79
   1  -7   6    8.00    8.80
   1  -7   6   13.90   60.59
  -2   7  -6   91.69   41.90
  -2   7  -6   74.09   17.00
  -2   7  -6   49.60   27.50
  -2   7  -6   69.79   23.60
  -2   7  -6   49.99   25.70
   2  -7   6   51.99   12.00
   2  -7   6   14.60   73.99
   2  -7   6  -36.80   69.09
   2  -7   6   75.39   17.80
  -3   7  -6  152.38   32.80
  -3   7  -6   80.29   22.60
   3  -7   6  101.29   20.90
   3  -7   6  123.69   22.80
   3  -7   6   37.40  100.69
  -4   7  -6   14.10   10.00
  -4   7  -6   25.20   11.70
  -4   7  -6  -10.70   14.60
   4  -7   6 -183.48  269.77
   4  -7   6  -14.20   22.90
   4  -7   6   -1.50   14.40
   4   6  -6   -7.70   11.90
   4   6  -6    2.30   13.30
   4   6  -6   -8.30    9.90
  -4  -6   6   23.20   20.80
  -4  -6   6  -13.50   16.10
   3   6  -6   78.99   23.40
   3   6  -6   49.00   19.60
   3   6  -6   59.19   14.80
  -3  -6   6 -131.29  182.08
  -3  -6   6  -19.30   84.19
   2   6  -6   49.90   15.80
   2   6  -6   82.59   36.00
   2   6  -6   30.40   25.10
   2   6  -6   50.79   22.90
   2   6  -6   20.10   45.20
  -2  -6   6   36.00   15.10
   1   6  -6   92.29   18.70
   1   6  -6  112.69   23.90
   1   6  -6   99.29   63.49
   1   6  -6   99.79   27.60
   1   6  -6  112.69   25.70
   0   6  -6   25.00   21.50
   0   6  -6   47.50   42.20
   0   6  -6   14.30   20.80
   0   6  -6   73.89   47.30
   0   6  -6   16.10   17.30
   0  -6   6  -34.90   56.99
   0  -6   6   13.80   97.39
   0  -6   6   45.00   15.40
   0  -6   6   14.80   10.50
  -1   6  -6   10.30   20.90
  -1   6  -6   -5.70   22.90
  -1   6  -6  -63.29   43.80
  -1   6  -6   21.20   15.60
   1  -6   6   25.50   16.60
   1  -6   6   -3.50   45.20
   1  -6   6   42.40   62.09
   1  -6   6   -2.70   18.20
  -2   6  -6   36.90   21.90
  -2   6  -6    1.50   23.80
  -2   6  -6   25.50   21.80
  -2   6  -6   -0.50   15.90
  -2   6  -6    7.20   27.20
   2  -6   6  -19.30   44.20
   2  -6   6   99.89   55.19
   2  -6   6  -10.40   10.30
   2  -6   6  -15.50   15.20
  -3   6  -6   14.20   15.70
  -3   6  -6   42.70   19.20
  -3   6  -6   17.30   19.30
   3  -6   6  -85.09   82.19
   3  -6   6  -20.60   16.80
   3  -6   6  -17.50   74.39
  -4   6  -6   27.70   16.70
   4  -6   6  150.28  115.59
   4  -6   6   -9.90   28.50
   4  -6   6   18.40   21.10
  -5   6  -6   17.00   14.20
  -5   6  -6  -14.20    9.10
   5  -6   6  -11.70   25.80
   5  -6   6    3.50    7.30
   5   5  -6   78.99   14.50
   5   5  -6  128.09   15.00
   5   5  -6  114.59   19.50
  -5  -5   6   77.29   22.00
   4   5  -6   88.19   18.80
   4   5  -6  126.49   22.00
  -4  -5   6   90.09   15.80
  -4  -5   6   67.09   22.80
   3   5  -6   99.09   20.50
   3   5  -6   66.39   54.19
   3   5  -6  117.09   28.50
   3   5  -6  140.89   25.20
   3   5  -6   63.39   30.10
  -3  -5   6  133.39   15.30
   2   5  -6  927.91   94.39
   2   5  -6  860.81   93.19
   2   5  -6  842.22   80.89
   2   5  -6  977.10   79.59
   2   5  -6  935.41   84.39
  -2  -5   6 1063.79  118.99
   1   5  -6  125.29   36.20
   1   5  -6  196.98   39.80
   1   5  -6  100.19   53.99
  -1  -5   6  181.28   17.80
   0   5  -6  204.58   41.00
   0   5  -6  247.68   32.50
   0   5  -6  245.68   30.10
   0   5  -6  231.98   39.10
   0   5  -6  203.58   51.49
   0  -5   6  247.58   47.00
   0  -5   6  246.88   23.10
   0  -5   6  214.98   84.59
  -1   5  -6  194.88   37.60
  -1   5  -6  158.18   32.50
  -1   5  -6  181.38   34.30
  -1   5  -6  194.08   27.70
   1  -5   6  258.07   57.19
   1  -5   6  160.18   22.90
   1  -5   6  239.08   47.90
  -2   5  -6   22.20   16.30
  -2   5  -6   19.00   27.40
  -2   5  -6   17.00   24.20
   2  -5   6    6.00    9.90
   2  -5   6   20.70   25.70
   2  -5   6   78.99   41.70
   2  -5   6  -36.30   40.90
  -3   5  -6  -21.90   27.70
  -3   5  -6   -6.60   20.10
  -3   5  -6   16.10   16.40
   3  -5   6   -2.30   14.60
   3  -5   6  -34.10   67.89
   3  -5   6    5.50   17.90
   3  -5   6  -91.89   59.29
  -4   5  -6   33.60   25.60
   4  -5   6 -124.99  119.69
   4  -5   6  -40.40  108.49
   4  -5   6   50.99   22.40
   4  -5   6   -1.10   18.60
  -5   5  -6    5.30    9.80
   5  -5   6    7.30   15.50
   5  -5   6   40.80   16.10
   5  -5   6    1.90    8.20
   5   4  -6  226.88   21.60
   5   4  -6  175.28   19.70
   5   4  -6  185.68   25.00
  -5  -4   6  207.48   25.20
  -5  -4   6  201.78   29.20
   4   4  -6  107.89   18.80
   4   4  -6  103.59   21.80
   4   4  -6  186.48   42.40
  -4  -4   6   86.99   14.80
  -4  -4   6  102.09   22.20
   3   4  -6  708.33   61.09
   3   4  -6  683.13   61.59
   3   4  -6  618.24   78.99
   3   4  -6  677.73   75.29
   3   4  -6  607.24   61.69
   3   4  -6  694.33   57.69
  -3  -4   6  534.95   55.69
  -3  -4   6  668.43  101.09
   2   4  -6  737.53   74.79
   2   4  -6  749.82   76.39
   2   4  -6  912.71   69.19
  -2  -4   6  835.82  100.09
  -2  -4   6  703.73   64.89
   1   4  -6   22.20   29.70
   1   4  -6   63.39   22.40
   1   4  -6   67.99   38.70
   1   4  -6   22.80   27.20
   1   4  -6    7.30   17.70
   1   4  -6    0.40   16.10
  -1  -4   6    3.20    9.70
   0   4  -6   72.79   38.80
   0   4  -6   84.89   20.30
   0   4  -6  162.08   53.89
   0   4  -6   60.59   23.10
   0   4  -6   35.30   19.20
   0  -4   6   40.90   14.20
   0  -4   6   45.80   31.70
  -1   4  -6   63.69   27.30
  -1   4  -6   90.19   18.80
  -1   4  -6   91.09   20.20
  -1   4  -6   64.99   28.60
  -2   4  -6  273.17   42.90
  -2   4  -6  233.88   51.19
  -2   4  -6  336.17   40.30
  -2   4  -6  339.57   48.60
   2  -4   6  342.67   35.90
   2  -4   6  327.67   52.79
   2  -4   6  375.46   32.00
  -3   4  -6  196.58   32.60
  -3   4  -6  217.38   46.80
  -3   4  -6  230.28   25.80
   3  -4   6  228.68   54.99
   3  -4   6  158.18   28.30
   3  -4   6  201.08   30.00
   3  -4   6  118.89   53.89
  -4   4  -6   55.29   12.90
  -4   4  -6   31.30   24.50
   4  -4   6  -11.00   76.69
   4  -4   6   12.20   18.90
   4  -4   6   67.59   22.40
   4  -4   6  -63.49   89.89
   5  -4   6   18.70   13.40
   5  -4   6   55.39   15.60
   5  -4   6    6.00   11.40
   5   3  -6    3.40    7.90
   5   3  -6   14.40    9.90
  -5  -3   6  -14.70   14.00
  -5  -3   6  -14.60   22.60
   4   3  -6    9.40   13.70
   4   3  -6   20.00   20.50
   4   3  -6   -6.90   14.80
   4   3  -6   47.50   43.10
  -4  -3   6    3.10   11.20
   3   3  -6   93.39   41.40
   3   3  -6   94.59   20.70
   3   3  -6  106.59   27.70
   3   3  -6   60.99   38.90
   3   3  -6   76.49   20.00
   3   3  -6   79.39   24.50
  -3  -3   6   93.79   78.49
  -3  -3   6   37.90  128.59
   2   3  -6  196.38   34.90
   2   3  -6  130.59   28.70
   2   3  -6  137.49   22.50
   2   3  -6   72.29   24.80
   2   3  -6  132.39   66.99
  -2  -3   6   97.39   41.60
  -2  -3   6   93.29   19.50
   1   3  -6    8.40   16.60
   1   3  -6   -3.80   19.90
   1   3  -6  -16.80   30.90
  -1  -3   6  -54.59   43.60
   0   3  -6  579.44   54.29
   0   3  -6  679.73   57.49
   0   3  -6  519.95   63.29
   0  -3   6  459.55   59.99
  -1   3  -6  285.97   49.40
   1  -3   6  388.66   44.90
   1  -3   6  341.57   85.89
   1  -3   6  374.36   31.40
   1  -3   6  328.07   57.79
  -2   3  -6   61.49   21.50
  -2   3  -6    3.10   21.80
  -2   3  -6    1.70   13.90
  -2   3  -6   -3.10   18.00
  -2   3  -6   -4.20   25.30
   2  -3   6   62.89   65.39
   2  -3   6    7.90   27.30
   2  -3   6   25.10    8.50
   2  -3   6    5.00   13.00
  -3   3  -6  506.35   50.19
  -3   3  -6  480.75   49.10
  -3   3  -6  464.55   45.30
   3  -3   6  489.05   45.10
   3  -3   6  550.74   70.19
   3  -3   6  501.55   71.59
   3  -3   6  500.95   46.30
  -4   3  -6   17.70   18.10
  -4   3  -6   33.40   28.40
  -4   3  -6   20.10   13.30
   4  -3   6   -3.60   16.90
   4  -3   6   61.29   23.00
   4  -3   6  -63.89   81.19
   4  -3   6   -4.40   46.60
   4  -3   6   34.00   99.29
   4  -3   6   -9.50   18.40
   5  -3   6   54.69   16.90
   5  -3   6   25.20   15.60
   5   2  -6   62.69   21.50
   5   2  -6   45.50   14.20
   5   2  -6   59.69   11.70
  -5  -2   6   25.90   17.70
  -5  -2   6   49.99   14.50
   4   2  -6   28.80   25.90
   4   2  -6   65.19   18.10
   4   2  -6   87.49   28.90
   4   2  -6   28.70   21.00
  -4  -2   6   34.10   11.90
  -4  -2   6    7.90   88.79
   3   2  -6   21.60   20.60
   3   2  -6  132.39   57.89
   3   2  -6   46.30   15.30
   3   2  -6   31.20   35.00
   3   2  -6   -9.50   25.60
   2   2  -6  154.28   28.30
   2   2  -6  190.08   31.30
   2   2  -6  132.49   34.70
   2   2  -6  169.38   44.20
   2   2  -6  154.38   24.80
   2   2  -6  170.88   34.60
  -2  -2   6  144.39   45.00
   1   2  -6  156.58   31.90
   1   2  -6  131.19   38.10
   1   2  -6  114.79   21.70
   1   2  -6  100.39   20.40
   0  -2   6   34.40   66.29
   1  -2   6  886.51   72.39
   1  -2   6  866.41   82.89
  -2   2  -6 2076.99  163.88
  -2   2  -6 1850.81  166.58
  -2   2  -6 1769.92  169.08
  -2   2  -6 2019.20  165.58
  -2   2  -6 1943.31  162.58
   2  -2   6 2050.19  180.38
   2  -2   6 1852.81  208.48
   2  -2   6 2045.30  167.78
   2  -2   6 2069.19  160.68
  -3   2  -6   76.39   32.20
  -3   2  -6  111.19   62.89
   3  -2   6   85.59   14.50
   3  -2   6   67.39   25.90
   3  -2   6  128.39   41.60
   3  -2   6   74.09   19.00
  -4   2  -6   64.09   21.90
  -4   2  -6   58.39   15.70
   4  -2   6   29.80   19.30
   4  -2   6   -5.00   70.89
   4  -2   6   25.30   30.60
   4  -2   6   59.09   22.60
   4  -2   6  103.29   23.00
   4  -2   6   86.89   87.29
   5  -2   6   63.39   25.10
   5  -2   6   28.10   20.30
  -6   2  -6   -9.70    9.00
  -6   2  -6    5.80    8.30
   6  -2   6   -9.30   14.30
   6  -2   6    7.80   12.60
   6  -2   6   11.60   11.70
   5   1  -6   70.39   25.70
   5   1  -6   75.19   16.00
   5   1  -6   63.19   18.70
  -5  -1   6   47.00   17.90
  -5  -1   6   60.99   13.40
   4   1  -6   29.70   27.90
   4   1  -6    0.40   21.30
   4   1  -6    9.70   20.30
   4   1  -6   46.40   16.70
   4   1  -6   29.80   15.10
  -4  -1   6   23.90   65.39
  -4  -1   6   23.20   13.30
   3   1  -6   39.70   30.60
   3   1  -6   50.69   34.30
   3   1  -6   30.30   19.40
   3   1  -6   38.00   20.00
   2   1  -6  414.96   47.30
   2   1  -6  418.36   80.39
   2   1  -6  390.96   46.50
   2   1  -6  360.36   51.09
   2   1  -6  443.76   41.90
  -2  -1   6  350.56   61.49
  -1  -1   6  395.76   58.29
   0   1  -6   71.99   18.40
   0  -1   6   83.49   29.70
  -1   1  -6  224.48   31.00
  -1   1  -6  288.67   70.39
   1  -1   6  313.47   55.39
   1  -1   6  202.38   33.60
   1  -1   6  245.28   22.00
   1  -1   6  178.08   36.00
  -2   1  -6 2802.82  260.27
  -2   1  -6 3147.49  239.28
  -2   1  -6 2885.51  238.28
   2  -1   6 2957.90  269.07
   2  -1   6 2847.52  254.27
   2  -1   6 2806.92  241.38
   2  -1   6 2995.90  248.08
  -3   1  -6  -17.10   38.70
  -3   1  -6   34.20   22.50
  -3   1  -6   21.70   24.20
  -3   1  -6   29.90   21.40
   3  -1   6   -1.10   39.10
   3  -1   6  104.29   34.80
   3  -1   6   -0.70   13.80
   3  -1   6   28.30   27.70
  -4   1  -6   -4.00   27.30
  -4   1  -6    8.00   19.10
   4  -1   6   22.50   54.99
   4  -1   6   25.70   14.50
   4  -1   6    3.90   25.10
   4  -1   6  -69.89   69.49
   4  -1   6  -34.60   19.80
   4  -1   6    9.40   18.60
  -5   1  -6   67.59   19.50
   5  -1   6  -86.89   72.29
   5  -1   6   62.39   20.10
  -6   1  -6   86.69   10.80
  -6   1  -6  119.89   16.60
   6  -1   6   96.39   11.50
   6  -1   6   88.99   15.10
   5   0  -6   50.19   22.10
   5   0  -6   77.19   18.00
   5   0  -6   50.09   12.70
  -5   0   6   78.89   16.00
  -5   0   6   50.69   18.50
   4   0  -6   53.89   19.00
   4   0  -6   98.09   48.00
   4   0  -6   54.89   18.50
   4   0  -6   69.69   21.50
  -4   0   6   60.19   62.29
   3   0  -6  159.18   33.60
   3   0  -6  159.68   27.50
   3   0  -6  181.38   31.20
   3   0  -6  107.19   32.10
  -3   0   6  108.99   34.70
  -3   0   6  128.19   27.20
   2   0  -6  621.34   61.79
   2   0  -6  586.44   86.69
   2   0  -6  569.34   57.19
   2   0  -6  567.34   60.49
  -2   0   6  727.03   95.69
   1   0  -6  -11.00   21.10
   0   0  -6   28.50   15.00
   0   0   6  -12.50   11.70
  -1   0  -6  219.68   30.90
   1   0   6  263.47   55.19
   1   0   6  224.28   31.20
   1   0   6  159.28   35.90
  -2   0  -6  144.79   29.00
  -2   0  -6  162.58   34.80
  -2   0  -6  167.68   26.80
  -2   0  -6  195.78   26.60
  -2   0  -6  131.49   23.20
   2   0   6   90.79   53.89
   2   0   6  135.39   19.10
   2   0   6   85.29   50.79
   2   0   6  105.79   37.10
   2   0   6  116.79   30.00
   2   0   6  130.29   21.30
  -3   0  -6  174.68   36.80
  -3   0  -6  188.18   36.00
  -3   0  -6  155.38   27.50
  -3   0  -6  159.18   36.00
   3   0   6   87.39   50.99
   3   0   6  161.18   20.00
   3   0   6  157.58   25.10
  -4   0  -6  415.26   47.60
   4   0   6  479.95   96.39
   4   0   6  353.26   42.40
   4   0   6  335.27   38.40
   4   0   6  214.68   62.19
   4   0   6  275.47   48.40
   4   0   6  311.57   41.20
  -5   0  -6   78.49   19.30
  -5   0  -6   51.89   13.00
   5   0   6   35.00   19.80
   5   0   6   93.19   67.19
  -6   0  -6    3.50   16.40
   6   0   6  -26.80   16.60
   6   0   6   -4.20    9.60
   5  -1  -6   29.00   12.40
   5  -1  -6   11.60   25.20
   5  -1  -6   22.40   14.60
  -5   1   6  -12.20   24.50
  -5   1   6   20.90   17.00
   4  -1  -6   -0.60   18.40
   4  -1  -6   83.39   46.30
   4  -1  -6   34.30   17.20
   4  -1  -6   39.40   27.90
   4  -1  -6    7.00   22.10
   4  -1  -6   -2.40   22.70
  -4   1   6   16.80   13.10
  -4   1   6   96.19   61.19
   3  -1  -6  143.89   34.00
   3  -1  -6  102.19   49.20
   3  -1  -6  149.69   28.40
   3  -1  -6  116.89   26.20
   3  -1  -6  139.09   31.40
   3  -1  -6  130.69   30.70
  -3   1   6  141.19   41.80
  -3   1   6  106.19   20.80
   2  -1  -6    1.30   23.70
   2  -1  -6  -17.10   30.80
   2  -1  -6   29.60   30.70
   2  -1  -6    7.50   28.70
   2  -1  -6  -30.10   28.70
   2  -1  -6   55.99   43.70
  -2   1   6  -14.90   24.30
   1  -1  -6  481.45   45.50
  -1   1   6  390.76   39.70
   0  -1  -6   13.30   18.70
   0   1   6   35.90   55.59
   1   1   6   71.09   20.30
   1   1   6   73.19   11.10
   1   1   6   83.99   40.70
   1   1   6   47.60   24.80
   1   1   6   32.00   36.30
  -2  -1  -6   58.69   36.10
  -2  -1  -6    3.60   22.20
  -2  -1  -6    2.70   12.20
  -2  -1  -6    2.30   13.70
  -2  -1  -6  -15.20   17.70
  -2  -1  -6   14.20   19.70
   2   1   6   -5.30   21.80
   2   1   6   -0.20    7.70
   2   1   6    5.10   43.10
   2   1   6   13.60   57.99
  -3  -1  -6   78.89   26.80
  -3  -1  -6   82.09   25.40
  -3  -1  -6   94.69   19.70
  -3  -1  -6   94.59   38.10
   3   1   6  109.69   18.00
   3   1   6   66.29   14.40
  -4  -1  -6   44.50   37.00
  -4  -1  -6   15.40   16.80
  -4  -1  -6   19.90   13.00
   4   1   6   51.49   19.30
   4   1   6    5.30   18.20
   4   1   6   18.00   16.80
   4   1   6  -47.60   82.09
   4   1   6  -27.80   54.59
   4   1   6    1.10   19.30
  -5  -1  -6   23.10   20.90
  -5  -1  -6   53.99   77.69
  -5  -1  -6   55.29   12.60
   5   1   6   49.10   20.30
   5   1   6   46.70   20.40
   5   1   6  108.49   79.09
  -6  -1  -6  206.68   18.50
   6   1   6  187.88   25.90
   5  -2  -6   51.19   16.40
   5  -2  -6   75.59   24.70
   5  -2  -6   51.09   13.30
  -5   2   6   57.89   16.80
   4  -2  -6  -11.50   40.80
   4  -2  -6   12.70   27.70
   4  -2  -6   50.89   20.30
   4  -2  -6   46.70   27.10
   4  -2  -6   10.00   25.70
  -4   2   6  -13.40   64.09
   3  -2  -6  102.59   27.40
   3  -2  -6  143.39   31.30
   3  -2  -6  154.18   29.50
   3  -2  -6  122.59   29.00
   3  -2  -6  181.18   25.50
  -3   2   6   88.39   36.90
  -3   2   6  195.78   45.10
   2  -2  -6   58.39   34.60
   2  -2  -6   16.70   31.30
   2  -2  -6   64.69   38.60
   2  -2  -6   25.00   25.70
   2  -2  -6   81.59   40.20
  -2   2   6    8.20   11.50
  -2   2   6   55.09   23.10
   1  -2  -6   81.99   25.80
   1  -2  -6   79.69   21.40
   1  -2  -6   83.89   25.60
   1  -2  -6  114.29   24.10
  -1   2   6  134.59   42.70
   0  -2  -6   53.59   15.00
   0   2   6   42.50    9.30
   0   2   6   57.09   18.70
   0   2   6   12.60   31.40
  -1  -2  -6  321.97   45.20
  -1  -2  -6  390.06   54.59
   1   2   6  396.66   56.29
   1   2   6  280.27   45.20
   1   2   6  380.46   49.70
   1   2   6  311.17   28.70
   1   2   6  317.17   39.30
  -2  -2  -6   20.30   16.90
  -2  -2  -6    6.70   20.00
  -2  -2  -6   46.40   19.30
  -2  -2  -6   -9.30   40.20
  -2  -2  -6    5.70   10.50
  -2  -2  -6   20.40   21.50
   2   2   6  -19.30   30.30
   2   2   6    5.40    8.50
   2   2   6   28.80   46.90
   2   2   6 -102.19   85.39
   2   2   6   47.60   62.59
  -3  -2  -6   67.19   59.29
  -3  -2  -6   28.70   19.60
  -3  -2  -6   53.39   28.70
  -3  -2  -6   24.50   30.50
  -3  -2  -6   58.39   15.20
   3   2   6   48.10   17.80
   3   2   6   17.70   40.00
   3   2   6   48.20   11.20
  -4  -2  -6   -4.90   39.30
  -4  -2  -6    8.30   92.99
  -4  -2  -6   14.30   16.50
  -4  -2  -6   43.00   12.90
   4   2   6   26.10   23.50
   4   2   6   50.09   41.40
   4   2   6  190.78   91.09
   4   2   6   31.90   26.30
   4   2   6   53.59   19.20
  -5  -2  -6  503.75   39.20
  -5  -2  -6  415.66   83.89
   5   2   6  338.87   45.20
   5   2   6  387.56   92.59
  -6  -2  -6  282.97   24.30
   6   2   6  245.58   24.10
   5  -3  -6   53.39   17.30
   5  -3  -6   89.49   18.80
   5  -3  -6   65.49   20.00
  -5   3   6   70.79   20.10
   4  -3  -6  152.28   26.40
   4  -3  -6   83.39   32.40
   4  -3  -6  106.19   29.80
   4  -3  -6   51.39   28.60
   4  -3  -6   95.79   26.00
  -4   3   6  194.78   78.79
   3  -3  -6    0.90   24.80
   3  -3  -6    4.80   14.00
   3  -3  -6   18.60   21.90
   3  -3  -6   35.00   34.90
   3  -3  -6   14.80   31.50
   3  -3  -6   -6.80   27.20
   3  -3  -6   37.90   22.80
  -3   3   6   12.80   16.70
  -3   3   6    7.40   26.60
  -3   3   6   40.10   35.80
   2  -3  -6  442.56   60.99
   2  -3  -6  549.95   48.10
   2  -3  -6  434.96   55.99
   2  -3  -6  428.76   45.60
   2  -3  -6  447.26   53.39
   2  -3  -6  511.95   60.49
  -2   3   6  507.25   53.79
  -2   3   6  521.55   46.10
   1  -3  -6  324.47   51.39
   1  -3  -6  278.77   36.70
   1  -3  -6  212.18   38.90
   1  -3  -6  210.78   44.40
   1  -3  -6  301.07   38.90
  -1   3   6  309.77   25.70
  -1   3   6  372.86   72.39
   0  -3  -6  313.97   43.30
   0   3   6  371.36   30.00
   0   3   6  295.47   53.19
   0   3   6  337.27   33.00
   0   3   6  367.26   66.59
  -1  -3  -6    7.90   24.40
  -1  -3  -6    3.60   39.40
  -1  -3  -6   73.39   24.20
   1   3   6   46.10   42.40
   1   3   6   38.40   39.30
   1   3   6   29.70   35.00
   1   3   6   35.20    8.00
   1   3   6   -3.60   31.40
  -2  -3  -6  233.38   42.60
  -2  -3  -6  251.57   36.20
  -2  -3  -6  235.28   31.00
  -2  -3  -6  250.27   26.90
  -2  -3  -6  281.17   43.40
   2   3   6  178.88   70.99
   2   3   6  280.87   24.40
   2   3   6  188.38   52.89
   2   3   6  317.97   46.40
   2   3   6  281.07   27.80
   2   3   6  301.37   40.20
  -3  -3  -6   57.39   19.20
  -3  -3  -6  -16.80   30.20
  -3  -3  -6   19.80   34.40
  -3  -3  -6  116.89   37.30
  -3  -3  -6   56.29   31.20
  -3  -3  -6   46.50   30.80
  -3  -3  -6  -30.00   25.10
   3   3   6   50.99   27.80
   3   3   6   86.59   31.50
   3   3   6   21.60   12.20
   3   3   6  -25.60   45.60
  -4  -3  -6  197.68   63.09
  -4  -3  -6   87.19   18.80
  -4  -3  -6  -26.30   61.69
  -4  -3  -6    7.50   46.30
  -4  -3  -6   61.59   18.80
   4   3   6  100.39   20.80
   4   3   6   58.09   18.90
   4   3   6  126.29   29.50
   4   3   6   27.20   57.89
  -5  -3  -6   41.40   65.49
  -5  -3  -6   82.89   16.30
   5   3   6  222.88   94.39
   5   3   6   44.90   21.60
  -6  -3  -6   -0.60    6.30
   6   3   6   -7.30   11.50
   5  -4  -6   56.29   17.90
   5  -4  -6  -13.40   24.30
  -5   4   6   31.80   16.60
   4  -4  -6   29.50   25.20
   4  -4  -6    8.90   24.30
   4  -4  -6   27.60   26.70
   4  -4  -6   31.30   23.80
  -4   4   6   21.80   21.10
  -4   4   6   16.30   17.60
   3  -4  -6  183.98   23.70
   3  -4  -6  167.98   37.10
   3  -4  -6  225.68   35.50
  -3   4   6  138.19   19.80
   2  -4  -6  302.67   65.89
  -2   4   6  322.17   42.00
  -2   4   6  352.16   31.30
  -2   4   6  301.97   43.90
   1  -4  -6  336.57   42.00
   1  -4  -6  291.37   46.80
   1  -4  -6  327.17   42.80
  -1   4   6  327.07   71.19
  -1   4   6  392.06   31.10
   0  -4  -6   39.60   19.90
   0  -4  -6  -74.69   42.80
   0  -4  -6   57.99   25.30
   0  -4  -6   18.30   38.30
   0  -4  -6   36.10   19.80
   0   4   6    8.90    7.40
   0   4   6   -7.20   46.60
   0   4   6   21.00   14.60
   0   4   6  -41.80   47.60
   0   4   6   16.10   15.40
   0   4   6   18.90   32.80
  -1  -4  -6   18.70   41.30
  -1  -4  -6   -6.10   24.30
  -1  -4  -6   -5.10   31.30
  -1  -4  -6  -37.20   24.10
  -1  -4  -6  -78.79   50.79
   1   4   6   -8.00    7.80
   1   4   6   -6.70   11.80
   1   4   6   75.39   42.10
   1   4   6   10.80   24.50
   1   4   6  -13.20   42.90
   1   4   6  -23.70   58.09
  -2  -4  -6  101.59   25.40
  -2  -4  -6  202.18   45.60
  -2  -4  -6  104.79   25.80
  -2  -4  -6  160.68   44.00
  -2  -4  -6  182.68   19.90
  -2  -4  -6  167.88   31.70
   2   4   6  138.39   16.10
   2   4   6  184.18   30.80
   2   4   6  146.29   21.60
   2   4   6   49.99   64.99
  -3  -4  -6  152.18   41.40
  -3  -4  -6  151.98   49.10
  -3  -4  -6  197.58   42.90
  -3  -4  -6  194.38   22.70
  -3  -4  -6  128.69   32.80
  -3  -4  -6  264.17   50.99
   3   4   6  242.78   35.90
   3   4   6  169.18   28.20
   3   4   6  113.79   42.10
   3   4   6  182.58   23.20
  -4  -4  -6  142.39   19.60
  -4  -4  -6  116.39   21.40
  -4  -4  -6  123.59   34.30
  -4  -4  -6   30.40   42.70
   4   4   6  121.49   21.40
   4   4   6   15.60   57.79
   4   4   6  104.69   27.80
   4   4   6  160.78   24.50
  -5  -4  -6   81.89   57.19
   5   4   6   47.80   12.90
  -6  -4  -6    3.90    6.40
   6   4   6   -8.20    5.40
   6   4   6    4.20    9.40
   5  -5  -6    4.10   31.10
  -5   5   6   -3.40   18.20
   4  -5  -6  -39.90   50.09
   4  -5  -6   95.89   50.09
   4  -5  -6   66.09   42.30
   4  -5  -6   16.40   24.50
  -4   5   6   36.30   18.50
  -4   5   6   13.40   18.20
   3  -5  -6  269.27   34.20
   3  -5  -6  398.86   46.60
   3  -5  -6  234.48   55.19
   3  -5  -6  333.07   43.00
   3  -5  -6  374.26   40.40
   3  -5  -6  397.86   47.80
   3  -5  -6  334.67   46.80
  -3   5   6  347.67   34.00
  -3   5   6  347.77   69.79
   2  -5  -6   51.79   29.40
   2  -5  -6   14.20   17.00
   2  -5  -6   25.50   24.80
   2  -5  -6   33.70   23.40
   2  -5  -6   18.90   27.80
  -2   5   6   23.60   28.70
  -2   5   6   32.40   20.30
  -2   5   6    4.70   13.50
   1  -5  -6   14.90   18.70
   1  -5  -6   96.29   50.19
   1  -5  -6  -12.20   26.70
   1  -5  -6    0.30   19.40
   1  -5  -6    9.90   23.00
  -1   5   6   17.90    8.90
  -1   5   6    3.70   28.10
  -1   5   6    4.60   15.90
   0  -5  -6 1289.17   99.79
   0  -5  -6 1205.88  102.19
   0  -5  -6 1176.98  103.99
   0  -5  -6 1028.00  129.39
   0  -5  -6  991.40  121.69
   0  -5  -6 1303.07  102.19
   0   5   6 1229.38   97.99
  -1  -5  -6  659.53   93.99
  -1  -5  -6  751.02   79.19
  -1  -5  -6  828.72   66.09
  -1  -5  -6  787.22   68.39
  -1  -5  -6  919.51   79.19
   1   5   6  714.43   64.49
   1   5   6  765.52   66.19
  -2  -5  -6  144.19   24.70
  -2  -5  -6  116.59   26.60
   2   5   6  216.88   43.30
   2   5   6  138.79   16.80
   2   5   6  145.79   21.70
  -3  -5  -6   18.60   15.80
  -3  -5  -6  -11.60   11.40
  -3  -5  -6    2.60   48.00
  -3  -5  -6   -6.10   58.09
  -3  -5  -6   40.20   28.70
   3   5   6   20.40   15.50
   3   5   6   -3.90   19.50
   3   5   6  -11.40   17.50
   3   5   6   -4.60   43.10
  -4  -5  -6  457.35   50.69
  -4  -5  -6  428.96   41.80
  -4  -5  -6  323.47  109.19
  -4  -5  -6  502.85   39.40
   4   5   6  362.86   42.30
   4   5   6  455.15   41.70
   4   5   6  304.27   78.79
  -5  -5  -6   45.20   64.59
   5   5   6  112.59  107.69
   5   5   6    7.10   22.50
   4  -6  -6  150.58   34.20
   4  -6  -6  152.18   33.50
   4  -6  -6   89.79   19.50
  -4   6   6  109.39   22.00
   3  -6  -6  -17.50   28.50
   3  -6  -6   24.90   16.80
   3  -6  -6   22.00   26.10
   3  -6  -6   41.40   26.00
   3  -6  -6   72.79   27.40
  -3   6   6   78.89   53.59
  -3   6   6   58.39   15.20
   2  -6  -6  229.18   31.40
   2  -6  -6  288.77   51.99
   2  -6  -6  210.58   39.50
   2  -6  -6  280.47   40.80
   2  -6  -6  266.97   36.80
   2  -6  -6  313.67   39.30
  -2   6   6  289.27   48.00
  -2   6   6  296.87   35.30
  -2   6   6  303.27   26.80
   1  -6  -6   73.29   50.79
  -1   6   6   75.09   31.80
  -1   6   6   75.39   20.10
  -1   6   6   92.89   15.40
   0  -6  -6  248.68   46.60
   0  -6  -6  200.98   29.50
   0  -6  -6  388.86   97.49
   0  -6  -6  220.18   34.40
   0  -6  -6  215.78   28.40
   0   6   6  259.77   24.60
   0   6   6  296.47   29.30
   0   6   6  193.98   43.80
   0   6   6  306.17   68.09
  -1  -6  -6  284.37   28.30
  -1  -6  -6  255.97   50.79
  -1  -6  -6  319.77   36.00
   1   6   6  309.97   27.30
   1   6   6  272.67   30.90
   1   6   6  247.08   50.89
  -2  -6  -6   26.60   66.09
  -2  -6  -6   -4.10   14.50
   2   6   6   21.80   13.40
   2   6   6    3.50    9.70
   2   6   6  -57.59   40.50
  -3  -6  -6   12.00   15.70
  -3  -6  -6   -9.70   11.90
   3   6   6    2.70   17.20
   3   6   6   10.30   19.70
   3   6   6    4.10   52.29
   3   6   6  -22.00   23.90
   3   6   6  -29.70   23.30
  -4  -6  -6  502.75  119.09
  -4  -6  -6  519.35   50.09
  -4  -6  -6  577.14   49.00
  -4  -6  -6  807.52  133.79
  -4  -6  -6  619.74  132.99
   4   6   6  549.65   53.99
   4   6   6  365.36  139.09
   4   6   6  600.34   55.59
   4   6   6  475.05   55.19
  -5  -6  -6   61.69   11.20
  -5  -6  -6   36.90   12.30
   5   6   6   42.80   10.00
   5   6   6   30.90   21.20
   5   6   6   28.50   10.40
   4  -7  -6   42.00   24.40
   4  -7  -6   26.90   31.20
   4  -7  -6   61.39   22.40
  -4   7   6    5.00   28.30
   3  -7  -6   25.50   26.20
   3  -7  -6    5.70   11.40
   3  -7  -6   26.00   25.20
   3  -7  -6  -10.60   26.40
  -3   7   6 -111.09  110.19
  -3   7   6   -0.90   19.60
  -3   7   6   -3.30   12.80
   2  -7  -6   -8.60   16.20
   2  -7  -6    8.10   28.30
   2  -7  -6   10.50   26.10
   2  -7  -6    6.20   38.40
   2  -7  -6    0.30   15.00
   2  -7  -6    4.00   23.80
  -2   7   6   11.60   12.40
   1  -7  -6  169.68   44.20
   1  -7  -6  144.89   25.60
   1  -7  -6  241.98   57.39
   1  -7  -6  154.58   34.90
   1  -7  -6  160.48   22.10
  -1   7   6  124.69   36.80
  -1   7   6  187.38   24.20
   0  -7  -6  166.48   59.59
   0  -7  -6  148.69   23.00
   0  -7  -6   82.69   67.29
   0   7   6  171.38   20.20
   0   7   6  155.28   40.00
   0   7   6  193.88   28.30
  -1  -7  -6   40.50   17.40
   1   7   6   32.20   42.70
   1   7   6   18.70   41.70
   1   7   6   36.50   15.00
   1   7   6   11.40   10.70
  -2  -7  -6  113.89   17.70
  -2  -7  -6  139.69   21.40
   2   7   6  142.89   28.60
   2   7   6  158.28   25.40
   2   7   6  130.29   25.90
   2   7   6   35.40   52.99
  -3  -7  -6   73.49   79.99
  -3  -7  -6  223.68  130.59
  -3  -7  -6  261.07   26.30
  -3  -7  -6  232.08   26.90
   3   7   6  257.17   43.90
   3   7   6  166.08   69.29
   3   7   6  212.78   33.00
   3   7   6  225.58   29.20
   3   7   6  273.67   32.00
  -4  -7  -6   29.90   14.60
  -4  -7  -6  -50.99   82.89
  -4  -7  -6  -72.89  137.79
  -4  -7  -6   34.80   14.80
   4   7   6  -13.20   95.89
   4   7   6   -7.10   20.30
  -5  -7  -6   -0.20   10.70
   5   7   6  -10.10    7.40
   5   7   6   19.80   17.50
   5   7   6  -10.40    8.10
   4  -8  -6   -8.30   22.60
   4  -8  -6   28.00   17.20
  -4   8   6   19.70   19.30
  -4   8   6   26.20   28.70
  -4   8   6   16.60   14.60
  -3   8   6  104.39   20.80
  -3   8   6   86.39   17.90
   2  -8  -6   -2.30   22.30
   2  -8  -6   16.00   14.80
   2  -8  -6   47.90   33.40
   2  -8  -6   24.70   15.90
   2  -8  -6   23.00   27.60
   2  -8  -6   42.00   27.00
  -2   8   6   42.00   14.10
  -2   8   6   83.39   65.39
   1  -8  -6   94.09   44.70
   1  -8  -6  -25.00   30.60
   1  -8  -6    6.20   14.40
   1  -8  -6    2.50   18.40
  -1   8   6   24.70   25.00
  -1   8   6   20.80   11.10
   0  -8  -6  310.27   35.60
   0  -8  -6  281.07   80.99
   0  -8  -6  304.67   55.49
   0  -8  -6  323.77   48.70
   0  -8  -6  341.17   66.39
   0  -8  -6  336.27   33.20
   0   8   6  446.86   53.19
   0   8   6  396.56   36.70
   0   8   6  374.76   32.40
   0   8   6  200.28   92.19
  -1  -8  -6  211.08   24.80
  -1  -8  -6  273.07   27.60
   1   8   6  132.29   59.09
   1   8   6  247.88   32.80
   1   8   6  237.88   25.60
   1   8   6  264.07   33.50
  -2  -8  -6  845.42   69.59
  -2  -8  -6  771.62   69.79
   2   8   6  815.32   73.79
   2   8   6  784.42   70.29
   2   8   6  847.92   77.19
  -3  -8  -6  110.79   18.30
  -3  -8  -6  125.69   16.60
   3   8   6  112.49   23.20
   3   8   6   96.19   21.30
   3   8   6    2.70  123.99
  -4  -8  -6  -87.09  112.29
  -4  -8  -6   75.59   13.10
  -4  -8  -6   73.99   13.90
   4   8   6   32.80   21.20
   4   8   6   82.39  126.19
  -5  -8  -6   32.90   10.30
  -5  -8  -6   27.80    7.70
   5   8   6   44.80    7.00
   3  -9  -6   75.89   12.60
   3  -9  -6   47.50   14.00
  -3   9   6   47.50   19.10
   2  -9  -6   47.10   27.90
   2  -9  -6    4.50   14.10
   2  -9  -6   43.90   24.20
   2  -9  -6   -3.90   11.20
   2  -9  -6   -7.70   23.10
  -2   9   6  -10.40   16.70
  -2   9   6   -5.70   18.30
   1  -9  -6   38.20   13.00
   1  -9  -6   66.59   28.50
   1  -9  -6   38.90   34.60
   1  -9  -6    8.00   14.00
  -1   9   6   32.80   14.50
  -1   9   6  -56.49   76.09
   0  -9  -6  225.08   53.19
   0  -9  -6  253.77   29.00
   0  -9  -6  263.27   28.30
   0   9   6  266.27   26.60
   0   9   6  185.28   74.79
   0   9   6  299.27   30.80
  -1  -9  -6    3.70   12.10
  -1  -9  -6    8.40   12.20
   1   9   6    3.50   22.60
   1   9   6  -45.70   74.59
   1   9   6    3.20   18.10
   1   9   6   10.10   14.10
  -2  -9  -6   42.10   12.30
  -2  -9  -6   41.10   12.90
   2   9   6   32.70   17.70
   2   9   6  -22.40   80.29
   2   9   6   56.79   17.70
   2   9   6   71.89   20.50
  -3  -9  -6  103.99   14.40
   3   9   6   71.59   22.80
   3   9   6  173.68  106.69
  -4  -9  -6   52.19    8.70
   4   9   6  101.49   20.90
   4   9   6   57.29    8.90
   3 -10  -6   26.50   16.30
   3 -10  -6   39.20   20.50
   3 -10  -6   30.40    9.40
  -3  10   6   46.50   33.70
   2 -10  -6   28.50   24.30
   2 -10  -6   46.90   12.60
   2 -10  -6   44.30   20.10
  -2  10   6   70.69   16.80
  -2  10   6   74.19   26.40
  -2  10   6   74.59   22.10
   1 -10  -6  109.09   16.50
   1 -10  -6  123.59   31.60
  -1  10   6  103.19   20.90
  -1  10   6   80.49   16.30
   0 -10  -6   92.39   15.40
   0 -10  -6   94.79   15.50
   0 -10  -6   99.29   27.40
   0  10   6  140.29   27.80
   0  10   6   75.09   19.90
  -1 -10  -6   17.50   12.60
  -1 -10  -6  129.89  133.89
  -1 -10  -6   30.10   12.20
   1  10   6   40.00   24.00
   1  10   6   47.40   22.70
   1  10   6   18.90   23.40
   1  10   6  -33.20   45.20
  -2 -10  -6   -3.60   10.90
  -2 -10  -6    4.60   17.80
   2  10   6   16.40   21.10
   2  10   6 -114.99  131.89
  -3 -10  -6   11.50    8.90
  -3 -10  -6   22.00   10.10
   3  10   6   12.60   11.30
   3  10   6   -0.70   10.60
  -4 -10  -6    0.50    9.90
  -4 -10  -6    0.70    5.80
   4  10   6   -8.50    9.40
   4  10   6    7.40    6.40
   2 -11  -6   81.79   21.80
   2 -11  -6   35.60   10.10
   2 -11  -6   57.99   18.10
  -2  11   6   52.19   15.50
  -2  11   6   19.00   35.60
   1 -11  -6  139.89   19.00
   1 -11  -6  136.09   19.40
   1 -11  -6  169.88   23.60
  -1  11   6  170.28   22.10
  -1  11   6  152.18   30.40
  -1  11   6  174.38   31.10
   0 -11  -6   22.10   21.60
   0  11   6   32.50   22.40
  -1 -11  -6   60.99   18.60
   1  11   6   69.69   19.20
   1  11   6   60.39   24.70
   1  11   6   33.50   26.20
  -2 -11  -6    1.80    8.50
  -2 -11  -6   24.80    9.70
   2  11   6  -26.00   17.60
   2  11   6  -12.30   20.70
  -3 -11  -6   29.80    9.80
  -3 -11  -6   33.40    8.30
   3  11   6   20.80    9.10
   1 -12  -6   63.59   11.10
   1 -12  -6   69.49   10.40
   1 -12  -6   48.10   19.00
   1 -12  -6   77.79   16.70
  -1  12   6   64.39   13.30
   0 -12  -6   -4.00    8.90
   0 -12  -6    1.30    6.00
   0 -12  -6   46.00   21.20
   0  12   6   -4.00   17.10
  -1 -12  -6  111.19   13.80
  -1 -12  -6   74.19   13.30
   1  12   6  141.09   22.50
   1  12   6  112.39   19.10
   1  12   6   97.89   18.50
  -2 -12  -6   16.10   10.70
   2  12   6   55.39   15.40
   2  12   6   41.10   10.00
   2  12   6   30.70   21.30
   1  11  -7   82.29   13.90
   1  11  -7   70.89   15.30
   0  11  -7   -5.00   10.20
   0  11  -7   -6.70   10.80
   0 -11   7   23.70   18.90
  -1  11  -7   11.60   21.70
   1 -11   7   33.90   24.10
   2  10  -7  -11.90   10.00
   2  10  -7    1.20   12.50
   2  10  -7   22.50   10.90
  -2 -10   7   11.30   19.40
   1  10  -7   14.90   10.10
   1  10  -7   35.40   12.10
  -1 -10   7   33.00   13.50
  -1 -10   7   18.20   15.90
  -1 -10   7   94.79   32.60
   0  10  -7  187.38   19.50
   0  10  -7  127.19   20.90
   0 -10   7  204.58   27.80
   0 -10   7  136.39   21.10
  -1  10  -7    6.50    8.40
  -1  10  -7   24.60    9.90
  -1  10  -7    2.60   10.20
  -1  10  -7   37.40   18.10
   1 -10   7   11.10   15.60
   1 -10   7  -22.40   18.80
  -2  10  -7   -7.60   20.80
  -2  10  -7   29.80    9.00
   2 -10   7   59.89   17.30
   2 -10   7    5.30   19.90
   3   9  -7  -21.80   21.50
   3   9  -7   13.90    9.70
  -3  -9   7   33.50   24.50
   2   9  -7   55.59   14.60
   2   9  -7   59.09   14.30
   2   9  -7   54.89   13.60
  -2  -9   7   87.79   19.10
  -2  -9   7   47.20   15.70
   1   9  -7  247.08   31.70
  -1  -9   7  181.88   22.80
  -1  -9   7  204.48   25.60
   0  -9   7   62.99   15.00
  -1   9  -7   19.80   22.90
   1  -9   7  -12.50   11.60
   1  -9   7  -27.50   88.79
   1  -9   7    6.00   19.60
  -2   9  -7   26.80   16.70
  -2   9  -7   -8.30   11.30
  -2   9  -7   13.10   14.30
   2  -9   7   23.60   15.20
   2  -9   7   10.20   73.09
   2  -9   7  -29.30   22.80
  -3   9  -7  -12.00   31.80
  -3   9  -7    4.10   15.20
   3  -9   7   70.49   39.60
   3  -9   7   18.80   19.20
   3   8  -7   10.30    7.50
   3   8  -7   13.50   16.70
   3   8  -7   26.50   13.60
  -3  -8   7   -1.70   16.40
   2   8  -7  124.69   29.20
  -2  -8   7  140.19   30.00
  -2  -8   7  147.59   78.39
   1   8  -7  431.46   38.80
   1   8  -7  308.27   44.20
   1   8  -7  348.17   43.60
  -1  -8   7  429.86   35.70
   0   8  -7   -1.40   21.70
   0   8  -7   15.60   26.50
   0   8  -7   14.40   15.20
   0   8  -7   49.70   37.60
   0  -8   7   90.99   69.19
   0  -8   7   20.10   11.40
  -1   8  -7   15.20   24.70
  -1   8  -7   -7.00   15.10
  -1   8  -7   28.00   16.70
   1  -8   7   22.60   15.10
   1  -8   7    2.80   13.60
   1  -8   7  257.17  112.29
  -2   8  -7    2.20   13.70
  -2   8  -7   11.00   16.70
  -2   8  -7  -24.90   17.60
   2  -8   7  -22.50   14.70
   2  -8   7  -61.99  111.59
  -3   8  -7    1.00   10.90
  -3   8  -7   37.80   19.40
  -3   8  -7    0.50   21.00
   3  -8   7   -4.60   11.60
   3  -8   7   -9.30   64.09
   3  -8   7   20.80   17.00
  -4   8  -7   29.30   15.70
  -4   8  -7   28.30   10.50
   4  -8   7   11.20   10.40
   4   7  -7   11.50    9.10
   4   7  -7   -2.50    9.70
  -4  -7   7   17.00   17.00
   3   7  -7   22.60   16.90
   3   7  -7   39.80   14.90
   3   7  -7    3.40   25.10
  -3  -7   7   27.80   21.60
   2   7  -7   65.99   15.80
   2   7  -7   51.79   21.10
   2   7  -7   80.29   21.40
  -2  -7   7 -186.08  118.99
  -2  -7   7   57.69   12.70
  -2  -7   7   50.29  101.89
   1   7  -7   67.19   22.80
   1   7  -7   48.00   29.70
   1   7  -7   83.59   21.40
  -1  -7   7  155.38  136.49
  -1  -7   7   81.99   14.10
   0   7  -7   12.60   16.80
   0   7  -7  -18.50   16.30
   0   7  -7   11.20   24.40
   0   7  -7   41.80   32.80
   0   7  -7   28.20   22.80
  -1   7  -7   11.80   25.90
   1  -7   7   46.20   93.69
   1  -7   7  194.28   81.69
  -2   7  -7    2.70   14.70
  -2   7  -7    4.40   22.40
  -2   7  -7    6.90   23.10
   2  -7   7   27.30   11.50
   2  -7   7   27.00   82.69
   2  -7   7  156.58   94.99
  -3   7  -7   23.70   12.50
  -3   7  -7   41.90   33.30
   3  -7   7   25.00   15.80
   3  -7   7    0.50   22.30
   3  -7   7   -8.10   13.80
   3  -7   7 -109.09   90.19
  -4   7  -7    7.70    6.00
  -4   7  -7   21.40   13.10
  -4   7  -7   27.40   16.50
   4  -7   7   12.00   30.00
   4  -7   7    3.00   11.40
   4   6  -7  -10.50    9.00
   4   6  -7    1.20    7.30
   4   6  -7    6.20   14.00
  -4  -6   7   16.30   14.80
   3   6  -7  197.08   30.60
   3   6  -7  294.17   43.60
  -3  -6   7  229.78   25.00
  -3  -6   7    2.40  134.59
   2   6  -7  120.99   29.70
  -2  -6   7  261.67  104.99
  -2  -6   7   66.89   13.40
   1   6  -7   13.60   26.30
   1   6  -7   35.90   20.40
   1   6  -7  -15.40   62.39
   1   6  -7    1.70   20.10
   1   6  -7   20.20   34.40
   0   6  -7  982.60   91.99
   0   6  -7  930.41   96.79
   0   6  -7  976.30   94.09
   0   6  -7 1086.99   95.29
   0   6  -7 1198.38   92.19
   0  -6   7 1071.29  121.59
   0  -6   7 1124.69   91.19
   0  -6   7 1048.20  116.39
  -1   6  -7   69.19   17.20
  -1   6  -7   32.80   26.90
  -1   6  -7   37.10   16.70
  -1   6  -7   23.10   20.20
   1  -6   7   46.90   13.70
   1  -6   7  132.19   64.19
   1  -6   7   58.69   16.20
   1  -6   7  109.09   69.69
  -2   6  -7   50.49   16.00
  -2   6  -7   28.70   25.60
  -2   6  -7   25.80   27.20
  -2   6  -7   -2.00   24.60
  -2   6  -7   90.49   39.70
   2  -6   7    0.20   73.49
   2  -6   7   62.69   26.40
   2  -6   7  104.29   85.59
  -3   6  -7   -1.20   18.00
  -3   6  -7  -18.30   11.60
  -3   6  -7    1.80   20.80
   3  -6   7   15.10   20.40
   3  -6   7   -1.40   15.60
   3  -6   7  -84.19   84.99
   3  -6   7    7.20   14.70
   3  -6   7   24.90  123.89
  -4   6  -7   10.70   21.40
  -4   6  -7   14.40   14.30
  -4   6  -7   29.70    9.90
   4  -6   7    0.20   20.60
   4  -6   7   55.59   34.80
   4  -6   7   37.40   14.10
   4  -6   7   30.60  106.99
  -5   6  -7   17.20    7.20
   5  -6   7   15.80    9.80
   5  -6   7   35.00   13.90
   4   5  -7    8.20    8.60
   4   5  -7   28.00   15.40
   4   5  -7   -5.50   10.10
  -4  -5   7    4.20   16.80
   3   5  -7  219.68   32.60
   3   5  -7  195.98   42.20
   3   5  -7  240.18   28.00
   3   5  -7  281.67   29.80
  -3  -5   7  260.77   25.10
   2   5  -7  680.13   79.09
   2   5  -7  685.73   70.69
   2   5  -7  646.74   65.19
   2   5  -7  719.13   63.79
   1   5  -7  129.79   25.30
   1   5  -7  144.59   34.30
   0   5  -7  379.86   45.30
   0   5  -7  424.56   41.90
   0  -5   7  411.96   38.50
  -1   5  -7  109.19   24.10
  -1   5  -7  107.89   38.20
   1  -5   7  138.99   25.90
   1  -5   7  205.88   51.89
   1  -5   7  133.49   17.90
   1  -5   7   92.59   61.29
  -2   5  -7   40.50   24.00
  -2   5  -7   82.29   21.30
  -2   5  -7   62.39   25.10
  -2   5  -7   54.89   16.00
   2  -5   7   41.60   11.40
   2  -5   7   30.20   25.10
   2  -5   7  154.18   55.69
   2  -5   7  -16.00   47.10
  -3   5  -7    0.30   26.00
  -3   5  -7   16.50   23.20
  -3   5  -7   21.40   19.00
  -3   5  -7   -3.30   15.10
   3  -5   7   13.90   17.00
   3  -5   7    6.70   12.70
   3  -5   7   61.09   66.69
   3  -5   7  -24.30   76.39
   3  -5   7   13.50   26.30
  -4   5  -7   33.80   18.20
   4  -5   7   -6.90   27.90
   4  -5   7   -7.10   21.00
   4  -5   7  -19.80  118.39
   4  -5   7  -10.70   20.70
  -5   5  -7    9.10   12.20
  -5   5  -7   -8.00    7.50
   5  -5   7   17.70   10.70
   5  -5   7   19.30   14.60
   4   4  -7   -7.90    9.20
   4   4  -7   24.80   19.60
   4   4  -7   -3.80   17.20
  -4  -4   7   11.00   26.00
   3   4  -7   66.39   25.40
   3   4  -7   40.20   15.10
  -3  -4   7 -142.19  118.89
   2   4  -7   80.99   24.00
   2   4  -7   25.60   45.00
   2   4  -7  108.09   24.20
   2   4  -7  117.29   31.50
   2   4  -7   98.09   23.80
  -2  -4   7  155.68  105.79
   1   4  -7 1550.44  134.59
   0   4  -7  111.09   49.60
   0   4  -7   14.00   15.70
   0   4  -7    2.50   32.30
   0   4  -7   16.30   37.10
   0   4  -7   -0.60   29.60
   0  -4   7   15.50   12.70
  -1   4  -7  -22.90   37.00
  -1   4  -7   11.80   21.40
  -1   4  -7   37.60   15.90
  -1   4  -7   -6.10   27.20
   1  -4   7   40.10   41.60
   1  -4   7   -8.90    9.40
   1  -4   7   38.00   39.30
   1  -4   7   -6.50   18.60
  -2   4  -7 1037.40   98.29
  -2   4  -7 1183.38  101.59
  -2   4  -7 1352.16  111.99
   2  -4   7 1288.57  117.99
   2  -4   7 1051.59   98.69
   2  -4   7 1195.08  100.39
   2  -4   7 1263.97  130.59
  -3   4  -7   57.99   29.00
  -3   4  -7   34.80   15.20
  -3   4  -7  100.79   32.80
   3  -4   7   28.30   64.59
   3  -4   7   23.10   17.70
   3  -4   7    6.00   20.90
   3  -4   7   48.20   11.90
  -4   4  -7   62.19   15.60
  -4   4  -7   51.39   19.90
  -4   4  -7  104.19   24.10
   4  -4   7   54.29   18.10
   4  -4   7   50.39   21.60
   4  -4   7   56.79   19.40
  -5   4  -7   -1.00    9.50
  -5   4  -7   10.40    9.10
   5  -4   7    0.10   11.40
   5  -4   7    4.50   11.20
   5   3  -7  125.49   16.10
   5   3  -7  109.29   14.10
   5   3  -7  133.19   16.90
  -5  -3   7  128.89   24.90
  -4  -3   7    5.90   13.10
   3   3  -7   16.30   15.30
   3   3  -7   25.80   18.40
  -3  -3   7    7.20   17.50
   2   3  -7  163.68   29.20
   2   3  -7  184.28   26.50
   2   3  -7  185.88   36.40
  -2  -3   7  207.48   62.79
   1   3  -7  317.27   33.70
   1   3  -7  212.58   40.70
   1   3  -7  253.87   37.80
  -1  -3   7  289.47   61.49
   0   3  -7  175.58   39.20
   0   3  -7   88.49   24.20
   0   3  -7  133.59   29.70
   0   3  -7  153.18   40.40
   0   3  -7  252.17   58.89
   0  -3   7  198.38   55.99
  -1   3  -7  692.03   62.19
  -1   3  -7  588.64   64.69
  -1   3  -7  629.94   64.49
   1  -3   7  683.63   55.59
   1  -3   7  554.84  131.99
   1  -3   7  750.52   71.69
  -2   3  -7  422.16   39.10
  -2   3  -7  350.16   45.00
  -2   3  -7  367.86   41.80
   2  -3   7  382.56   35.10
   2  -3   7  419.16   39.80
  -3   3  -7  -11.70   13.90
  -3   3  -7  -29.00   22.90
  -3   3  -7   -2.90   26.00
  -3   3  -7   -5.20   21.40
   3  -3   7  -38.80   22.70
   3  -3   7   -5.70   16.20
   3  -3   7    8.90   12.50
   3  -3   7   10.80   58.49
   3  -3   7  -27.40   55.09
  -4   3  -7  121.89   35.90
  -4   3  -7   69.79   14.60
   4  -3   7   -9.30  132.99
   4  -3   7   39.20   27.50
   4  -3   7   52.39   17.90
  -5   3  -7   19.00    8.80
  -5   3  -7   23.70   11.90
   5  -3   7   25.80   15.20
   5   2  -7    8.70   12.00
   5   2  -7   17.10   10.80
   5   2  -7   21.00   12.00
  -5  -2   7   39.60   31.70
   4   2  -7   -5.80   23.90
   4   2  -7   10.60   15.50
   4   2  -7   20.10   18.90
  -4  -2   7  -16.80   18.00
  -4  -2   7   14.30   41.80
   3   2  -7   21.60   21.60
   3   2  -7   28.30   16.10
   3   2  -7  -20.60   23.90
   3   2  -7  -53.89   47.60
   2   2  -7  151.38   32.80
   2   2  -7  129.99   31.30
   1   2  -7    1.60   18.80
   1   2  -7   39.50   28.40
   1   2  -7    9.20   19.30
   1   2  -7   41.60   32.70
   0   2  -7  -13.50   33.30
   0   2  -7    4.00   18.00
   0   2  -7   84.69   28.30
  -1   2  -7 2016.20  150.08
  -1   2  -7 1748.63  148.69
  -1   2  -7 1746.33  149.69
  -1   2  -7 1819.52  150.48
  -1   2  -7 1804.42  152.28
  -1   2  -7 1508.05  160.28
   1  -2   7 1803.22  158.88
   1  -2   7 2012.50  146.29
   1  -2   7 1601.74  176.28
  -2   2  -7   18.60   17.30
  -2   2  -7   -6.60   18.30
  -2   2  -7    3.10   13.00
  -2   2  -7   27.90   29.20
  -2   2  -7   46.00   34.00
   2  -2   7   17.80   15.80
   2  -2   7  -67.59   61.09
   2  -2   7   42.10   30.60
   2  -2   7   -7.00    9.40
  -3   2  -7   -4.90   11.40
  -3   2  -7   -0.90   51.49
  -3   2  -7   23.60   25.80
  -3   2  -7   49.99   20.00
  -3   2  -7   -0.50   22.00
   3  -2   7   -2.90   14.90
   3  -2   7   76.59   72.39
  -4   2  -7  150.18   20.90
  -4   2  -7  186.08   26.40
   4  -2   7   63.09  105.79
   4  -2   7  133.69   89.99
   4  -2   7  123.29   21.60
   4  -2   7  -65.79  134.99
  -5   2  -7   24.40   15.60
  -5   2  -7    1.40    9.50
   5  -2   7   41.20   18.40
   5  -2   7   19.20   11.70
   5   1  -7   67.39   14.50
   5   1  -7   31.10   17.10
   5   1  -7  106.89   24.50
   5   1  -7   61.29   13.50
  -5  -1   7   70.49   19.60
   4   1  -7   14.00   17.30
   4   1  -7   22.80   14.50
   4   1  -7   31.20   15.00
   4   1  -7   11.40   51.09
  -4  -1   7   11.50   13.90
   3   1  -7  -17.30   30.00
   3   1  -7   -9.30   16.30
   3   1  -7    0.40   19.40
   2   1  -7  109.19   51.79
   2   1  -7   97.19   33.30
   1   1  -7  116.89   56.59
   1   1  -7  241.18   45.70
   0   1  -7  257.17   58.69
   0   1  -7  260.57   33.90
   0   1  -7  236.18   58.09
   0  -1   7  119.19   70.89
  -1   1  -7  706.23   58.09
  -1   1  -7  514.75   57.59
  -1   1  -7  563.54   57.99
  -1   1  -7  679.43   60.29
   1  -1   7  623.04   50.79
   1  -1   7  547.75   69.89
   1  -1   7  546.35   99.69
  -2   1  -7   41.80   18.70
  -2   1  -7   30.90   15.10
  -2   1  -7  -15.80   20.60
  -2   1  -7   30.80   27.50
  -2   1  -7   33.70   39.80
  -2   1  -7    2.10   22.00
   2  -1   7  -28.80   37.10
   2  -1   7   13.10   22.10
   2  -1   7  -36.10   58.69
   2  -1   7   12.40    8.00
  -3   1  -7  685.13   94.49
  -3   1  -7  579.94   50.69
  -3   1  -7  551.64   48.10
   3  -1   7  498.25   54.09
   3  -1   7  563.34   84.09
   3  -1   7  466.55   75.59
   3  -1   7  480.55   49.40
  -4   1  -7   79.09   21.30
  -4   1  -7   77.29   16.10
   4  -1   7  109.09   84.29
   4  -1   7   -8.30  100.99
   4  -1   7  191.28   69.69
   4  -1   7   71.29   23.50
   4  -1   7   25.50   24.60
   5  -1   7   39.80   20.40
   5  -1   7    5.80   19.60
   5   0  -7   47.00   13.70
   5   0  -7   45.20   20.70
   4   0  -7   28.80   20.80
   4   0  -7   13.30   18.60
   4   0  -7   60.39   26.70
   4   0  -7   20.30   13.70
  -4   0   7    7.20   13.90
   3   0  -7   67.89   41.50
   3   0  -7   39.00   21.70
   3   0  -7   27.10   32.50
   3   0  -7   27.90   30.30
   3   0  -7   28.10   20.50
   2   0  -7   17.10   29.20
   2   0  -7   10.90   24.80
   2   0  -7   39.60   47.20
   2   0  -7  -26.50   35.60
  -2   0   7    1.80   31.50
   1   0  -7  132.19   35.50
   1   0  -7  140.99   32.40
   1   0  -7  136.39   31.20
   1   0  -7  188.28   33.50
   1   0  -7  167.48   44.40
   1   0  -7   62.89   56.69
  -1   0   7   44.40   67.69
   0   0  -7  139.29   31.90
   0   0  -7   60.49   25.60
   0   0  -7  102.19   17.90
   0   0   7  136.99   55.29
  -1   0  -7  689.23   69.69
  -1   0  -7  663.23   60.49
   1   0   7  625.94   64.49
   1   0   7  739.73   58.89
   1   0   7  699.73   90.49
   1   0   7  622.04   77.59
  -2   0  -7  605.34   50.99
  -2   0  -7  466.55   45.90
  -2   0  -7  515.35   54.39
  -2   0  -7  542.75   55.89
   2   0   7  570.34   45.20
   2   0   7  441.76   50.19
  -3   0  -7    6.90   15.00
  -3   0  -7   39.80   42.70
  -3   0  -7   -3.80   11.00
   3   0   7   42.60   17.30
   3   0   7   13.70    9.90
   3   0   7   55.19   48.00
  -4   0  -7   20.20   18.80
  -4   0  -7   37.90   11.60
   4   0   7   -8.60   61.39
   4   0   7   43.90   14.30
   4   0   7   28.50   21.00
   4   0   7   -5.00   36.00
   4   0   7  315.47  136.39
   5   0   7   42.40   24.50
   5   0   7   51.09   84.89
  -6   0  -7   14.10    7.60
  -6   0  -7   18.70   13.20
   6   0   7   -7.00    8.70
   6   0   7   -1.30   11.90
   5  -1  -7   41.80   12.50
   5  -1  -7   37.40   19.50
   5  -1  -7   40.30   11.00
  -5   1   7   -3.40   20.30
   4  -1  -7    6.70   27.50
   4  -1  -7   18.60   19.40
   4  -1  -7   25.70   17.20
   4  -1  -7   23.10   21.60
   4  -1  -7  110.69   57.99
  -4   1   7   51.89   23.00
  -4   1   7   -1.50   13.10
   3  -1  -7   50.69   20.70
   3  -1  -7   41.60   47.70
   3  -1  -7   12.30   27.70
   3  -1  -7    4.80   24.80
   3  -1  -7   55.29   30.00
  -3   1   7   41.80   17.00
   2  -1  -7   25.40   36.90
   2  -1  -7   89.09   36.50
   2  -1  -7   86.49   39.00
  -2   1   7   74.79   32.30
   1  -1  -7  290.87   50.49
   1  -1  -7  273.57   47.60
   1  -1  -7  316.07   40.80
   1  -1  -7  173.18   44.00
   1  -1  -7  249.28   46.50
   1  -1  -7  229.28   36.40
  -1   1   7  236.38   83.29
   0  -1  -7   73.79   22.20
   0  -1  -7  122.19   25.60
   0  -1  -7   85.89   24.40
   0   1   7   39.10   51.69
  -1  -1  -7   12.20   16.00
  -1  -1  -7  -15.80   32.00
  -1  -1  -7  -11.00   29.80
  -1  -1  -7   67.59   43.90
  -1  -1  -7   -0.50   17.70
   1   1   7   -6.30   33.50
   1   1   7   67.79   27.90
   1   1   7    0.10    7.40
   1   1   7   28.20   48.30
  -2  -1  -7  670.83   59.39
  -2  -1  -7  588.84   59.09
  -2  -1  -7  596.84   51.99
  -2  -1  -7  602.94   58.89
  -2  -1  -7  583.64   53.89
   2   1   7  557.94   52.49
   2   1   7  587.64  116.99
   2   1   7  622.74   50.79
  -3  -1  -7   17.20   33.10
  -3  -1  -7   15.00   13.70
  -3  -1  -7   14.40   37.80
  -3  -1  -7   54.29   15.70
   3   1   7   23.80   11.90
   3   1   7   28.70   44.70
   3   1   7   29.50   15.00
  -4  -1  -7   -3.40   10.80
  -4  -1  -7  -22.00   40.90
  -4  -1  -7    4.70   27.30
   4   1   7  -20.40   13.90
   4   1   7  -21.10   28.20
   4   1   7  -17.20   21.20
   4   1   7   60.99  124.99
   4   1   7  -12.80   60.89
   5   1   7    8.30   72.99
  -6  -1  -7    8.70    7.50
   6   1   7   16.60   12.10
   6   1   7    9.40   10.60
   5  -2  -7  247.38   25.20
   5  -2  -7  218.48   24.20
  -5   2   7  213.08   28.30
   4  -2  -7    4.90   21.20
   4  -2  -7   10.30   20.70
   4  -2  -7   25.50   41.30
   4  -2  -7   40.00   23.80
   4  -2  -7  -16.20   28.60
  -4   2   7   13.20   24.00
   3  -2  -7  548.75   65.99
   3  -2  -7  725.83   60.99
   3  -2  -7  645.54   75.49
   3  -2  -7  602.64   59.59
   3  -2  -7  571.44   67.69
   3  -2  -7  605.84   62.49
   2  -2  -7   80.49   40.10
   2  -2  -7  132.29   33.50
  -2   2   7  177.38   37.30
   1  -2  -7   32.70   23.80
   1  -2  -7  -21.00   22.70
   1  -2  -7   52.89   37.00
   1  -2  -7   25.90   31.30
   1  -2  -7   13.90   22.60
   1  -2  -7   10.30   28.40
  -1   2   7  -61.09   90.49
  -1   2   7    5.60   10.40
   0  -2  -7  348.67   40.60
   0  -2  -7  310.47   41.60
   0  -2  -7  340.27   49.50
   0  -2  -7  240.38   39.90
   0  -2  -7  314.07   63.99
   0   2   7  368.96   92.59
   0   2   7  226.68   28.20
  -1  -2  -7  493.35   45.60
  -1  -2  -7  475.85   52.79
  -1  -2  -7  480.95   47.70
   1   2   7  517.75   41.10
   1   2   7  503.45   55.19
   1   2   7  331.07   75.09
   1   2   7  430.56   82.39
  -2  -2  -7   20.60   20.90
  -2  -2  -7   45.20   12.70
  -2  -2  -7   83.79   27.90
  -2  -2  -7   43.60   15.10
  -2  -2  -7   89.59   30.20
   2   2   7    0.20   69.69
   2   2   7   24.10   12.50
  -3  -2  -7   49.90   11.60
  -3  -2  -7   63.89   36.30
  -3  -2  -7   10.00   32.30
  -3  -2  -7   26.40   27.70
  -3  -2  -7   65.19   20.00
   3   2   7   63.19   12.70
   3   2   7   86.19   30.00
   3   2   7   64.69   15.80
   3   2   7   58.29   40.30
  -4  -2  -7   64.39   17.10
  -4  -2  -7   14.50   45.50
  -4  -2  -7   69.49   13.80
   4   2   7   51.39  159.38
   4   2   7   55.09   20.60
   4   2   7   27.20   61.19
   4   2   7   65.89   20.40
   4   2   7   42.70   18.20
   4   2   7  102.29   43.60
  -5  -2  -7   14.60   28.10
  -5  -2  -7  -44.60   71.89
   5   2   7   29.30   17.60
   5   2   7 -104.39   71.99
  -6  -2  -7   43.10    8.70
   6   2   7   19.40   11.10
   5  -3  -7   66.59   15.90
   5  -3  -7   75.09   14.80
  -5   3   7   76.39   20.30
  -5   3   7   78.79   22.90
   4  -3  -7    9.90   25.50
   4  -3  -7   22.00   38.80
   3  -3  -7 1138.09  102.29
   3  -3  -7 1088.39   99.19
   3  -3  -7 1278.47  111.29
   3  -3  -7 1069.79  101.19
  -3   3   7 1221.38  125.59
   2  -3  -7   60.69   23.60
   2  -3  -7   44.30   43.90
   2  -3  -7   76.79   32.40
  -2   3   7    7.60   80.59
  -2   3   7   46.50   35.10
   1  -3  -7   64.19   29.10
   1  -3  -7   78.49   23.70
   1  -3  -7   78.09   25.30
   1  -3  -7  137.89   56.99
   1  -3  -7  106.09   29.70
   0  -3  -7  475.85   47.80
   0  -3  -7  439.76   57.09
   0  -3  -7  457.75   47.00
   0  -3  -7  357.26   62.29
   0   3   7  470.75   37.90
   0   3   7  395.86   50.19
   0   3   7  502.45  115.79
  -1  -3  -7    7.50   20.90
  -1  -3  -7   24.60   26.60
  -1  -3  -7   -2.60   12.10
  -1  -3  -7    2.20   25.70
   1   3   7   22.20   31.90
   1   3   7  -19.20   43.60
   1   3   7  -10.00    7.50
  -2  -3  -7   58.39   13.30
  -2  -3  -7   75.59   21.90
  -2  -3  -7  113.49   48.00
  -2  -3  -7   53.29   16.40
  -2  -3  -7   16.60   24.60
  -2  -3  -7   41.70   24.60
   2   3   7  101.09   28.20
   2   3   7   73.69   15.30
   2   3   7  -10.30   47.10
   2   3   7   47.50   11.70
  -3  -3  -7   -9.70   36.90
  -3  -3  -7   52.79   38.80
  -3  -3  -7   25.90   13.60
  -3  -3  -7    6.50   15.30
  -3  -3  -7  -54.69   54.49
   3   3   7   32.90   15.10
   3   3   7   48.40   39.80
   3   3   7   75.99   28.10
  -4  -3  -7   28.60   51.19
  -4  -3  -7   68.79   13.30
  -4  -3  -7   53.69   18.30
  -4  -3  -7   73.39   28.50
   4   3   7   54.19   19.90
   4   3   7   49.10   18.60
   4   3   7   36.70   62.79
   4   3   7   47.00   20.40
  -5  -3  -7   17.20   14.10
  -5  -3  -7   40.10   66.19
   5   3   7   32.20   13.10
   5   3   7 -103.99   83.39
   5  -4  -7  -23.20   16.50
   5  -4  -7    7.60   26.00
   4  -4  -7  549.65   64.99
   4  -4  -7  545.95   57.99
  -4   4   7  627.84   52.39
   3  -4  -7  391.76   48.40
   3  -4  -7  369.66   42.00
   3  -4  -7  414.96   51.39
   3  -4  -7  453.55   47.90
   3  -4  -7  347.37   48.10
  -3   4   7  463.25   86.19
  -3   4   7  346.77   36.70
   2  -4  -7   96.69   22.30
   2  -4  -7  131.19   28.90
   2  -4  -7  119.49   32.50
   2  -4  -7  113.99   28.40
   2  -4  -7  158.68   27.70
  -2   4   7  160.18   29.20
   1  -4  -7   35.70   30.90
   1  -4  -7   42.40   22.30
   1  -4  -7   35.90   18.60
   1  -4  -7   97.09   41.70
   1  -4  -7   90.09   30.60
  -1   4   7   47.50   26.70
  -1   4   7   58.29   12.30
   0  -4  -7   73.09   32.40
   0  -4  -7   10.30   27.30
   0  -4  -7   55.59   25.50
   0  -4  -7   32.60   19.10
   0  -4  -7   49.30   20.30
   0   4   7   54.49   11.50
   0   4   7   37.80   59.59
  -1  -4  -7  580.34   51.19
  -1  -4  -7  533.05   67.39
  -1  -4  -7  580.74   58.09
  -1  -4  -7  688.23   63.49
  -1  -4  -7  652.43   61.19
   1   4   7  601.14   49.60
   1   4   7  470.65   60.69
  -2  -4  -7  858.61   65.49
  -2  -4  -7  831.32   72.29
  -2  -4  -7  701.63   68.99
  -2  -4  -7  856.21   78.99
   2   4   7  753.72   64.79
   2   4   7  639.14   87.99
   2   4   7  789.02   76.39
   2   4   7  703.73   72.49
  -3  -4  -7  109.59   65.89
  -3  -4  -7  172.88   18.70
  -3  -4  -7  177.98   31.20
  -3  -4  -7  287.47   64.69
  -3  -4  -7  163.28   40.50
  -3  -4  -7  135.19   46.10
   3   4   7  117.29   26.90
   3   4   7  160.58   31.10
   3   4   7  132.59   48.70
  -4  -4  -7   61.49   27.60
  -4  -4  -7  -49.10   57.39
  -4  -4  -7  -38.40  113.09
   4   4   7   71.09   71.19
   4   4   7   44.30   26.00
   4   4   7   54.39   19.90
   4   4   7   18.60   17.30
  -5  -4  -7   30.60   62.99
   5   4   7   28.00   13.30
   5   4   7    4.10   20.80
   5   4   7  122.79  104.89
   5   4   7   18.00   12.70
   4  -5  -7  221.28   28.00
   4  -5  -7  195.58   29.20
   4  -5  -7  139.59   29.30
   4  -5  -7  148.29   25.10
   4  -5  -7  187.18   28.10
  -4   5   7  180.28   25.10
   3  -5  -7  297.87   49.90
   3  -5  -7  224.58   30.60
   3  -5  -7  249.58   40.40
   3  -5  -7  268.77   38.80
   3  -5  -7  116.79   40.00
   3  -5  -7  167.68   32.80
  -3   5   7  178.18   24.30
  -3   5   7  124.49   67.59
   2  -5  -7  127.19   35.90
   2  -5  -7  167.38   33.90
   2  -5  -7  149.88   39.80
   2  -5  -7  141.49   28.80
   2  -5  -7  212.68   38.80
  -2   5   7  131.59   45.60
   1  -5  -7  -28.30   44.70
   1  -5  -7   50.69   24.60
   1  -5  -7   29.50   39.80
  -1   5   7   26.80   20.90
  -1   5   7    2.20   32.30
  -1   5   7   44.50   11.20
   0  -5  -7   24.50   22.50
   0  -5  -7   -0.60   19.80
   0  -5  -7    5.50   18.90
   0  -5  -7  -24.80   63.09
   0  -5  -7   32.80   21.00
   0   5   7   17.60    9.00
  -1  -5  -7  548.35   54.49
  -1  -5  -7  628.24   68.69
  -1  -5  -7  564.94   69.09
  -1  -5  -7  486.55   54.89
  -1  -5  -7  667.83   78.39
   1   5   7  654.53   53.79
   1   5   7  478.65   67.59
   1   5   7  668.43   52.49
  -2  -5  -7  289.47   65.09
  -2  -5  -7  299.17   58.89
  -2  -5  -7  345.67   32.20
  -2  -5  -7  400.36   46.80
   2   5   7  298.67   32.10
   2   5   7  375.66   36.80
  -3  -5  -7  128.39   24.00
  -3  -5  -7  152.38   19.80
  -3  -5  -7  179.78   90.69
  -3  -5  -7  118.99   27.20
  -3  -5  -7   39.80   59.09
  -3  -5  -7  217.28   54.79
   3   5   7  147.39   28.30
   3   5   7  172.08   25.90
   3   5   7  149.59   18.70
  -4  -5  -7  250.97  106.89
  -4  -5  -7  194.48   23.90
  -4  -5  -7  382.96  112.19
   4   5   7  216.08   33.40
   4   5   7  206.38   36.80
   4   5   7  162.08   30.90
  -5  -5  -7  331.27   28.60
   5   5   7   92.99  126.09
   5   5   7  263.37   28.00
   5   5   7  324.07   29.60
   5   5   7  312.97   37.30
   4  -6  -7   38.20   18.20
   4  -6  -7    5.80   20.40
   4  -6  -7   23.90   16.10
   4  -6  -7   -6.00   19.60
  -4   6   7    8.90   21.10
   3  -6  -7  369.56   47.60
   3  -6  -7  365.16   42.90
   3  -6  -7  430.56   52.99
   3  -6  -7  458.65   49.20
   3  -6  -7  456.85   53.69
  -3   6   7  379.56   39.00
  -3   6   7  507.05   50.99
   2  -6  -7  471.15   55.19
   2  -6  -7  572.74   58.39
   2  -6  -7  532.85   61.59
   2  -6  -7  693.23   59.39
   2  -6  -7  612.94   61.19
  -2   6   7  633.34   51.39
   1  -6  -7   26.10   20.30
   1  -6  -7   34.10   17.50
   1  -6  -7   37.00   26.30
   1  -6  -7   32.00   25.00
  -1   6   7   -4.30   52.79
  -1   6   7   49.90   16.50
   0  -6  -7  191.98   61.69
   0   6   7  156.38   22.30
  -1  -6  -7 1126.19   85.19
  -1  -6  -7 1077.59  103.29
  -1  -6  -7  979.10   95.29
  -1  -6  -7  922.31   96.09
   1   6   7 1058.69   87.19
   1   6   7 1022.50   84.39
   1   6   7  860.81   99.79
  -2  -6  -7   36.90   10.90
  -2  -6  -7   20.80   42.80
  -2  -6  -7   64.19   17.50
   2   6   7   61.39   15.10
   2   6   7  -15.80   46.90
  -3  -6  -7  303.17  143.29
  -3  -6  -7   50.59   22.30
  -3  -6  -7   71.39   62.29
   3   6   7   24.80   17.20
   3   6   7   23.60   17.20
   3   6   7   27.50   27.20
   3   6   7  -30.10   58.39
  -4  -6  -7  348.77  115.99
  -4  -6  -7  379.96   45.30
  -4  -6  -7  245.98   89.59
   4   6   7  444.26   43.50
   5   6   7   88.99   22.30
   5   6   7  115.09   15.00
   5   6   7   97.39   16.30
   4  -7  -7  119.69   31.90
   4  -7  -7   86.69   20.80
   4  -7  -7   99.29   20.10
  -4   7   7   80.69   19.20
   3  -7  -7   27.00   26.20
  -3   7   7   50.59   21.20
  -3   7   7   32.90   14.70
   2  -7  -7  169.98   32.80
   2  -7  -7  146.19   32.10
   2  -7  -7  162.88   24.00
   2  -7  -7  129.69   28.00
   2  -7  -7  103.19   23.10
  -2   7   7  -26.10   85.79
  -2   7   7  123.49   19.00
   1  -7  -7  -10.80   39.20
   1  -7  -7   16.80   16.40
   1  -7  -7   46.70   24.70
   1  -7  -7   37.50   16.00
   1  -7  -7   31.30   28.10
   1  -7  -7   61.89   21.30
  -1   7   7   41.00   52.09
  -1   7   7   25.00   19.10
  -1   7   7   19.60   10.30
   0  -7  -7  185.28   40.70
   0  -7  -7  175.08   31.50
   0  -7  -7  162.58   37.10
   0  -7  -7   86.19   70.39
   0  -7  -7  159.78   23.70
   0   7   7  164.68   20.10
   0   7   7  211.18   41.70
   0   7   7  192.38   24.70
  -1  -7  -7  -62.59   52.29
  -1  -7  -7   37.10   23.60
  -1  -7  -7    4.50   14.30
  -1  -7  -7   13.70   16.10
   1   7   7   30.10   18.30
   1   7   7    3.50   48.90
   1   7   7   20.40   10.20
   1   7   7   -1.50   19.10
  -2  -7  -7  128.29   59.49
  -2  -7  -7  153.48   24.40
  -2  -7  -7  199.68   21.70
   2   7   7  165.08   39.10
   2   7   7  115.59   58.59
  -3  -7  -7 -156.58  149.29
  -3  -7  -7  -17.20   73.69
   3   7   7   13.80   16.30
   3   7   7  -79.19   55.49
  -4  -7  -7   28.80   17.80
  -4  -7  -7   14.50   15.50
  -4  -7  -7   10.30   99.49
   4   7   7    6.30   15.20
   4   7   7    2.20   80.49
  -5  -7  -7   21.20   17.50
  -5  -7  -7   -1.30    6.00
   5   7   7    0.20    8.40
   5   7   7    9.50   17.10
   5   7   7  -17.10   10.50
   3  -8  -7   45.80   12.00
   3  -8  -7   17.50   20.90
   3  -8  -7   12.90   26.90
   3  -8  -7   43.20   18.60
   3  -8  -7   14.80   15.20
   3  -8  -7   16.30   22.20
  -3   8   7   21.20   16.90
   2  -8  -7   23.70   15.10
   2  -8  -7   63.69   21.80
   2  -8  -7   19.80   36.80
   2  -8  -7   57.19   23.10
   2  -8  -7   35.50   14.50
  -2   8   7   40.20   17.30
  -2   8   7   46.60   15.40
   1  -8  -7  -29.30   22.40
   1  -8  -7  -10.50   23.40
   1  -8  -7   12.90   14.40
   1  -8  -7   17.60   15.50
   1  -8  -7  -30.00   34.40
  -1   8   7   27.20   13.00
   0  -8  -7   24.90   14.20
   0  -8  -7   42.90   27.50
   0  -8  -7   57.79   33.70
   0  -8  -7   -4.70   82.49
   0  -8  -7   39.30   18.90
   0   8   7   50.29   27.20
   0   8   7   12.40   10.90
  -1  -8  -7   83.19   18.00
  -1  -8  -7   98.59   34.00
  -1  -8  -7   76.99   16.60
   1   8   7  103.19   15.70
   1   8   7  194.28   76.29
   1   8   7   77.19   25.80
   1   8   7  116.29   25.20
  -2  -8  -7   16.70   11.70
  -2  -8  -7   20.60   18.80
  -2  -8  -7   31.70   13.10
   2   8   7  112.39   73.89
   2   8   7   43.10   14.70
   2   8   7   52.89   20.50
  -3  -8  -7  -70.09   90.89
  -3  -8  -7  -21.20   11.40
  -3  -8  -7   -2.10   11.80
   3   8   7   39.70   76.49
   3   8   7   17.80   18.10
  -4  -8  -7  -12.70   10.60
  -4  -8  -7   11.70    7.70
   4   8   7   -5.30    9.90
   4   8   7    4.60   12.00
   4   8   7   40.30   16.70
   3  -9  -7    0.90   12.20
   3  -9  -7   -2.70   20.60
   3  -9  -7   28.40    9.50
   3  -9  -7   19.60   15.90
  -3   9   7   15.20   22.30
   2  -9  -7   -4.60   26.40
   2  -9  -7  -43.20   27.20
   2  -9  -7   10.20   12.80
   2  -9  -7    1.00   20.90
  -2   9   7    3.80   16.00
  -2   9   7    1.40   29.60
  -2   9   7   40.40   17.00
   1  -9  -7   40.80   13.40
   1  -9  -7   47.00   25.50
   1  -9  -7   46.30   14.70
   1  -9  -7   26.90   20.50
  -1   9   7   24.30   16.50
   0  -9  -7   -6.50   11.50
   0  -9  -7    0.40   16.00
   0  -9  -7  -12.90   41.40
   0   9   7   -0.70   13.70
   0   9   7   19.00   67.99
  -1  -9  -7   82.69   25.70
  -1  -9  -7   30.80   14.40
  -1  -9  -7  -76.49  137.99
  -1  -9  -7   47.60   13.10
   1   9   7   76.79   27.90
   1   9   7    9.80   62.39
   1   9   7   26.20   15.30
  -2  -9  -7   41.80   12.10
  -2  -9  -7   39.60   13.10
  -2  -9  -7  141.99   92.59
   2   9   7    3.00   20.20
   2   9   7   57.79   18.00
   2   9   7   47.00   17.30
  -3  -9  -7    0.60   11.60
  -3  -9  -7   -9.00   16.50
   3   9   7   35.80   20.60
   3   9   7   21.40   88.39
   3   9   7    5.10   27.70
  -4  -9  -7   53.09   11.70
  -4  -9  -7  103.49   22.90
  -4  -9  -7   77.49   13.70
   4   9   7   64.29   15.50
   2 -10  -7  108.99   25.60
   2 -10  -7  134.69   19.10
   2 -10  -7  102.39   14.70
  -2  10   7  124.19   20.60
  -2  10   7  150.98   22.10
  -2  10   7  134.29   20.80
   1 -10  -7    4.60   29.30
   1 -10  -7   28.40   16.10
  -1  10   7  -91.89   80.69
  -1  10   7    3.40   15.70
  -1  10   7   -3.90   15.10
   0 -10  -7   29.20   15.40
   0 -10  -7    4.60   14.00
   0  10   7   37.80   18.90
   0  10   7   24.70   76.39
  -1 -10  -7    1.60   10.90
  -1 -10  -7   29.50   14.30
   1  10   7    1.40   20.50
   1  10   7   80.79  100.09
  -2 -10  -7   20.50   11.70
   2  10   7 -125.99  127.49
   2  10   7  -56.39   33.60
  -3 -10  -7   -3.80    8.60
  -3 -10  -7   -7.50    8.90
   3  10   7    1.80   15.70
   2 -11  -7    3.60    9.40
   2 -11  -7   42.20   20.10
   2 -11  -7    5.80   18.60
   2 -11  -7   31.50   31.90
  -2  11   7   17.70   14.00
  -2  11   7   -2.70   26.80
   1 -11  -7   -6.70   11.00
   1 -11  -7    8.70    8.20
   1 -11  -7   44.30   29.80
   1 -11  -7   11.80    9.00
  -1  11   7   -9.20   15.50
  -1  11   7  -16.40   25.60
   0 -11  -7   87.99   16.20
   0 -11  -7   84.59   13.10
   0  11   7  136.19   23.60
   0  11   7   47.00   20.70
   0  11   7  130.99   31.60
   1  11   7   66.49   25.70
   1  11   7   69.89   25.60
  -2 -11  -7   23.70    6.20
  -2 -11  -7    3.40    9.00
   2  11   7   52.19   28.10
   2  11   7   39.10   15.80
  -3 -11  -7    7.00    8.20
   3  11   7   12.10   12.70
   3  11   7   10.60   26.50
   1 -12  -7   94.29   11.80
   1 -12  -7  102.09   11.70
   1 -12  -7  120.89   17.20
  -1  12   7  112.39   16.20
   0 -12  -7  122.49   17.10
   0 -12  -7  129.19   14.60
   0  12   7  139.69   18.30
  -1 -12  -7   -1.90    5.40
   1  12   7   -8.00   22.70
   1  12   7   10.00   11.70
  -2 -12  -7   28.30    6.40
   2  12   7   62.99   34.80
   1  10  -8   19.30   10.90
   1  10  -8   -1.40    9.00
  -1 -10   8   -8.50   20.50
   0  10  -8   12.30   11.10
   0 -10   8  -19.50   18.30
   0 -10   8   42.40   16.20
  -1  10  -8   16.30   17.50
  -1  10  -8   23.80   11.40
  -1  10  -8   19.50   10.00
   1 -10   8   45.80   21.80
   1 -10   8   19.70   17.70
   2 -10   8    0.90    7.40
   2 -10   8   10.80   14.10
   2   9  -8    6.90   12.40
   2   9  -8   15.70   11.90
   2   9  -8   13.10   10.60
  -2  -9   8   -2.20   21.90
   1   9  -8   23.30   14.30
   1   9  -8  -15.00   11.40
   1   9  -8    4.60   10.50
  -1  -9   8    7.70   16.70
   0   9  -8   51.79   13.00
   0   9  -8   49.20   11.90
   0  -9   8   31.20   18.30
   0  -9   8   59.69   13.60
  -1   9  -8   13.50   12.50
  -1   9  -8  -27.40   21.50
  -1   9  -8   13.50   10.90
   1  -9   8   31.00   21.70
   1  -9   8   32.30   19.60
  -2   9  -8   31.50   13.30
  -2   9  -8   37.30   18.60
  -2   9  -8  -11.70   14.60
   2  -9   8  -32.50   19.50
   2  -9   8   20.50   13.90
  -3   9  -8   44.30   11.00
  -3   9  -8   27.70   14.00
   3  -9   8    4.50   23.40
   3   8  -8   19.30   26.30
   3   8  -8   -6.50    9.70
   3   8  -8    9.90   13.40
  -3  -8   8  -23.90   23.70
   2   8  -8  -16.00   11.10
   2   8  -8   -7.00   13.50
   2   8  -8   -7.60   12.10
  -2  -8   8    7.70   16.60
   1   8  -8   80.59   26.20
  -1  -8   8   83.09   27.10
  -1  -8   8   72.09   16.70
   0   8  -8   34.50   17.40
   0   8  -8  -13.40   16.00
   0  -8   8   41.00   16.50
   0  -8   8   14.90   13.10
  -1   8  -8   -1.70   19.60
   1  -8   8   -1.20   15.20
   1  -8   8   15.40   14.20
   1  -8   8  -93.69   84.69
  -2   8  -8   24.30   16.10
  -2   8  -8    0.30   11.00
   2  -8   8    1.60   89.39
   2  -8   8   37.90   19.60
   2  -8   8   19.40   12.00
  -3   8  -8   12.90    9.60
  -3   8  -8    6.30   20.60
  -3   8  -8   -2.50   13.30
   3  -8   8  -21.30   17.40
   3  -8   8    9.50   10.40
   3   7  -8    6.10   14.90
   3   7  -8   16.80   10.80
   3   7  -8  -16.40   23.10
   3   7  -8   25.20   13.00
  -3  -7   8    8.80   16.50
  -2  -7   8   23.70   15.80
  -2  -7   8 -154.48  122.29
   1   7  -8  215.98   26.90
   1   7  -8  169.18   27.10
   1   7  -8  201.28   31.50
  -1  -7   8  236.28   22.80
  -1  -7   8  148.69  134.99
   0   7  -8  100.79   29.10
   0   7  -8  194.58   40.30
   0   7  -8  138.09   23.90
   0   7  -8  106.39   22.20
   0  -7   8  133.59   18.00
  -1   7  -8   -8.70   18.70
  -1   7  -8   16.30   14.10
   1  -7   8    9.10   13.30
  -2   7  -8   13.40   17.30
  -2   7  -8    4.60   18.50
  -2   7  -8   15.60   16.10
  -2   7  -8   15.00   17.00
   2  -7   8   11.50   19.20
   2  -7   8   29.30   14.50
   2  -7   8  -14.70  139.29
  -3   7  -8   55.79   26.20
  -3   7  -8   38.10   10.80
  -3   7  -8   33.70   19.90
   3  -7   8   30.00   14.80
   3  -7   8   -1.30   82.99
   3  -7   8   -5.00   24.90
   3  -7   8   50.19   22.70
  -4   7  -8   46.70   18.30
  -4   7  -8    4.00    8.90
   4  -7   8   47.10   26.80
   4   6  -8   26.10    8.20
   4   6  -8   37.40   14.70
   4   6  -8   32.90   11.50
   3   6  -8  127.09   18.60
   3   6  -8  151.38   24.10
   3   6  -8  109.09   26.50
   3   6  -8  170.98   19.30
  -3  -6   8  160.08   20.90
   2   6  -8  124.79   31.70
   2   6  -8   57.09   16.50
   2   6  -8   79.69   25.80
   2   6  -8   72.79   22.60
   1   6  -8  307.67   32.50
   1   6  -8  305.67   38.20
  -1  -6   8  276.87   27.20
  -1  -6   8   94.69   85.09
   0   6  -8    1.70   15.60
   0   6  -8   13.20   17.70
   0   6  -8   29.90   34.10
   0   6  -8   35.70   25.70
   0  -6   8   37.80   18.10
  -1   6  -8   68.59   62.19
  -1   6  -8   80.69   25.50
  -1   6  -8   63.69   18.50
  -1   6  -8  114.39   28.00
   1  -6   8  213.08   89.69
   1  -6   8   65.19   13.30
   1  -6   8  129.49  139.09
  -2   6  -8   28.50   17.80
  -2   6  -8   13.60   15.70
  -2   6  -8   -1.20   24.40
   2  -6   8  -25.40   81.09
   2  -6   8  201.48   94.99
  -3   6  -8  101.69   18.80
  -3   6  -8  111.09   26.50
   3  -6   8  131.89  121.49
   3  -6   8   86.29   16.10
   3  -6   8   82.79   18.20
  -4   6  -8    3.30    8.10
  -4   6  -8   19.40   13.40
   4  -6   8  -17.30   27.20
   4  -6   8   25.90   20.40
   4   5  -8   13.50   10.30
   4   5  -8    1.30   13.90
   4   5  -8  -11.40   13.50
   2   5  -8  165.78   31.10
   2   5  -8  167.98   24.20
   2   5  -8  137.19   29.40
   1   5  -8   39.70   17.40
   1   5  -8   14.30   25.90
   1   5  -8   26.80   20.90
   0   5  -8   12.10   19.40
   0   5  -8   -3.60   18.50
   0   5  -8   55.09   30.70
   0   5  -8   84.79   39.40
   0  -5   8  -68.49   83.99
   0  -5   8  110.39   74.59
  -1   5  -8   34.50   21.10
  -1   5  -8   34.60   24.30
  -1   5  -8   50.69   20.60
  -1   5  -8   39.60   27.30
   1  -5   8   65.79   14.50
   1  -5   8   60.69   69.89
  -2   5  -8   -2.40   14.60
  -2   5  -8   28.50   27.40
  -2   5  -8    9.90   12.90
  -2   5  -8   -1.80   23.80
  -2   5  -8   16.70   26.40
   2  -5   8   11.40   91.89
   2  -5   8   -5.50   10.80
   2  -5   8   -7.70   19.10
  -3   5  -8   14.90   29.00
  -3   5  -8   -4.70   13.60
  -3   5  -8   56.59   30.50
  -3   5  -8  -16.80   24.40
   3  -5   8    1.40   13.30
   3  -5   8    7.40   16.50
   3  -5   8   -6.50   16.80
   3  -5   8   53.09   79.99
  -4   5  -8   34.70   16.00
   4  -5   8   39.70   16.70
   4  -5   8  112.89  169.58
   4  -5   8   39.50   24.10
  -5   5  -8    2.00    7.00
   5  -5   8    1.30    9.00
   5  -5   8  -10.90   10.90
   4   4  -8   43.80   11.20
   4   4  -8   46.20   11.10
   4   4  -8   58.89   11.20
  -4  -4   8   90.19   19.90
   3   4  -8   16.80   14.10
   3   4  -8    8.80   19.60
   3   4  -8   18.10   19.50
  -3  -4   8    8.60   15.60
   2   4  -8  180.08   34.00
   2   4  -8  198.48   36.20
   2   4  -8  212.58   29.40
   2   4  -8  232.58   31.40
  -2  -4   8  229.58   26.40
   1   4  -8  676.23   60.99
   1   4  -8  636.84   81.69
   1   4  -8  666.93   62.49
   0   4  -8  449.95   53.69
   0   4  -8  428.46   48.60
   0  -4   8  488.35   41.90
   0  -4   8  599.64   84.89
  -1   4  -8  -10.50   21.00
  -1   4  -8  -14.10   25.50
  -1   4  -8    6.90   18.00
  -1   4  -8  -33.20   31.30
   1  -4   8   41.40   58.09
   1  -4   8   21.20   12.70
  -2   4  -8  109.89   19.60
  -2   4  -8   91.39   26.10
  -2   4  -8   69.09   25.90
  -2   4  -8   87.39   20.50
   2  -4   8   75.89   13.30
   2  -4   8  116.99   28.40
   2  -4   8  127.09   53.99
  -3   4  -8  108.29   29.60
  -3   4  -8  144.19   26.20
  -3   4  -8  101.09   18.70
  -3   4  -8  102.09   26.30
   3  -4   8  243.18  105.19
   3  -4   8  230.28   85.19
   3  -4   8   91.49   16.50
  -4   4  -8   10.80   21.60
   4  -4   8  101.69  124.89
   4  -4   8   43.60   18.60
   4  -4   8  -26.60   16.10
   4  -4   8   -1.70   19.70
  -5   4  -8    6.60    7.70
  -5   4  -8    2.30   11.00
   5  -4   8   17.50   21.00
   5  -4   8   19.30   14.90
   4   3  -8   73.39   31.80
   4   3  -8   72.99   17.20
   4   3  -8   50.69   13.70
   4   3  -8   54.69   12.30
  -4  -3   8  102.99   20.20
   3   3  -8   76.39   32.10
   3   3  -8   38.30   21.20
   3   3  -8   37.40   18.90
   2   3  -8   59.09   24.10
   2   3  -8   33.40   18.00
   2   3  -8   39.50   46.50
   2   3  -8   52.19   29.10
   1   3  -8  545.35   99.59
   1   3  -8  445.46   43.90
   1   3  -8  423.16   56.39
   1   3  -8  363.36   45.60
   0   3  -8   -4.30   38.50
   0   3  -8   36.90   22.70
   0  -3   8   54.69   63.19
  -1   3  -8  276.67   56.89
  -1   3  -8  335.77   40.10
  -1   3  -8  291.97   43.20
   1  -3   8  283.67   28.20
   1  -3   8  273.37   59.09
  -2   3  -8 1001.10   84.69
  -2   3  -8  995.80   87.19
  -2   3  -8 1007.70   88.29
  -2   3  -8 1069.09   88.89
   2  -3   8 1114.79  121.69
   2  -3   8  923.31   85.29
  -3   3  -8  345.67   34.80
  -3   3  -8  414.56   42.50
  -3   3  -8  348.87   51.09
  -3   3  -8  357.66   41.60
   3  -3   8  298.87   44.10
   3  -3   8  396.26   80.19
   3  -3   8  404.36   85.89
  -4   3  -8   37.80   16.80
   4  -3   8   19.30   18.20
   4  -3   8   38.10   19.60
   4  -3   8  171.28  118.99
  -5   3  -8   43.30    9.40
  -5   3  -8   62.99   15.20
   5  -3   8   56.19   17.80
   5  -3   8   35.70   14.60
   4   2  -8  -15.40   31.00
   4   2  -8   10.40    8.90
   4   2  -8  -12.80   11.90
   4   2  -8   18.70   11.40
  -4  -2   8   45.90   18.60
   3   2  -8   67.99   22.00
   3   2  -8   43.20   32.00
  -3  -2   8  188.08   89.49
   2   2  -8   60.49   19.30
   2   2  -8   51.19   25.50
   2   2  -8   51.09   29.50
   2   2  -8   54.39   32.50
   2   2  -8   61.19   35.40
   1   2  -8  118.49   38.00
   1   2  -8   74.69   53.39
   1   2  -8    6.70   32.70
   0   2  -8   54.09   51.29
   0   2  -8   -0.20   16.10
   0   2  -8  -24.80   26.90
   0   2  -8   -7.10   28.70
   0  -2   8  -15.20   41.70
  -1   2  -8  478.55   54.29
  -1   2  -8  510.55   48.60
  -1   2  -8  546.05   52.09
  -1   2  -8  391.46   56.79
  -1   2  -8  343.27   52.79
   1  -2   8  408.36   38.70
  -2   2  -8  698.53   74.79
  -2   2  -8  648.74   62.99
  -2   2  -8  711.13   61.99
  -2   2  -8  602.04   69.99
   2  -2   8  756.72   77.29
   2  -2   8  718.13   58.29
   2  -2   8  646.84   61.29
  -3   2  -8  458.75   54.09
  -3   2  -8  622.64   50.29
  -3   2  -8  607.84   55.89
  -3   2  -8  422.16  106.49
   3  -2   8  601.04   53.49
  -4   2  -8   37.70   17.10
  -4   2  -8   41.20   19.30
   4  -2   8   43.40   19.60
   4  -2   8   58.59   17.30
   4  -2   8  201.98  127.29
   4  -2   8  -11.20   33.20
   4  -2   8  -24.20  160.18
  -5   2  -8   30.70   13.50
   5  -2   8   22.50   15.70
   4   1  -8  -11.50   11.90
   4   1  -8   -2.30   19.40
   4   1  -8    3.20   22.90
   4   1  -8  -15.20   20.40
   2   1  -8  125.79   29.40
   2   1  -8  159.88   52.99
   2   1  -8  176.48   51.29
   2   1  -8  145.69   34.40
   1   1  -8   32.50   23.80
   1   1  -8   80.29   53.69
   1   1  -8    0.60   45.60
   1   1  -8   50.99   28.70
   0   1  -8   72.99   35.60
   0   1  -8   15.40   29.80
   0   1  -8   29.80   15.50
   0   1  -8    3.70   24.20
   0   1  -8   42.00   33.70
   0  -1   8  -43.70   53.49
  -1   1  -8  113.29   29.10
  -1   1  -8   79.09   24.60
  -1   1  -8  100.49   25.90
  -1   1  -8   84.09   26.40
  -1   1  -8  108.59   35.80
   1  -1   8   42.60   52.09
   1  -1   8   60.89   11.70
  -2   1  -8   41.30   30.30
   2  -1   8   31.60   14.50
   2  -1   8   23.60    9.00
  -3   1  -8  471.15   40.80
  -3   1  -8  376.56   44.00
  -3   1  -8  405.16   37.40
  -3   1  -8  349.87   82.89
   3  -1   8  375.56   35.90
   3  -1   8  211.48  115.59
  -4   1  -8  248.98   27.50
  -4   1  -8  194.88   27.60
   4  -1   8   64.19  149.19
   4  -1   8  157.38   25.60
   4  -1   8  249.78   31.60
  -5   1  -8   32.50   13.30
  -5   1  -8   47.60   10.10
   5  -1   8   33.70   18.40
   4   0  -8   46.50   16.40
   4   0  -8   14.00   16.10
   4   0  -8   20.60   33.70
   3   0  -8   24.70   18.70
   3   0  -8   15.00   18.10
   3   0  -8    6.00   28.30
   3   0  -8   43.20   21.90
   3   0  -8   67.19   61.59
   2   0  -8  237.38   46.50
   2   0  -8  204.28   49.50
   2   0  -8  209.08   43.20
   2   0  -8  315.77   39.60
  -2   0   8  269.67   69.99
   1   0  -8  -27.10   21.50
   1   0  -8  -44.20   41.40
   1   0  -8    0.80   24.80
   1   0  -8   60.99   35.60
   1   0  -8  -16.10   31.70
   1   0  -8   41.70   33.90
   0   0  -8  104.89   22.20
   0   0  -8  188.28   50.39
   0   0  -8   84.69   27.60
   0   0   8    8.80  135.69
  -1   0  -8  -10.40   17.10
  -1   0  -8   -6.90   17.70
  -1   0  -8   19.90   22.00
  -1   0  -8  -11.40   24.00
  -1   0  -8   30.70   22.10
  -2   0  -8  187.58   22.20
  -2   0  -8  183.58   43.60
   2   0   8  165.98   28.20
   2   0   8  220.38   21.10
  -3   0  -8  155.88   24.40
  -3   0  -8  142.79   28.30
  -3   0  -8  125.09   21.50
  -3   0  -8  172.08   49.80
   3   0   8  147.69   17.50
   3   0   8  118.49   25.50
   3   0   8   84.49   66.49
  -4   0  -8    5.20   16.50
  -4   0  -8   23.20   12.40
   4   0   8   -5.50   14.50
   4   0   8   32.00   85.69
  -5   0  -8   16.00    9.10
  -5   0  -8   28.30   15.80
  -5   0  -8   43.10   22.90
   5   0   8   23.30   13.90
   4  -1  -8  104.29   30.90
   4  -1  -8  121.79   53.49
   4  -1  -8  115.49   23.20
   4  -1  -8  130.09   22.00
  -4   1   8  180.58   38.70
   3  -1  -8  250.87   52.59
   3  -1  -8  186.68   35.40
   3  -1  -8  231.28   30.70
   3  -1  -8  192.38   39.90
  -3   1   8  355.16   91.49
  -3   1   8  204.58   23.80
   2  -1  -8   70.99   38.70
   2  -1  -8   -5.00   34.40
   2  -1  -8   23.50   36.60
   2  -1  -8    8.40   26.20
   2  -1  -8   26.30   26.70
  -2   1   8  -31.20   60.09
   1  -1  -8  -13.60   50.89
   1  -1  -8   52.59   34.80
   1  -1  -8  129.79   42.10
   1  -1  -8    1.60   36.40
   1  -1  -8   63.99   31.70
   0  -1  -8   62.19   28.40
   0  -1  -8   44.90   17.60
   0  -1  -8   38.50   27.10
   0  -1  -8   37.70   22.50
  -1  -1  -8   27.90   24.50
  -1  -1  -8   13.30   25.50
  -1  -1  -8   37.50   20.50
  -1  -1  -8   32.00   19.20
   1   1   8  -10.90   33.90
   1   1   8   13.60    8.40
  -2  -1  -8  691.23   70.09
  -2  -1  -8  653.63   60.09
   2   1   8  597.54   59.19
   2   1   8  659.63   87.69
   2   1   8  706.23   56.39
  -3  -1  -8  438.16   39.00
  -3  -1  -8  479.05   42.10
  -3  -1  -8  419.46   73.89
   3   1   8  382.16   39.00
   3   1   8  431.06   43.40
   3   1   8  424.26   74.49
  -4  -1  -8  118.49   21.40
   4   1   8   71.39   17.10
   4   1   8   90.59   19.30
   4   1   8    9.30   70.89
   4   1   8   42.80  105.89
  -5  -1  -8   15.90   14.20
  -5  -1  -8   26.30    8.60
  -5  -1  -8   12.90   17.20
   5   1   8    3.60   18.00
   4  -2  -8   42.30   16.10
   4  -2  -8   -8.10   29.30
   4  -2  -8    7.20   15.90
   3  -2  -8   12.50   28.30
   3  -2  -8   90.49   37.60
   3  -2  -8    5.20   20.30
   3  -2  -8  -13.80   33.80
   3  -2  -8   15.30   23.70
  -3   2   8   12.60   17.10
  -3   2   8   13.30   89.69
   2  -2  -8  -19.10   33.00
   2  -2  -8   38.30   34.50
   2  -2  -8   20.50   23.40
   2  -2  -8   53.39   33.70
  -2   2   8  -22.70   83.69
   1  -2  -8   10.80   35.20
   1  -2  -8   65.69   37.80
   1  -2  -8   22.80   24.80
   1  -2  -8   92.99   36.40
   1  -2  -8    6.00   27.90
  -1   2   8   14.90   11.70
   0  -2  -8  293.27   45.00
   0  -2  -8  389.46   43.50
   0  -2  -8  370.56   42.60
   0  -2  -8  359.56   44.60
   0  -2  -8  298.77   51.19
   0   2   8  391.66   33.40
  -1  -2  -8   11.30   15.90
  -1  -2  -8   22.50   23.40
  -1  -2  -8    3.50   24.20
  -1  -2  -8    1.90   20.20
   1   2   8   85.59   54.49
   1   2   8   16.90    8.60
  -2  -2  -8  593.34   56.39
   2   2   8  551.04   53.59
   2   2   8  650.93   83.89
   2   2   8  638.44   51.39
  -3  -2  -8  142.39   25.40
  -3  -2  -8  107.89   44.30
  -3  -2  -8  102.29   51.89
  -3  -2  -8  164.58   20.50
  -3  -2  -8  207.68   29.50
   3   2   8  184.18   19.50
   3   2   8  150.28   53.39
   3   2   8  219.88   28.90
  -4  -2  -8   62.19   19.40
  -4  -2  -8  -63.99   91.49
  -4  -2  -8   69.99   25.00
  -4  -2  -8   50.29   11.50
  -4  -2  -8  -21.00   43.50
   4   2   8   54.99   16.70
   4   2   8   33.20   24.20
   4   2   8   34.40   60.49
   4   2   8  235.48  134.49
  -5  -2  -8   35.10    8.40
  -5  -2  -8   35.20   17.80
  -5  -2  -8   26.90   17.00
   5   2   8   29.70   17.50
   5   2   8   -9.30   72.49
   4  -3  -8  -17.90   27.20
   4  -3  -8  -22.70   24.50
   4  -3  -8   25.50   16.20
   4  -3  -8   59.79   16.80
  -4   3   8   52.39   29.20
   3  -3  -8   45.20   27.00
   3  -3  -8   88.59   26.00
   3  -3  -8  108.89   26.10
  -3   3   8  111.49   81.89
   2  -3  -8  551.64   67.79
   2  -3  -8  638.54   60.89
   2  -3  -8  660.83   61.69
   2  -3  -8  529.55   56.69
   2  -3  -8  575.74   61.19
  -2   3   8  474.35  110.29
   1  -3  -8   96.39   26.30
   1  -3  -8  130.89   48.50
   1  -3  -8  103.79   30.10
   1  -3  -8   61.19   53.99
   1  -3  -8  101.99   32.10
   1  -3  -8  145.49   45.70
  -1   3   8   90.49   20.40
   0  -3  -8  144.69   31.70
   0  -3  -8  232.98   45.80
   0  -3  -8  180.78   37.50
   0  -3  -8  174.48   39.50
   0  -3  -8  277.77   37.10
   0  -3  -8  237.68   35.20
   0   3   8  209.58   21.60
  -1  -3  -8  100.19   27.20
  -1  -3  -8   64.69   26.50
  -1  -3  -8  106.89   17.60
  -1  -3  -8   50.19   29.80
   1   3   8   74.79   16.20
   1   3   8   89.49   35.20
   1   3   8   43.30   22.20
   1   3   8  -87.49   76.79
  -2  -3  -8  315.97   61.69
  -2  -3  -8  332.67   37.30
  -2  -3  -8  435.06   48.20
   2   3   8  348.57   33.80
   2   3   8  391.66   40.40
  -3  -3  -8   39.40   46.80
  -3  -3  -8   66.69   26.40
  -3  -3  -8   33.70   19.90
  -3  -3  -8  -48.70   46.30
  -3  -3  -8   -9.50   21.20
  -3  -3  -8   29.10   10.40
   3   3   8   -1.60   32.60
   3   3   8   24.40   27.50
   3   3   8   25.70   10.50
   3   3   8   86.09   50.19
  -4  -3  -8    5.60   10.10
  -4  -3  -8  -51.69   96.59
  -4  -3  -8   33.20   23.10
  -4  -3  -8   29.80   22.50
   4   3   8  -98.79  107.79
   4   3   8   -3.80   17.50
   4   3   8    0.80   17.20
  -5  -3  -8   48.20   15.30
  -5  -3  -8   68.09   11.00
   5   3   8   31.30   17.40
   4  -4  -8  169.28   28.70
   4  -4  -8  137.49   28.20
   4  -4  -8  194.98   29.20
   4  -4  -8  128.59   18.90
   3  -4  -8  137.89   24.90
   3  -4  -8  114.59   32.00
   3  -4  -8  169.28   35.70
  -3   4   8  106.99   22.00
   2  -4  -8   54.39   42.90
   2  -4  -8   27.90   34.50
   2  -4  -8   57.39   52.59
   2  -4  -8  -21.10   48.80
  -2   4   8  108.99   40.20
  -2   4   8  -37.90   65.39
   1  -4  -8   34.60   31.00
   1  -4  -8   19.50   18.60
   1  -4  -8   34.20   80.59
   1  -4  -8    5.30   27.10
   1  -4  -8    9.50   23.90
   0  -4  -8  -30.60   33.60
   0  -4  -8  -16.30   24.00
   0  -4  -8   29.00   29.20
   0  -4  -8   14.50   19.20
   0   4   8   54.09   16.20
   0   4   8   31.50   18.60
  -1  -4  -8  458.55   54.99
  -1  -4  -8  601.64   46.20
  -1  -4  -8  514.95   69.79
   1   4   8  424.66   62.29
   1   4   8  496.25   43.50
   1   4   8  504.15   48.70
  -2  -4  -8   69.89   26.90
  -2  -4  -8    4.30   12.10
  -2  -4  -8   -7.50   21.20
  -2  -4  -8  102.59   43.70
  -2  -4  -8   59.19   16.40
  -2  -4  -8  -82.59   52.49
   2   4   8   29.70   19.70
   2   4   8   22.60   15.10
   2   4   8   45.00   42.20
  -3  -4  -8  248.88   39.70
  -3  -4  -8  229.18   58.89
  -3  -4  -8  234.68   23.50
  -3  -4  -8  227.28   34.60
  -3  -4  -8  194.78   58.29
   3   4   8  164.68   28.90
   3   4   8  221.18   25.70
   3   4   8  222.68   37.10
  -4  -4  -8  114.69  108.39
  -4  -4  -8  175.58   40.00
  -4  -4  -8  250.27   22.50
   4   4   8  253.47   27.60
   4   4   8  201.58   40.10
   4   4   8  180.38   29.80
   4   4   8  233.28  107.89
  -5  -4  -8   13.80    8.10
   5   4   8   29.20   16.60
   5   4   8   14.60   16.90
   5   4   8   22.10   11.50
   4  -5  -8    1.80   18.00
   4  -5  -8   16.60   17.20
   4  -5  -8   19.90   15.00
   4  -5  -8  -11.60   17.00
  -4   5   8  -15.80   25.60
  -4   5   8  -22.30   27.00
   3  -5  -8  154.68   36.70
   3  -5  -8  139.59   28.90
   3  -5  -8  129.09   28.20
  -3   5   8  143.69   21.70
  -3   5   8  165.28   28.20
   2  -5  -8   94.69   28.30
   2  -5  -8   89.79   50.49
   2  -5  -8   67.09   19.10
   2  -5  -8   60.29   27.80
  -2   5   8   54.49   13.30
   1  -5  -8   33.70   19.00
   1  -5  -8   42.10   25.40
   1  -5  -8   20.50   35.30
   1  -5  -8   71.59   23.60
   1  -5  -8   43.70   22.90
   1  -5  -8   58.19   18.70
   0  -5  -8   20.70   22.40
   0  -5  -8   79.59   46.10
   0  -5  -8   39.10   27.00
   0   5   8   25.80   18.10
   0   5   8   16.60   11.80
  -1  -5  -8  420.16   42.70
  -1  -5  -8  517.25   64.59
  -1  -5  -8  471.65   51.59
  -1  -5  -8  490.45   75.39
   1   5   8  504.65   46.50
  -2  -5  -8    0.30   44.90
  -2  -5  -8   69.09   13.80
  -2  -5  -8   40.30   33.90
  -2  -5  -8   14.20   31.50
   2   5   8   30.60   49.30
   2   5   8   37.50   15.40
   2   5   8   44.50   17.40
  -3  -5  -8  525.05   52.29
  -3  -5  -8  371.36   46.40
  -3  -5  -8  496.35   40.40
  -3  -5  -8  410.36   64.29
  -3  -5  -8  423.26   94.89
   3   5   8  387.16   48.20
   3   5   8  479.65   40.70
  -4  -5  -8   42.80   91.19
   4   5   8   61.59   19.90
   4   5   8   14.20   73.89
  -5  -5  -8   64.19   10.40
   5   5   8   53.49   18.00
   5   5   8   59.79   15.40
   5   5   8   48.40   12.70
   4  -6  -8   -5.80   17.80
   4  -6  -8   -8.30   11.30
   4  -6  -8   10.50   10.20
  -4   6   8  -29.90   24.90
   3  -6  -8   -6.60   39.40
  -3   6   8   52.09   24.90
  -3   6   8   -0.30   17.40
   2  -6  -8  125.69   23.60
   2  -6  -8  104.09   35.00
   2  -6  -8  153.68   37.60
   2  -6  -8  136.19   32.60
   2  -6  -8  108.29   23.50
   2  -6  -8  111.59   25.50
  -2   6   8  111.99   19.40
   1  -6  -8   38.80   25.00
   1  -6  -8   11.10   23.80
   1  -6  -8   38.40   32.00
   1  -6  -8    1.60   16.00
  -1   6   8    0.40   23.70
  -1   6   8   27.00   13.10
   0  -6  -8  250.97   33.90
   0  -6  -8  175.88   82.49
   0  -6  -8  235.78   36.60
   0  -6  -8  223.58   28.50
   0  -6  -8  344.57   46.70
   0  -6  -8  282.37   37.00
  -1  -6  -8  119.09   21.40
  -1  -6  -8  175.28   32.10
  -1  -6  -8  104.59   55.89
  -1  -6  -8  166.88   38.00
   1   6   8  104.09   50.49
   1   6   8  157.68   24.20
   1   6   8  186.38   19.90
  -2  -6  -8    4.50   54.39
  -2  -6  -8  -29.80   23.80
  -2  -6  -8   18.10   19.60
  -2  -6  -8   58.09   38.20
  -2  -6  -8   10.70   10.20
   2   6   8   -6.70   43.90
   2   6   8   -9.50    9.80
   2   6   8   20.10   15.30
  -3  -6  -8   75.09   17.30
  -3  -6  -8   62.89   72.89
  -3  -6  -8   39.20   11.30
   3   6   8    9.20   73.39
   3   6   8   61.79   15.40
  -4  -6  -8  133.49  110.39
   4   6   8  -17.00   28.40
   4   6   8   -1.60   20.40
   4   6   8   29.60   83.09
   4   6   8   49.20   33.10
  -5  -6  -8  339.57   28.70
   5   6   8  322.67   30.50
   3  -7  -8  143.79   20.40
   3  -7  -8  187.78   22.30
   3  -7  -8  119.79   23.30
   3  -7  -8  163.48   26.20
   2  -7  -8  173.88   33.70
   2  -7  -8   71.39   29.00
   2  -7  -8  126.39   22.90
   2  -7  -8  127.79   29.80
   2  -7  -8  120.09   40.00
  -2   7   8  113.69   19.30
  -2   7   8  110.49   26.70
   1  -7  -8   42.60   18.80
   1  -7  -8   13.00   23.30
   1  -7  -8   56.69   28.30
   1  -7  -8   -5.70   16.10
   1  -7  -8    4.80   23.10
  -1   7   8   31.80   14.60
   0  -7  -8   15.90   19.90
   0  -7  -8  180.28   78.29
   0  -7  -8   32.10   29.00
   0  -7  -8   34.30   17.30
   0  -7  -8   36.70   19.90
   0   7   8   33.60   10.90
   0   7   8   60.89   16.10
  -1  -7  -8  253.87   49.10
  -1  -7  -8  316.17   79.69
  -1  -7  -8  368.46   35.70
  -1  -7  -8  402.86   41.60
   1   7   8  273.87   59.79
   1   7   8  373.36   44.30
   1   7   8  329.27   33.80
  -2  -7  -8   -9.20   14.10
  -2  -7  -8   -7.10   13.10
   2   7   8   -3.00   12.20
   2   7   8  -30.40   61.79
  -3  -7  -8   25.80   16.90
  -3  -7  -8  150.08   68.99
  -3  -7  -8   46.70   14.00
   3   7   8   10.90   23.20
   3   7   8   54.79   19.50
   3   7   8   82.79   16.80
   3   7   8  130.39  107.39
   4   7   8   44.80   90.29
   4   7   8   52.69   12.90
   3  -8  -8  116.29   18.10
   3  -8  -8  141.49   19.40
   3  -8  -8  154.38   20.40
   3  -8  -8  139.39   24.40
  -3   8   8  171.38   26.00
  -3   8   8  159.58   27.20
   2  -8  -8   14.80   18.40
   2  -8  -8  -11.10   31.80
  -2   8   8   -4.40   17.30
  -2   8   8   17.10   27.90
  -2   8   8   39.70   16.70
   1  -8  -8    2.10   26.70
   1  -8  -8  -22.10   21.40
   1  -8  -8   25.80   31.90
   1  -8  -8   -3.50   14.30
   1  -8  -8  -25.50   14.20
  -1   8   8   22.20   14.90
  -1   8   8    9.60   13.80
   0  -8  -8  -15.40   14.00
   0  -8  -8   -6.90   11.90
   0  -8  -8  -19.70   23.70
   0  -8  -8   30.60   21.00
   0   8   8  -13.50    9.40
   0   8   8  -67.89   50.79
  -1  -8  -8   35.50   14.30
  -1  -8  -8   45.30   43.00
  -1  -8  -8  105.39   90.49
  -1  -8  -8   34.30   32.10
  -1  -8  -8   28.20   13.90
   1   8   8  149.88   66.99
  -2  -8  -8   38.20   13.70
  -2  -8  -8  -33.70   84.39
  -2  -8  -8   85.09   23.20
  -2  -8  -8   44.00   13.80
   2   8   8   38.90   15.80
   2   8   8   36.70   25.70
   2   8   8   55.79   94.69
  -3  -8  -8  100.89   23.20
   3   8   8   42.30   36.40
   3   8   8  122.79   24.90
   3   8   8  117.69   36.80
   3   8   8  106.99   94.49
  -4  -8  -8  100.99   11.50
  -4  -8  -8  113.09   17.10
   4   8   8  112.39   19.80
   3  -9  -8  185.88   38.20
   3  -9  -8  224.58   27.30
   2  -9  -8   35.50   31.20
   2  -9  -8   20.10   12.40
   2  -9  -8    2.00   11.10
   2  -9  -8   17.20   16.00
   2  -9  -8   -4.00   14.30
  -2   9   8  -15.90   22.70
  -2   9   8   -8.50   20.90
  -2   9   8  -38.40   25.50
   1  -9  -8  149.88   30.00
   1  -9  -8   68.89   46.30
  -1   9   8   94.09   20.30
  -1   9   8  130.89   19.50
   0  -9  -8  111.99   20.20
   0  -9  -8  121.99   16.60
   0   9   8  158.18   20.60
   0   9   8  120.69   68.39
  -1  -9  -8  160.38  124.49
   1   9   8  183.48   90.09
  -2  -9  -8   58.59   20.20
   2   9   8   52.29   17.80
   2   9   8   39.30   18.80
   2   9   8   90.39   75.19
  -3  -9  -8   56.49   15.30
  -3  -9  -8   57.59   10.10
  -3  -9  -8   28.30   10.60
   3   9   8   50.99   18.20
  -4  -9  -8   -0.80   15.80
  -4  -9  -8  -11.00   14.10
  -4  -9  -8   -1.50    5.20
   4   9   8   21.10   15.30
   4   9   8   -6.70   14.00
   2 -10  -8   13.00   22.70
   2 -10  -8    5.10   10.70
  -2  10   8    2.40   22.70
   1 -10  -8   60.19   20.50
   1 -10  -8   39.70   17.10
   1 -10  -8   17.50    8.60
  -1  10   8   62.09   21.30
  -1  10   8   36.30   18.00
   0 -10  -8   92.39   12.60
   0 -10  -8   97.09   13.80
   0  10   8   31.70   90.19
   0  10   8  124.99   23.00
  -1 -10  -8    7.10    9.70
  -1 -10  -8  -14.70   11.40
   1  10   8   25.60   40.70
   1  10   8   96.89  113.79
   1  10   8   12.10   17.90
  -2 -10  -8  -13.60    8.70
  -2 -10  -8   -0.30    8.10
   2  10   8   -5.80   14.90
  -3 -10  -8    5.50    6.50
  -3 -10  -8    4.10    7.70
   3  10   8   27.90   13.60
   1 -11  -8   91.19   12.90
   1 -11  -8   60.39    9.60
   0 -11  -8   49.70    8.70
   0 -11  -8   41.00    9.00
   0  11   8   96.59   28.60
   0  11   8   22.10   15.70
   0  11   8   67.79   22.10
  -1 -11  -8   27.50    8.90
   1  11   8   40.20   39.50
   1  11   8   33.60   35.90
  -2 -11  -8    7.80    7.40
  -2 -11  -8    2.30    5.90
   2  11   8    1.90   13.40
   1   9  -9   12.10    9.60
   1   9  -9    9.10   12.40
  -1  -9   9    6.90   30.40
  -1  -9   9  -23.10   22.10
   0   9  -9    2.30   11.00
   0   9  -9   -4.10   10.60
  -1   9  -9   -0.60   11.20
   1  -9   9   10.90   14.40
   1  -9   9  -30.90   16.90
  -2   9  -9   19.50   25.10
   2  -9   9    0.30    9.70
   2  -9   9   -8.60   15.30
   2   8  -9   59.09   15.80
   2   8  -9   45.90   18.50
   1   8  -9    5.20   16.20
   1   8  -9   33.80   10.80
   1   8  -9   22.10   12.30
  -1  -8   9   58.89   19.30
  -1  -8   9   36.60   31.80
   0   8  -9   15.40   11.20
   0   8  -9   39.70   18.90
   0  -8   9   64.99   26.40
  -1   8  -9   27.50   24.80
  -1   8  -9  -12.70   10.80
   1  -8   9    9.90   18.10
   1  -8   9   -3.30   16.10
  -2   8  -9   43.50   17.60
   2  -8   9   36.30   11.60
   2  -8   9   71.99   20.10
   2  -8   9   52.79   16.00
  -3   8  -9   17.50   29.90
   3  -8   9   34.40   22.90
   3  -8   9   16.30   10.10
   3  -8   9   31.60   20.90
   3   7  -9  137.19   16.30
   3   7  -9  183.58   17.80
   2   7  -9   35.80   14.60
   2   7  -9   18.40   13.10
   2   7  -9   23.60   11.80
  -2  -7   9   28.20   23.10
   1   7  -9   36.90   25.90
   1   7  -9    6.40   20.70
  -1  -7   9   -2.20   23.90
  -1  -7   9    9.30   31.20
   0   7  -9   83.89   18.40
   0   7  -9   56.49   25.10
   0  -7   9   64.29   14.60
  -1   7  -9    7.80   24.00
   1  -7   9 -106.59   94.19
   1  -7   9   17.80   17.30
  -2   7  -9   21.40   26.60
  -2   7  -9   18.80   30.80
  -2   7  -9   -6.10   18.60
  -2   7  -9   -5.40   17.80
   2  -7   9  -43.50   94.69
   2  -7   9   -3.00   18.10
   2  -7   9  -10.30   14.50
  -3   7  -9  113.69   13.90
  -3   7  -9  109.99   18.10
  -3   7  -9  116.69   21.90
   3  -7   9  113.49   18.70
   3  -7   9  129.49   18.50
   3  -7   9  140.69   19.80
   3   6  -9   59.89   15.20
   3   6  -9   45.90   13.70
   2   6  -9  170.08   22.00
   2   6  -9  128.09   24.40
   2   6  -9  153.48   22.80
   1   6  -9  204.28   26.50
   1   6  -9  210.18   27.20
  -1  -6   9  222.58   27.40
   0   6  -9   37.60   17.50
   0   6  -9   41.60   18.60
   0  -6   9   33.30   17.00
  -1   6  -9   -3.20   20.20
  -1   6  -9   35.00   30.30
  -1   6  -9   13.70   14.40
  -1   6  -9   46.60   39.80
   1  -6   9   -5.80   12.00
   1  -6   9 -129.19  164.18
  -2   6  -9   31.70   19.00
  -2   6  -9  -16.40   18.30
  -2   6  -9  -10.10   18.70
   2  -6   9  -75.09  137.59
   2  -6   9  -12.70   20.50
   2  -6   9    7.30   13.10
  -3   6  -9   53.59   18.80
  -3   6  -9   46.00   10.60
  -3   6  -9   50.29   19.30
  -3   6  -9   95.09   27.20
   3  -6   9   39.10   18.90
   3  -6   9 -140.59  136.79
   3  -6   9   26.90   22.50
  -4   6  -9   47.40   15.50
  -4   6  -9   41.20    9.10
  -4   6  -9   11.10   21.80
   4  -6   9   35.00   15.60
   3   5  -9   50.79   10.50
   3   5  -9   43.70   16.10
   2   5  -9   10.80   16.10
   2   5  -9    9.50   26.10
   1   5  -9  358.16   40.00
   1   5  -9  372.96   36.60
   1   5  -9  374.66   51.09
  -1  -5   9  161.68  130.29
  -1  -5   9  271.07   37.70
   0   5  -9  167.38   27.30
   0   5  -9  210.38   44.20
   0   5  -9  119.59   24.40
   0  -5   9  300.47  161.98
   0  -5   9  124.29   19.70
  -1   5  -9  124.99   27.90
  -1   5  -9   92.59   33.20
  -1   5  -9   74.79   27.40
  -1   5  -9   26.60   27.00
   1  -5   9   84.39   17.00
   1  -5   9  225.48  101.09
   1  -5   9   -3.20   97.49
  -2   5  -9   -1.90   31.30
  -2   5  -9  -14.20   28.00
  -2   5  -9    7.50   18.60
  -2   5  -9    4.40   12.60
  -2   5  -9   30.80   21.30
  -2   5  -9   -2.70   17.20
   2  -5   9  -27.30   86.99
   2  -5   9  -17.70   13.00
   2  -5   9  -30.80  136.09
  -3   5  -9  -12.50   33.80
   3  -5   9  -22.50   16.30
   3  -5   9   10.00   18.20
   3  -5   9 -101.59  121.59
   3  -5   9   27.00   14.80
  -4   5  -9   30.50   13.10
  -4   5  -9   11.40    9.50
   4  -5   9   26.10   14.50
   4  -5   9   38.80   19.00
   4  -5   9   29.10   18.60
   4   4  -9    6.00    7.40
   4   4  -9   -8.60    9.40
   3   4  -9   74.59   15.90
   3   4  -9   74.89   18.40
   3   4  -9   75.09   16.80
   2   4  -9  339.97   36.80
   2   4  -9  325.57   39.80
   2   4  -9  298.07   36.60
   2   4  -9  362.46   39.80
   1   4  -9  134.59   26.90
  -1  -4   9 -114.59  139.39
   0   4  -9    2.40   21.80
   0   4  -9    9.90   45.30
   0   4  -9    4.50   20.10
   0  -4   9  -64.29  131.89
  -1   4  -9  106.19   30.10
  -1   4  -9   81.39   23.90
  -1   4  -9   99.59   32.40
   1  -4   9  233.28   80.99
   1  -4   9  109.29   26.30
  -2   4  -9   36.10   15.40
  -2   4  -9   -3.20   18.80
  -2   4  -9  -13.60   26.40
  -2   4  -9   17.70   13.10
  -2   4  -9  -13.50   28.80
  -2   4  -9   20.10   20.90
   2  -4   9   65.59   88.39
   2  -4   9   -9.30   12.70
   2  -4   9   25.90   87.39
  -3   4  -9   59.79   22.00
  -3   4  -9   34.50   14.60
  -3   4  -9   16.00   24.80
   3  -4   9   62.49   14.50
   3  -4   9   33.30   18.20
  -4   4  -9   90.09   17.10
   4  -4   9  189.28  141.59
   4  -4   9   95.19   22.80
   4  -4   9   54.29   18.00
   4   3  -9   -9.50   12.60
   4   3  -9   16.10   14.40
   4   3  -9   16.10   10.40
   3   3  -9   46.50   39.30
   2   3  -9  211.98   35.30
   2   3  -9  178.18   34.50
   2   3  -9  159.98   28.00
   2   3  -9  180.18   37.10
   1   3  -9   44.30   36.80
   1   3  -9  120.29   54.59
   0   3  -9  289.67   47.50
   0   3  -9  227.88   48.20
   0   3  -9  208.28   29.90
   0  -3   9  251.47   72.29
  -1   3  -9   53.69   31.40
  -1   3  -9  131.29   27.70
  -1   3  -9   86.19   41.80
   1  -3   9   33.50   68.69
  -2   3  -9  390.16   39.90
  -2   3  -9  456.95   45.30
   2  -3   9  415.76   44.90
   2  -3   9  508.35   40.00
  -3   3  -9  415.36   48.20
  -3   3  -9  553.24   46.00
  -3   3  -9  451.15   41.60
   3  -3   9  453.35   42.10
  -4   3  -9   70.49   19.00
   4  -3   9   56.89   19.70
   4  -3   9  105.29   19.30
   4  -3   9  210.68  109.89
  -5   3  -9   16.40    9.50
  -5   3  -9   23.60    9.20
   5  -3   9   16.40    8.80
   4   2  -9   49.10   13.00
   4   2  -9   63.29   28.90
   3   2  -9   86.29   25.90
   3   2  -9   74.99   21.60
   2   2  -9   61.69   26.20
   2   2  -9  -13.60   36.70
   2   2  -9  142.69   71.49
   2   2  -9   14.10   25.10
   2   2  -9   46.50   27.90
   1   2  -9  112.29   28.40
   1   2  -9  135.19   39.40
   1   2  -9   87.49   19.30
   1   2  -9   95.99   61.29
   1   2  -9  173.68   43.00
   0   2  -9  882.41   81.99
   0   2  -9  999.60   94.59
   0  -2   9  864.61  117.79
  -1   2  -9   20.00   30.30
  -1   2  -9   30.00   27.40
  -1   2  -9    4.60   17.60
   1  -2   9   63.19   54.29
  -2   2  -9   61.49   45.40
  -2   2  -9   33.00   18.20
  -2   2  -9   53.59   34.70
  -2   2  -9   36.90   28.70
  -2   2  -9   15.00   35.50
  -2   2  -9   65.09   14.10
   2  -2   9   43.60   11.70
   2  -2   9   40.30   29.30
  -3   2  -9   64.79   17.30
  -3   2  -9   26.20   19.40
   3  -2   9  176.38   90.49
  -4   2  -9   46.20   14.80
  -4   2  -9   77.79   28.70
   4  -2   9   38.50   18.50
   4  -2   9   78.09  101.89
  -5   2  -9   77.09   12.70
   5  -2   9   85.99   16.90
   5  -2   9   63.79   47.70
   4   1  -9  162.38   20.00
   4   1  -9  186.48   20.60
   4   1  -9  166.58   18.10
   4   1  -9  130.99   27.40
   3   1  -9   18.60   41.90
   3   1  -9   22.00   21.90
   3   1  -9    6.50   20.60
   2   1  -9   47.00   33.50
   2   1  -9   87.79   23.40
   2   1  -9  113.69   25.60
   2   1  -9  131.49   47.30
   2   1  -9  163.98   36.00
   1   1  -9  116.29   42.40
   1   1  -9  106.79   39.40
   1   1  -9    3.30   41.80
   1   1  -9   73.49   36.20
   1   1  -9   79.39   31.80
   0   1  -9  135.79   58.79
   0   1  -9   -4.60   26.00
  -1   1  -9   88.59   22.80
  -1   1  -9  137.29   31.00
  -1   1  -9   60.59   38.40
  -2   1  -9  158.88   29.00
  -2   1  -9  116.99   25.20
  -2   1  -9  123.09   26.00
  -2   1  -9  134.69   18.70
   2  -1   9  106.09   21.80
  -3   1  -9  103.09   22.40
   3  -1   9  248.58   81.69
   4  -1   9   17.50   13.80
   4  -1   9   49.50   20.60
   4  -1   9 -168.58  117.19
  -5   1  -9    7.30   13.70
   5  -1   9    4.60   13.10
   4   0  -9   66.89   14.50
   4   0  -9   71.09   21.30
  -4   0   9   72.79   25.80
   3   0  -9   99.09   34.10
   3   0  -9  102.49   32.60
   3   0  -9  158.88   52.19
   3   0  -9   55.59   20.10
   3   0  -9   88.89   23.40
   2   0  -9  214.68   42.00
   2   0  -9  219.98   41.40
   2   0  -9  197.08   49.20
   2   0  -9  262.77   40.70
   2   0  -9  248.08   34.70
   1   0  -9  -19.10   21.60
   1   0  -9   33.50   33.10
   1   0  -9   33.20   30.10
   1   0  -9  -52.19   30.80
   0   0  -9   11.40   22.00
   0   0  -9   46.20   26.30
   0   0  -9  123.69   60.59
   0   0  -9   10.80   32.30
  -1   0  -9   45.90   36.50
  -1   0  -9  -28.70   18.00
  -1   0  -9  -15.00   21.10
   1   0   9   62.39   34.50
   1   0   9   10.20   11.60
  -2   0  -9   87.49   38.80
  -2   0  -9  124.99   30.50
  -2   0  -9  144.69   27.00
  -2   0  -9   75.99   19.10
  -2   0  -9  124.39   17.90
   2   0   9    8.90   73.29
  -3   0  -9   14.80   22.40
  -3   0  -9   42.70   18.40
  -3   0  -9   23.70   15.60
  -3   0  -9   27.40   12.40
   3   0   9   83.29   85.39
   3   0   9   21.00   10.50
   3   0   9  -28.60  104.19
  -4   0  -9   24.00   15.30
  -4   0  -9   17.20    9.20
  -4   0  -9  -10.70   19.10
   4   0   9    0.50   18.80
   4   0   9   20.40   16.90
   4   0   9   13.30   16.20
  -5   0  -9  -11.50   13.10
  -5   0  -9    2.80    7.30
  -5   0  -9   18.90   12.20
   5   0   9    9.70   15.90
   4  -1  -9   53.59   17.50
   4  -1  -9    1.20   14.20
   4  -1  -9   36.30    9.70
  -4   1   9  -21.80   23.80
   3  -1  -9   98.19   22.70
   3  -1  -9  117.99   56.49
   3  -1  -9  119.29   25.20
   3  -1  -9   87.09   29.50
  -3   1   9   77.49   24.50
   2  -1  -9  108.69   41.90
   2  -1  -9    2.10   28.00
   2  -1  -9   57.49   31.80
   2  -1  -9   49.00   22.40
   1  -1  -9   43.40   25.40
   1  -1  -9   73.39   27.70
   1  -1  -9  100.09   27.20
   1  -1  -9   24.50   28.50
   0  -1  -9   66.49   44.30
   0  -1  -9  106.99   45.50
  -1  -1  -9   67.59   36.50
  -1  -1  -9   74.69   21.50
  -1  -1  -9   60.69   26.40
   1   1   9   86.39   16.90
  -2  -1  -9   21.80   24.00
  -2  -1  -9    5.80   12.50
  -2  -1  -9   53.59   37.30
  -2  -1  -9    2.00   16.10
   2   1   9   57.29   60.19
  -3  -1  -9   47.90   24.20
  -3  -1  -9   24.50   18.40
  -3  -1  -9   27.60   12.00
  -3  -1  -9   20.50   15.00
   3   1   9   50.89   66.99
   3   1   9   13.20   12.20
   3   1   9    9.00   20.90
  -4  -1  -9    6.80   20.80
  -4  -1  -9   13.90   14.90
  -4  -1  -9   -1.30    9.40
   4   1   9   10.80   17.40
   4   1   9   40.10   76.39
   4   1   9   10.80   16.70
   4   1   9   11.90   16.40
  -5  -1  -9   13.10    8.30
  -5  -1  -9    0.40    8.50
  -5  -1  -9   -6.70   14.30
   5   1   9   14.00   10.00
   4  -2  -9   68.19   30.90
   4  -2  -9   18.60   14.10
   4  -2  -9   25.60   21.80
  -4   2   9    2.80   25.50
   3  -2  -9   18.70   23.00
   3  -2  -9   21.10   18.80
   3  -2  -9   93.79   36.50
  -3   2   9   54.19   20.20
   2  -2  -9   49.30   23.90
   2  -2  -9   37.30   28.60
   2  -2  -9   64.79   28.30
   2  -2  -9   94.79   29.70
   1  -2  -9   16.80   24.70
   1  -2  -9   59.69   28.70
   1  -2  -9    7.90   24.20
   1  -2  -9  -23.50   30.00
   1  -2  -9  -22.30   68.49
  -1   2   9   41.30   22.00
   0  -2  -9   49.70   33.30
   0  -2  -9   31.70   27.20
   0  -2  -9   57.39   29.10
   0   2   9   32.00   11.90
  -1  -2  -9  213.48   54.39
  -1  -2  -9  158.68   29.60
  -1  -2  -9  188.48   32.40
  -1  -2  -9  267.97   39.80
  -1  -2  -9  154.88   47.30
  -1  -2  -9  214.38   29.80
   1   2   9  247.48   25.50
  -2  -2  -9   31.00   15.80
  -2  -2  -9   18.10   17.10
  -2  -2  -9   58.19   16.40
  -2  -2  -9   40.00   38.50
  -2  -2  -9   30.10   20.70
   2   2   9   34.70   15.70
  -3  -2  -9   20.40   11.60
  -3  -2  -9    3.60   25.10
  -3  -2  -9   11.90   15.00
  -3  -2  -9    1.80   18.80
   3   2   9   17.80   11.20
   3   2   9   -3.90   18.90
   3   2   9  -99.89   64.79
  -4  -2  -9   24.30   22.50
  -4  -2  -9   -7.30    9.00
  -4  -2  -9   17.20   17.70
   4   2   9   36.60   14.50
   4   2   9  -31.90   63.99
   4   2   9    3.30   17.30
  -5  -2  -9   29.00   12.70
  -5  -2  -9   42.50    8.30
  -5  -2  -9   54.09   19.30
   5   2   9   26.30   13.30
   4  -3  -9   36.60   13.90
  -4   3   9   24.40   22.30
   3  -3  -9   27.00   15.20
   3  -3  -9   49.50   27.10
   3  -3  -9  108.09   46.00
   3  -3  -9   20.40   28.60
  -3   3   9   42.60   21.00
   2  -3  -9   74.59   27.00
   2  -3  -9   53.59   23.10
   2  -3  -9   68.19   31.00
  -2   3   9   41.90   15.10
   1  -3  -9   -8.70   29.20
   1  -3  -9    0.00   23.60
   1  -3  -9   19.80   23.80
   1  -3  -9  -89.69   57.19
   1  -3  -9   48.80   46.70
   1  -3  -9   39.10   24.20
   0  -3  -9   25.00   18.60
   0  -3  -9   18.10   38.70
   0  -3  -9   35.80   26.20
   0  -3  -9    1.10   21.80
   0  -3  -9    1.90   21.30
   0   3   9   22.90   14.30
  -1  -3  -9   52.29   36.10
  -1  -3  -9   69.79   28.00
  -1  -3  -9   66.09   23.70
  -1  -3  -9   66.29   27.20
   1   3   9   20.60   44.60
   1   3   9   75.49   16.00
  -2  -3  -9  903.71   76.19
  -2  -3  -9  679.83   89.49
  -2  -3  -9  778.22   72.89
  -2  -3  -9  824.72   75.99
  -2  -3  -9  869.21   69.19
   2   3   9  829.02   69.49
  -3  -3  -9   50.39   20.20
  -3  -3  -9   43.00   20.50
  -3  -3  -9   -8.40   26.70
   3   3   9   -2.00   24.40
   3   3   9    1.60   20.10
  -4  -3  -9   -2.20   25.20
  -4  -3  -9   18.10   11.60
   4   3   9  -18.90   19.30
   4   3   9  -28.90   17.00
   4   3   9  -63.49   69.69
  -5  -3  -9   15.50    7.30
   5   3   9   29.70   11.60
   4  -4  -9  -16.50   19.20
   4  -4  -9    4.40   15.10
  -4   4   9   22.90   22.80
  -4   4   9   22.10   37.40
  -3   4   9   24.50   35.10
  -3   4   9   66.99   17.50
   2  -4  -9  397.76   49.00
   2  -4  -9  474.05   50.39
   2  -4  -9  444.26   46.60
  -2   4   9  474.85   41.40
   1  -4  -9    0.90   67.79
   1  -4  -9    3.70   23.00
   1  -4  -9   23.50   34.40
   1  -4  -9   -3.80   26.10
   1  -4  -9    3.90   23.30
   1  -4  -9    8.70   33.10
  -1   4   9  -10.40   15.50
   0  -4  -9   33.40   22.00
   0  -4  -9   28.10   26.10
   0  -4  -9   38.20   20.70
   0  -4  -9   44.00   25.90
   0  -4  -9  -30.90   74.39
   0   4   9   22.70   25.60
  -1  -4  -9  293.27   37.40
  -1  -4  -9  319.07   37.00
  -1  -4  -9  314.07   32.20
  -1  -4  -9  347.47   61.59
   1   4   9  217.78   55.99
   1   4   9  294.77   36.80
  -2  -4  -9  905.41   72.29
  -2  -4  -9  812.72   77.09
  -2  -4  -9  705.03   96.89
   2   4   9  918.11   71.99
   2   4   9  882.41   76.99
  -3  -4  -9   -7.40   61.09
  -3  -4  -9   15.90   15.20
  -3  -4  -9  -29.40   20.00
  -3  -4  -9   22.50    9.50
  -3  -4  -9   42.40   25.00
   3   4   9  -29.40   25.30
   3   4   9    2.20   66.59
   4   4   9   22.20   23.10
   4   4   9 -128.99  102.69
   4   4   9   35.70   20.70
  -5  -4  -9   -4.30    6.50
   5   4   9    5.60   11.30
   4  -5  -9   -0.60   15.90
   4  -5  -9    1.70   15.40
   4  -5  -9    6.40   12.20
   3  -5  -9   94.49   19.10
   3  -5  -9  123.39   27.90
  -3   5   9  125.69   25.90
  -3   5   9  102.89   24.60
   2  -5  -9  373.36   51.19
   2  -5  -9  357.26   42.80
   2  -5  -9  339.07   62.29
   2  -5  -9  442.76   46.60
  -2   5   9  440.76   38.30
   1  -5  -9  214.98   44.80
   1  -5  -9  231.98   35.70
   1  -5  -9  360.36   80.69
   1  -5  -9  243.38   34.00
  -1   5   9  297.97   27.10
   0  -5  -9  183.88   28.80
   0  -5  -9  212.88   38.80
   0  -5  -9   67.19   65.99
   0  -5  -9  193.68   33.10
   0  -5  -9  196.08   37.40
   0   5   9  221.68   21.60
  -1  -5  -9  288.97   46.10
  -1  -5  -9  312.17   35.10
  -1  -5  -9  399.26   45.90
  -1  -5  -9  438.16   73.69
   1   5   9  355.36   41.00
   1   5   9  378.86   31.60
   1   5   9  251.07   63.99
  -2  -5  -9  218.38   33.50
  -2  -5  -9  233.28   37.00
  -2  -5  -9  210.28   22.40
  -2  -5  -9  159.48   32.90
   2   5   9   95.49   61.49
   2   5   9  209.58   24.40
  -3  -5  -9  148.39   15.70
  -3  -5  -9  186.98   77.39
  -3  -5  -9  136.49   29.90
   3   5   9   91.29   20.80
   3   5   9   61.99  119.79
  -4  -5  -9   47.30   11.70
   4   5   9  127.09   81.39
   4   5   9   27.80   22.60
  -5  -5  -9   -6.50    6.70
   5   5   9    6.80   13.80
   5   5   9   11.00   11.00
   3  -6  -9  208.98   33.30
   3  -6  -9  149.79   20.50
   3  -6  -9  170.38   19.00
   3  -6  -9  152.48   22.20
  -3   6   9  184.38   29.00
  -3   6   9  169.28   24.00
   2  -6  -9   84.39   24.90
   2  -6  -9   48.20   22.30
   2  -6  -9   58.99   27.60
  -2   6   9   60.59   16.60
  -2   6   9   64.09   24.10
   1  -6  -9   70.89   22.40
   1  -6  -9   53.09   21.80
   1  -6  -9   41.70   48.00
   1  -6  -9   53.39   24.80
   1  -6  -9   30.20   18.00
  -1   6   9   44.40   12.60
   0  -6  -9   -1.30   16.80
   0  -6  -9    7.30   17.50
   0  -6  -9    9.60   25.60
   0  -6  -9   12.90   25.50
   0  -6  -9   -5.10   21.40
   0   6   9  -11.00   10.50
  -1  -6  -9   92.29   19.10
  -1  -6  -9  146.79   34.70
  -1  -6  -9  109.99   30.60
   1   6   9  159.98   18.60
   1   6   9   68.49   57.19
   1   6   9  139.29   25.20
  -2  -6  -9   -6.40   19.60
  -2  -6  -9  -15.60   13.20
  -2  -6  -9   99.09   71.29
  -2  -6  -9    6.30   17.70
  -2  -6  -9  -14.20   23.90
  -2  -6  -9   44.20   25.40
   2   6   9   28.50   11.70
   2   6   9  -50.49   52.59
  -3  -6  -9   40.00   84.59
  -3  -6  -9    6.50   11.80
   3   6   9   10.50   74.99
   3   6   9    4.00   15.70
   3   6   9   -1.50   16.50
  -4  -6  -9  108.29   12.40
   4   6   9  -22.90   94.09
   4   6   9  102.59   20.00
   4   6   9  141.69   30.80
   4   6   9  107.59   16.30
   3  -7  -9    5.10   13.40
   3  -7  -9   -3.20   16.10
   3  -7  -9   15.90   14.10
   3  -7  -9   28.80   15.90
  -3   7   9   39.10   16.60
   2  -7  -9   39.00   37.40
  -2   7   9   42.50   20.10
  -2   7   9   14.10   20.50
   1  -7  -9   37.40   22.30
   1  -7  -9   21.50   16.30
   1  -7  -9   54.99   26.40
   1  -7  -9   23.80   21.10
   1  -7  -9    1.40   28.80
  -1   7   9    7.80   14.00
  -1   7   9   26.30   25.00
   0  -7  -9   95.89   21.50
   0  -7  -9  110.39   25.80
   0  -7  -9   65.29   23.60
   0   7   9  116.59   18.30
   0   7   9  115.69   68.69
  -1  -7  -9   51.69   18.20
  -1  -7  -9   47.90   14.70
  -1  -7  -9   35.80   20.10
  -1  -7  -9   73.59   23.30
  -1  -7  -9  164.08   98.29
   1   7   9   31.20   59.29
   1   7   9   73.89   23.60
   1   7   9   40.10   12.50
  -2  -7  -9  489.45   50.69
  -2  -7  -9  616.74   50.99
  -2  -7  -9  454.55   45.90
   2   7   9  543.65   47.20
   2   7   9  578.24   54.49
  -3  -7  -9  102.59   19.40
   3   7   9  116.59   77.49
   3   7   9  110.29   19.60
   3   7   9   69.09   23.50
  -4  -7  -9    3.70    7.20
   4   7   9  -14.70   16.30
   3  -8  -9    8.80   12.90
   3  -8  -9    9.20   18.00
   3  -8  -9    0.90   13.80
  -3   8   9   49.30   22.20
   2  -8  -9  -19.40   17.40
   2  -8  -9  -27.60   21.50
   2  -8  -9   31.20   18.40
   2  -8  -9    5.30   11.10
  -2   8   9   21.30   29.80
  -2   8   9  -13.60   18.10
  -2   8   9   -8.50   24.40
   1  -8  -9   16.20   40.50
  -1   8   9  -10.90   15.60
  -1   8   9   26.40   25.40
   0  -8  -9   39.00   19.10
   0  -8  -9   60.39   22.60
   0  -8  -9   72.49   15.80
   0   8   9  -18.20   86.69
  -1  -8  -9  110.49   19.30
  -1  -8  -9  147.89  121.29
  -1  -8  -9  103.39   21.80
  -1  -8  -9  146.39   31.80
   1   8   9  150.58   19.30
   2   8   9   97.39   20.60
   2   8   9   61.19   15.00
   2   8   9   65.39   68.89
  -3  -8  -9   48.50   10.00
  -3  -8  -9   62.09   13.70
   3   8   9   54.49   86.79
   3   8   9   88.99   29.50
  -4  -8  -9   -5.70   10.30
  -4  -8  -9    7.40    7.00
   2  -9  -9   11.00   14.30
   2  -9  -9   30.50   13.90
   2  -9  -9   -4.00   22.80
  -2   9   9   40.00   19.50
  -2   9   9   30.00   39.70
  -2   9   9   47.00   16.90
   1  -9  -9   44.20   21.70
   1  -9  -9   28.40   11.40
   1  -9  -9   36.50   16.30
   1  -9  -9    1.70   17.60
  -1   9   9   44.50   14.30
  -1   9   9   77.79   80.49
  -1   9   9   -0.60   24.50
   0  -9  -9   11.60   15.20
   0  -9  -9   38.30   12.40
   0   9   9   46.20   16.10
   0   9   9   38.90   17.30
   0   9   9   58.69   90.49
  -1  -9  -9  102.99   18.50
  -1  -9  -9  110.39   30.40
   1   9   9  173.28   93.59
   1   9   9  136.49   24.80
   1   9   9   76.99   19.30
   2   9   9   28.20   17.60
   2   9   9   45.40   79.29
   2   9   9   19.90   24.30
   2   9   9   56.09   29.40
  -3  -9  -9   36.50   11.10
   3   9   9   43.80   52.49
   3   9   9   31.70   13.50
   1 -10  -9    6.80    9.10
   1 -10  -9   24.40   21.10
   1 -10  -9    0.60    9.40
  -1  10   9  -17.80   20.40
  -1  10   9    7.10   15.60
  -1  10   9   -5.20   18.60
   0 -10  -9   -4.20    6.70
   0 -10  -9   -1.00    9.20
   0  10   9   -2.80   14.10
   0  10   9    2.20   21.20
   1  10   9  184.28   24.80
   1  10   9  117.29   23.80
  -2 -10  -9   67.49   19.50
  -2 -10  -9   12.70    7.50
  -2 -10  -9   30.50    7.30
   2  10   9   53.99   15.60
  -3 -10  -9   61.19   16.20
  -3 -10  -9   39.40    8.20
   3  10   9   48.60   13.50
   0 -11  -9   20.50    9.50
   0 -11  -9   28.40    6.90
   0 -11  -9   40.30   12.70
   0  11   9   22.60   14.40
   0  11   9   19.70   28.10
  -1 -11  -9   20.00    6.60
  -1 -11  -9   13.40    7.30
   1  11   9   20.10   13.10
   1  11   9   39.20   26.60
   1   8 -10   37.10   11.60
   1   8 -10   27.50   13.50
   0   8 -10   22.70   11.90
   0   8 -10   -0.30    9.90
   0  -8  10   15.60   17.20
  -1   8 -10   33.90   10.40
   1  -8  10   63.19   21.20
  -2   8 -10  -12.40   13.80
   2  -8  10   12.40   25.10
   2  -8  10    8.40   19.60
   2   7 -10   73.39   16.70
   2   7 -10  100.19   20.80
   2   7 -10  119.39   15.60
   1   7 -10   47.50   26.70
   1   7 -10   75.49   15.00
  -1  -7  10   43.10   29.80
   0   7 -10   71.79   16.90
   0   7 -10   43.40   13.90
   0  -7  10   86.89   19.80
   0  -7  10   49.00   39.70
  -1   7 -10   18.40   13.80
   1  -7  10   43.00   19.30
   2  -7  10   26.90   22.20
   2  -7  10  -16.40   14.60
   2  -7  10   22.60   15.00
  -3   7 -10    2.00   28.00
   3  -7  10   57.99   25.40
   2   6 -10   93.09   16.10
   2   6 -10   95.79   21.60
   2   6 -10  128.69   17.20
   1   6 -10   94.29   17.80
   1   6 -10   67.99   16.20
  -1  -6  10  102.19   26.60
   0  -6  10   57.49   17.70
  -1   6 -10   21.70   29.50
   1  -6  10   38.20   21.60
   1  -6  10  -62.79  102.19
  -2   6 -10   -1.40   24.30
  -2   6 -10   28.30   12.50
   2  -6  10  163.48   97.79
   2  -6  10   -2.90   13.60
   2  -6  10   -7.20   17.40
  -3   6 -10   20.20   20.70
   3  -6  10   42.00   26.00
   3  -6  10    5.60   19.60
   3   5 -10   64.29   14.50
   3   5 -10   64.79   16.50
   3   5 -10   88.49   29.30
   2   5 -10  219.78   26.50
   2   5 -10  270.67   28.50
   2   5 -10  276.77   32.10
   1   5 -10  146.49   31.70
   1   5 -10  146.89   28.80
   0   5 -10  214.68   30.30
   0   5 -10  251.97   28.00
   0  -5  10  192.48   27.00
  -1   5 -10   -8.60   30.20
  -1   5 -10    4.70   20.70
  -1   5 -10   25.90   19.70
   1  -5  10    4.70   14.90
   2  -5  10 -116.69  106.59
   2  -5  10   14.00   14.10
   2  -5  10   24.20   24.20
  -3   5 -10   62.19   23.00
   3  -5  10  154.08   78.99
  -4   5 -10   54.39   17.60
  -4   5 -10   81.79   16.70
   3   4 -10   -6.00   12.20
   3   4 -10    0.10   14.90
   3   4 -10   19.80   12.10
   2   4 -10  139.19   22.10
   2   4 -10  101.99   26.60
   1   4 -10  586.74   53.39
   1   4 -10  569.74   58.39
   1   4 -10  584.44   56.69
   0   4 -10   81.79   29.70
   0   4 -10  149.79   39.10
   0   4 -10  100.49   22.60
   0  -4  10  121.99   24.70
   1  -4  10  304.47  134.49
   1  -4  10  144.49  164.38
  -2   4 -10   90.39   21.60
  -2   4 -10   68.59   24.50
  -2   4 -10   49.70   18.80
   2  -4  10 -122.29  155.18
   2  -4  10   59.69  144.39
   2  -4  10   53.39   15.30
  -3   4 -10  159.18   30.70
  -3   4 -10  149.19   18.30
  -3   4 -10   95.89   36.00
  -3   4 -10  115.39   24.70
   3  -4  10    2.40  144.29
   3  -4  10  105.39   17.80
   3  -4  10  158.28   24.70
  -4   4 -10   -8.70   14.60
  -4   4 -10   -7.80    8.50
  -4   4 -10  -16.20   12.40
   4  -4  10   -9.80   18.60
   3   3 -10   19.60   12.70
   3   3 -10   11.30   11.20
   3   3 -10   -4.10   13.80
   2   3 -10   54.29   27.40
   1   3 -10  566.14   90.59
   1   3 -10  601.74   77.79
   1   3 -10  619.84   60.69
   1   3 -10  655.43   58.79
   0   3 -10   49.10   18.80
   0   3 -10   22.60   33.20
   0   3 -10   76.49   28.40
   0  -3  10   66.09  142.99
  -1   3 -10    1.70   26.10
  -1   3 -10   15.30   17.70
  -1   3 -10   -2.60   30.20
   1  -3  10   28.70   13.60
   1  -3  10  -32.30  118.19
  -2   3 -10   81.89   26.70
  -2   3 -10  104.09   21.30
  -2   3 -10  112.19   27.50
   2  -3  10  111.49   17.90
   2  -3  10   44.40  102.49
   2  -3  10   87.39   87.29
  -3   3 -10    2.00   21.70
   3  -3  10   48.30   14.40
   3  -3  10   62.99  110.99
  -4   3 -10   35.10   11.20
   4  -3  10   37.70   19.10
   4  -3  10   58.79   20.30
   3   2 -10    7.80   12.90
   3   2 -10   95.99   34.80
   3   2 -10   27.30   10.10
   2   2 -10  -24.40   36.10
   2   2 -10   15.00   32.10
   2   2 -10  -30.00   30.10
   2   2 -10  -19.70   32.90
   1   2 -10  112.89   23.70
   1   2 -10   94.99   41.50
   1   2 -10  177.18   38.00
   1   2 -10  217.28   54.09
   1   2 -10   98.19   25.20
   1   2 -10   29.10   41.00
   0   2 -10   40.50   16.60
   0   2 -10   55.29   26.30
  -1   2 -10   -0.90   30.00
  -1   2 -10   40.30   15.30
  -1   2 -10   29.20   26.20
   1  -2  10  153.48   92.39
  -2   2 -10  218.78   34.30
  -2   2 -10  230.28   30.10
   2  -2  10  240.58  100.29
   2  -2  10  254.77   24.10
  -3   2 -10   35.30   19.60
  -3   2 -10   39.30   31.40
  -3   2 -10   19.60   18.30
  -3   2 -10   64.89   17.80
   3  -2  10  246.08  112.29
   3  -2  10   48.30   16.90
  -4   2 -10   78.09   10.60
  -4   2 -10  100.59   19.60
  -4   2 -10   98.29   18.80
   4  -2  10  104.69   26.80
   4   1 -10    1.10   20.50
   4   1 -10   48.30   32.30
   4   1 -10   19.40   12.40
   3   1 -10   -4.40   15.00
   3   1 -10  -10.20   15.00
   2   1 -10   58.89   34.90
   2   1 -10   31.00   24.70
   2   1 -10   46.70   35.10
   2   1 -10   23.40   22.80
   2   1 -10  -34.50   36.20
   1   1 -10  126.09   32.60
   1   1 -10   86.89   36.00
   1   1 -10  122.59   21.80
   1   1 -10  173.18   35.70
   1   1 -10  107.39   43.30
   0   1 -10   49.90   39.70
   0   1 -10   54.19   28.20
   0   1 -10    2.50   19.00
   0   1 -10   19.60   33.10
  -1   1 -10   73.59   25.60
  -1   1 -10   37.20   17.30
  -1   1 -10    5.50   43.70
  -1   1 -10   35.80   32.50
   1  -1  10   29.30   17.10
  -2   1 -10   -6.10   17.30
  -2   1 -10   26.00   21.60
  -2   1 -10    4.00   29.20
   2  -1  10   12.90   10.60
   2  -1  10   68.89   84.09
  -3   1 -10  111.99   24.10
  -3   1 -10   82.59   16.00
  -3   1 -10  125.49   27.60
  -3   1 -10  161.98   89.79
  -3   1 -10   62.59   21.90
   3  -1  10   21.00  124.19
   3  -1  10   69.89   21.20
  -4   1 -10   -1.10   19.40
  -4   1 -10    3.80    7.20
   4  -1  10 -228.28  147.79
   4  -1  10    9.30   19.10
   4  -1  10   14.90   17.00
  -5   1 -10   -9.10    6.00
  -5   1 -10    1.10   11.90
   5  -1  10   -3.40   12.00
   4   0 -10   -4.20   19.30
   4   0 -10   26.30   21.70
   3   0 -10   30.20   23.30
   3   0 -10    7.70   20.30
   3   0 -10  120.99   43.20
   2   0 -10   25.10   22.20
   2   0 -10   -8.60   19.70
   2   0 -10   -8.20   31.10
   2   0 -10  -26.10   27.90
   2   0 -10   78.29   33.50
   1   0 -10  378.66   51.79
   1   0 -10  454.05   48.00
   1   0 -10  388.86   43.30
   1   0 -10  407.66   55.69
   0   0 -10  121.49   28.90
   0   0 -10  162.28   36.90
   0   0 -10  154.68   35.80
  -1   0 -10   25.70   21.50
  -1   0 -10    5.50   24.40
  -1   0 -10   24.70   30.30
  -1   0 -10   43.10   41.60
  -2   0 -10   64.29   18.80
  -2   0 -10   93.69   23.30
  -2   0 -10  113.19   23.90
  -2   0 -10   88.09   22.70
   2   0  10  115.69   14.80
  -3   0 -10    3.40   15.30
  -3   0 -10   -2.30   18.50
  -3   0 -10   14.60   18.90
  -3   0 -10  -34.40   87.99
  -3   0 -10   -2.70   14.40
   3   0  10   89.59   92.89
   3   0  10  -19.60   12.50
  -4   0 -10    6.50   13.20
  -4   0 -10   20.70    7.50
   4   0  10   55.29   15.90
   4   0  10  103.29  117.29
   4   0  10   14.70   14.70
   4   0  10   29.20   18.70
  -5   0 -10   -8.70   11.60
  -5   0 -10   -9.80    6.30
  -5   0 -10   -2.30   12.60
   5   0  10  -11.10   14.40
   4  -1 -10   80.39   21.40
   4  -1 -10   77.79   15.10
   3  -1 -10  142.99   28.00
   3  -1 -10  126.09   21.30
   3  -1 -10  105.29   27.30
   2  -1 -10   35.80   27.20
   2  -1 -10    0.60   29.30
   2  -1 -10  -27.60   32.30
   2  -1 -10   42.30   21.10
   1  -1 -10  313.17   45.00
   1  -1 -10  309.77   39.40
   1  -1 -10  351.46   43.40
   1  -1 -10  258.07   43.90
   1  -1 -10  419.16   82.19
   0  -1 -10   61.59   30.00
   0  -1 -10   -3.90   16.90
   0  -1 -10   -1.60   23.10
   0  -1 -10    5.00   24.20
   0  -1 -10  -50.39   70.19
  -1  -1 -10   35.10   17.10
  -1  -1 -10   50.29   44.40
  -1  -1 -10   52.39   24.30
  -1  -1 -10   38.10   22.20
   1   1  10   19.10   89.09
   1   1  10   57.99   16.50
  -2  -1 -10  286.27   35.80
  -2  -1 -10  355.46   41.20
  -2  -1 -10  325.27   31.50
  -2  -1 -10  268.67   34.70
  -2  -1 -10  364.76   40.50
   2   1  10  305.17   29.60
  -3  -1 -10   87.29   24.10
  -3  -1 -10  136.89   23.70
  -3  -1 -10  298.27   89.79
  -3  -1 -10  146.69   24.80
   3   1  10  127.39   17.90
   3   1  10  -53.89  130.59
  -4  -1 -10   -6.00   15.00
  -4  -1 -10  -12.80    8.80
  -4  -1 -10   23.50   17.00
   4   1  10    6.10   14.80
   4   1  10   31.80   19.30
   4   1  10   14.90   22.20
  -5  -1 -10   23.40    7.90
  -5  -1 -10   38.60   12.50
  -5  -1 -10   35.30   17.40
   5   1  10   46.50   14.00
   4  -2 -10    8.10   13.10
   4  -2 -10   21.50    9.20
   2  -2 -10   79.99   27.10
   2  -2 -10   63.19   22.00
   2  -2 -10   33.60   31.50
   2  -2 -10   -2.80   32.80
   1  -2 -10   66.79   29.80
   1  -2 -10  150.18   32.40
   1  -2 -10   92.69   28.40
   1  -2 -10  128.89   29.40
   0  -2 -10   28.80   33.30
   0  -2 -10   22.90   53.29
   0  -2 -10  -14.40   25.70
   0  -2 -10   33.80   22.40
   0   2  10  -99.09   69.49
  -1  -2 -10  905.01   77.89
  -1  -2 -10  915.91   78.29
  -1  -2 -10  752.02   95.19
  -1  -2 -10  855.81   77.59
   1   2  10  824.62   77.09
   1   2  10  831.72   71.19
  -2  -2 -10  206.98   34.00
  -2  -2 -10  204.28   29.80
  -2  -2 -10  168.68   26.50
  -2  -2 -10  253.67   33.30
  -2  -2 -10  176.38   22.20
   2   2  10  249.58   72.99
   2   2  10  176.78   21.00
  -3  -2 -10  170.48   75.49
  -3  -2 -10   87.09   27.70
  -4  -2 -10   18.10   13.80
  -4  -2 -10  -21.90   29.10
  -4  -2 -10   18.10   11.00
  -4  -2 -10  -10.30   19.00
   4   2  10   49.80   16.20
   4   2  10   36.40   20.30
   4   2  10   19.20   21.50
   4   2  10  -45.90   96.19
  -5  -2 -10    7.10    6.60
   5   2  10  -22.10   14.80
   3  -3 -10  -14.30   18.50
  -3   3  10    8.30   26.50
   2  -3 -10    0.00   24.10
   2  -3 -10   -7.70   20.30
   2  -3 -10    8.40   24.50
  -2   3  10   36.50   19.40
   1  -3 -10   94.09   26.50
   1  -3 -10   58.89   30.30
   1  -3 -10  123.89   38.70
   1  -3 -10   41.70   24.70
  -1   3  10   57.99   16.70
   0  -3 -10  -18.10   58.49
   0  -3 -10    1.60   25.50
   0  -3 -10    0.30   44.50
   0  -3 -10    7.40   22.60
   0  -3 -10   12.00   24.50
   0   3  10   -7.90   15.40
   0   3  10  -54.29   59.69
  -1  -3 -10  901.11   86.69
  -1  -3 -10 1036.90   85.49
  -1  -3 -10  761.02  103.79
  -1  -3 -10 1005.40   88.19
   1   3  10  919.51   78.09
  -2  -3 -10  175.28   20.30
  -2  -3 -10  190.58   29.10
  -2  -3 -10  201.98   30.80
   2   3  10  251.87   70.39
   2   3  10  154.98   20.80
  -3  -3 -10   75.99   80.49
  -3  -3 -10   45.30   22.80
  -3  -3 -10   96.79   25.60
  -3  -3 -10   84.49   20.30
  -3  -3 -10   77.59   13.80
   3   3  10  102.59   24.10
   3   3  10   92.99   15.10
  -4  -3 -10   17.50   13.90
  -4  -3 -10   24.80   21.10
  -4  -3 -10   16.50    7.30
   4   3  10   63.99   27.40
   4   3  10  105.19   98.79
   4   3  10   13.10   15.10
  -5  -3 -10    0.60    6.50
   5   3  10   -2.20   11.10
   3  -4 -10   53.19   23.20
   3  -4 -10   25.20   15.60
  -3   4  10   37.40   25.20
   2  -4 -10   13.80   20.70
   2  -4 -10   25.20   23.40
   2  -4 -10    3.50   26.90
  -2   4  10    5.30   24.70
   1  -4 -10   63.19   23.70
   1  -4 -10   23.00   24.00
   1  -4 -10   53.69   24.50
  -1   4  10   62.59   15.40
   0  -4 -10  209.48   39.90
   0  -4 -10  214.58   33.20
   0   4  10  165.08   66.99
   0   4  10  210.38   26.10
  -1  -4 -10   24.30   24.10
  -1  -4 -10    7.50   28.30
  -1  -4 -10   29.30   21.00
   1   4  10   69.49   61.79
  -2  -4 -10  183.68   29.40
   2   4  10   86.29   70.39
   2   4  10  195.28   21.40
  -3  -4 -10  199.88   23.90
  -3  -4 -10   65.09   89.49
  -3  -4 -10  231.18   44.50
   3   4  10  313.67  108.79
   3   4  10  218.38   24.00
  -4  -4 -10   -2.10    8.50
   4   4  10   12.00   17.20
   4   4  10   -2.80   16.20
   4   4  10   36.20   13.50
   3  -5 -10   -8.30   15.10
   3  -5 -10   40.90   15.90
   3  -5 -10   21.30   13.00
  -3   5  10   13.00   19.30
   2  -5 -10  -16.20   39.10
  -2   5  10   19.00   16.70
   1  -5 -10   -1.40   20.30
   1  -5 -10   14.60   22.50
   1  -5 -10  -16.50   25.40
  -1   5  10    6.30   13.10
   0  -5 -10   81.99   28.20
   0  -5 -10  110.59   24.20
   0  -5 -10  128.99   25.70
   0  -5 -10  171.78  110.49
   0  -5 -10  128.89   25.00
   0   5  10  144.59   18.60
  -2  -5 -10  599.74   46.80
  -2  -5 -10  457.35   54.59
  -2  -5 -10  541.75   50.39
   2   5  10  358.66   85.59
   2   5  10  522.75   45.70
  -3  -5 -10  265.07  106.59
   3   5  10  166.18   22.00
   3   5  10  142.29   98.29
   3   5  10  173.88   27.40
  -4  -5 -10   17.20    7.00
   4   5  10   32.20   15.70
   4   5  10  -10.70   21.70
   4   5  10   18.50   27.90
   3  -6 -10   62.29   22.40
   3  -6 -10   61.59   16.60
   3  -6 -10   65.89   22.20
   3  -6 -10   98.29   20.10
  -3   6  10  114.59   25.20
  -3   6  10  112.09   31.20
   2  -6 -10   34.40   36.50
   2  -6 -10    7.10   25.30
  -2   6  10   37.80   23.60
   1  -6 -10   95.59   25.00
   1  -6 -10  132.39   25.50
   1  -6 -10  146.89   28.00
   1  -6 -10   92.19   38.60
  -1   6  10  114.69   19.20
  -1   6  10  182.88   32.40
   0  -6 -10  140.09  113.89
   0  -6 -10  242.58   38.50
   0  -6 -10  198.58   29.80
   0  -6 -10  198.48   33.20
   0   6  10  145.29  122.09
   0   6  10  180.78   22.00
  -1  -6 -10  226.58   36.30
  -1  -6 -10  248.78   34.60
  -1  -6 -10  339.97   84.69
  -1  -6 -10  302.67   34.50
   1   6  10  317.57   28.50
  -2  -6 -10   72.09   84.99
  -2  -6 -10   57.29   32.70
  -2  -6 -10   62.69   19.10
  -2  -6 -10   80.89   14.10
   2   6  10   79.69   15.70
   2   6  10 -114.19  160.38
   2   6  10   46.50   16.80
  -3  -6 -10   22.20   14.80
  -3  -6 -10   68.19   25.40
   3   6  10   14.90   16.80
   3   6  10   39.90   21.60
   3   6  10   88.59  100.49
  -4  -6 -10   25.20    7.40
   4   6  10   46.70   10.10
   2  -7 -10   40.60   24.90
   2  -7 -10   55.89   17.00
   2  -7 -10   51.19   17.50
  -2   7  10   90.19   19.00
  -2   7  10   62.69   19.40
   1  -7 -10  -12.90   19.90
  -1   7  10    2.60   15.70
  -1   7  10   12.30   21.90
   0  -7 -10    5.30   21.40
   0  -7 -10   24.20   20.80
   0  -7 -10  -17.30   22.70
   0  -7 -10   17.00   22.10
   0   7  10   -2.60   17.30
   0   7  10   40.90   14.20
   0   7  10   31.60   71.49
  -1  -7 -10   13.90   17.00
  -1  -7 -10   11.60   20.00
   1   7  10   31.40   18.20
   1   7  10    6.50   68.49
   1   7  10    6.80   14.80
  -2  -7 -10   -4.20   21.60
  -2  -7 -10   24.60   19.50
   2   7  10   11.00   12.70
  -3  -7 -10  127.49   26.80
   3   7  10  123.39   20.60
   3   7  10  114.69   19.80
   3   7  10  127.09   95.19
  -4  -7 -10   48.20   12.90
   4   7  10   80.69   16.70
   2  -8 -10   87.79   49.30
   2  -8 -10   10.70   14.30
   2  -8 -10   46.10   20.20
  -2   8  10   -6.70   21.20
   1  -8 -10  -22.20   16.00
   1  -8 -10    9.50   18.10
   1  -8 -10   12.70   15.80
   1  -8 -10  -13.30   11.50
  -1   8  10   -4.70   23.40
  -1   8  10   72.99   84.69
  -1   8  10   10.10   31.80
   0  -8 -10  -47.60   31.00
   0  -8 -10   29.60   14.70
   0  -8 -10   12.40   25.90
   0  -8 -10   38.30   20.00
   0  -8 -10   11.20   12.70
   0   8  10   25.90   20.20
   0   8  10   35.80   13.80
   0   8  10  -32.20   92.29
  -1  -8 -10   -2.30   13.20
  -1  -8 -10   12.30   11.40
  -1  -8 -10   50.09   31.10
   1   8  10   23.50   16.10
   1   8  10  -32.50   91.09
   1   8  10   30.90   13.50
   1   8  10   55.79   28.00
  -2  -8 -10   21.50    9.90
  -2  -8 -10   10.60    9.90
  -2  -8 -10   57.99   15.60
   2   8  10  114.49   87.39
   2   8  10   13.10   16.60
   2   8  10    3.60   19.30
  -3  -8 -10  -14.70   11.20
  -3  -8 -10   -0.30    7.20
   3   8  10  -12.00   13.80
   1  -9 -10  -12.40    9.90
   1  -9 -10  -19.40   13.50
   1  -9 -10    1.40   14.70
  -1   9  10   -5.50   25.40
  -1   9  10   -1.00   21.90
  -1   9  10   -3.70   17.00
   0  -9 -10   33.50   11.20
   0  -9 -10   37.60   14.70
   0  -9 -10    4.30   18.00
   0  -9 -10   21.80   22.50
   0   9  10   55.89   15.20
   0   9  10   43.40   14.70
  -1  -9 -10   20.70    9.50
  -1  -9 -10   43.40   15.50
  -1  -9 -10   22.10   15.10
  -1  -9 -10   17.20   11.00
   1   9  10   77.59   38.50
   1   9  10   21.10   19.80
   1   9  10   35.50   16.70
  -2  -9 -10   27.20    8.10
  -2  -9 -10   34.30   12.10
  -2  -9 -10   36.80   12.30
   2   9  10   63.29   15.30
   2   9  10   62.89   23.50
   2   9  10   20.50   18.50
  -3  -9 -10    1.20    6.50
  -3  -9 -10    9.30   10.40
   3   9  10  -16.40   18.70
   0 -10 -10   24.30    9.50
   0 -10 -10   17.40   10.20
   0  10  10   77.39   24.20
  -1 -10 -10   34.40   10.40
  -1 -10 -10   66.09   26.00
  -1 -10 -10   29.40    9.10
  -1 -10 -10    7.10   10.30
  -2 -10 -10   56.99    8.00
  -2 -10 -10   40.10   14.00
  -2 -10 -10   22.60   15.30
   2  10  10   37.10   24.80
   2  10  10  129.69   37.50
   1   7 -11   18.70   10.70
   1   7 -11    3.40   12.30
   0   7 -11   71.49   14.60
  -1   7 -11   12.60   10.70
   1  -7  11   21.90   22.70
  -2   7 -11   28.50   13.10
   2  -7  11   26.30   19.30
   2  -7  11   65.29   29.10
   2   6 -11   29.40   29.80
   2   6 -11   50.89   24.40
   2   6 -11   10.40   12.00
   1   6 -11   37.40   14.80
   1   6 -11   19.60   11.90
   0   6 -11  -12.10   10.30
   0   6 -11   -1.60   13.70
   0  -6  11   43.20   31.90
  -1   6 -11   81.59   16.70
  -1   6 -11   44.20   15.70
   1  -6  11   55.49   16.80
  -2   6 -11   47.20   24.00
  -2   6 -11   33.60   11.90
   2  -6  11    7.10   15.20
   2  -6  11   55.69   21.70
  -3   6 -11  108.29   34.50
   3  -6  11  102.79   22.30
   2   5 -11   12.20   12.50
   2   5 -11   29.70   17.70
   2   5 -11   22.10   22.40
   1   5 -11   19.20   34.50
   1   5 -11    9.10   11.70
   1   5 -11   -1.80   13.80
   0   5 -11   19.00   16.20
   0  -5  11   21.70   28.70
  -1   5 -11   15.70   33.30
  -1   5 -11   16.40   21.20
  -1   5 -11   32.80   12.30
  -2   5 -11   87.99   25.50
  -2   5 -11   78.19   16.90
   2  -5  11   70.49   27.00
  -3   5 -11  -16.30   15.00
  -3   5 -11   10.00   21.70
   3  -5  11   -6.30   15.20
   3  -5  11    1.50   28.40
   2   4 -11   48.70   14.50
   2   4 -11   69.19   23.30
   2   4 -11   43.50   22.80
   1   4 -11   -6.30   16.10
   1   4 -11  -11.00   12.10
   1   4 -11   43.20   32.70
   0   4 -11  153.08   33.20
   0   4 -11  125.79   48.30
   1  -4  11  -18.70   96.89
  -2   4 -11    1.70   20.20
   2  -4  11  -95.99   73.49
   2  -4  11   11.20   18.90
   2  -4  11   30.10   17.70
  -3   4 -11   44.90   18.20
  -3   4 -11   31.60   16.20
  -3   4 -11   27.70   13.30
   3  -4  11   33.30   14.80
   3  -4  11   36.20   17.00
   3   3 -11   31.60   21.50
   3   3 -11  -11.90   13.50
   3   3 -11  -13.00   18.20
   2   3 -11   10.60   27.00
   2   3 -11   19.70   17.30
   2   3 -11   42.60   24.10
   1   3 -11  175.08   42.10
   0   3 -11   74.79   34.00
   0   3 -11   43.10   14.60
   0   3 -11   49.50   38.30
  -1   3 -11   41.30   25.30
  -1   3 -11   30.90   26.00
   1  -3  11   70.49   22.30
  -2   3 -11    2.90   24.80
  -2   3 -11    9.80   41.80
   2  -3  11    9.70   18.60
   2  -3  11   17.60   14.10
   2  -3  11    0.00  129.49
  -3   3 -11   -2.60   11.40
  -3   3 -11   15.70   17.20
  -3   3 -11   -4.70   16.10
   3  -3  11  -83.59   82.39
   3  -3  11   34.80   20.70
   3  -3  11    5.40   17.40
  -4   3 -11   18.70   13.20
   4  -3  11   -4.00   24.90
   4  -3  11   21.10   16.70
   3   2 -11   -3.70   18.50
   3   2 -11    1.10   17.50
   3   2 -11   29.90   14.30
   2   2 -11   34.90   40.30
   2   2 -11   42.50   28.40
   2   2 -11   -1.00   18.90
   2   2 -11   10.90   21.30
   1   2 -11  -13.90   40.50
   0   2 -11    4.20   36.90
   0   2 -11    8.30   15.90
   0   2 -11   37.80   34.40
  -1   2 -11    0.20   14.10
  -1   2 -11    4.30   24.30
   1  -2  11  -45.00   26.10
  -2   2 -11  -13.10   14.50
  -2   2 -11   33.50   20.30
   2  -2  11   48.60   28.80
   2  -2  11    1.30   13.40
  -3   2 -11  481.85   40.50
  -3   2 -11  467.65   44.40
   3  -2  11  437.46   44.80
   3  -2  11  341.17   40.00
   3  -2  11  632.24  114.09
  -4   2 -11   38.50   14.70
   4  -2  11   69.59   17.20
   4  -2  11   23.20   19.10
   3   1 -11   29.70   21.30
   3   1 -11   28.20   10.40
   3   1 -11   -1.00   26.60
   2   1 -11  -41.20   39.00
   2   1 -11   42.60   24.90
   2   1 -11   34.90   21.20
   1   1 -11   46.40   32.80
   1   1 -11  -21.90   34.90
   1   1 -11    4.60   28.50
   0   1 -11   10.30   53.29
   0   1 -11   24.80   15.60
   0   1 -11  -15.00   26.40
  -1   1 -11  -30.90   22.40
  -1   1 -11   22.70   18.90
  -1   1 -11  -56.29   36.40
   1  -1  11  -20.90   18.80
   1  -1  11 -147.99  143.79
  -2   1 -11   40.10   19.90
  -2   1 -11   70.29   28.60
  -2   1 -11   35.90   24.40
   2  -1  11  -16.20  158.08
   2  -1  11    7.60   12.80
  -3   1 -11   14.00   22.90
  -3   1 -11   37.80   21.50
   3  -1  11   19.10   14.30
   3  -1  11   22.10   15.10
  -4   1 -11   24.20    8.50
  -4   1 -11   20.50   12.50
  -4   1 -11   15.70   10.40
   4  -1  11   35.40   13.70
   4  -1  11    8.70   19.50
   3   0 -11   39.80   21.20
   3   0 -11   24.20   10.10
   2   0 -11  113.79   36.20
   2   0 -11  113.09   38.80
   1   0 -11  -24.20   27.30
   1   0 -11  -17.80   36.30
   1   0 -11   41.50   23.50
   1   0 -11  -17.70   22.40
   0   0 -11   25.10   35.90
   0   0 -11    0.10   25.60
   0   0 -11    0.80   15.80
  -1   0 -11   22.90   31.70
  -1   0 -11   -1.80   21.40
  -1   0 -11   51.79   62.89
  -1   0 -11    7.00   15.20
   1   0  11   45.10   15.10
  -2   0 -11   23.40   15.00
  -2   0 -11    4.00   27.60
  -2   0 -11   27.20   68.49
  -2   0 -11   33.30   19.20
  -2   0 -11   22.50   16.90
   2   0  11    4.60   12.40
  -3   0 -11  -21.40   24.70
  -3   0 -11   15.60   16.00
   3   0  11   15.10   14.20
  -4   0 -11   19.00   13.40
  -4   0 -11    3.00   19.90
  -4   0 -11   21.20   14.50
   4   0  11  -11.80   15.10
   4   0  11  -17.20   14.60
   3  -1 -11   19.80   22.10
   3  -1 -11   87.59   33.80
   3  -1 -11   47.60   14.60
   2  -1 -11   23.60   25.60
   2  -1 -11    5.10   33.50
   1  -1 -11   85.39   25.80
   1  -1 -11  121.89   29.40
   1  -1 -11  146.39   33.60
   1  -1 -11  113.29   27.60
   0  -1 -11  184.98   33.80
   0  -1 -11  235.38   42.80
   0  -1 -11  170.48   32.30
   0  -1 -11  181.18   40.80
   0   1  11  207.58   31.10
  -1  -1 -11   60.39   21.10
  -1  -1 -11   12.50   15.30
  -1  -1 -11    2.50   60.39
  -1  -1 -11   21.80   23.60
   1   1  11   21.90   13.20
  -2  -1 -11   37.70   23.20
  -2  -1 -11  -25.80   27.90
  -2  -1 -11    3.30   64.89
  -3  -1 -11   44.90   21.50
  -3  -1 -11   43.90   38.20
   3   1  11   31.70   14.70
   3   1  11   79.99   24.90
  -4  -1 -11   18.40   13.80
  -4  -1 -11   33.10   16.80
  -4  -1 -11    0.10   10.10
   4   1  11   17.00   20.00
   4   1  11   -5.00   14.50
   2  -2 -11   53.39   18.50
   1  -2 -11  109.69   31.40
   1  -2 -11   88.39   26.20
   1  -2 -11   57.39   28.30
   1  -2 -11  112.69   35.90
   0  -2 -11  192.98   36.00
   0  -2 -11  131.29   77.99
   0  -2 -11  237.38   32.50
   0  -2 -11  217.38   41.50
   0  -2 -11  207.98   34.10
   0   2  11  278.57   29.60
   0   2  11  171.08  102.09
  -1  -2 -11  -34.20   64.59
  -1  -2 -11   54.39   22.80
  -1  -2 -11   44.60   16.70
  -1  -2 -11   21.10   19.50
   1   2  11  102.89   91.29
   1   2  11    3.10   11.50
  -2  -2 -11  157.38   30.60
  -2  -2 -11   99.39   59.79
  -2  -2 -11  219.08   32.10
   2   2  11  168.78   21.00
  -3  -2 -11  144.49   40.60
   3   2  11  146.89   27.60
  -4  -2 -11    5.60    7.70
  -4  -2 -11   16.80   13.70
  -4  -2 -11   28.70   15.80
   4   2  11    5.60   20.00
   4   2  11   45.50   16.00
   4   2  11  -23.30   18.10
   3  -3 -11   28.10   17.90
   3  -3 -11   63.49   23.50
   2  -3 -11  349.96   44.10
   2  -3 -11  322.77   36.70
   2  -3 -11  395.36   38.70
   1  -3 -11  388.16   40.20
   1  -3 -11  390.36   43.90
   1  -3 -11  328.77   44.10
   0  -3 -11   63.69   24.30
   0  -3 -11   74.89   80.79
   0  -3 -11   32.50   33.50
   0   3  11  -39.50   98.69
  -1  -3 -11   56.49   46.40
  -1  -3 -11   12.00   18.70
  -1  -3 -11   24.10   20.60
  -1  -3 -11   41.00   56.89
   1   3  11   23.00   11.70
   1   3  11  -75.29   92.69
  -2  -3 -11  279.57   33.80
   2   3  11  248.68   27.10
   3   3  11    2.70   12.00
   3   3  11    3.70   17.70
   3   3  11   72.39   70.09
  -4  -3 -11   46.30   15.10
  -4  -3 -11   42.00    7.70
  -4  -3 -11   49.60   19.90
   4   3  11   39.70   17.50
   4   3  11   94.59   27.60
   3  -4 -11   85.09   28.60
   3  -4 -11   85.79   18.90
   3  -4 -11   85.09   21.50
   3  -4 -11   89.39   13.60
   2  -4 -11  132.09   21.90
   2  -4 -11  137.39   25.90
   2  -4 -11  228.88   41.80
   2  -4 -11  155.68   22.60
  -2   4  11  159.88   30.50
   1  -4 -11  152.78   31.00
   1  -4 -11  158.78   31.20
   1  -4 -11  111.49   28.20
  -1   4  11  165.68   32.60
   0   4  11  103.39  124.59
  -2  -4 -11   22.60   79.99
   2   4  11  134.89  120.19
  -3  -4 -11   25.80   11.70
  -3  -4 -11   48.40   15.40
  -3  -4 -11   32.70   20.60
  -3  -4 -11   32.10   16.00
   3   4  11   -4.30  116.89
   3   4  11    3.60   18.10
   3   4  11   67.09   22.60
  -4  -4 -11    5.30    7.50
  -4  -4 -11   16.20   10.30
   4   4  11   60.49   24.10
   4   4  11   18.80   18.20
   3  -5 -11   -8.60   12.90
   3  -5 -11   -4.60   25.40
   3  -5 -11    0.80   17.60
   2  -5 -11  126.29   47.20
   2  -5 -11   47.80   19.00
  -2   5  11    0.70   21.40
   1  -5 -11   11.00   41.20
   0  -5 -11  -31.60   19.70
   0  -5 -11 -112.89  142.29
   0  -5 -11   21.70   25.80
   0  -5 -11   24.50   20.30
   0   5  11   61.69   31.90
   0   5  11   11.70   91.59
   0   5  11   -1.30   13.50
  -2  -5 -11  262.07  154.58
   2   5  11  130.59   28.20
   2   5  11  191.68   78.19
   2   5  11  103.09   18.30
  -3  -5 -11  227.58   25.00
   3   5  11  192.88   24.60
   3   5  11  199.98   33.50
  -4  -5 -11   -7.60    7.50
  -4  -5 -11    7.80    8.90
   4   5  11    3.60   12.10
   2  -6 -11    9.40   16.00
   2  -6 -11   12.60   16.00
  -2   6  11   18.10   23.90
   1  -6 -11   29.90   17.80
   1  -6 -11   42.30   16.20
   1  -6 -11   18.90   17.30
  -1   6  11   19.90   27.70
   0  -6 -11  153.68   46.90
   0   6  11  149.29  100.59
   0   6  11  164.78   22.10
   0   6  11  174.98   28.00
   1   6  11  135.99   23.60
   1   6  11  174.88  104.99
   1   6  11   85.29   19.00
  -2  -6 -11  286.97   31.40
  -2  -6 -11  229.48   31.90
  -2  -6 -11  317.57   43.60
   2   6  11  322.77   28.30
   2   6  11  419.86  100.39
  -3  -6 -11  127.79   17.30
   3   6  11  161.18   20.60
   3   6  11  117.89   20.40
   3   6  11   83.19   23.40
  -4  -6 -11    1.90    7.50
   4   6  11  -20.40   12.00
   2  -7 -11   63.69   18.30
  -2   7  11   83.29   24.80
   1  -7 -11  -13.10   15.50
   1  -7 -11   15.00   11.30
  -1   7  11   47.80   22.80
  -1   7  11    4.00   17.50
   0  -7 -11    4.20   16.80
   0  -7 -11   23.80   19.30
   0  -7 -11   -0.70   12.00
   0  -7 -11    6.10   15.10
   0   7  11   18.30   22.80
   0   7  11   38.30   15.30
  -1  -7 -11   84.59   21.20
  -1  -7 -11   33.70   25.10
   1   7  11   65.99   22.20
  -2  -7 -11   91.79   17.90
  -2  -7 -11  103.29   23.60
  -2  -7 -11   87.09   13.40
  -2  -7 -11  122.89   30.60
   2   7  11   54.99   18.60
  -3  -7 -11   45.80    9.50
  -3  -7 -11   29.50    9.20
   3   7  11   25.20   10.10
   3   7  11    9.50   22.90
   1  -8 -11   21.00   10.20
   1  -8 -11  -20.70   14.50
   1  -8 -11   22.30   14.90
  -1   8  11    9.90   17.40
   0  -8 -11   10.40   15.40
   0  -8 -11   14.10   10.70
   0  -8 -11   -4.10   12.80
   0  -8 -11   32.40   18.50
   0   8  11  -19.40   17.90
   0   8  11   18.70   17.70
  -1  -8 -11   22.00   22.90
  -1  -8 -11   67.09   14.40
  -1  -8 -11   44.40   14.00
  -1  -8 -11   51.69   12.40
   1   8  11   41.80   17.80
  -2  -8 -11   47.90   11.00
  -2  -8 -11   25.50    8.70
  -2  -8 -11   26.90   17.80
   2   8  11   40.00   18.20
   2   8  11   84.19   18.40
   2   8  11   48.80   16.50
  -3  -8 -11   90.99   12.60
   3   8  11  126.59   19.40
   0  -9 -11    5.10   23.10
   0  -9 -11    2.60   11.50
   0  -9 -11   -2.90    9.30
   0   9  11    3.40   16.70
  -1  -9 -11   12.90   11.90
  -1  -9 -11    6.80   12.70
  -1  -9 -11   21.50   10.20
   1   9  11    6.60   19.50
  -2  -9 -11    3.70   10.60
  -2  -9 -11    0.10   15.60
   2   9  11   18.00   21.10
   0   6 -12   -9.80   17.10
  -1   6 -12   25.90   10.40
   1   5 -12   52.59   18.50
   1   5 -12   61.19   14.20
   0   5 -12   34.30   16.00
   0   5 -12   14.20   11.30
  -1   5 -12    1.70   21.80
   1  -5  12   72.79   29.30
  -2   5 -12   32.70   24.50
  -2   5 -12   70.09   15.30
   2  -5  12   68.79   23.20
   2   4 -12   49.70   22.90
   1   4 -12   18.70   15.90
   1   4 -12   35.10   17.90
   0   4 -12   23.40   18.00
   0   4 -12   17.60   11.50
  -1   4 -12   79.49   26.00
  -1   4 -12   73.59   31.90
   1  -4  12   80.89   25.10
  -2   4 -12   90.79   15.40
   2  -4  12   95.59   19.00
  -3   4 -12    4.10   13.70
  -3   4 -12  -12.60   12.40
   3  -4  12    7.60   24.00
   3  -4  12   43.40   17.50
   2   3 -12   29.30   32.70
   1   3 -12   -9.50   16.20
   1   3 -12   39.20   18.60
   0   3 -12   50.89   35.50
   0   3 -12  -10.70   25.30
   0   3 -12   29.70   12.10
  -1   3 -12   52.79   13.00
  -1   3 -12   85.49   23.20
  -2   3 -12  -21.70   16.30
  -2   3 -12    7.20   11.70
   2  -3  12   24.20   32.70
   2  -3  12   30.40   15.90
  -3   3 -12  296.57   29.90
   1   2 -12   22.50   34.40
   0   2 -12   59.49   22.50
   0   2 -12  100.69   34.20
  -1   2 -12   78.59   41.50
  -1   2 -12   81.39   29.00
   1  -2  12  191.58   97.99
  -2   2 -12   -9.10   11.50
   2  -2  12  -64.29   98.99
   2  -2  12   24.40   22.40
   2  -2  12   15.60   23.10
  -3   2 -12   66.49   14.60
  -3   2 -12   42.50   12.10
   3  -2  12   91.69   17.40
   3  -2  12   93.99   26.00
   2   1 -12   81.69   30.60
   1   1 -12   35.00   33.10
   1   1 -12   86.39   24.20
   0   1 -12   18.70   47.10
   1  -1  12   -1.50   16.50
  -2   1 -12  -13.40   16.70
  -2   1 -12   -2.60   14.30
   2  -1  12   13.10   17.80
   2  -1  12   -0.90   30.40
   3  -1  12   32.80   19.30
   3  -1  12   33.80   19.10
   3  -1  12   59.89   25.60
   2   0 -12   97.79   19.80
   2   0 -12   64.99   22.80
   2   0 -12  120.19   34.30
   1   0 -12  192.98   30.30
   1   0 -12  222.28   34.20
   1   0 -12  204.98   31.30
   1   0 -12  180.18   32.30
   0   0 -12   43.30   28.40
   0   0 -12   -7.90   30.40
  -1   0 -12   10.90   20.20
  -1   0 -12   13.20   21.90
   1   0  12   25.50   24.60
  -2   0 -12   48.80   23.80
  -2   0 -12   56.19   35.80
   2   0  12    1.10   14.40
   2   0  12   11.50   29.30
   3   0  12   32.00   22.60
   3   0  12   23.40   29.00
  -4   0 -12    8.40   11.80
  -4   0 -12  -22.30   24.70
   2  -1 -12  200.38   36.70
   2  -1 -12  211.78   23.90
   1  -1 -12  175.88   35.70
   1  -1 -12  158.88   32.10
   1  -1 -12  145.69   36.80
   0  -1 -12   49.00   25.70
  -1  -1 -12   24.80   20.50
  -1  -1 -12   40.10   23.70
  -1  -1 -12  -50.19  132.69
   1   1  12   25.20   19.20
   2   1  12   44.70   14.10
   2   1  12   26.30   20.00
  -4  -1 -12  110.79   18.20
   2  -2 -12   23.30   15.80
   2  -2 -12   13.10   21.00
   2  -2 -12   63.79   21.40
   1  -2 -12  -15.80   22.40
   1  -2 -12    1.20   25.50
   1  -2 -12   34.60   42.30
   0  -2 -12  379.96   45.40
   0   2  12  416.16   46.50
  -1  -2 -12  299.37   52.79
  -1  -2 -12  369.06   53.39
  -1  -2 -12  136.29  132.19
   1   2  12  323.67   33.90
   1   2  12  362.16   44.10
   2   2  12   99.39   17.90
  -4  -2 -12   87.29   17.80
  -4  -2 -12   52.89   13.60
   4   2  12  112.39   27.00
   2  -3 -12   53.49   16.00
   2  -3 -12   76.19   16.60
   2  -3 -12   35.10   13.90
   1  -3 -12  282.87   31.60
   1  -3 -12  261.37   29.10
   1  -3 -12  297.87   32.80
   0   3  12  396.16  165.78
  -1  -3 -12  104.89   39.50
   1   3  12  118.09   17.70
   1   3  12  233.48  176.18
  -4  -3 -12   53.19   11.70
   4   3  12   61.79   19.50
   2  -4 -12   37.10   14.60
   2  -4 -12    5.80   15.30
   1  -4 -12   13.60   14.10
   1  -4 -12  -26.40   24.90
   1  -4 -12   13.70   17.50
  -1   4  12   -9.10   26.30
   2  -5 -12   68.19   15.80
   2  -5 -12   67.29   17.20
   1  -5 -12   40.80   17.00
   1  -5 -12   16.70   16.00
   1  -5 -12    2.50   18.10
  -1   5  12   30.50   22.60
   0  -5 -12  117.89   21.80
   0  -5 -12  125.99   24.90
   0  -5 -12  138.79   22.90
  -3  -5 -12   37.20   18.60
  -3  -5 -12   16.90   15.70
   3   5  12   20.70   15.40
   1  -6 -12   26.10   15.10
   1  -6 -12   23.70   15.50
   1  -6 -12   13.90   15.60
  -1   6  12  -29.40   26.00
   0  -6 -12   25.50   17.70
   0  -6 -12   22.60   14.80
   0  -6 -12   38.40   18.20
   0   6  12   63.79   21.90
   0   6  12   60.59   16.70
  -1  -6 -12   64.09   23.00
  -1  -6 -12   27.50   15.40
  -1  -6 -12   30.30   19.70
   1   6  12   32.70   16.00
  -2  -6 -12   10.40   15.30
  -2  -6 -12   11.90   13.30
   2   6  12    9.70   14.60
   2   6  12  -18.60   16.50
  -3  -6 -12   32.20   19.60
   3   6  12   20.10   12.90
   1  -7 -12   15.20   14.10
   1  -7 -12   -8.00   13.10
   1  -7 -12   -1.30   15.50
  -1   7  12    6.60   27.30
   0  -7 -12   -7.20   16.30
   0  -7 -12   27.20   14.30
   0  -7 -12  -11.60   15.30
   0   7  12   22.20   18.30
  -1  -7 -12   39.90   14.40
  -1  -7 -12   60.59   13.60
  -1  -7 -12   13.90   17.60
   1   7  12   25.80   18.70
   1   7  12   39.40   17.30
  -2  -7 -12   36.20   30.20
  -2  -7 -12   11.30   11.90
   2   7  12  -37.70   22.70
   2   7  12   -0.30   15.30
   0  -8 -12    6.80    9.30
   0  -8 -12   -1.70   13.50
   0  -8 -12   -9.80   13.60
  -1  -8 -12    3.10   15.00
  -1  -8 -12  -11.30    8.50
   0   4 -13   21.90   11.10
  -1   4 -13   49.70   32.40
  -1   4 -13   28.30   10.90
   1   3 -13    9.60   23.30
   0   3 -13   78.49   42.30
  -1   3 -13    4.90   12.50
  -2   3 -13   94.89   20.40
  -2   3 -13   79.09   16.40
   2  -3  13  117.69   31.50
   1   2 -13   28.50   22.30
   0   2 -13   20.90   22.30
   0   2 -13    8.60   14.80
  -1   2 -13   -3.10   18.80
  -1   2 -13  -16.50   10.90
  -2   2 -13    5.00   12.30
   2  -2  13   49.20   24.80
   2  -2  13   29.30   19.30
   1   1 -13   -6.60   29.30
   1   1 -13  -34.50   21.80
   0   1 -13   14.30   20.60
   0   1 -13   15.40   12.30
  -1   1 -13   -4.90   17.50
  -1   1 -13   13.00   11.00
   1  -1  13   32.70   36.60
   2  -1  13   19.70   18.80
   1   0 -13  126.39   27.40
   1   0 -13  158.88   32.00
   0   0 -13   55.09   23.00
   0   0 -13   24.50   13.60
   0   0 -13   48.70   14.50
  -1   0 -13   49.30   23.50
  -1   0 -13   42.70   14.10
   1   0  13   31.80   26.10
   1  -1 -13  213.88   26.30
   1  -1 -13  279.37   31.20
   0  -1 -13   74.49   21.20
   1  -2 -13  385.26   39.60
   1  -2 -13  390.76   39.70
   1  -3 -13   12.30   16.50
   1  -3 -13   25.10   19.20
   1  -3 -13   11.10   17.00
   3   3  13  143.29   37.60
   1  -4 -13   91.99   20.30
   1  -4 -13   60.69   18.90
   1  -4 -13  107.19   19.50
   0  -4 -13  127.99   19.70
   0  -4 -13  130.69   18.50
   0   4  13  173.78   28.90
   1  -5 -13  194.28   25.40
   1  -5 -13  187.88   24.40
   0  -5 -13   13.40   22.10
   0  -5 -13   -2.10   13.30
   0  -5 -13   -2.00   15.60
   0   5  13  -25.00   23.60
  -1  -5 -13   31.90   13.90
  -1  -5 -13   44.60   12.30
   1   5  13   44.50   22.90
  -2  -5 -13   20.50   12.50
   2   5  13   -0.50   15.30
   0  -6 -13   15.00   11.10
   0  -6 -13   20.00   15.70
   0  -6 -13   21.00   22.60
   0   6  13   63.39   29.00
  -1  -6 -13   42.60   13.40
  -1  -6 -13   68.99   15.50
   1   6  13  107.79   26.20

_computing_structure_solution     'SHELXT 2014/4 (Sheldrick, 2014)'
;
_shelx_hkl_checksum              93971
loop_
_space_group_symop_operation_xyz
'x, y, z'
'-x, -y, -z'
loop_
_atom_site_type_symbol
_atom_site_label
_atom_site_fract_x
_atom_site_fract_y
_atom_site_fract_z
_atom_site_U_iso_or_equiv
_atom_site_adp_type
_atom_site_calc_flag
_atom_site_refinement_flags_adp
_atom_site_refinement_flags_posn
_atom_site_occupancy
S S1 0.8464(2) 0.38249(11) 0.19227(12) 0.0241(4) Uani d . . 1
F F1 0.7034(6) 0.4308(3) 0.0917(3) 0.0333(8) Uani d . . 1
F F2 0.6022(6) 0.3351(3) 0.2564(3) 0.0371(9) Uani d . . 1
F F3 0.9872(6) 0.3234(3) 0.2889(3) 0.0387(9) Uani d . . 1
F F4 1.0908(5) 0.4195(3) 0.1235(3) 0.0353(8) Uani d . . 1
F F5 0.8777(5) 0.2648(2) 0.1349(3) 0.0311(8) Uani d . . 1
O O1 0.9979(6) 0.6623(3) 0.1261(3) 0.0250(9) Uani d . . 1
O O2 0.5908(6) 0.6580(3) 0.1504(3) 0.0223(8) Uani d . . 1
O O3 1.2173(6) 0.5346(4) 0.3033(4) 0.0302(10) Uani d . . 1
H H1 1.257(16) 0.571(8) 0.246(8) 0.09(3) Uiso d . . 1
C C1 0.8133(8) 0.6217(4) 0.1677(4) 0.0184(11) Uani d . . 1
C C2 0.8010(9) 0.5204(4) 0.2579(4) 0.0218(11) Uani d . . 1
H H2 0.6332 0.521 0.2972 0.026 Uiso calc U R 1
C C3 0.9709(8) 0.5400(4) 0.3456(5) 0.0239(12) Uani d . . 1
H H3 0.944 0.4772 0.4067 0.029 Uiso calc U R 1
C C4 0.5701(10) 0.7549(4) 0.0649(5) 0.0257(12) Uani d . . 1
H H4A 0.4531 0.7365 0.0139 0.031 Uiso calc U R 1
H H4B 0.7285 0.7669 0.0201 0.031 Uiso calc U R 1
C C11 0.8947(9) 0.6540(4) 0.3967(5) 0.0230(12) Uani d . . 1
C C12 1.0520(10) 0.7450(5) 0.3804(5) 0.0291(13) Uani d . . 1
H H12 1.206 0.7369 0.3388 0.035 Uiso calc U R 1
C C13 0.9801(11) 0.8487(5) 0.4261(5) 0.0377(15) Uani d . . 1
H H13 1.0855 0.9115 0.4151 0.045 Uiso calc U R 1
C C14 0.7589(11) 0.8597(5) 0.4865(5) 0.0350(14) Uani d . . 1
H H14 0.7117 0.9301 0.5175 0.042 Uiso calc U R 1
C C15 0.6039(10) 0.7694(5) 0.5027(5) 0.0310(13) Uani d . . 1
H H15 0.4508 0.7772 0.5451 0.037 Uiso calc U R 1
C C16 0.6728(10) 0.6670(5) 0.4566(5) 0.0291(13) Uani d . . 1
H H16 0.5649 0.6052 0.4667 0.035 Uiso calc U R 1
C C21 0.4882(8) 0.8625(4) 0.1192(5) 0.0222(11) Uani d . . 1
C C22 0.2768(9) 0.9192(4) 0.0935(5) 0.0262(12) Uani d . . 1
H H22 0.1797 0.8875 0.0449 0.031 Uiso calc U R 1
C C23 0.2066(10) 1.0221(5) 0.1386(5) 0.0308(13) Uani d . . 1
H H23 0.0622 1.0607 0.1201 0.037 Uiso calc U R 1
C C24 0.3443(9) 1.0688(5) 0.2100(5) 0.0301(13) Uani d . . 1
H H24 0.2964 1.1397 0.2399 0.036 Uiso calc U R 1
C C25 0.5541(10) 1.0112(5) 0.2379(5) 0.0303(13) Uani d . . 1
H H25 0.6487 1.0423 0.2879 0.036 Uiso calc U R 1
C C26 0.6252(9) 0.9087(5) 0.1931(5) 0.0263(12) Uani d . . 1
H H26 0.7681 0.8695 0.2127 0.032 Uiso calc U R 1
loop_
_atom_site_aniso_label
_atom_site_aniso_U_11
_atom_site_aniso_U_22
_atom_site_aniso_U_33
_atom_site_aniso_U_12
_atom_site_aniso_U_13
_atom_site_aniso_U_23
S1 0.0221(6) 0.0245(7) 0.0257(8) -0.0025(5) -0.0013(5) -0.0031(5)
F1 0.0404(18) 0.0279(16) 0.035(2) -0.0007(14) -0.0152(15) -0.0061(14)
F2 0.0324(17) 0.0290(17) 0.048(2) -0.0117(14) 0.0103(16) -0.0065(15)
F3 0.052(2) 0.0293(17) 0.038(2) 0.0093(15) -0.0185(17) -0.0045(15)
F4 0.0260(16) 0.0354(18) 0.042(2) -0.0042(13) 0.0113(15) -0.0105(15)
F5 0.0391(18) 0.0231(16) 0.032(2) 0.0013(13) -0.0011(15) -0.0106(14)
O1 0.0173(18) 0.033(2) 0.025(2) -0.0084(15) 0.0011(15) -0.0035(16)
O2 0.0193(17) 0.0221(18) 0.026(2) -0.0021(14) -0.0045(15) -0.0003(15)
O3 0.0166(18) 0.038(2) 0.035(3) -0.0031(16) -0.0005(17) -0.003(2)
C1 0.017(2) 0.026(3) 0.013(3) -0.003(2) -0.005(2) 0.000(2)
C2 0.019(2) 0.028(3) 0.019(3) -0.002(2) -0.003(2) -0.003(2)
C3 0.016(2) 0.029(3) 0.027(3) -0.003(2) -0.002(2) -0.001(2)
C4 0.030(3) 0.021(3) 0.026(3) 0.000(2) -0.007(2) 0.003(2)
C11 0.020(3) 0.026(3) 0.024(3) -0.005(2) -0.006(2) -0.001(2)
C12 0.024(3) 0.033(3) 0.030(3) -0.009(2) -0.005(2) 0.000(3)
C13 0.038(3) 0.038(3) 0.039(4) -0.017(3) -0.008(3) -0.006(3)
C14 0.044(4) 0.033(3) 0.029(4) -0.004(3) -0.007(3) -0.009(3)
C15 0.031(3) 0.041(3) 0.022(3) -0.002(2) -0.003(2) -0.003(3)
C16 0.030(3) 0.034(3) 0.023(3) -0.013(2) 0.003(2) -0.002(2)
C21 0.015(2) 0.026(3) 0.025(3) -0.006(2) 0.004(2) -0.004(2)
C22 0.022(3) 0.028(3) 0.031(3) -0.005(2) -0.009(2) -0.003(2)
C23 0.026(3) 0.029(3) 0.036(4) -0.003(2) -0.001(3) 0.000(3)
C24 0.026(3) 0.025(3) 0.038(4) -0.003(2) 0.004(3) -0.007(2)
C25 0.029(3) 0.031(3) 0.033(4) -0.007(2) -0.005(3) -0.010(3)
C26 0.019(3) 0.029(3) 0.032(3) 0.001(2) -0.005(2) -0.006(2)
loop_
_atom_type_symbol
_atom_type_description
_atom_type_scat_dispersion_real
_atom_type_scat_dispersion_imag
_atom_type_scat_source
C C 0.0181 0.0091 'International Tables Vol C Tables 4.2.6.8 and 6.1.1.4'
H H 0.0000 0.0000 'International Tables Vol C Tables 4.2.6.8 and 6.1.1.4'
O O 0.0492 0.0322 'International Tables Vol C Tables 4.2.6.8 and 6.1.1.4'
F F 0.0727 0.0534 'International Tables Vol C Tables 4.2.6.8 and 6.1.1.4'
S S 0.3331 0.5567 'International Tables Vol C Tables 4.2.6.8 and 6.1.1.4'
loop_
_geom_angle_atom_site_label_1
_geom_angle_atom_site_label_2
_geom_angle_atom_site_label_3
_geom_angle
F4 S1 F3 90.5(2)
F4 S1 F2 175.03(19)
F3 S1 F2 89.5(2)
F4 S1 F1 90.4(2)
F3 S1 F1 174.93(18)
F2 S1 F1 89.23(19)
F4 S1 F5 87.82(17)
F3 S1 F5 87.71(17)
F2 S1 F5 87.22(17)
F1 S1 F5 87.34(17)
F4 S1 C2 93.2(2)
F3 S1 C2 93.6(2)
F2 S1 C2 91.8(2)
F1 S1 C2 91.3(2)
F5 S1 C2 178.3(2)
C1 O2 C4 116.6(4)
C3 O3 H1 117.(7)
O1 C1 O2 127.2(5)
O1 C1 C2 123.1(4)
O2 C1 C2 109.7(4)
C3 C2 C1 109.8(4)
C3 C2 S1 115.8(3)
C1 C2 S1 110.4(3)
C3 C2 H2 106.8
C1 C2 H2 106.8
S1 C2 H2 106.8
O3 C3 C2 113.2(4)
O3 C3 C11 113.0(4)
C2 C3 C11 108.4(4)
O3 C3 H3 107.3
C2 C3 H3 107.3
C11 C3 H3 107.3
O2 C4 C21 110.5(4)
O2 C4 H4A 109.6
C21 C4 H4A 109.6
O2 C4 H4B 109.6
C21 C4 H4B 109.6
H4A C4 H4B 108.1
C16 C11 C12 119.8(5)
C16 C11 C3 120.6(4)
C12 C11 C3 119.5(5)
C11 C12 C13 119.1(5)
C11 C12 H12 120.4
C13 C12 H12 120.4
C14 C13 C12 120.2(5)
C14 C13 H13 119.9
C12 C13 H13 119.9
C13 C14 C15 120.5(6)
C13 C14 H14 119.8
C15 C14 H14 119.8
C14 C15 C16 119.6(5)
C14 C15 H15 120.2
C16 C15 H15 120.2
C11 C16 C15 120.8(5)
C11 C16 H16 119.6
C15 C16 H16 119.6
C22 C21 C26 119.1(5)
C22 C21 C4 119.8(5)
C26 C21 C4 121.0(5)
C21 C22 C23 120.2(5)
C21 C22 H22 119.9
C23 C22 H22 119.9
C24 C23 C22 120.7(5)
C24 C23 H23 119.7
C22 C23 H23 119.7
C23 C24 C25 119.4(5)
C23 C24 H24 120.3
C25 C24 H24 120.3
C26 C25 C24 120.2(5)
C26 C25 H25 119.9
C24 C25 H25 119.9
C25 C26 C21 120.4(5)
C25 C26 H26 119.8
C21 C26 H26 119.8
loop_
_geom_bond_atom_site_label_1
_geom_bond_atom_site_label_2
_geom_bond_distance
S1 F4 1.568(3)
S1 F3 1.582(3)
S1 F2 1.583(3)
S1 F1 1.586(3)
S1 F5 1.589(3)
S1 C2 1.854(5)
O1 C1 1.190(6)
O2 C1 1.332(6)
O2 C4 1.480(6)
O3 C3 1.411(6)
O3 H1 0.80(9)
C1 C2 1.541(7)
C2 C3 1.539(7)
C2 H2 1.0
C3 C11 1.543(7)
C3 H3 1.0
C4 C21 1.501(7)
C4 H4A 0.99
C4 H4B 0.99
C11 C16 1.371(7)
C11 C12 1.392(7)
C12 C13 1.402(8)
C12 H12 0.95
C13 C14 1.367(9)
C13 H13 0.95
C14 C15 1.378(8)
C14 H14 0.95
C15 C16 1.386(8)
C15 H15 0.95
C16 H16 0.95
C21 C22 1.387(7)
C21 C26 1.396(7)
C22 C23 1.389(7)
C22 H22 0.95
C23 C24 1.379(8)
C23 H23 0.95
C24 C25 1.392(8)
C24 H24 0.95
C25 C26 1.384(7)
C25 H25 0.95
C26 H26 0.95
loop_
_geom_hbond_atom_site_label_D
_geom_hbond_atom_site_label_H
_geom_hbond_atom_site_label_A
_geom_hbond_site_symmetry_A
_geom_hbond_distance_DH
_geom_hbond_distance_HA
_geom_hbond_distance_DA
_geom_hbond_angle_DHA
O3 H1 O2 1_655 0.80(9) 2.30(9) 2.955(6) 140.(8)
C2 H2 O3 1_455 1.0 2.32 3.242(6) 153.7
loop_
_geom_torsion_atom_site_label_1
_geom_torsion_atom_site_label_2
_geom_torsion_atom_site_label_3
_geom_torsion_atom_site_label_4
_geom_torsion
C4 O2 C1 O1 4.3(7)
C4 O2 C1 C2 -179.4(4)
O1 C1 C2 C3 44.9(7)
O2 C1 C2 C3 -131.6(4)
O1 C1 C2 S1 -84.0(5)
O2 C1 C2 S1 99.5(4)
F4 S1 C2 C3 -71.3(4)
F3 S1 C2 C3 19.4(4)
F2 S1 C2 C3 109.0(4)
F1 S1 C2 C3 -161.7(4)
F4 S1 C2 C1 54.3(3)
F3 S1 C2 C1 145.0(3)
F2 S1 C2 C1 -125.4(3)
F1 S1 C2 C1 -36.2(3)
C1 C2 C3 O3 -68.0(5)
S1 C2 C3 O3 57.9(5)
C1 C2 C3 C11 58.2(5)
S1 C2 C3 C11 -175.9(4)
C1 O2 C4 C21 -107.6(5)
O3 C3 C11 C16 -169.9(5)
C2 C3 C11 C16 63.7(7)
O3 C3 C11 C12 11.0(7)
C2 C3 C11 C12 -115.3(5)
C16 C11 C12 C13 0.2(8)
C3 C11 C12 C13 179.3(5)
C11 C12 C13 C14 0.4(9)
C12 C13 C14 C15 -0.3(10)
C13 C14 C15 C16 -0.5(9)
C12 C11 C16 C15 -0.9(9)
C3 C11 C16 C15 180.0(5)
C14 C15 C16 C11 1.0(9)
O2 C4 C21 C22 -121.0(5)
O2 C4 C21 C26 60.8(6)
C26 C21 C22 C23 1.7(8)
C4 C21 C22 C23 -176.5(5)
C21 C22 C23 C24 -0.5(9)
C22 C23 C24 C25 -0.8(9)
C23 C24 C25 C26 0.9(9)
C24 C25 C26 C21 0.3(9)
C22 C21 C26 C25 -1.6(8)
C4 C21 C26 C25 176.6(5)
