#------------------------------------------------------------------------------
#$Date: 2016-02-20 04:42:16 +0200 (Sat, 20 Feb 2016) $
#$Revision: 176773 $
#$URL: svn://www.crystallography.net/cod/cif/1/54/25/1542532.cif $
#------------------------------------------------------------------------------
#
# This file is available in the Crystallography Open Database (COD),
# http://www.crystallography.net/
#
# All data on this site have been placed in the public domain by the
# contributors.
#
data_1542532
loop_
_publ_author_name
'Huang, Haobo'
'Golen, James A.'
'Manke, David R.'
_publ_section_title
;
 4-Bromo-1<i>H</i>-indole-2,3-dione
;
_journal_coeditor_code           VM4004
_journal_issue                   2
_journal_name_full               IUCrData
_journal_page_first              x160007
_journal_paper_doi               10.1107/S2414314616000079
_journal_volume                  1
_journal_year                    2016
_chemical_formula_iupac          'C8 H4 Br N O2'
_chemical_formula_moiety         'C8 H4 Br N O2'
_chemical_formula_sum            'C8 H4 Br N O2'
_chemical_formula_weight         226.03
_chemical_name_systematic        4-Bromo-1<i>H</i>-indole-2,3-dione
_space_group_crystal_system      monoclinic
_space_group_IT_number           14
_space_group_name_Hall           '-P 2ybc'
_space_group_name_H-M_alt        'P 1 21/c 1'
_symmetry_space_group_name_Hall  '-P 2ybc'
_symmetry_space_group_name_H-M   'P 1 21/c 1'
_atom_sites_solution_hydrogens   mixed
_audit_creation_method
;
Olex2 1.2
(compiled 2015.09.30 svn.r3233 for OlexSys, GUI svn.r5103)
;
_cell_angle_alpha                90
_cell_angle_beta                 93.378(5)
_cell_angle_gamma                90
_cell_formula_units_Z            4
_cell_length_a                   7.3655(11)
_cell_length_b                   13.689(2)
_cell_length_c                   7.2866(12)
_cell_measurement_reflns_used    8354
_cell_measurement_temperature    120(2)
_cell_measurement_theta_max      25.64
_cell_measurement_theta_min      2.98
_cell_volume                     733.4(2)
_computing_cell_refinement
;
SAINT (Bruker, 2014)
;
_computing_data_collection
;
APEX2 (Bruker, 2014)
;
_computing_data_reduction
;
SAINT (Bruker, 2014)
;
_computing_molecular_graphics
;
<i>OLEX2</i> (Dolomanov <i>et al.</i>,  2009)
;
_computing_publication_material
;
<i>OLEX2</i> and publCIF (Westrip, 2010)
;
_computing_structure_refinement
;
SHELXL2014 (Sheldrick, 2015)
;
_computing_structure_solution
;
SHELXS97 (Sheldrick, 2008)
;
_diffrn_ambient_temperature      120.15
_diffrn_measured_fraction_theta_full 0.998
_diffrn_measured_fraction_theta_max 0.998
_diffrn_measurement_device_type  'Bruker D8 Venture CMOS'
_diffrn_measurement_method       '\f and \w scans'
_diffrn_radiation_monochromator  TRIUMPH
_diffrn_radiation_type           MoK\a
_diffrn_radiation_wavelength     0.71073
_diffrn_reflns_av_R_equivalents  0.0344
_diffrn_reflns_limit_h_max       8
_diffrn_reflns_limit_h_min       -8
_diffrn_reflns_limit_k_max       16
_diffrn_reflns_limit_k_min       -16
_diffrn_reflns_limit_l_max       8
_diffrn_reflns_limit_l_min       -8
_diffrn_reflns_number            12353
_diffrn_reflns_theta_full        25.250
_diffrn_reflns_theta_max         25.643
_diffrn_reflns_theta_min         2.976
_diffrn_standards_number         0
_exptl_absorpt_coefficient_mu    5.552
_exptl_absorpt_correction_T_max  0.2594
_exptl_absorpt_correction_T_min  0.1736
_exptl_absorpt_correction_type   multi-scan
_exptl_absorpt_process_details
;
(SADABS; Bruker, 2014)
;
_exptl_crystal_colour            orange
_exptl_crystal_density_diffrn    2.047
_exptl_crystal_description       BLOCK
_exptl_crystal_F_000             440
_exptl_crystal_size_max          0.2
_exptl_crystal_size_mid          0.2
_exptl_crystal_size_min          0.1
_refine_diff_density_max         0.462
_refine_diff_density_min         -0.448
_refine_ls_extinction_method     none
_refine_ls_goodness_of_fit_ref   1.080
_refine_ls_hydrogen_treatment    mixed
_refine_ls_matrix_type           full
_refine_ls_number_parameters     112
_refine_ls_number_reflns         1381
_refine_ls_number_restraints     1
_refine_ls_restrained_S_all      1.080
_refine_ls_R_factor_all          0.0209
_refine_ls_R_factor_gt           0.0185
_refine_ls_shift/su_max          0.001
_refine_ls_shift/su_mean         0.000
_refine_ls_structure_factor_coef Fsqd
_refine_ls_weighting_details
'w=1/[\s^2^(Fo^2^)+(0.0276P)^2^+0.4818P] where P=(Fo^2^+2Fc^2^)/3'
_refine_ls_weighting_scheme      calc
_refine_ls_wR_factor_gt          0.0477
_refine_ls_wR_factor_ref         0.0493
_reflns_number_gt                1285
_reflns_number_total             1381
_reflns_threshold_expression     'I > 2\s(I)'
_cod_data_source_file            vm4004sup1.cif
_cod_data_source_block           I
_cod_database_code               1542532
_shelx_space_group_comment
;
The symmetry employed for this shelxl refinement is uniquely defined
by the following loop, which should always be used as a source of
symmetry information in preference to the above space-group names.
They are only intended as comments.
;
_shelx_estimated_absorpt_t_min   0.403
_shelx_estimated_absorpt_t_max   0.607
_shelx_hkl_file
;
   0   0   1   -0.34    0.09
   0   0  -2  360.89   14.03
   0   0  -2  337.36   14.01
   0   0   2  326.54   14.01
   0   0   2  326.31   14.02
   0   0   2  339.77   14.01
   0   0  -2  351.78   14.01
   0   0   3   -0.07    0.14
   0   0   3   -0.14    0.14
   0   0  -3   -0.05    0.13
   0   0   3   -0.29    0.17
   0   0  -3   -0.06    0.13
   0   0  -3   -0.18    0.18
   0   0  -4   73.13    3.19
   0   0   4   72.64    3.22
   0   0  -4   73.85    3.23
   0   0   4   76.97    3.20
   0   0   4   81.17    3.21
   0   0  -4   75.35    3.19
   0   0   5   -0.07    0.23
   0   0   5   -0.22    0.25
   0   0  -5    0.03    0.22
   0   0   5   -0.09    0.33
   0   0  -5    0.22    0.23
   0   0  -5   -0.06    0.28
   0   0   6  140.02    5.91
   0   0   6  149.52    5.97
   0   0  -6  144.18    5.89
   0   0   6  138.22    5.92
   0   0  -6  135.49    5.95
   0   0  -6  134.53    5.88
   0   0  -7   -0.27    0.31
   0   0   7   -0.01    0.37
   0   0   7    0.40    0.51
   0   0   7   -0.01    0.38
   0   0  -7    0.46    0.35
   0   0   8    1.02    0.49
   0   0  -8    1.45    0.44
   0   0  -8    1.27    0.58
   0   0  -8    2.23    0.44
   0   0   8    1.82    0.50
   0   0   8    0.38    0.64
   0   1  -1  148.12    5.82
   0   1  -1  143.36    5.83
   0   1   1  137.14    5.82
   0   1  -1  134.52    5.82
   0   1   1  139.10    5.82
   0  -1   1  144.23    5.82
   0  -1  -1  145.90    5.82
   0  -1   1  134.74    5.82
   0  -1  -1  137.17    5.82
   0  -1  -1  132.34    5.83
   0  -1   1  155.16    5.82
   0   1  -2  231.94    9.04
   0   1   2  216.07    9.03
   0   1  -2  216.18    9.02
   0   1   2  208.07    9.02
   0   1   2  223.96    9.04
   0   1  -2  221.66    9.02
   0  -1   2  211.75    9.04
   0  -1   2  213.98    9.03
   0  -1  -2  217.69    9.02
   0  -1  -2  210.14    9.03
   0  -1  -2  237.34    9.03
   0  -1   2  215.07    9.02
   0   1  -3   25.58    1.09
   0   1   3   24.98    1.10
   0   1  -3   22.83    1.12
   0   1  -3   24.75    1.09
   0   1   3   25.39    1.12
   0   1   3   24.09    1.09
   0  -1  -3   25.34    1.09
   0  -1  -3   23.99    1.12
   0  -1  -3   24.82    1.09
   0  -1   3   22.63    1.09
   0  -1   3   25.01    1.12
   0  -1   3   23.07    1.09
   0   1  -4    9.69    0.57
   0   1  -4    9.80    0.56
   0   1   4    9.60    0.57
   0   1   4   10.83    0.63
   0   1   4    9.69    0.57
   0   1  -4    9.76    0.63
   0  -1  -4    9.26    0.62
   0  -1   4    9.29    0.58
   0  -1  -4   11.05    0.57
   0  -1   4   10.41    0.57
   0  -1  -4    9.43    0.55
   0  -1   4   10.57    0.64
   0   1   5  160.97    6.66
   0   1   5  161.06    6.69
   0   1   5  168.54    6.66
   0   1  -5  169.18    6.70
   0   1  -5  154.28    6.64
   0   1  -5  159.50    6.64
   0  -1  -5  150.52    6.68
   0  -1   5  161.96    6.69
   0  -1   5  157.10    6.65
   0  -1  -5  152.08    6.64
   0  -1   5  157.74    6.66
   0  -1  -5  158.38    6.64
   0   1   6    2.06    0.34
   0   1  -6    2.46    0.34
   0   1  -6    2.05    0.34
   0   1   6    1.61    0.36
   0   1   6    2.17    0.48
   0   1  -6    2.54    0.47
   0  -1   6    1.86    0.35
   0  -1   6    1.90    0.38
   0  -1   6    2.77    0.50
   0  -1  -6    2.89    0.49
   0  -1  -6    2.51    0.34
   0  -1  -6    2.75    0.36
   0   1   7   26.41    1.32
   0   1   7   24.73    1.39
   0   1  -7   20.29    1.23
   0   1   7   25.87    1.32
   0   1  -7   22.87    1.24
   0  -1   7   25.90    1.33
   0  -1  -7   20.93    1.23
   0  -1  -7   24.59    1.26
   0  -1   7   25.51    1.42
   0  -1   7   26.33    1.31
   0   1   8   14.39    1.18
   0   1  -8   14.53    0.95
   0   1   8   10.59    1.05
   0   1  -8   11.96    1.20
   0   1   8   13.50    1.05
   0   1  -8   10.79    0.94
   0  -1  -8   14.19    0.93
   0  -1  -8   11.08    1.17
   0  -1   8   12.01    1.06
   0  -1  -8   12.28    0.95
   0  -1   8   14.00    1.04
   0  -1   8   13.85    1.20
   0   2   0    8.56    0.41
   0   2   0    8.26    0.42
   0  -2   0    9.08    0.42
   0   2  -1    8.12    0.40
   0   2   1    8.74    0.40
   0   2  -1    8.52    0.40
   0   2  -1    8.33    0.40
   0   2   1    8.28    0.40
   0  -2   1    8.91    0.41
   0  -2   1    9.01    0.41
   0  -2  -1    7.91    0.39
   0  -2  -1    7.88    0.40
   0  -2  -1    8.74    0.40
   0  -2   1    8.30    0.40
   0   2  -2   58.78    2.48
   0   2  -2   58.49    2.47
   0   2   2   57.68    2.47
   0   2   2   59.86    2.47
   0   2  -2   57.92    2.46
   0   2   2   60.51    2.48
   0  -2   2   54.67    2.48
   0  -2  -2   61.85    2.47
   0  -2   2   58.57    2.47
   0  -2   2   55.91    2.47
   0  -2  -2   57.54    2.47
   0  -2  -2   63.46    2.47
   0   2  -3   17.84    0.92
   0   2  -3   18.99    0.89
   0   2  -3   18.46    0.89
   0   2   3   18.44    0.89
   0   2   3   19.55    0.89
   0   2   3   19.62    0.92
   0  -2   3   19.31    0.89
   0  -2   3   19.77    0.93
   0  -2  -3   19.30    0.89
   0  -2  -3   20.44    0.89
   0  -2  -3   18.79    0.91
   0  -2   3   20.06    0.90
   0   2   4  152.74    6.70
   0   2   4  165.05    6.71
   0   2   4  165.24    6.73
   0   2  -4  153.77    6.69
   0   2  -4  159.78    6.73
   0   2  -4  166.67    6.70
   0  -2   4  162.69    6.73
   0  -2   4  152.96    6.70
   0  -2  -4  159.52    6.69
   0  -2  -4  165.53    6.70
   0  -2   4  167.29    6.71
   0  -2  -4  161.31    6.73
   0   2   5   -0.28    0.23
   0   2  -5    0.14    0.28
   0   2  -5   -0.07    0.24
   0   2  -5   -0.14    0.23
   0   2   5    0.53    0.32
   0   2   5   -0.08    0.23
   0  -2   5   -0.19    0.25
   0  -2  -5    0.24    0.34
   0  -2   5   -0.04    0.29
   0  -2  -5    0.05    0.24
   0  -2  -5    0.09    0.22
   0  -2   5   -0.18    0.24
   0   2   6  123.80    5.20
   0   2   6  133.33    5.18
   0   2  -6  120.26    5.21
   0   2   6  112.56    5.15
   0   2  -6  119.14    5.14
   0   2  -6  125.30    5.14
   0  -2   6  122.22    5.17
   0  -2  -6  122.95    5.21
   0  -2   6  109.59    5.14
   0  -2  -6  130.91    5.15
   0  -2  -6  121.91    5.14
   0  -2   6  119.88    5.21
   0   2  -7    8.09    0.74
   0   2   7    8.53    0.80
   0   2   7    7.44    0.87
   0   2  -7    8.51    0.74
   0   2   7    9.58    0.81
   0  -2   7    8.57    0.96
   0  -2  -7    8.96    0.75
   0  -2   7    7.85    0.81
   0  -2   7    8.98    0.79
   0  -2  -7    8.47    0.71
   0   2  -8    4.18    0.51
   0   2   8    5.81    0.65
   0   2   8    3.70    0.59
   0   2  -8    4.80    0.54
   0   2   8    4.94    0.75
   0   2  -8    4.79    0.77
   0  -2  -8    3.97    0.55
   0  -2   8    4.95    0.57
   0  -2   8    5.35    0.77
   0  -2   8    4.20    0.60
   0  -2  -8    3.85    0.70
   0  -2  -8    4.66    0.52
   0   3   0   -0.20    0.11
   0   3   0    0.10    0.13
   0  -3   0   -0.05    0.11
   0  -3   0   -0.18    0.11
   0   3  -1  340.30   12.57
   0   3   1  292.69   12.56
   0   3  -1  303.66   12.57
   0   3  -1  303.14   12.56
   0   3   1  322.77   12.57
   0  -3  -1  291.58   12.57
   0  -3   1  298.86   12.57
   0  -3  -1  294.87   12.56
   0  -3   1  299.53   12.56
   0  -3   1  311.13   12.56
   0  -3   1  296.95   12.57
   0   3   2   43.80    1.96
   0   3  -2   48.42    1.97
   0   3   2   42.36    1.96
   0   3  -2   47.40    1.96
   0   3   2   46.03    1.96
   0   3  -2   50.63    1.96
   0  -3   2   45.01    1.96
   0  -3  -2   44.05    1.95
   0  -3  -2   45.85    1.96
   0  -3  -2   43.48    1.96
   0  -3   2   50.33    1.98
   0  -3   2   45.15    1.96
   0   3   3    4.63    0.40
   0   3  -3    4.40    0.36
   0   3   3    4.58    0.35
   0   3  -3    4.02    0.36
   0   3   3    4.80    0.36
   0   3  -3    4.74    0.40
   0  -3   3    4.57    0.40
   0  -3   3    4.55    0.36
   0  -3  -3    4.81    0.36
   0  -3  -3    3.89    0.38
   0  -3   3    4.40    0.37
   0  -3  -3    4.55    0.35
   0   3  -4   18.89    0.90
   0   3   4   18.56    0.91
   0   3   4   18.00    0.90
   0   3  -4   18.24    0.89
   0   3  -4   17.25    0.95
   0   3   4   18.25    0.93
   0  -3  -4   18.94    0.90
   0  -3   4   18.83    0.90
   0  -3   4   19.87    0.95
   0  -3  -4   17.27    0.93
   0  -3   4   16.87    0.90
   0  -3  -4   17.33    0.88
   0   3  -5  129.54    5.41
   0   3   5  137.90    5.46
   0   3  -5  131.93    5.47
   0   3   5  114.18    5.41
   0   3   5  128.37    5.42
   0   3  -5  137.06    5.42
   0  -3   5  130.23    5.47
   0  -3  -5  137.76    5.42
   0  -3   5  120.91    5.42
   0  -3  -5  121.97    5.45
   0  -3   5  129.16    5.43
   0  -3  -5  129.17    5.41
   0   3  -6    4.45    0.56
   0   3  -6    5.20    0.48
   0   3  -6    5.02    0.46
   0   3   6    5.30    0.62
   0   3   6    6.08    0.73
   0   3   6    5.22    0.63
   0  -3   6    5.01    0.55
   0  -3  -6    5.52    0.60
   0  -3   6    5.15    0.63
   0  -3  -6    4.66    0.56
   0  -3  -6    6.04    0.75
   0  -3   6    5.44    0.61
   0   3   7   24.72    1.29
   0   3  -7   23.43    1.22
   0   3   7   21.53    1.35
   0   3   7   22.27    1.27
   0   3  -7   23.15    1.22
   0  -3   7   21.67    1.39
   0  -3   7   23.36    1.27
   0  -3   7   21.48    1.28
   0  -3  -7   23.45    1.21
   0  -3  -7   23.25    1.24
   0   3   8    3.74    0.72
   0   3  -8    5.74    0.80
   0   3   8    4.26    0.60
   0   3  -8    3.97    0.52
   0   3   8    4.61    0.61
   0   3  -8    3.63    0.52
   0  -3   8    3.72    0.62
   0  -3  -8    4.25    0.55
   0  -3  -8    4.20    0.52
   0  -3   8    4.44    0.75
   0  -3  -8    4.81    0.76
   0  -3   8    5.27    0.63
   0   4   0   64.97    2.90
   0   4   0   70.07    2.90
   0   4   0   69.08    2.88
   0  -4   0   67.68    2.91
   0  -4   0   70.52    2.90
   0   4   1   61.46    2.70
   0   4   1   62.77    2.69
   0   4  -1   68.67    2.70
   0   4  -1   60.93    2.70
   0  -4   1   66.03    2.68
   0  -4   1   63.63    2.70
   0  -4   1   60.67    2.70
   0  -4  -1   63.84    2.69
   0  -4  -1   64.05    2.70
   0  -4   1   66.87    2.70
   0   4  -2   10.13    0.56
   0   4   2   11.23    0.55
   0   4  -2   10.71    0.57
   0   4  -2   11.19    0.55
   0   4   2   10.20    0.56
   0  -4   2    9.79    0.55
   0  -4  -2    9.92    0.56
   0  -4   2   11.04    0.58
   0  -4  -2   10.52    0.54
   0  -4   2   11.73    0.57
   0  -4  -2   11.28    0.56
   0   4   3  147.37    5.79
   0   4  -3  128.76    5.77
   0   4  -3  139.40    5.77
   0   4   3  131.05    5.77
   0   4  -3  141.66    5.79
   0   4   3  132.53    5.78
   0  -4   3  135.26    5.78
   0  -4   3  145.29    5.80
   0  -4  -3  149.05    5.78
   0  -4  -3  145.50    5.79
   0  -4  -3  133.54    5.77
   0  -4   3  133.78    5.77
   0   4  -4   36.05    1.65
   0   4  -4   38.42    1.70
   0   4   4   40.46    1.67
   0   4  -4   34.76    1.65
   0   4   4   35.29    1.66
   0   4   4   39.51    1.69
   0  -4  -4   37.27    1.68
   0  -4   4   39.72    1.68
   0  -4   4   36.36    1.70
   0  -4  -4   36.40    1.66
   0  -4  -4   36.41    1.65
   0  -4   4   35.52    1.66
   0   4   5   13.64    0.85
   0   4  -5   14.31    0.77
   0   4  -5   12.98    0.77
   0   4   5   12.25    0.79
   0   4   5   13.25    0.78
   0   4  -5   13.26    0.85
   0  -4  -5   12.75    0.75
   0  -4   5   12.48    0.80
   0  -4  -5   12.48    0.84
   0  -4  -5   13.46    0.78
   0  -4   5   12.50    0.78
   0  -4   5   12.70    0.86
   0   4  -6   78.66    3.91
   0   4   6   94.10    3.92
   0   4   6   90.48    3.89
   0   4  -6   91.66    3.87
   0   4  -6   85.29    3.86
   0   4   6   91.54    3.88
   0  -4  -6   95.21    3.88
   0  -4   6   88.18    3.88
   0  -4  -6   92.35    3.94
   0  -4  -6   92.69    3.86
   0  -4   6   92.68    3.95
   0  -4   6   90.09    3.90
   0   4  -7   12.03    0.85
   0   4   7   12.64    1.01
   0   4  -7    9.94    0.84
   0   4   7   12.55    0.93
   0   4   7   10.58    0.88
   0  -4  -7   10.21    0.87
   0  -4   7   11.11    0.93
   0  -4   7   12.51    1.07
   0  -4   7   11.44    0.91
   0  -4  -7   11.84    0.83
   0   4  -8   -0.28    0.42
   0   4   8    0.97    0.51
   0   4  -8    0.20    0.64
   0   4  -8    0.52    0.42
   0   4   8    0.73    0.64
   0   4   8    0.72    0.50
   0  -4  -8    0.58    0.43
   0  -4  -8    0.30    0.46
   0  -4  -8    1.31    0.70
   0  -4   8    0.51    0.52
   0  -4   8    1.39    0.68
   0  -4   8    0.19    0.46
   0   5   0   -0.11    0.15
   0   5   0    0.08    0.18
   0   5   0    0.03    0.14
   0  -5   0   -0.06    0.20
   0  -5   0    0.10    0.19
   0   5   1  542.20   22.33
   0   5   1  526.39   22.33
   0   5  -1  578.00   22.34
   0   5  -1  562.31   22.33
   0  -5  -1  547.36   22.33
   0  -5  -1  537.64   22.33
   0  -5   1  531.42   22.33
   0  -5   1  502.74   22.31
   0  -5   1  550.48   22.31
   0   5   2   95.86    4.13
   0   5   2   98.01    4.12
   0   5  -2  101.56    4.13
   0   5  -2  102.76    4.13
   0  -5  -2   98.33    4.12
   0  -5  -2  101.24    4.12
   0  -5   2   90.77    4.13
   0  -5  -2  101.51    4.13
   0  -5   2  101.51    4.14
   0  -5   2   91.65    4.12
   0   5  -3    7.29    0.48
   0   5  -3    6.82    0.52
   0   5   3    6.59    0.50
   0   5   3    6.91    0.49
   0   5  -3    7.22    0.50
   0  -5   3    6.61    0.51
   0  -5   3    6.66    0.49
   0  -5  -3    7.16    0.50
   0  -5   3    7.71    0.53
   0  -5  -3    6.94    0.47
   0  -5  -3    6.32    0.50
   0   5   4  160.78    7.49
   0   5   4  176.03    7.50
   0   5  -4  180.57    7.52
   0   5   4  196.62    7.51
   0   5  -4  176.63    7.49
   0   5  -4  194.25    7.49
   0  -5   4  176.69    7.52
   0  -5  -4  187.18    7.51
   0  -5   4  170.30    7.50
   0  -5  -4  172.89    7.48
   0  -5   4  175.66    7.49
   0  -5  -4  189.67    7.50
   0   5   5   80.11    3.45
   0   5   5   83.96    3.44
   0   5   5   82.98    3.44
   0   5  -5   82.46    3.43
   0   5  -5   73.38    3.45
   0   5  -5   80.99    3.42
   0  -5   5   82.78    3.45
   0  -5   5   67.93    3.45
   0  -5  -5   77.12    3.42
   0  -5   5   80.70    3.43
   0  -5  -5   81.18    3.41
   0  -5  -5   82.30    3.46
   0   5   6    0.00    0.34
   0   5  -6    0.30    0.33
   0   5  -6    0.24    0.43
   0   5   6    0.45    0.44
   0   5   6   -0.04    0.31
   0   5  -6    0.58    0.34
   0  -5  -6    0.53    0.42
   0  -5   6    0.08    0.46
   0  -5   6    0.50    0.35
   0  -5   6    0.32    0.37
   0  -5  -6    0.48    0.35
   0  -5  -6    0.43    0.31
   0   5   7   37.82    1.96
   0   5  -7   43.96    2.04
   0   5   7   43.26    2.02
   0   5  -7   39.80    1.91
   0   5  -7   40.50    1.90
   0   5   7   39.80    1.95
   0  -5  -7   42.98    1.90
   0  -5   7   36.95    1.96
   0  -5   7   36.29    1.93
   0  -5   7   38.40    2.05
   0  -5  -7   42.57    1.92
   0   5  -8   27.53    1.70
   0   5  -8   27.14    1.50
   0   5   8   28.71    1.70
   0   5   8   27.85    1.60
   0   5   8   27.83    1.62
   0  -5   8   29.39    1.63
   0  -5   8   28.53    1.59
   0  -5  -8   28.72    1.54
   0  -5  -8   27.59    1.72
   0  -5   8   30.05    1.80
   0   6   0  207.10    8.54
   0   6   0  209.11    8.53
   0   6   0  207.24    8.50
   0  -6   0  203.45    8.53
   0  -6   0  198.34    8.54
   0   6  -1   44.54    1.93
   0   6   1   42.08    1.92
   0   6  -1   44.51    1.92
   0   6   1   40.19    1.91
   0  -6   1   48.42    1.91
   0  -6   1   41.79    1.92
   0  -6   1   42.98    1.88
   0  -6  -1   42.93    1.92
   0  -6   1   44.22    1.92
   0  -6  -1   43.87    1.92
   0   6  -2    3.91    0.43
   0   6   2    4.54    0.42
   0   6   2    4.70    0.45
   0   6  -2    4.16    0.43
   0  -6   2    3.54    0.42
   0  -6   2    3.47    0.44
   0  -6   2    4.43    0.44
   0  -6  -2    4.40    0.43
   0  -6   2    4.58    0.37
   0  -6  -2    4.61    0.41
   0  -6  -2    4.69    0.44
   0   6  -3  156.95    6.40
   0   6  -3  161.32    6.42
   0   6   3  157.42    6.40
   0   6   3  160.28    6.42
   0  -6   3  147.90    6.41
   0  -6   3  149.63    6.40
   0  -6  -3  147.81    6.40
   0  -6  -3  144.12    6.39
   0  -6  -3  155.45    6.40
   0  -6   3  150.89    6.42
   0   6  -4   62.06    2.78
   0   6   4   61.48    2.75
   0   6  -4   64.06    2.76
   0   6   4   64.89    2.77
   0   6  -4   66.91    2.75
   0  -6   4   68.47    2.80
   0  -6   4   61.93    2.75
   0  -6   4   61.41    2.77
   0  -6  -4   62.73    2.75
   0  -6  -4   60.30    2.76
   0  -6  -4   63.43    2.74
   0   6   5    2.12    0.38
   0   6   5    1.74    0.36
   0   6  -5    2.30    0.36
   0   6  -5    2.76    0.47
   0   6  -5    2.02    0.37
   0  -6   5    2.20    0.37
   0  -6  -5    1.90    0.37
   0  -6  -5    2.50    0.36
   0  -6   5    1.41    0.36
   0  -6  -5    2.36    0.42
   0  -6   5    2.79    0.49
   0   6   6    6.36    0.82
   0   6   6    8.34    0.77
   0   6   6    7.88    0.75
   0   6  -6    7.27    0.71
   0   6  -6    7.08    0.83
   0   6  -6    7.58    0.72
   0  -6   6    8.02    0.73
   0  -6   6    7.46    0.80
   0  -6  -6    6.65    0.74
   0  -6   6    7.14    0.87
   0  -6  -6    8.12    0.85
   0  -6  -6    8.78    0.69
   0   6   7   25.28    1.44
   0   6  -7   25.06    1.40
   0   6  -7   26.75    1.40
   0   6   7   22.90    1.47
   0   6   7   27.91    1.47
   0   6  -7   25.71    1.52
   0  -6  -7   27.54    1.41
   0  -6  -7   25.15    1.37
   0  -6   7   26.23    1.42
   0  -6   7   27.63    1.59
   0  -6  -7   27.50    1.88
   0  -6   7   25.18    1.46
   0   6   8   -0.41    0.50
   0   6   8    0.30    0.69
   0   6  -8   -0.07    0.48
   0   6  -8    0.53    0.61
   0   6   8    0.01    0.54
   0  -6  -8   -0.02    0.67
   0  -6   8   -0.19    0.54
   0  -6   8    0.58    0.68
   0  -6  -8   -0.03    0.51
   0  -6   8   -0.02    0.50
   0   7   0   -0.25    0.23
   0   7   0   -0.03    0.19
   0   7   0   -0.02    0.20
   0  -7   0   -0.17    0.25
   0   7   1   12.14    0.76
   0   7   1   12.95    0.76
   0   7   1   13.48    0.72
   0   7  -1   12.86    0.80
   0   7  -1   13.62    0.76
   0  -7   1   12.66    0.77
   0  -7  -1   13.68    0.77
   0  -7   1   14.02    0.70
   0  -7  -1   13.10    0.77
   0  -7   1   13.58    0.76
   0  -7   1   12.95    0.74
   0   7   2  220.55    9.42
   0   7  -2  229.71    9.42
   0   7  -2  228.38    9.43
   0   7   2  227.63    9.43
   0  -7   2  217.36    9.41
   0  -7  -2  225.64    9.42
   0  -7   2  240.85    9.40
   0  -7  -2  217.73    9.40
   0  -7   2  221.38    9.43
   0  -7   2  226.49    9.42
   0  -7  -2  235.69    9.42
   0   7   3   12.96    0.77
   0   7   3   12.44    0.78
   0   7  -3   12.48    0.76
   0  -7  -3   12.61    0.77
   0  -7   3   13.21    0.79
   0  -7   3   12.86    0.79
   0  -7   3   11.69    0.76
   0  -7  -3   12.69    0.77
   0  -7   3   12.96    0.73
   0  -7  -3   13.69    0.75
   0   7  -4   34.32    1.61
   0   7   4   30.42    1.58
   0   7   4   34.72    1.58
   0   7  -4   35.05    1.58
   0  -7   4   34.96    1.58
   0  -7   4   32.79    1.60
   0  -7  -4   31.74    1.55
   0  -7   4   32.36    1.61
   0  -7  -4   35.85    1.59
   0  -7  -4   32.94    1.59
   0   7   5   38.39    1.82
   0   7  -5   36.53    1.85
   0   7  -5   37.98    1.81
   0   7   5   38.25    1.84
   0   7  -5   39.44    1.80
   0  -7  -5   38.79    1.84
   0  -7  -5   40.83    1.82
   0  -7  -5   38.01    1.79
   0  -7   5   36.79    1.84
   0  -7   5   40.64    1.83
   0  -7   5   39.24    1.89
   0   7   6   22.18    1.27
   0   7  -6   20.50    1.23
   0   7  -6   21.81    1.25
   0   7  -6   22.81    1.36
   0   7   6   21.07    1.29
   0  -7   6   22.79    1.29
   0  -7   6   22.60    1.26
   0  -7   6   24.15    1.39
   0  -7  -6   24.41    1.36
   0  -7  -6   23.29    1.27
   0  -7  -6   24.61    1.22
   0   7   7   13.14    1.03
   0   7  -7   11.05    1.14
   0   7   7    9.77    0.98
   0   7  -7   10.00    0.93
   0   7  -7    9.78    0.87
   0  -7  -7   10.16    0.96
   0  -7  -7   11.34    1.13
   0  -7   7   11.52    1.05
   0  -7  -7   10.57    0.88
   0  -7   7   11.15    1.16
   0  -7   7   12.53    0.99
   0   7   8   31.97    1.97
   0   7  -8   34.24    1.80
   0   7   8   34.27    1.92
   0  -7  -8   35.12    1.93
   0  -7   8   29.91    1.97
   0  -7   8   35.84    1.87
   0  -7  -8   39.32    2.07
   0  -7  -8   37.00    1.84
   0   8   0   79.30    3.46
   0   8   0   81.38    3.39
   0   8   0   79.89    3.44
   0  -8   0   77.89    3.46
   0   8   1   87.30    3.55
   0   8  -1   78.86    3.55
   0   8   1   82.02    3.50
   0   8  -1   88.17    3.55
   0   8   1   79.79    3.55
   0  -8  -1   83.71    3.54
   0  -8   1   79.72    3.51
   0  -8   1   85.09    3.55
   0  -8  -1   80.43    3.55
   0  -8   1   77.98    3.49
   0  -8   1   82.17    3.56
   0   8  -2   16.67    0.93
   0   8   2   15.65    0.91
   0   8  -2   15.80    0.90
   0   8   2   15.55    0.90
   0  -8  -2   14.73    0.91
   0  -8   2   17.36    0.90
   0  -8   2   15.87    0.89
   0  -8  -2   13.93    0.88
   0  -8   2   16.10    0.83
   0  -8  -2   16.24    0.90
   0  -8   2   15.77    0.92
   0   8  -3  113.75    4.98
   0   8   3  114.77    4.99
   0   8  -3  119.38    4.98
   0   8   3  116.56    4.98
   0  -8   3  117.44    4.95
   0  -8   3  115.88    4.99
   0  -8   3  113.67    4.98
   0  -8   3  115.99    5.00
   0  -8  -3  120.78    4.99
   0  -8  -3  120.14    4.98
   0  -8  -3  123.62    4.98
   0   8  -4    1.51    0.38
   0   8  -4    1.52    0.35
   0   8   4    1.09    0.37
   0   8   4    1.17    0.35
   0  -8   4    0.95    0.35
   0  -8   4    1.66    0.36
   0  -8   4    1.66    0.34
   0  -8   4    1.09    0.42
   0  -8  -4    0.92    0.36
   0  -8  -4    1.28    0.39
   0  -8  -4    1.70    0.35
   0   8  -5    5.64    0.55
   0   8   5    7.18    0.76
   0   8   5    7.43    0.74
   0   8  -5    6.62    0.81
   0  -8  -5    6.84    0.74
   0  -8  -5    6.87    0.76
   0  -8   5    6.49    0.77
   0  -8   5    6.77    0.84
   0  -8   5    5.43    0.72
   0  -8  -5    8.30    0.70
   0   8   6   11.13    0.97
   0   8  -6   11.50    1.01
   0   8   6   10.44    0.93
   0   8  -6   11.04    0.88
   0  -8   6    9.17    0.95
   0  -8   6   10.63    1.03
   0  -8  -6   10.57    0.92
   0  -8  -6   11.39    0.87
   0  -8  -6    9.99    0.98
   0  -8   6   10.84    0.93
   0   8   7   38.90    2.01
   0   8  -7   40.92    2.09
   0   8  -7   38.44    1.93
   0   8   7   38.01    2.02
   0  -8   7   37.46    1.98
   0  -8  -7   40.10    2.09
   0  -8   7   38.86    2.13
   0  -8   7   42.46    2.06
   0  -8  -7   39.39    1.96
   0   9   0    0.02    0.23
   0   9   0    0.03    0.33
   0   9   0    0.14    0.31
   0  -9   0   -0.25    0.30
   0   9   1    0.49    0.25
   0   9  -1   -0.02    0.34
   0   9   1    0.46    0.32
   0   9  -1    0.20    0.29
   0   9   1    0.50    0.31
   0  -9  -1    0.58    0.34
   0  -9   1    0.54    0.30
   0  -9   1    0.25    0.25
   0  -9  -1    0.73    0.35
   0  -9   1    0.74    0.32
   0  -9   1    0.67    0.34
   0   9  -2  251.30   10.84
   0   9   2  274.67   10.86
   0   9  -2  271.46   10.86
   0   9   2  252.49   10.85
   0  -9   2  246.86   10.82
   0  -9   2  257.21   10.85
   0  -9   2  257.95   10.85
   0  -9  -2  268.87   10.85
   0  -9  -2  260.42   10.85
   0  -9   2  260.82   10.80
   0   9   3    1.20    0.36
   0   9  -3    0.86    0.38
   0   9  -3    0.71    0.34
   0   9   3    0.60    0.34
   0  -9   3    0.58    0.31
   0  -9   3    1.04    0.38
   0  -9   3    1.06    0.30
   0  -9   3    0.93    0.38
   0  -9  -3    0.86    0.37
   0  -9  -3    0.66    0.31
   0  -9  -3    0.80    0.38
   0   9   4   92.58    4.15
   0   9  -4   86.53    4.12
   0   9   4   97.65    4.14
   0   9  -4   90.42    4.13
   0  -9  -4   99.71    4.15
   0  -9   4  101.80    4.14
   0  -9  -4   95.70    4.13
   0  -9   4   96.64    4.17
   0  -9  -4   97.09    4.12
   0  -9   4   98.64    4.17
   0  -9   4   96.31    4.11
   0   9   5    3.92    0.54
   0   9  -5    5.69    0.57
   0   9   5    5.18    0.56
   0   9  -5    6.20    0.77
   0  -9  -5    3.71    0.57
   0  -9   5    4.62    0.55
   0  -9  -5    4.46    0.55
   0  -9   5    5.94    0.68
   0  -9   5    4.93    0.54
   0  -9  -5    5.04    0.52
   0  -9   5    5.65    0.59
   0   9   6    2.50    0.54
   0   9  -6    2.12    0.49
   0   9  -6    1.96    0.57
   0   9   6    1.96    0.52
   0  -9   6    1.89    0.48
   0  -9   6    2.95    0.68
   0  -9  -6    2.25    0.53
   0  -9  -6    2.41    0.46
   0  -9   6    2.61    0.50
   0  -9   6    2.05    0.54
   0   9   7    2.98    0.63
   0   9   7    2.21    0.62
   0   9  -7    1.73    0.55
   0   9  -7    3.16    0.61
   0   9  -7    2.74    0.74
   0  -9  -7    2.65    0.57
   0  -9   7    2.82    0.70
   0  -9  -7    2.25    0.72
   0  -9   7    2.26    0.56
   0  -9  -7    2.67    0.59
   0  -9   7    2.47    0.67
   0  10   0    5.98    0.72
   0  10   0    5.38    0.66
   0  10   0    6.34    0.54
   0 -10   0    6.13    0.68
   0 -10   0    6.02    0.71
   0  10   1   67.01    3.00
   0  10   1   71.56    3.07
   0  10   1   70.58    3.09
   0  10  -1   66.49    3.05
   0  10  -1   68.48    3.09
   0 -10   1   74.14    3.04
   0 -10   1   67.25    3.00
   0 -10  -1   67.18    3.07
   0 -10  -1   66.47    3.08
   0 -10   1   71.12    3.07
   0 -10   1   73.01    3.09
   0  10  -2    3.01    0.45
   0  10   2    3.90    0.47
   0  10  -2    3.66    0.49
   0  10   2    4.95    0.54
   0  10   2    4.78    0.58
   0 -10  -2    3.70    0.47
   0 -10  -2    4.47    0.50
   0 -10   2    4.51    0.52
   0 -10   2    4.76    0.52
   0 -10   2    4.47    0.51
   0  10   3  305.30   12.91
   0  10  -3  322.23   12.92
   0  10  -3  309.76   12.91
   0  10   3  316.87   12.93
   0 -10   3  306.32   12.90
   0 -10   3  316.33   12.91
   0 -10  -3  286.31   12.89
   0 -10  -3  307.66   12.89
   0 -10  -3  307.11   12.91
   0 -10   3  314.86   12.87
   0 -10   3  315.72   12.93
   0  10  -4    0.02    0.39
   0  10   4   -0.11    0.41
   0  10   4    0.75    0.40
   0  10  -4    0.15    0.41
   0 -10  -4    0.36    0.41
   0 -10  -4   -0.03    0.42
   0 -10   4    0.55    0.39
   0 -10   4    1.04    0.48
   0 -10   4    0.68    0.35
   0 -10   4   -0.03    0.44
   0 -10  -4    0.89    0.41
   0  10   5   15.32    1.12
   0  10   5   14.05    1.07
   0  10  -5   13.98    1.07
   0  10  -5   13.96    1.02
   0 -10   5   15.12    1.02
   0 -10  -5   14.36    1.07
   0 -10   5   14.94    1.06
   0 -10  -5   16.33    1.04
   0 -10   5   14.20    1.16
   0 -10   5   14.03    1.12
   0 -10  -5   14.05    1.08
   0  10   6    9.41    1.09
   0  10  -6   10.00    1.00
   0  10   6   11.69    1.09
   0 -10   6   10.23    1.15
   0 -10  -6   10.66    1.02
   0 -10   6   11.06    1.04
   0 -10   6    8.61    1.09
   0  10   7   32.17    1.89
   0  10  -7   34.14    1.83
   0  10  -7   31.35    1.81
   0 -10   7   34.46    1.88
   0 -10  -7   33.35    1.78
   0 -10   7   31.07    1.98
   0 -10  -7   32.20    1.83
   0 -10   7   34.61    1.89
   0 -10  -7   33.36    1.98
   0  11   0   -0.11    0.27
   0  11   0    0.31    0.39
   0  11   0   -0.03    0.35
   0 -11   0    0.04    0.39
   0 -11   0    0.24    0.42
   0  11  -1    7.10    0.82
   0  11   1    6.72    0.75
   0  11  -1    6.31    0.72
   0  11   1    6.64    0.61
   0  11   1    7.06    0.79
   0 -11   1    6.03    0.75
   0 -11  -1    6.74    0.65
   0 -11   1    5.89    0.70
   0 -11   1    5.18    0.58
   0  11   2   56.53    2.58
   0  11   2   59.88    2.67
   0  11  -2   63.61    2.65
   0  11  -2   52.75    2.66
   0  11   2   53.65    2.66
   0 -11   2   59.95    2.67
   0 -11  -2   60.59    2.68
   0 -11   2   57.57    2.66
   0 -11  -2   59.93    2.65
   0 -11   2   56.68    2.56
   0 -11   2   56.47    2.62
   0  11   3    0.47    0.43
   0  11  -3    0.55    0.45
   0  11  -3    0.40    0.43
   0  11   3    1.55    0.45
   0 -11   3    0.41    0.46
   0 -11  -3    0.04    0.44
   0 -11   3   -0.33    0.45
   0 -11  -3    0.61    0.44
   0 -11   3    0.07    0.31
   0 -11  -3    0.21    0.41
   0 -11   3    0.56    0.41
   0  11   4   86.98    3.79
   0  11  -4   82.35    3.73
   0  11  -4   83.79    3.76
   0  11   4   82.69    3.75
   0 -11  -4   84.12    3.75
   0 -11   4   88.08    3.77
   0 -11  -4   88.07    3.74
   0 -11   4   76.67    3.75
   0 -11   4   85.27    3.78
   0 -11   4   86.44    3.70
   0 -11  -4   87.10    3.76
   0  11   5   24.60    1.57
   0  11   5   27.16    1.55
   0  11  -5   26.64    1.54
   0 -11   5   23.37    1.50
   0 -11  -5   27.83    1.54
   0 -11   5   28.65    1.46
   0 -11   5   25.94    1.58
   0 -11  -5   27.31    1.53
   0 -11   5   26.74    1.60
   0  11  -6    6.96    0.74
   0  11  -6    5.42    0.69
   0  11   6    6.21    0.73
   0  11   6    5.89    0.82
   0 -11   6    6.60    0.83
   0 -11  -6    6.66    0.72
   0 -11  -6    6.41    0.74
   0 -11   6    5.09    0.69
   0 -11   6    5.62    0.82
   0 -11  -6    5.12    0.78
   0  12   0    3.05    0.39
   0  12   0    2.74    0.54
   0 -12   0    2.53    0.46
   0 -12   0    2.16    0.49
   0  12  -1   43.39    2.18
   0  12  -1   45.83    2.23
   0  12   1   45.93    2.08
   0  12   1   47.04    2.22
   0 -12   1   51.69    2.15
   0 -12  -1   43.76    2.22
   0 -12   1   42.94    2.18
   0  12   2    1.90    0.41
   0  12  -2    2.24    0.46
   0  12   2    2.08    0.52
   0  12  -2    1.95    0.50
   0 -12  -2    1.49    0.48
   0 -12   2    1.75    0.39
   0 -12   2    1.95    0.50
   0 -12  -2    1.92    0.54
   0 -12   2    2.24    0.49
   0  12   3   40.84    2.10
   0  12   3   49.53    2.20
   0  12   3   45.74    2.20
   0  12  -3   40.40    2.19
   0 -12   3   44.76    2.06
   0 -12  -3   41.80    2.12
   0 -12   3   44.24    2.19
   0 -12   3   46.05    2.15
   0 -12  -3   45.39    2.16
   0  12   4    3.25    0.63
   0  12  -4    2.76    0.60
   0  12   4    2.49    0.61
   0 -12   4    3.42    0.64
   0 -12   4    2.95    0.52
   0 -12  -4    3.21    0.60
   0 -12   4    2.71    0.49
   0 -12   4    3.31    0.65
   0 -12  -4    3.08    0.58
   0  12   5    3.75    0.65
   0  12  -5    2.07    0.64
   0  12  -5    3.18    0.60
   0  12   5    2.89    0.67
   0 -12   5    2.62    0.65
   0 -12  -5    4.60    0.67
   0 -12  -5    3.70    0.65
   0 -12   5    4.10    0.59
   0 -12   5    3.68    0.70
   0 -12   5    3.29    0.66
   0  12  -6    8.91    1.13
   0  12  -6    6.48    0.80
   0  12   6    6.91    0.97
   0 -12  -6    8.51    0.92
   0 -12   6    8.78    1.07
   0 -12  -6    8.68    1.13
   0 -12  -6    7.41    0.81
   0 -12   6    6.00    0.78
   0 -12   6    7.73    0.93
   0  13   0   -0.30    0.32
   0  13   0    0.38    0.47
   0 -13   0    0.49    0.44
   0  13  -1    8.37    0.96
   0  13   1    7.02    0.68
   0  13   1    9.59    0.96
   0 -13  -1    6.98    0.88
   0 -13   1    6.54    0.68
   0 -13   1    7.16    0.73
   0  13   2  121.69    5.21
   0  13   2  119.19    5.10
   0  13  -2  108.72    5.19
   0 -13   2  121.97    5.20
   0 -13   2  130.93    5.16
   0 -13   2  113.56    5.09
   0  13   3   -0.48    0.55
   0  13   3    0.63    0.45
   0  13   3    1.46    0.54
   0  13  -3    0.07    0.56
   0  13  -3    0.89    0.49
   0 -13   3    0.28    0.53
   0 -13   3    0.44    0.51
   0 -13   3    1.70    0.58
   0 -13  -3   -0.07    0.52
   0 -13  -3    0.15    0.65
   0 -13  -3    0.75    0.54
   0 -13   3    0.21    0.39
   0  13  -4   30.47    1.73
   0  13   4   30.51    1.82
   0  13  -4   31.37    1.82
   0  13   4   31.56    1.80
   0 -13   4   32.86    1.79
   0 -13   4   32.19    1.76
   0 -13   4   35.06    1.65
   0 -13  -4   27.79    1.76
   0 -13  -4   30.97    1.74
   0 -13  -4   28.20    1.70
   0 -13   4   30.24    1.81
   0  13   5    0.49    0.69
   0  13   5    0.45    0.65
   0  13  -5    1.26    0.67
   0  13  -5   -0.23    0.56
   0 -13   5    0.15    0.67
   0 -13  -5    0.87    0.64
   0 -13   5    1.36    0.68
   0 -13   5    0.36    0.54
   0 -13   5    1.30    0.61
   0 -13  -5    1.61    0.60
   0  14   0  117.71    5.23
   0  14   0  109.12    4.91
   0  14   0  111.28    4.76
   0 -14   0  108.54    4.89
   0 -14   0  114.20    4.93
   0  14   1   20.21    1.15
   0  14  -1   20.17    1.36
   0  14  -1   22.74    1.43
   0  14   1   21.32    1.40
   0 -14   1   19.97    1.28
   0 -14  -1   21.19    1.42
   0 -14   1   22.44    1.38
   0 -14  -1   21.71    1.36
   0  14  -2   22.65    1.42
   0  14   2   22.68    1.27
   0  14   2   23.43    1.48
   0  14  -2   22.44    1.51
   0  14   2   25.12    1.65
   0 -14   2   23.50    1.87
   0 -14   2   23.82    1.48
   0 -14   2   22.44    1.38
   0 -14  -2   20.19    1.48
   0  14   3   81.36    3.68
   0  14   3   75.19    3.55
   0  14   3   85.21    3.70
   0  14  -3   83.64    3.64
   0  14  -3   74.60    3.68
   0 -14   3   86.58    3.69
   0 -14  -3   77.58    3.59
   0 -14  -3   77.47    3.68
   0 -14   3   82.97    3.63
   0 -14   3   75.93    3.69
   0  14   4    8.86    1.06
   0  14   4   11.57    1.20
   0  14  -4    7.49    0.88
   0  14   4    5.98    0.88
   0  14  -4   10.46    1.12
   0 -14  -4   10.01    0.90
   0 -14   4    9.78    1.21
   0 -14   4    8.63    0.94
   0 -14  -4    8.73    0.92
   0 -14   4    9.94    1.23
   0  15   0    0.87    0.54
   0  15   0   -0.68    0.54
   0 -15   0    0.44    0.54
   0 -15   0    0.48    0.58
   0 -15   0    0.93    0.51
   0  15   1   35.75    1.70
   0  15  -1   35.27    1.91
   0  15  -1   34.61    1.94
   0  15   1   35.33    1.93
   0  15   1   33.39    1.93
   0 -15   1   34.07    1.94
   0 -15   1   34.05    1.82
   0 -15  -1   36.71    1.96
   0 -15   1   37.39    1.93
   0 -15  -1   33.71    1.91
   0  15   2   67.79    3.04
   0  15   2   66.39    3.21
   0  15  -2   64.82    3.17
   0  15  -2   68.28    3.23
   0  15   2   68.10    3.23
   0 -15  -2   65.44    3.17
   0 -15   2   72.49    3.25
   0 -15   2   63.12    3.12
   0 -15  -2   68.88    3.24
   0 -15  -2   74.97    3.16
   0 -15   2   70.20    3.22
   0  15   3   -0.01    0.50
   0  15  -3    0.49    0.69
   0  15   3   -0.07    0.61
   0  15  -3   -0.17    0.62
   0  15   3    0.57    0.63
   0 -15   3    0.22    0.35
   0 -15  -3   -0.92    0.64
   0 -15   3    2.03    0.69
   0 -15   3   -0.56    0.61
   0 -15  -3    0.24    0.55
   0 -15   3    0.36    0.62
   0  16   0   82.50    4.05
   0  16   0   88.80    4.08
   0 -16   0   93.95    4.09
   0 -16   0   90.13    4.07
   0 -16   0   93.44    3.98
   0  16  -1   12.31    1.22
   0  16   1   10.68    1.18
   0  16   1    7.02    0.82
   0  16   1   10.35    0.85
   0  16  -1    8.93    1.17
   0 -16   1   11.54    1.18
   0 -16  -1    7.09    0.88
   0 -16   1    9.21    1.05
   0 -16  -1   10.62    1.17
   0 -16   1    8.80    1.17
   0  16  -2    3.60    0.75
   0  16   2    3.18    0.54
   0  16  -2    3.57    0.69
   0 -16  -2    4.32    0.73
   0 -16   2    4.65    0.71
   0 -16  -2    1.04    0.69
   1   0  -8   83.31    3.59
  -1   0   8   74.78    3.48
  -1   0   8   77.20    3.57
  -1   0   8   80.11    3.48
   1   0  -8   77.58    3.38
  -1   0   7    0.58    0.35
   1   0  -7   -0.36    0.28
  -1   0   7   -0.08    0.35
  -1   0   7    0.36    0.45
   1   0  -7    0.12    0.28
  -1   0   6    3.15    0.37
  -1   0   6    2.95    0.47
  -1   0   6    2.45    0.36
   1   0  -6    3.94    0.44
   1   0  -6    2.88    0.45
   1   0  -6    3.56    0.43
   1   0  -5   -0.15    0.18
  -1   0   5    0.05    0.21
   1   0  -5    0.16    0.32
  -1   0   5   -0.09    0.21
   1   0  -5    0.13    0.19
  -1   0   5    0.04    0.27
  -1   0   4  285.92   12.21
   1   0  -4  296.35   12.16
  -1   0   4  316.92   12.18
  -1   0   4  300.60   12.18
   1   0  -4  280.71   12.21
   1   0  -4  288.83   12.16
   1   0  -3    0.01    0.18
   1   0  -3   -0.08    0.11
  -1   0   3   -0.22    0.12
  -1   0   3   -0.21    0.11
  -1   0   3   -0.18    0.17
   1   0  -3   -0.17    0.10
   1   0  -2  151.86    6.11
   1   0  -2  147.01    6.15
  -1   0   2  147.46    6.15
  -1   0   2  150.51    6.12
   1   0  -2  146.36    6.11
  -1   0   2  147.49    6.12
   1   0  -1   -0.35    0.08
  -1   0   1   -0.30    0.08
   1   0   1    0.08    0.10
   1   0   1   -0.04    0.07
  -1   0  -1    0.00    0.07
   1   0   1    0.03    0.07
  -1   0  -1   -0.09    0.07
  -1   0  -1    0.09    0.08
   1   0   3   -0.07    0.15
  -1   0  -3   -0.37    0.15
   1   0   3   -0.37    0.18
   1   0   3   -0.34    0.15
  -1   0  -3   -0.39    0.15
  -1   0  -3   -0.28    0.17
  -1   0  -4  382.14   15.73
  -1   0  -4  380.56   15.73
   1   0   4  369.82   15.75
   1   0   4  395.85   15.74
  -1   0  -4  380.46   15.75
   1   0   4  376.67   15.73
   1   0   5   -0.02    0.32
  -1   0  -5    0.00    0.25
  -1   0  -5    0.11    0.26
   1   0   5   -0.18    0.27
   1   0   5    0.15    0.25
  -1   0  -5    0.19    0.31
   1   0   6   24.63    1.25
  -1   0  -6   21.88    1.31
  -1   0  -6   21.05    1.22
   1   0   6   26.15    1.27
  -1   0  -6   25.12    1.25
   1   0   6   26.79    1.33
   1   0   7   -0.45    0.39
  -1   0  -7    0.38    0.37
   1   0   7    0.38    0.51
   1   0   7   -0.26    0.39
  -1   0  -7    0.10    0.39
   1   0   8   49.67    2.31
   1   0   8   46.13    2.27
  -1   0  -8   45.99    2.36
  -1   0  -8   45.23    2.23
   1   0   8   48.28    2.38
  -1   1   8    1.43    0.62
   1   1  -8    1.43    0.60
   1   1  -8    1.25    0.38
  -1   1   8    1.46    0.47
  -1   1   8    1.72    0.48
   1  -1  -8    1.24    0.62
   1  -1  -8    1.76    0.38
  -1  -1   8    2.23    0.65
  -1  -1   8    1.44    0.46
  -1  -1   8    1.79    0.50
  -1   1   7   47.69    2.32
   1   1  -7   49.07    2.17
  -1   1   7   53.35    2.26
   1   1  -7   46.93    2.17
  -1   1   7   48.40    2.24
  -1  -1   7   53.06    2.25
  -1  -1   7   47.20    2.25
   1  -1  -7   50.44    2.18
  -1  -1   7   47.88    2.33
   1  -1  -7   48.04    2.16
   1   1  -6   29.42    1.39
   1   1  -6   31.43    1.54
  -1   1   6   30.40    1.52
   1   1  -6   29.50    1.39
  -1   1   6   29.30    1.44
  -1   1   6   29.76    1.45
  -1  -1   6   29.94    1.44
   1  -1  -6   30.46    1.39
   1  -1  -6   29.94    1.39
   1  -1  -6   32.73    1.54
  -1  -1   6   30.25    1.53
  -1  -1   6   32.33    1.45
   1   1  -5   10.61    0.74
  -1   1   5   10.75    0.65
  -1   1   5   10.71    0.64
   1   1  -5   10.76    0.60
   1   1  -5   10.38    0.60
  -1   1   5   11.33    0.73
   1  -1  -5   10.85    0.59
  -1  -1   5   10.29    0.64
   1  -1  -5   10.92    0.73
  -1  -1   5   10.07    0.73
  -1  -1   5   10.54    0.64
   1  -1  -5   11.74    0.61
  -1   1   4   15.37    0.74
   1   1  -4   14.59    0.71
   1   1  -4   14.49    0.81
  -1   1   4   14.46    0.74
  -1   1   4   15.04    0.79
   1   1  -4   14.19    0.71
  -1  -1   4   15.84    0.75
  -1  -1   4   13.62    0.73
   1  -1  -4   15.58    0.72
   1  -1  -4   16.42    0.81
   1  -1  -4   15.09    0.71
  -1  -1   4   15.34    0.81
   1   1  -3  285.89   11.72
   1   1  -3  286.17   11.67
   1   1  -3  284.31   11.67
  -1   1   3  277.47   11.68
  -1   1   3  283.43   11.71
  -1   1   3  290.41   11.68
  -1  -1   3  273.92   11.68
  -1  -1   3  283.45   11.72
   1  -1  -3  279.85   11.67
   1  -1  -3  281.18   11.67
  -1  -1   3  283.30   11.68
   1  -1  -3  289.85   11.71
  -1   1   2   30.45    1.26
   1   1  -2   29.20    1.29
   1   1  -2   30.04    1.24
  -1   1   2   29.07    1.25
  -1   1   2   29.78    1.28
   1  -1  -2   29.45    1.25
   1  -1  -2   28.62    1.24
  -1  -1   2   29.68    1.29
  -1  -1   2   29.44    1.25
  -1  -1   2   30.26    1.26
   1  -1  -2   30.94    1.28
  -1   1   1  154.32    6.24
  -1   1   1  152.46    6.22
  -1  -1   1  151.16    6.23
  -1  -1   1  147.32    6.26
   1  -1  -1  148.83    6.24
  -1  -1   1  153.12    6.26
  -1   1   0  135.30    5.44
   1   1   0  140.28    5.44
  -1   1   0  131.59    5.44
   1   1   0  132.49    5.44
  -1   1   0  127.27    5.45
   1   1   0  116.79    5.47
  -1  -1   0  132.99    5.45
   1  -1   0  127.95    5.44
   1  -1   0  132.45    5.44
  -1  -1   0  134.74    5.44
   1   1   1   61.85    2.63
  -1   1  -1   62.92    2.63
  -1   1  -1   62.48    2.63
   1   1   1   64.00    2.63
  -1   1  -1   64.23    2.63
  -1  -1  -1   66.94    2.64
  -1  -1  -1   61.24    2.63
   1  -1   1   62.61    2.63
  -1  -1  -1   63.82    2.63
   1  -1   1   62.27    2.63
   1  -1   1   63.27    2.63
  -1   1  -2   44.00    1.99
   1   1   2   48.00    2.00
   1   1   2   46.82    1.99
  -1   1  -2   45.68    2.00
   1   1   2   47.08    1.99
  -1   1  -2   51.50    2.00
  -1  -1  -2   45.65    1.99
   1  -1   2   44.55    2.00
   1  -1   2   47.65    2.00
  -1  -1  -2   48.21    2.00
  -1  -1  -2   47.62    1.99
   1   1   3  154.01    6.47
   1   1   3  152.06    6.48
  -1   1  -3  152.19    6.47
  -1   1  -3  154.32    6.46
   1   1   3  145.68    6.46
  -1   1  -3  165.06    6.47
  -1  -1  -3  162.12    6.47
   1  -1   3  152.39    6.47
  -1  -1  -3  164.49    6.47
   1  -1   3  153.50    6.47
   1  -1   3  155.05    6.46
  -1   1  -4  121.43    4.85
  -1   1  -4  112.73    4.81
  -1   1  -4  113.99    4.82
   1   1   4  125.06    4.84
   1   1   4  115.19    4.82
   1   1   4  114.71    4.82
  -1  -1  -4  117.76    4.82
  -1  -1  -4  105.53    4.81
  -1  -1  -4  114.48    4.84
   1  -1   4  111.54    4.82
   1  -1   4  114.55    4.81
   1  -1   4  109.76    4.83
   1   1   5    0.44    0.28
  -1   1  -5    0.60    0.36
   1   1   5    0.45    0.27
   1   1   5    0.26    0.35
  -1   1  -5    0.40    0.27
  -1   1  -5    0.50    0.27
  -1  -1  -5    0.30    0.25
  -1  -1  -5    0.44    0.27
   1  -1   5    0.29    0.32
   1  -1   5    0.32    0.29
  -1  -1  -5   -0.09    0.33
   1  -1   5    0.62    0.25
   1   1   6    0.47    0.34
  -1   1  -6    0.82    0.35
  -1   1  -6    0.34    0.31
   1   1   6   -0.01    0.43
   1   1   6    0.78    0.33
  -1   1  -6    0.88    0.40
   1  -1   6    0.72    0.43
  -1  -1  -6    0.44    0.32
   1  -1   6    0.69    0.34
  -1  -1  -6    0.29    0.31
  -1  -1  -6    1.05    0.46
   1  -1   6    0.27    0.31
  -1   1  -7   61.63    2.68
   1   1   7   62.87    2.71
   1   1   7   59.29    2.76
   1   1   7   60.01    2.71
  -1   1  -7   57.95    2.67
  -1  -1  -7   55.21    2.66
   1  -1   7   62.06    2.72
   1  -1   7   58.70    2.70
  -1  -1  -7   60.54    2.67
   1  -1   7   57.06    2.76
   1   1   8    0.03    0.52
  -1   1  -8    0.68    0.62
   1   1   8    0.34    0.61
   1   1   8    0.70    0.51
  -1   1  -8   -0.35    0.46
  -1  -1  -8    0.01    0.47
   1  -1   8    0.58    0.49
   1  -1   8   -0.47    0.50
  -1  -1  -8    0.43    0.61
   1  -1   8   -0.35    0.64
  -1   2   8   31.00    1.59
  -1   2   8   30.47    1.60
  -1   2   8   30.96    1.68
   1   2  -8   31.13    1.75
   1   2  -8   28.52    1.46
   1  -2  -8   28.79    1.72
  -1  -2   8   29.99    1.75
  -1  -2   8   30.16    1.61
   1  -2  -8   30.84    1.47
  -1  -2   8   28.40    1.57
   1   2  -7    3.39    0.39
  -1   2   7    3.72    0.58
   1   2  -7    3.61    0.39
  -1   2   7    3.94    0.48
  -1   2   7    3.25    0.45
  -1  -2   7    3.28    0.46
   1  -2  -7    3.92    0.41
  -1  -2   7    3.73    0.59
   1  -2  -7    3.27    0.38
  -1  -2   7    3.38    0.43
   1   2  -6    1.35    0.27
  -1   2   6    1.50    0.33
   1   2  -6    1.42    0.28
  -1   2   6    1.15    0.40
  -1   2   6    1.23    0.31
   1   2  -6    1.30    0.42
  -1  -2   6    1.19    0.33
  -1  -2   6    1.22    0.39
   1  -2  -6    1.45    0.27
  -1  -2   6    1.30    0.31
   1  -2  -6    1.54    0.29
   1  -2  -6    1.24    0.41
   1   2  -5   28.84    1.30
  -1   2   5   30.07    1.39
  -1   2   5   25.20    1.33
   1   2  -5   29.45    1.42
   1   2  -5   30.42    1.31
  -1   2   5   28.15    1.33
   1  -2  -5   29.66    1.40
  -1  -2   5   28.98    1.33
  -1  -2   5   30.44    1.35
   1  -2  -5   29.48    1.30
  -1  -2   5   27.32    1.41
   1  -2  -5   29.45    1.31
   1   2  -4  171.21    7.42
  -1   2   4  184.40    7.46
   1   2  -4  174.74    7.47
  -1   2   4  175.77    7.43
  -1   2   4  175.52    7.43
   1   2  -4  182.58    7.42
   1  -2  -4  186.52    7.47
   1  -2  -4  178.48    7.42
   1  -2  -4  178.86    7.42
  -1  -2   4  178.15    7.43
  -1  -2   4  177.78    7.44
  -1  -2   4  186.06    7.48
   1   2  -3    3.14    0.35
   1   2  -3    3.20    0.26
  -1   2   3    2.80    0.28
  -1   2   3    2.92    0.27
  -1   2   3    3.01    0.32
   1   2  -3    2.56    0.27
   1  -2  -3    3.46    0.27
  -1  -2   3    3.13    0.37
   1  -2  -3    3.16    0.25
   1  -2  -3    3.17    0.33
  -1  -2   3    2.66    0.28
  -1  -2   3    2.79    0.27
   1   2  -2  456.10   18.95
  -1   2   2  471.26   18.92
  -1  -2   2  452.58   18.95
  -1   2   1   25.57    1.09
   1   2  -1   25.54    1.08
   1   2  -1   25.88    1.07
  -1   2   1   23.88    1.08
  -1   2   1   25.87    1.07
   1   2  -1   26.67    1.13
  -1  -2   1   25.81    1.12
   1  -2  -1   24.64    1.07
  -1  -2   1   26.15    1.09
   1  -2  -1   25.78    1.08
  -1  -2   1   23.91    1.08
   1  -2  -1   25.96    1.07
  -1  -2   1   24.81    1.12
  -1   2   0   14.90    0.65
  -1   2   0   14.96    0.60
  -1   2   0   14.11    0.63
   1   2   0   13.62    0.63
   1   2   0   12.93    0.69
   1   2   0   14.08    0.65
  -1  -2   0   12.47    0.69
  -1  -2   0   14.28    0.65
  -1  -2   0   14.88    0.63
   1  -2   0   13.91    0.65
   1  -2   0   14.65    0.63
  -1   2  -1   31.72    1.30
  -1   2  -1   30.06    1.29
   1   2   1   30.68    1.30
  -1   2  -1   31.01    1.30
   1  -2   1   31.05    1.30
   1  -2   1   29.83    1.30
  -1  -2  -1   29.93    1.30
   1  -2   1   30.61    1.29
  -1  -2  -1   29.07    1.30
   1   2   2   20.75    0.92
   1   2   2   20.43    0.90
  -1   2  -2   20.25    0.91
  -1   2  -2   20.28    0.91
   1   2   2   20.31    0.91
  -1   2  -2   20.08    0.91
  -1  -2  -2   19.36    0.90
   1  -2   2   20.11    0.91
   1  -2   2   20.28    0.91
   1  -2   2   19.55    0.90
  -1  -2  -2   19.24    0.91
  -1  -2  -2   19.56    0.90
   1   2   3   -0.02    0.20
  -1   2  -3   -0.21    0.17
   1   2   3    0.04    0.17
   1   2   3   -0.12    0.17
  -1   2  -3    0.02    0.15
  -1   2  -3   -0.11    0.18
   1  -2   3   -0.03    0.16
   1  -2   3   -0.07    0.17
  -1  -2  -3   -0.05    0.16
  -1  -2  -3    0.01    0.17
   1  -2   3   -0.06    0.18
  -1  -2  -3    0.04    0.16
   1   2   4   55.74    2.43
   1   2   4   58.69    2.41
  -1   2  -4   52.19    2.42
  -1   2  -4   58.52    2.40
  -1   2  -4   52.70    2.39
   1   2   4   55.26    2.40
  -1  -2  -4   58.81    2.40
   1  -2   4   55.77    2.42
  -1  -2  -4   56.59    2.40
   1  -2   4   53.17    2.40
   1  -2   4   57.53    2.40
  -1  -2  -4   50.16    2.41
  -1   2  -5   10.06    0.67
   1   2   5    9.50    0.75
  -1   2  -5    9.07    0.73
   1   2   5   10.35    0.69
   1   2   5    9.08    0.68
  -1   2  -5    9.94    0.68
  -1  -2  -5   10.18    0.67
   1  -2   5   10.23    0.69
   1  -2   5   10.32    0.66
   1  -2   5    9.62    0.75
  -1  -2  -5    9.39    0.73
  -1  -2  -5    9.84    0.68
   1   2   6   22.56    1.24
  -1   2  -6   24.86    1.31
  -1   2  -6   24.81    1.25
  -1   2  -6   24.49    1.23
   1   2   6   23.64    1.31
   1   2   6   24.56    1.26
   1  -2   6   23.36    1.31
   1  -2   6   21.69    1.26
  -1  -2  -6   23.07    1.22
  -1  -2  -6   24.67    1.25
  -1  -2  -6   22.43    1.32
   1  -2   6   25.97    1.25
   1   2   7    0.95    0.45
   1   2   7    0.77    0.55
  -1   2  -7    0.85    0.42
  -1   2  -7    0.51    0.39
   1   2   7    0.46    0.42
   1  -2   7    1.29    0.54
  -1  -2  -7    0.69    0.41
   1  -2   7    0.70    0.40
   1  -2   7    0.52    0.45
  -1  -2  -7    0.99    0.88
  -1  -2  -7    0.63    0.39
  -1   2  -8   63.87    2.83
  -1   2  -8   58.58    2.69
  -1   2  -8   56.72    2.81
   1   2   8   61.14    2.74
   1   2   8   57.95    2.81
   1   2   8   56.95    2.73
  -1  -2  -8   53.54    2.97
   1  -2   8   55.89    2.71
  -1  -2  -8   60.60    2.83
   1  -2   8   56.50    2.74
  -1  -2  -8   60.64    2.69
   1  -2   8   56.48    2.82
   1   3  -8    2.41    0.43
   1   3  -8    3.15    0.70
  -1   3   8    2.88    0.52
  -1   3   8    3.67    0.64
  -1   3   8    3.66    0.53
  -1  -3   8    4.38    0.73
  -1  -3   8    3.14    0.55
   1  -3  -8    3.31    0.45
  -1  -3   8    3.61    0.52
   1  -3  -8    2.43    0.66
  -1   3   7   39.46    1.89
   1   3  -7   38.35    1.83
  -1   3   7   43.55    1.98
   1   3  -7   41.85    1.83
  -1   3   7   40.72    1.91
  -1  -3   7   39.03    1.90
  -1  -3   7   37.36    1.89
  -1  -3   7   41.61    2.03
   1  -3  -7   41.04    1.84
   1  -3  -7   39.80    1.82
  -1   3   6   13.37    0.90
   1   3  -6   13.11    0.96
  -1   3   6   11.80    0.81
   1   3  -6   13.28    0.75
  -1   3   6   14.08    0.83
   1   3  -6   13.20    0.76
   1  -3  -6   13.00    0.77
   1  -3  -6   13.95    0.75
   1  -3  -6   12.49    0.90
  -1  -3   6   11.22    0.82
  -1  -3   6   13.41    0.81
  -1  -3   6   14.24    0.95
  -1   3   5   18.68    0.93
   1   3  -5   17.33    1.01
   1   3  -5   18.44    0.90
  -1   3   5   17.75    0.94
  -1   3   5   18.61    0.99
   1   3  -5   17.68    0.90
   1  -3  -5   18.18    0.88
   1  -3  -5   18.20    0.99
  -1  -3   5   18.70    0.94
   1  -3  -5   18.81    0.91
  -1  -3   5   18.16    0.93
  -1  -3   5   18.02    1.02
   1   3  -4   12.39    0.79
   1   3  -4   13.38    0.72
  -1   3   4   14.15    0.74
   1   3  -4   14.99    0.71
  -1   3   4   14.75    0.77
  -1   3   4   15.06    0.73
   1  -3  -4   15.61    0.71
   1  -3  -4   15.03    0.78
  -1  -3   4   15.44    0.82
  -1  -3   4   14.34    0.74
   1  -3  -4   14.17    0.73
  -1  -3   4   13.31    0.73
   1   3  -3  253.07   11.02
   1   3  -3  278.20   10.98
  -1   3   3  249.55   10.98
  -1   3   3  262.84   10.99
  -1   3   3  264.44   10.99
  -1  -3   3  254.80   11.02
   1  -3  -3  269.97   10.97
   1  -3  -3  287.01   10.99
  -1  -3   3  271.61   10.99
   1  -3  -3  259.82   11.00
  -1  -3   3  275.01   10.99
   1   3  -2    3.27    0.24
  -1   3   2    3.42    0.25
   1   3  -2    2.69    0.32
   1   3  -2    3.13    0.27
  -1   3   2    3.23    0.27
  -1   3   2    3.01    0.25
  -1  -3   2    3.18    0.25
  -1  -3   2    2.99    0.28
  -1  -3   2    3.59    0.33
   1  -3  -2    3.30    0.25
   1  -3  -2    2.99    0.23
   1  -3  -2    2.65    0.27
   1   3  -1   68.59    2.91
   1   3  -1   68.17    2.91
  -1   3   1   67.26    2.92
  -1   3   1   71.90    2.91
   1   3  -1   72.63    2.95
  -1  -3   1   68.84    2.93
  -1  -3   1   68.53    2.91
   1  -3  -1   66.90    2.89
   1  -3  -1   69.01    2.91
   1  -3  -1   71.56    2.91
  -1  -3   1   74.62    2.94
  -1   3   0   81.94    3.28
   1   3   0   78.32    3.30
  -1   3   0   78.42    3.30
   1   3   0   70.11    3.31
   1   3   0   79.79    3.28
  -1  -3   0   77.91    3.33
   1  -3   0   76.03    3.30
   1  -3   0   82.49    3.25
   1  -3   0   83.23    3.28
  -1  -3   0   76.48    3.30
  -1  -3   0   80.10    3.28
   1   3   1  185.78    7.52
  -1   3  -1  190.80    7.50
  -1   3  -1  178.87    7.52
  -1   3  -1  181.08    7.52
   1   3   1  178.41    7.51
  -1  -3  -1  185.21    7.52
  -1  -3  -1  170.15    7.51
   1  -3   1  183.42    7.52
   1  -3   1  177.01    7.51
   1  -3   1  187.23    7.50
  -1   3  -2    0.71    0.17
  -1   3  -2    0.62    0.17
   1   3   2    0.30    0.14
  -1   3  -2    0.83    0.17
   1   3   2    0.56    0.14
   1  -3   2    0.41    0.15
   1  -3   2    0.64    0.16
  -1  -3  -2    0.52    0.15
  -1  -3  -2    0.53    0.19
  -1  -3  -2    0.37    0.14
   1  -3   2    0.54    0.17
   1   3   3  237.03    9.89
   1   3   3  258.49    9.91
  -1   3  -3  232.43    9.89
  -1   3  -3  231.54    9.89
  -1   3  -3  232.09    9.89
   1   3   3  234.46    9.89
   1  -3   3  238.16    9.90
  -1  -3  -3  242.20    9.89
   1  -3   3  231.82    9.89
  -1  -3  -3  235.46    9.90
  -1  -3  -3  247.24    9.89
   1  -3   3  245.49    9.89
  -1   3  -4   13.27    0.79
  -1   3  -4   13.23    0.77
   1   3   4   14.94    0.77
   1   3   4   15.03    0.78
  -1   3  -4   13.45    0.77
   1   3   4   13.85    0.81
  -1  -3  -4   13.75    0.76
   1  -3   4   13.63    0.78
   1  -3   4   13.49    0.76
   1  -3   4   14.61    0.80
  -1  -3  -4   15.16    0.78
   1   3   5    2.97    0.36
  -1   3  -5    3.25    0.39
   1   3   5    3.38    0.39
  -1   3  -5    3.31    0.37
  -1   3  -5    2.90    0.41
   1   3   5    3.37    0.45
  -1  -3  -5    3.56    0.39
   1  -3   5    2.58    0.34
  -1  -3  -5    2.70    0.40
   1  -3   5    2.58    0.39
   1  -3   5    3.13    0.40
  -1  -3  -5    3.05    0.36
  -1   3  -6   18.29    1.12
  -1   3  -6   19.01    1.05
   1   3   6   19.18    1.12
   1   3   6   18.12    1.05
   1   3   6   18.09    1.06
  -1   3  -6   14.64    1.04
  -1  -3  -6   18.56    1.14
   1  -3   6   19.31    1.14
  -1  -3  -6   19.03    1.03
   1  -3   6   18.09    1.04
  -1  -3  -6   16.91    1.05
   1  -3   6   19.45    1.07
  -1   3  -7   36.29    1.99
   1   3   7   40.70    1.94
  -1   3  -7   39.49    1.90
  -1   3  -7   38.72    1.90
   1   3   7   38.23    1.92
   1   3   7   41.98    2.00
  -1  -3  -7   37.31    1.88
   1  -3   7   38.80    1.91
  -1  -3  -7   39.01    2.10
   1  -3   7   41.27    2.02
   1  -3   7   40.08    1.95
  -1  -3  -7   42.13    1.91
   1   3   8    1.07    0.52
   1   3   8    1.03    0.63
  -1   3  -8   -0.20    0.66
  -1   3  -8    0.27    0.49
  -1   3  -8    0.24    0.48
   1   3   8    0.92    0.55
   1  -3   8    2.16    0.75
   1  -3   8    0.69    0.50
   1  -3   8    0.36    0.57
  -1  -3  -8    1.92    0.50
  -1  -3  -8    0.51    0.50
  -1  -3  -8    1.65    0.68
   1   4  -8   38.31    2.14
   1   4  -8   43.77    1.91
  -1   4   8   39.84    2.01
  -1   4   8   40.13    2.02
  -1   4   8   42.83    2.12
  -1  -4   8   39.69    2.01
   1  -4  -8   44.11    2.15
  -1  -4   8   39.12    2.03
  -1  -4   8   43.31    2.19
   1  -4  -8   40.18    1.92
   1   4  -7    7.96    0.68
  -1   4   7    7.68    0.89
   1   4  -7    7.34    0.66
  -1   4   7    7.59    0.77
  -1   4   7    6.91    0.77
  -1  -4   7    8.39    0.96
   1  -4  -7    8.16    0.64
  -1  -4   7    7.88    0.79
   1  -4  -7    7.21    0.69
  -1  -4   7    9.40    0.78
  -1   4   6   18.47    1.02
  -1   4   6   19.93    1.11
  -1   4   6   17.82    1.03
   1   4  -6   19.02    0.99
   1   4  -6   19.25    0.97
   1  -4  -6   18.35    0.95
  -1  -4   6   16.68    1.01
   1  -4  -6   18.23    1.10
  -1  -4   6   19.38    1.05
  -1  -4   6   19.66    1.16
   1  -4  -6   19.60    1.00
  -1   4   5   33.82    1.52
  -1   4   5   31.56    1.50
   1   4  -5   33.27    1.49
  -1   4   5   34.40    1.55
   1   4  -5   32.16    1.57
   1   4  -5   34.67    1.48
   1  -4  -5   31.86    1.49
   1  -4  -5   36.10    1.57
  -1  -4   5   32.88    1.59
  -1  -4   5   32.52    1.52
   1  -4  -5   29.97    1.46
  -1  -4   5   30.90    1.50
   1   4  -4  130.35    5.23
  -1   4   4  112.78    5.17
  -1   4   4  130.23    5.19
  -1   4   4  124.15    5.18
   1   4  -4  131.32    5.16
   1  -4  -4  124.45    5.16
  -1  -4   4  124.74    5.19
   1  -4  -4  125.14    5.17
   1  -4  -4  121.60    5.19
  -1  -4   4  113.73    5.22
  -1  -4   4  122.52    5.18
  -1   4   3    4.82    0.38
   1   4  -3    4.94    0.46
   1   4  -3    4.78    0.36
  -1   4   3    4.71    0.40
   1   4  -3    5.31    0.40
  -1   4   3    5.25    0.40
  -1  -4   3    4.80    0.37
  -1  -4   3    6.00    0.47
   1  -4  -3    5.19    0.35
   1  -4  -3    4.95    0.39
   1  -4  -3    5.26    0.41
  -1  -4   3    5.14    0.41
  -1   4   2  133.24    5.41
  -1   4   2  134.87    5.44
   1   4  -2  126.82    5.41
  -1   4   2  130.27    5.42
   1   4  -2  123.97    5.43
   1  -4  -2  130.45    5.43
  -1  -4   2  128.43    5.44
   1  -4  -2  137.67    5.41
  -1  -4   2  125.33    5.42
   1  -4  -2  136.03    5.41
  -1  -4   2  130.26    5.46
  -1  -4   2  129.20    5.45
  -1   4   1  193.91    7.97
  -1   4   1  184.34    7.96
   1   4  -1  201.41    7.96
   1   4  -1  194.39    7.98
   1   4  -1  196.11    7.95
  -1  -4   1  195.93    7.96
  -1  -4   1  190.23    7.97
   1  -4  -1  175.51    7.92
   1  -4  -1  202.07    7.95
  -1  -4   1  189.22    7.98
  -1   4   0    0.22    0.16
   1   4   0    0.35    0.13
   1   4   0    0.32    0.19
   1   4   0    0.22    0.16
   1  -4   0    0.53    0.15
   1  -4   0    0.32    0.17
  -1  -4   0    0.23    0.19
  -1  -4   0    0.48    0.13
  -1  -4   0    0.35    0.16
  -1   4  -1  107.86    4.28
  -1   4  -1  103.22    4.30
   1   4   1   99.95    4.30
  -1   4  -1  103.69    4.31
   1   4   1  103.58    4.30
  -1  -4  -1  101.59    4.30
   1  -4   1  104.12    4.30
   1  -4   1   98.56    4.30
   1  -4   1  104.14    4.28
  -1  -4  -1  103.94    4.31
  -1   4  -2   53.91    2.33
  -1   4  -2   53.23    2.34
   1   4   2   55.46    2.34
  -1   4  -2   55.22    2.32
   1   4   2   57.04    2.34
   1  -4   2   52.55    2.33
  -1  -4  -2   53.93    2.33
  -1  -4  -2   54.95    2.35
  -1  -4  -2   51.97    2.33
   1  -4   2   53.93    2.33
   1  -4   2   59.07    2.34
   1   4   3   13.32    0.70
  -1   4  -3   12.89    0.70
  -1   4  -3   13.41    0.70
  -1   4  -3   12.55    0.70
   1   4   3   13.11    0.70
  -1  -4  -3   12.89    0.69
  -1  -4  -3   12.99    0.69
   1  -4   3   12.88    0.69
  -1  -4  -3   12.29    0.72
   1  -4   3   12.71    0.70
   1  -4   3   12.11    0.69
  -1   4  -4   26.04    1.22
   1   4   4   25.71    1.22
   1   4   4   23.01    1.24
  -1   4  -4   25.15    1.21
  -1   4  -4   26.72    1.23
   1   4   4   26.78    1.21
   1  -4   4   23.55    1.20
   1  -4   4   23.66    1.22
  -1  -4  -4   25.42    1.22
  -1  -4  -4   25.18    1.24
   1  -4   4   25.73    1.24
  -1  -4  -4   26.45    1.21
   1   4   5   64.06    2.85
  -1   4  -5   65.26    2.81
   1   4   5   60.42    2.80
   1   4   5   66.03    2.82
  -1   4  -5   65.53    2.81
  -1   4  -5   66.35    2.85
   1  -4   5   61.89    2.80
  -1  -4  -5   64.78    2.80
  -1  -4  -5   65.79    2.85
   1  -4   5   66.12    2.85
  -1  -4  -5   64.40    2.81
   1  -4   5   60.79    2.82
  -1   4  -6    4.79    0.56
   1   4   6    4.12    0.60
  -1   4  -6    5.18    0.51
   1   4   6    4.28    0.49
  -1   4  -6    4.20    0.48
   1   4   6    4.51    0.49
   1  -4   6    4.57    0.48
  -1  -4  -6    4.16    0.54
  -1  -4  -6    4.32    0.49
   1  -4   6    5.09    0.54
  -1  -4  -6    4.64    0.49
   1  -4   6    4.21    0.55
   1   4   7   11.64    0.96
  -1   4  -7   11.23    0.92
  -1   4  -7   11.79    1.05
   1   4   7   11.81    1.04
   1   4   7   10.86    0.94
   1  -4   7   11.95    1.10
  -1  -4  -7   11.59    1.09
  -1  -4  -7    9.52    0.83
   1  -4   7   12.38    0.95
  -1  -4  -7   11.70    0.93
   1  -4   7   12.08    0.96
   1   4   8   38.02    1.98
  -1   4  -8   37.30    1.92
   1   4   8   39.45    2.05
  -1   4  -8   39.73    1.91
   1   4   8   38.96    1.98
  -1   4  -8   35.85    2.05
  -1  -4  -8   33.44    2.09
  -1  -4  -8   38.86    1.93
  -1  -4  -8   39.19    1.91
   1  -4   8   38.21    2.09
   1  -4   8   37.74    1.96
   1  -4   8   37.66    2.00
  -1   5   8    1.36    0.52
   1   5  -8    3.50    0.75
  -1   5   8    1.04    0.50
   1   5  -8    2.56    0.45
  -1   5   8    3.38    0.67
  -1  -5   8    1.47    0.53
  -1  -5   8    2.57    0.54
   1  -5  -8    2.85    0.48
   1  -5  -8    1.59    0.63
  -1  -5   8    2.33    0.73
   1   5  -7    4.45    0.44
  -1   5   7    3.93    0.49
  -1   5   7    2.93    0.48
  -1   5   7    4.49    0.61
  -1  -5   7    3.94    0.49
  -1  -5   7    3.23    0.61
   1  -5  -7    4.09    0.42
  -1  -5   7    3.85    0.54
   1  -5  -7    3.94    0.46
  -1   5   6   56.57    2.49
  -1   5   6   55.16    2.47
   1   5  -6   59.10    2.43
  -1   5   6   54.51    2.51
   1  -5  -6   55.24    2.42
  -1  -5   6   54.70    2.47
  -1  -5   6   51.78    2.48
   1  -5  -6   54.52    2.52
  -1  -5   6   54.44    2.55
   1  -5  -6   58.21    2.45
  -1   5   5   64.60    2.83
  -1   5   5   63.21    2.83
   1   5  -5   66.58    2.79
  -1   5   5   69.63    2.83
   1   5  -5   62.72    2.88
  -1  -5   5   62.53    2.81
   1  -5  -5   68.83    2.86
  -1  -5   5   66.85    2.84
   1  -5  -5   62.10    2.80
  -1  -5   5   63.82    2.89
   1  -5  -5   63.90    2.78
  -1   5   4   12.13    0.70
   1   5  -4   12.20    0.76
   1   5  -4   10.83    0.64
  -1   5   4   12.48    0.68
  -1   5   4   11.32    0.69
  -1  -5   4   10.56    0.69
   1  -5  -4   11.82    0.69
   1  -5  -4   10.75    0.69
  -1  -5   4   12.88    0.78
   1  -5  -4   11.49    0.64
  -1  -5   4   11.48    0.68
  -1   5   3  157.76    6.68
   1   5  -3  161.28    6.72
   1   5  -3  162.24    6.67
  -1   5   3  162.75    6.70
  -1   5   3  156.69    6.67
   1   5  -3  158.49    6.69
   1  -5  -3  159.37    6.69
  -1  -5   3  174.67    6.69
   1  -5  -3  151.64    6.67
  -1  -5   3  165.73    6.72
   1  -5  -3  152.84    6.66
  -1  -5   3  170.83    6.73
  -1  -5   3  154.44    6.70
   1   5  -2  268.43   11.24
   1   5  -2  268.89   11.22
  -1   5   2  277.56   11.23
  -1   5   2  272.34   11.25
  -1  -5   2  271.95   11.26
   1  -5  -2  270.31   11.22
  -1  -5   2  256.27   11.23
  -1  -5   2  287.82   11.26
   1  -5  -2  283.56   11.24
  -1  -5   2  267.98   11.25
   1  -5  -2  263.50   11.21
   1   5  -1    1.10    0.19
  -1   5   1    1.35    0.23
   1   5  -1    1.36    0.24
   1   5  -1    1.49    0.22
  -1   5   1    1.73    0.23
  -1  -5   1    1.33    0.23
  -1  -5   1    1.18    0.21
  -1  -5   1    1.04    0.20
   1  -5  -1    2.01    0.23
  -1   5   0  158.42    6.66
  -1   5   0  156.87    6.64
   1   5   0  170.24    6.65
   1   5   0  155.17    6.67
   1   5   0  161.58    6.67
  -1   5   0  161.17    6.58
  -1  -5   0  155.92    6.64
  -1  -5   0  163.78    6.68
   1  -5   0  153.59    6.64
  -1  -5   0  150.78    6.66
   1  -5   0  170.18    6.67
   1   5   1  390.17   16.77
   1   5   1  401.06   16.76
  -1   5  -1  409.98   16.77
  -1   5  -1  401.74   16.76
  -1  -5  -1  432.86   16.78
   1  -5   1  423.16   16.74
   1  -5   1  405.19   16.76
   1  -5   1  389.51   16.77
   1  -5   1  405.05   16.72
  -1   5  -2    6.99    0.47
  -1   5  -2    7.53    0.45
  -1   5  -2    6.54    0.48
   1   5   2    6.59    0.47
   1   5   2    6.64    0.46
   1  -5   2    7.01    0.47
  -1  -5  -2    5.78    0.51
  -1  -5  -2    6.52    0.46
   1  -5   2    6.59    0.46
   1  -5   2    7.47    0.45
  -1  -5  -2    6.47    0.46
  -1   5  -3  363.15   14.42
   1   5   3  356.42   14.42
  -1   5  -3  346.82   14.41
  -1   5  -3  333.67   14.40
   1   5   3  350.61   14.42
   1  -5   3  336.42   14.41
  -1  -5  -3  317.91   14.40
   1  -5   3  346.39   14.41
  -1  -5  -3  362.18   14.42
  -1  -5  -3  353.41   14.42
   1  -5   3  368.11   14.42
   1   5   4   28.04    1.50
   1   5   4   32.23    1.51
  -1   5  -4   32.65    1.52
  -1   5  -4   32.00    1.51
  -1   5  -4   32.30    1.51
  -1  -5  -4   34.31    1.52
   1  -5   4   34.43    1.52
   1  -5   4   32.31    1.53
   1  -5   4   33.29    1.52
  -1  -5  -4   32.67    1.54
  -1  -5  -4   33.74    1.51
   1   5   5   17.84    0.97
  -1   5  -5   17.78    0.97
  -1   5  -5   17.69    0.96
   1   5   5   15.57    1.01
  -1   5  -5   16.12    0.99
   1   5   5   17.66    0.97
  -1  -5  -5   16.99    0.94
   1  -5   5   14.82    1.00
  -1  -5  -5   12.88    0.99
   1  -5   5   16.49    0.95
  -1  -5  -5   17.40    0.97
   1  -5   5   17.52    0.99
  -1   5  -6   87.49    3.77
   1   5   6   83.28    3.73
   1   5   6   93.47    3.77
   1   5   6   85.02    3.73
  -1   5  -6   87.16    3.71
  -1   5  -6   86.15    3.72
  -1  -5  -6   83.98    3.71
  -1  -5  -6   85.71    3.72
   1  -5   6   88.25    3.73
  -1  -5  -6   84.84    3.77
   1  -5   6   79.65    3.73
   1  -5   6   82.42    3.77
  -1   5  -7   27.94    1.61
  -1   5  -7   30.16    1.52
   1   5   7   25.73    1.58
   1   5   7   29.13    1.54
   1   5   7   26.63    1.52
   1  -5   7   27.95    1.52
   1  -5   7   30.75    1.66
   1  -5   7   27.48    1.54
  -1  -5  -7   28.04    1.52
  -1  -5  -7   28.37    1.62
  -1   5  -8    5.24    0.63
  -1   5  -8    4.83    0.81
   1   5   8    7.28    0.87
  -1   5  -8    4.47    0.63
   1   5   8    4.63    0.67
   1   5   8    4.06    0.69
  -1  -5  -8    4.72    0.64
   1  -5   8    5.18    0.69
   1  -5   8    3.54    0.67
  -1  -5  -8    4.35    0.61
   1  -5   8    4.88    0.81
  -1  -5  -8    5.40    0.85
   1   6  -8   23.20    1.27
  -1   6   8   21.98    1.42
  -1   6   8   24.18    1.42
  -1   6   8   20.97    1.48
   1   6  -8   23.02    1.60
   1  -6  -8   24.38    1.32
  -1  -6   8   23.21    1.43
  -1  -6   8   24.20    1.39
  -1  -6   8   20.33    1.58
   1  -6  -8   22.33    1.53
  -1   6   7   52.59    2.41
  -1   6   7   47.78    2.44
   1   6  -7   51.77    2.34
   1   6  -7   50.61    2.52
   1   6  -7   50.29    2.36
  -1   6   7   53.33    2.43
  -1  -6   7   53.46    2.41
   1  -6  -7   56.23    2.38
  -1  -6   7   49.80    2.42
   1  -6  -7   54.01    2.33
  -1  -6   7   52.44    2.54
  -1   6   6    3.32    0.46
  -1   6   6    2.85    0.43
  -1   6   6    2.33    0.48
   1   6  -6    3.67    0.41
   1  -6  -6    4.14    0.44
  -1  -6   6    3.23    0.58
  -1  -6   6    4.10    0.46
   1  -6  -6    2.49    0.49
  -1  -6   6    2.98    0.46
   1  -6  -6    3.13    0.37
   1   6  -5   76.54    3.66
  -1   6   5   84.28    3.62
  -1   6   5   82.67    3.63
   1   6  -5   83.89    3.61
   1   6  -5   84.57    3.59
  -1   6   5   87.91    3.63
   1  -6  -5   83.14    3.58
   1  -6  -5   83.22    3.61
  -1  -6   5   84.05    3.62
   1  -6  -5   86.73    3.64
  -1  -6   5   88.69    3.70
  -1  -6   5   85.33    3.64
   1   6  -4    3.01    0.41
  -1   6   4    4.99    0.53
   1   6  -4    4.49    0.51
   1   6  -4    4.65    0.46
  -1   6   4    3.92    0.49
  -1   6   4    4.70    0.49
   1  -6  -4    4.99    0.44
  -1  -6   4    5.22    0.61
   1  -6  -4    4.51    0.51
  -1  -6   4    4.63    0.50
  -1  -6   4    4.46    0.53
   1  -6  -4    4.59    0.50
  -1   6   3    4.84    0.44
  -1   6   3    4.86    0.49
   1   6  -3    4.55    0.47
   1   6  -3    4.39    0.43
  -1  -6   3    4.60    0.50
  -1  -6   3    4.24    0.44
  -1  -6   3    4.73    0.48
   1  -6  -3    4.48    0.40
   1  -6  -3    4.85    0.42
   1  -6  -3    4.03    0.48
  -1  -6   3    5.62    0.55
   1   6  -2  109.09    4.41
  -1   6   2  104.98    4.41
  -1   6   2   96.23    4.42
   1   6  -2  107.06    4.42
   1  -6  -2  104.10    4.42
  -1  -6   2  104.90    4.42
   1  -6  -2  107.99    4.38
  -1  -6   2  104.51    4.43
  -1  -6   2  105.40    4.41
  -1  -6   2  102.43    4.44
   1  -6  -2  106.87    4.40
  -1   6   1  164.07    6.66
   1   6  -1  158.53    6.65
   1   6  -1  159.95    6.66
  -1   6   1  153.57    6.66
   1   6  -1  159.45    6.65
  -1  -6   1  161.08    6.66
  -1  -6   1  160.19    6.66
  -1  -6   1  158.98    6.66
   1  -6  -1  158.70    6.65
   1   6   0    6.66    0.53
  -1   6   0    7.22    0.49
   1   6   0    7.18    0.54
  -1   6   0    5.95    0.52
   1   6   0    6.80    0.48
  -1   6   0    7.20    0.36
  -1  -6   0    6.29    0.53
  -1  -6   0    7.78    0.50
   1  -6   0    6.63    0.48
   1  -6   0    6.13    0.53
  -1   6  -1   92.85    3.94
   1   6   1   82.72    3.94
   1   6   1   93.85    3.92
   1   6   1   98.41    3.94
   1  -6   1   96.42    3.89
  -1  -6  -1   92.44    3.94
   1  -6   1   99.22    3.93
   1  -6   1   90.20    3.93
   1  -6   1   91.28    3.86
  -1  -6  -1   91.44    3.92
  -1   6  -2  159.66    6.19
   1   6   2  149.93    6.21
   1   6   2  142.80    6.20
  -1   6  -2  151.21    6.21
  -1  -6  -2  148.35    6.21
   1  -6   2  152.50    6.21
   1  -6   2  147.23    6.20
   1  -6   2  135.62    6.18
  -1  -6  -2  149.24    6.21
   1   6   3    9.11    0.61
  -1   6  -3    8.83    0.61
   1   6   3    9.85    0.61
  -1   6  -3    8.11    0.58
  -1   6  -3    7.72    0.61
  -1  -6  -3    7.74    0.65
  -1  -6  -3    8.74    0.61
   1  -6   3    9.26    0.61
   1  -6   3    8.16    0.59
   1  -6   3    8.72    0.61
  -1  -6  -3    8.86    0.59
   1   6   4   22.30    1.10
   1   6   4   20.75    1.10
  -1   6  -4   22.95    1.10
  -1   6  -4   18.51    1.08
  -1   6  -4   21.44    1.09
  -1  -6  -4   22.08    1.08
  -1  -6  -4   20.81    1.13
  -1  -6  -4   22.38    1.10
   1  -6   4   21.15    1.11
   1  -6   4   19.83    1.09
   1  -6   4   19.19    1.08
   1   6   5   90.06    3.77
  -1   6  -5   79.85    3.74
  -1   6  -5   86.30    3.77
   1   6   5   85.78    3.77
  -1   6  -5   89.42    3.76
   1  -6   5   84.97    3.76
  -1  -6  -5   84.41    3.79
   1  -6   5   88.28    3.79
   1  -6   5   89.34    3.78
  -1  -6  -5   91.41    3.75
  -1  -6  -5   87.89    3.76
  -1   6  -6   22.19    1.26
  -1   6  -6   23.68    1.33
  -1   6  -6   25.54    1.28
   1   6   6   20.82    1.26
   1   6   6   21.98    1.28
   1  -6   6   22.27    1.35
  -1  -6  -6   19.81    1.29
   1  -6   6   22.04    1.29
  -1  -6  -6   23.01    1.24
   1  -6   6   23.69    1.27
  -1  -6  -6   23.86    1.28
  -1   6  -7    9.29    1.06
   1   6   7    8.39    0.96
  -1   6  -7    7.93    0.92
   1   6   7    9.85    0.96
   1  -6   7    9.51    0.98
  -1  -6  -7   10.48    1.09
   1  -6   7    9.50    0.93
   1  -6   7   10.20    1.10
  -1  -6  -7    9.09    0.94
   1   6   8    3.47    0.63
  -1   6  -8    3.42    0.75
  -1   6  -8    3.56    0.63
  -1   6  -8    4.92    0.65
   1   6   8    1.96    0.69
   1  -6   8    4.35    0.85
   1  -6   8    3.22    0.76
   1  -6   8    3.15    0.59
  -1  -6  -8    3.79    0.65
  -1  -6  -8    2.71    0.82
  -1  -6  -8    5.04    0.63
   1   7  -8    1.59    0.49
  -1   7   8    2.66    0.59
  -1   7   8    1.91    0.70
  -1   7   8    0.93    0.54
   1  -7  -8    2.16    0.55
   1  -7  -8    1.57    0.70
  -1  -7   8    2.64    0.57
  -1  -7   8    1.95    0.62
  -1   7   7    3.55    0.62
   1   7  -7    4.32    0.72
  -1   7   7    3.12    0.53
   1   7  -7    3.03    0.50
  -1   7   7    2.36    0.51
   1   7  -7    3.43    0.47
   1  -7  -7    3.19    0.50
  -1  -7   7    3.72    0.54
  -1  -7   7    4.43    0.78
  -1  -7   7    3.08    0.58
   1  -7  -7    2.73    0.43
  -1   7   6   99.64    4.39
  -1   7   6   94.27    4.40
   1   7  -6  107.73    4.35
   1   7  -6  109.41    4.47
   1   7  -6  101.98    4.37
  -1  -7   6  102.09    4.48
  -1  -7   6  103.85    4.40
  -1  -7   6   96.71    4.41
   1  -7  -6  101.38    4.34
   1  -7  -6  101.81    4.42
   1  -7  -6  104.12    4.38
   1   7  -5    8.43    0.70
   1   7  -5    8.89    0.66
   1   7  -5    9.13    0.81
  -1   7   5    6.86    0.72
  -1   7   5    9.20    0.72
  -1  -7   5    8.36    0.84
  -1  -7   5    8.20    0.71
   1  -7  -5    8.15    0.63
   1  -7  -5    8.08    0.71
   1  -7  -5    8.50    0.73
  -1  -7   5    8.36    0.75
   1   7  -4   85.96    3.62
  -1   7   4   85.42    3.65
   1   7  -4   83.78    3.65
  -1   7   4   83.98    3.67
   1  -7  -4   92.41    3.64
  -1  -7   4   81.23    3.64
  -1  -7   4   89.11    3.68
   1  -7  -4   86.75    3.65
  -1  -7   4   80.79    3.70
  -1  -7   4   82.53    3.67
   1  -7  -4   83.77    3.61
   1   7  -3   83.95    3.50
  -1   7   3   76.04    3.48
   1   7  -3   79.93    3.47
  -1   7   3   80.89    3.51
   1  -7  -3   79.78    3.49
  -1  -7   3   83.20    3.54
  -1  -7   3   82.80    3.49
  -1  -7   3   81.95    3.51
   1  -7  -3   87.58    3.47
  -1  -7   3   80.42    3.50
   1  -7  -3   80.26    3.46
   1   7  -2    6.11    0.54
  -1   7   2    7.02    0.53
  -1   7   2    6.06    0.56
   1   7  -2    6.39    0.54
  -1  -7   2    7.40    0.54
  -1  -7   2    6.44    0.60
  -1  -7   2    6.64    0.57
   1  -7  -2    7.00    0.51
  -1  -7   2    6.16    0.53
   1  -7  -2    6.81    0.56
   1  -7  -2    6.81    0.47
   1   7  -1   32.73    1.47
   1   7  -1   28.46    1.46
  -1   7   1   28.82    1.46
   1   7  -1   30.83    1.45
  -1   7   1   31.73    1.46
  -1  -7   1   31.88    1.47
  -1  -7   1   32.05    1.46
   1  -7  -1   32.32    1.46
   1  -7  -1   33.09    1.45
  -1  -7   1   31.03    1.48
  -1   7   0  321.52   12.86
   1   7   0  315.62   12.86
   1   7   0  319.37   12.85
   1   7   0  309.99   12.84
  -1   7   0  300.92   12.84
  -1   7   0  298.50   12.76
  -1  -7   0  314.19   12.85
   1  -7   0  293.94   12.83
   1  -7   0  306.95   12.86
  -1  -7   0  317.89   12.87
  -1   7  -1    1.89    0.33
   1   7   1    1.24    0.29
   1   7   1    1.50    0.26
  -1   7  -1    1.39    0.26
   1   7   1    1.53    0.31
   1  -7   1    1.78    0.19
  -1  -7  -1    1.68    0.27
   1  -7   1    1.96    0.25
  -1  -7  -1    1.43    0.28
   1  -7   1    1.23    0.26
   1  -7   1    1.83    0.30
  -1   7  -2   25.86    1.30
   1   7   2   27.09    1.32
   1   7   2   28.56    1.32
  -1   7  -2   25.94    1.33
   1  -7   2   27.24    1.28
   1  -7   2   28.59    1.32
   1  -7   2   27.36    1.31
   1  -7   2   27.79    1.23
  -1  -7  -2   30.05    1.33
  -1  -7  -2   27.89    1.32
   1   7   3   21.83    1.09
  -1   7  -3   21.38    1.09
  -1   7  -3   21.21    1.09
  -1   7  -3   18.74    1.05
   1   7   3   21.36    1.09
  -1  -7  -3   23.48    1.09
   1  -7   3   20.69    1.09
   1  -7   3   21.83    1.10
  -1  -7  -3   21.66    1.09
  -1  -7  -3   20.40    1.12
   1  -7   3   21.09    1.08
  -1   7  -4   92.98    3.81
   1   7   4   80.02    3.80
  -1   7  -4   86.32    3.81
  -1   7  -4   95.97    3.82
   1   7   4   81.08    3.80
  -1  -7  -4   94.95    3.84
   1  -7   4   99.24    3.84
   1  -7   4   76.31    3.80
   1  -7   4   83.06    3.80
  -1  -7  -4   94.29    3.81
  -1  -7  -4   90.18    3.81
  -1   7  -5    1.50    0.39
  -1   7  -5    1.46    0.39
  -1   7  -5    2.45    0.48
   1   7   5    1.90    0.43
   1   7   5    1.43    0.41
   1  -7   5    1.79    0.42
   1  -7   5    1.67    0.43
  -1  -7  -5    2.73    0.42
   1  -7   5    2.24    0.41
  -1  -7  -5    2.27    0.43
  -1  -7  -5    0.94    0.44
  -1   7  -6   35.53    1.74
   1   7   6   36.62    1.76
  -1   7  -6   35.09    1.78
  -1   7  -6   29.82    1.70
   1   7   6   35.81    1.78
   1  -7   6   34.98    1.75
  -1  -7  -6   32.15    1.70
   1  -7   6   35.33    1.78
  -1  -7  -6   38.47    1.77
   1  -7   6   37.44    1.84
  -1   7  -7   13.76    1.17
  -1   7  -7   12.20    1.06
  -1   7  -7   13.79    1.08
   1   7   7   12.62    1.11
   1   7   7   13.05    1.15
  -1  -7  -7   13.17    1.09
   1  -7   7   14.32    1.10
   1  -7   7   14.45    1.14
  -1  -7  -7   13.78    1.26
  -1  -7  -7   13.27    1.05
   1  -7   7   14.29    1.25
  -1   8   7   19.08    1.29
   1   8  -7   20.45    1.42
  -1   8   7   17.60    1.25
   1   8  -7   19.50    1.16
   1   8  -7   19.64    1.20
   1  -8  -7   18.02    1.20
  -1  -8   7   19.75    1.27
   1  -8  -7   20.84    1.14
  -1  -8   7   18.27    1.28
  -1  -8   7   18.71    1.46
  -1   8   6    2.13    0.46
  -1   8   6    1.26    0.46
   1   8  -6    1.30    0.39
   1   8  -6    1.51    0.55
   1   8  -6    0.64    0.40
   1  -8  -6    1.45    0.50
  -1  -8   6    1.50    0.44
   1  -8  -6    1.12    0.37
   1  -8  -6    1.27    0.44
  -1  -8   6    0.73    0.46
  -1  -8   6    1.20    0.52
  -1   8   5  115.93    4.95
   1   8  -5  115.51    4.88
   1   8  -5  111.27    4.91
  -1   8   5  114.05    4.92
  -1  -8   5  118.73    4.95
   1  -8  -5  114.06    4.88
  -1  -8   5  119.17    4.96
  -1  -8   5  122.57    5.00
  -1  -8   5  107.78    4.91
   1  -8  -5  113.88    4.92
   1  -8  -5  114.80    4.91
  -1   8   4   18.02    1.07
   1   8  -4   18.69    1.07
   1   8  -4   17.65    1.04
  -1   8   4   21.79    1.12
  -1  -8   4   21.14    1.17
   1  -8  -4   18.65    1.08
   1  -8  -4   21.20    1.03
  -1  -8   4   19.69    1.07
   1  -8  -4   20.22    1.05
  -1  -8   4   21.58    1.11
  -1  -8   4   17.34    1.10
   1   8  -3    0.06    0.28
  -1   8   3   -0.33    0.28
   1   8  -3    0.41    0.29
  -1   8   3    0.42    0.30
  -1  -8   3   -0.49    0.26
   1  -8  -3    0.27    0.30
   1  -8  -3    0.17    0.25
  -1  -8   3    0.21    0.34
  -1  -8   3   -0.21    0.31
   1  -8  -3    0.00    0.27
  -1  -8   3    0.46    0.30
   1   8  -2    8.12    0.65
  -1   8   2    7.33    0.65
  -1   8   2    7.72    0.63
   1   8  -2    8.73    0.63
  -1  -8   2    7.24    0.62
   1  -8  -2    8.29    0.61
  -1  -8   2    8.73    0.71
   1  -8  -2    8.55    0.66
   1  -8  -2    8.46    0.56
  -1  -8   2    8.39    0.63
  -1  -8   2    7.68    0.67
   1   8  -1  113.61    4.74
   1   8  -1  117.70    4.74
  -1   8   1  108.91    4.76
  -1   8   1  113.27    4.75
  -1   8   1  109.12    4.67
   1   8  -1  105.84    4.75
  -1  -8   1  108.39    4.74
  -1  -8   1  113.41    4.77
   1  -8  -1  116.47    4.74
   1  -8  -1  111.12    4.75
   1   8   0    8.33    0.63
  -1   8   0    8.72    0.63
   1   8   0    8.73    0.62
  -1   8   0    7.83    0.67
   1   8   0    8.28    0.67
  -1   8   0    8.69    0.47
   1  -8   0    7.09    0.62
  -1  -8   0    7.91    0.68
  -1  -8   0    7.68    0.64
   1  -8   0    7.91    0.67
   1   8   1  134.08    5.93
  -1   8  -1  129.01    5.94
   1   8   1  141.52    5.94
   1   8   1  140.83    5.93
  -1   8  -1  145.49    5.93
   1  -8   1  138.99    5.85
  -1  -8  -1  142.35    5.93
   1  -8   1  137.08    5.94
  -1  -8  -1  145.73    5.95
   1  -8   1  150.18    5.88
   1  -8   1  142.58    5.93
   1   8   2   60.62    2.59
  -1   8  -2   58.22    2.60
   1   8   2   56.76    2.58
   1  -8   2   59.69    2.50
   1  -8   2   52.88    2.57
  -1  -8  -2   58.66    2.59
   1  -8   2   59.06    2.54
   1  -8   2   61.96    2.59
  -1  -8  -2   59.07    2.58
  -1   8  -3   16.72    0.98
   1   8   3   16.01    0.96
   1   8   3   16.65    0.97
  -1   8  -3   15.60    0.94
   1  -8   3   17.26    0.86
   1  -8   3   16.27    0.93
   1  -8   3   15.73    0.94
  -1  -8  -3   17.54    0.96
  -1  -8  -3   17.16    0.96
  -1  -8  -3   16.33    1.00
   1  -8   3   16.89    0.97
  -1   8  -4   16.89    1.00
   1   8   4   17.36    1.02
  -1   8  -4   15.92    1.02
  -1   8  -4   17.22    1.02
   1   8   4   18.01    1.03
   1  -8   4   16.86    1.03
  -1  -8  -4   16.09    1.00
   1  -8   4   17.95    1.04
   1  -8   4   17.39    1.01
  -1  -8  -4   15.98    1.01
   1   8   5   80.27    3.38
   1   8   5   80.21    3.37
  -1   8  -5   73.94    3.36
  -1   8  -5   76.97    3.36
  -1   8  -5   77.49    3.37
   1  -8   5   75.43    3.37
  -1  -8  -5   75.95    3.35
  -1  -8  -5   76.11    3.36
  -1  -8  -5   73.21    3.39
   1  -8   5   71.64    3.35
   1  -8   5   76.50    3.39
  -1   8  -6    0.29    0.45
  -1   8  -6    0.83    0.52
   1   8   6   -0.06    0.47
   1   8   6    0.32    0.45
   1  -8   6    0.10    0.49
   1  -8   6    0.55    0.47
  -1  -8  -6    0.23    0.45
   1  -8   6    0.11    0.57
   1   8   7   10.19    1.10
  -1   8  -7    9.80    1.05
  -1   8  -7    9.86    1.16
  -1   8  -7   11.37    1.08
   1   8   7   12.52    1.14
   1  -8   7   11.81    1.10
  -1  -8  -7   11.18    1.27
   1  -8   7   14.48    1.29
  -1  -8  -7   11.53    1.06
   1  -8   7   12.38    1.15
  -1  -8  -7   11.46    1.08
  -1   9   7    7.86    0.99
  -1   9   7   10.12    1.09
   1   9  -7    7.50    0.88
   1   9  -7   11.34    0.97
  -1  -9   7    9.27    1.15
   1  -9  -7    9.89    0.85
   1  -9  -7    7.51    0.95
  -1  -9   7    6.29    0.83
  -1  -9   7   10.22    1.02
  -1  -9   7    8.66    1.06
   1  -9  -7    9.20    1.08
   1   9  -6   71.65    3.08
  -1   9   6   68.79    3.16
   1   9  -6   71.77    3.12
  -1   9   6   69.39    3.14
  -1  -9   6   67.63    3.17
   1  -9  -6   74.92    3.07
  -1  -9   6   70.88    3.13
   1  -9  -6   59.43    3.09
   1  -9  -6   73.72    3.16
  -1  -9   6   67.63    3.24
  -1   9   5    6.80    0.86
   1   9  -5    7.54    0.73
  -1   9   5    8.40    0.81
   1   9  -5    7.82    0.77
   1  -9  -5    6.37    0.76
  -1  -9   5    7.16    0.91
   1  -9  -5    6.40    0.69
  -1  -9   5    6.56    0.78
  -1  -9   5    7.64    0.85
   1  -9  -5    6.62    0.78
  -1  -9   5    7.78    0.83
  -1   9   4   28.78    1.46
   1   9  -4   27.35    1.43
  -1   9   4   26.54    1.49
   1   9  -4   29.04    1.45
  -1  -9   4   30.39    1.55
  -1  -9   4   27.51    1.45
   1  -9  -4   28.09    1.42
  -1  -9   4   30.21    1.47
   1  -9  -4   32.50    1.43
   1  -9  -4   29.07    1.45
  -1  -9   4   27.87    1.50
   1   9  -3    3.33    0.42
  -1   9   3    3.94    0.45
   1   9  -3    3.47    0.43
  -1   9   3    3.51    0.45
  -1  -9   3    4.63    0.57
  -1  -9   3    5.22    0.60
  -1  -9   3    4.05    0.44
   1  -9  -3    3.52    0.46
   1  -9  -3    3.94    0.41
  -1  -9   3    2.80    0.43
   1  -9  -3    4.81    0.56
  -1   9   2   81.10    3.39
  -1   9   2   71.93    3.37
   1   9  -2   80.52    3.37
   1   9  -2   77.50    3.38
  -1  -9   2   78.18    3.40
  -1  -9   2   76.27    3.38
  -1  -9   2   78.20    3.36
   1  -9  -2   79.52    3.31
  -1  -9   2   77.99    3.39
   1  -9  -2   74.08    3.36
  -1   9   1    7.25    0.50
   1   9  -1    6.75    0.72
   1   9  -1    7.31    0.65
   1   9  -1    8.28    0.65
  -1   9   1    8.01    0.70
  -1   9   1    7.68    0.68
   1  -9  -1    6.85    0.68
  -1  -9   1    7.71    0.66
   1  -9  -1    8.47    0.66
  -1  -9   1    8.18    0.71
  -1   9   0  348.46   13.71
  -1   9   0  326.79   13.59
  -1   9   0  336.50   13.69
   1   9   0  328.41   13.67
   1   9   0  317.83   13.67
   1   9   0  334.38   13.70
   1  -9   0  312.98   13.67
  -1  -9   0  345.20   13.71
  -1  -9   0  313.03   13.68
   1  -9   0  331.51   13.70
   1   9   1    0.26    0.30
   1   9   1    0.53    0.30
  -1   9  -1   -0.23    0.34
  -1   9  -1    0.15    0.28
   1   9   1    0.21    0.35
   1  -9   1   -0.19    0.29
   1  -9   1   -0.08    0.28
   1  -9   1    0.33    0.21
   1  -9   1    0.01    0.26
  -1  -9  -1   -0.38    0.33
  -1  -9  -1   -0.14    0.32
  -1   9  -2   25.59    1.29
  -1   9  -2   26.75    1.34
   1   9   2   25.36    1.30
   1   9   2   24.02    1.30
   1   9   2   25.56    1.31
   1  -9   2   24.42    1.28
   1  -9   2   25.17    1.31
  -1  -9  -2   25.55    1.31
   1  -9   2   26.21    1.17
  -1  -9  -2   24.68    1.29
   1  -9   2   24.43    1.24
   1   9   3    0.14    0.37
   1   9   3    0.42    0.36
  -1   9  -3    0.50    0.37
  -1  -9  -3    0.56    0.36
  -1  -9  -3    0.13    0.40
   1  -9   3    1.19    0.37
   1  -9   3    0.27    0.31
   1  -9   3    0.90    0.26
   1  -9   3    0.23    0.37
  -1  -9  -3    0.34    0.36
  -1   9  -4  137.09    5.80
   1   9   4  139.72    5.80
   1   9   4  133.59    5.79
   1  -9   4  128.96    5.78
   1  -9   4  135.52    5.78
   1  -9   4  143.35    5.81
  -1  -9  -4  132.32    5.80
  -1  -9  -4  136.62    5.78
  -1  -9  -4  137.44    5.79
   1  -9   4  135.21    5.73
  -1   9  -5   -0.20    0.42
  -1   9  -5   -0.02    0.32
   1   9   5    0.70    0.44
  -1   9  -5    0.25    0.45
   1   9   5    0.10    0.45
  -1  -9  -5   -0.33    0.50
   1  -9   5    0.29    0.45
  -1  -9  -5    0.05    0.37
  -1  -9  -5   -0.12    0.42
   1  -9   5    0.29    0.41
   1  -9   5   -0.19    0.44
  -1   9  -6   69.86    3.13
  -1   9  -6   63.98    3.13
   1   9   6   67.82    3.14
   1   9   6   69.64    3.16
  -1   9  -6   69.21    3.13
   1  -9   6   69.45    3.14
  -1  -9  -6   71.08    3.13
  -1  -9  -6   70.22    3.17
   1  -9   6   71.33    3.20
  -1  -9  -6   67.17    3.29
   1  -9   6   67.08    3.16
  -1   9  -7    2.82    0.64
   1   9   7    2.94    0.65
   1   9   7    4.09    0.71
  -1   9  -7    3.12    0.72
  -1   9  -7    3.77    0.63
  -1  -9  -7    1.75    0.64
   1  -9   7    2.68    0.68
  -1  -9  -7    2.76    0.59
   1  -9   7    2.97    0.61
  -1  -9  -7    1.40    0.70
   1  -9   7    3.89    0.77
   1  10  -7   27.44    1.50
  -1  10   7   27.37    1.61
  -1  10   7   25.61    1.68
  -1 -10   7   27.02    1.71
   1 -10  -7   25.15    1.64
  -1 -10   7   27.11    1.62
  -1 -10   7   24.26    1.63
   1 -10  -7   27.28    1.54
  -1  10   6   14.90    1.20
  -1  10   6   14.74    1.16
   1  10  -6   16.60    1.11
   1  10  -6   15.00    1.07
  -1 -10   6   16.79    1.36
   1 -10  -6   12.50    1.14
   1 -10  -6   15.08    1.09
   1 -10  -6   16.32    1.05
  -1 -10   6   14.68    1.16
  -1 -10   6   14.62    1.31
  -1 -10   6   14.73    1.20
   1  10  -5   74.76    3.40
  -1  10   5   68.06    3.45
  -1  10   5   75.33    3.43
   1  10  -5   82.94    3.40
   1 -10  -5   72.08    3.39
  -1 -10   5   81.41    3.51
  -1 -10   5   73.09    3.42
  -1 -10   5   74.85    3.47
   1 -10  -5   80.87    3.42
   1 -10  -5   82.97    3.39
  -1 -10   5   80.70    3.45
   1  10  -4   16.32    1.08
  -1  10   4   16.50    1.13
   1  10  -4   17.16    1.06
  -1  10   4   18.19    1.11
  -1 -10   4   15.61    1.17
   1 -10  -4   18.40    1.04
  -1 -10   4   17.91    1.14
   1 -10  -4   17.74    1.09
  -1 -10   4   17.95    1.09
   1 -10  -4   17.94    1.02
  -1 -10   4   15.82    1.07
   1  10  -3    1.19    0.42
   1  10  -3    0.93    0.38
  -1  10   3    0.72    0.40
  -1  10   3    0.32    0.39
   1 -10  -3    0.56    0.36
  -1 -10   3    0.80    0.35
  -1 -10   3    0.27    0.43
   1 -10  -3    0.26    0.38
   1 -10  -3    0.59    0.35
  -1 -10   3    0.45    0.37
  -1 -10   3    0.36    0.37
  -1  10   2    1.49    0.38
   1  10  -2    2.37    0.38
  -1  10   2    2.18    0.42
  -1  10   2    2.95    0.34
   1  10  -2    1.67    0.42
  -1 -10   2    2.65    0.40
  -1 -10   2    1.75    0.40
  -1 -10   2    2.39    0.45
   1 -10  -2    2.31    0.38
  -1 -10   2    1.93    0.46
   1 -10  -2    2.55    0.42
   1  10  -1  352.93   15.50
   1  10  -1  358.83   15.48
   1  10  -1  363.48   15.48
  -1  10   1  392.73   15.52
  -1  10   1  382.57   15.42
  -1  10   1  385.80   15.52
  -1 -10   1  372.12   15.52
   1 -10  -1  367.87   15.51
  -1 -10   1  386.56   15.50
   1 -10  -1  370.90   15.49
  -1  10   0    9.04    0.54
   1  10   0   10.47    0.82
   1  10   0    8.32    0.75
   1  10   0    9.37    0.73
  -1  10   0    9.40    0.81
  -1  10   0    8.87    0.76
   1 -10   0    9.30    0.80
  -1 -10   0    9.14    0.82
  -1 -10   0    8.25    0.78
   1 -10   0    9.26    0.77
   1  10   1  136.38    5.60
  -1  10  -1  123.79    5.61
   1  10   1  135.47    5.62
   1  10   1  133.39    5.58
  -1  10  -1  119.82    5.58
  -1 -10  -1  128.82    5.62
  -1 -10  -1  130.81    5.60
   1 -10   1  142.34    5.63
   1 -10   1  135.61    5.53
   1 -10   1  128.31    5.59
   1  10   2    4.30    0.50
  -1  10  -2    3.46    0.45
  -1  10  -2    5.16    0.58
   1  10   2    4.16    0.49
   1  10   2    4.05    0.47
   1 -10   2    4.53    0.58
  -1 -10  -2    3.74    0.48
   1 -10   2    4.64    0.52
  -1 -10  -2    5.53    0.54
   1 -10   2    4.96    0.46
   1 -10   2    4.34    0.51
  -1  10  -3   16.34    1.03
   1  10   3   14.21    1.01
  -1  10  -3   14.30    1.05
   1 -10   3   16.05    0.85
  -1 -10  -3   15.06    1.00
   1 -10   3   16.69    0.96
  -1 -10  -3   14.19    1.04
  -1 -10  -3   13.50    1.01
   1 -10   3   13.96    1.03
  -1  10  -4    0.50    0.46
   1  10   4    0.30    0.44
  -1 -10  -4    0.59    0.48
   1 -10   4    0.10    0.45
   1 -10   4    0.53    0.33
   1 -10   4    0.25    0.44
  -1 -10  -4    0.96    0.43
  -1 -10  -4    0.34    0.40
   1  10   5  167.71    7.21
   1  10   5  170.25    7.23
  -1  10  -5  176.71    7.22
  -1 -10  -5  166.49    7.20
   1 -10   5  179.43    7.24
   1 -10   5  174.14    7.22
   1 -10   5  155.96    7.14
   1 -10   5  165.94    7.20
   1  10   6    0.78    0.58
  -1  10  -6    0.56    0.54
  -1  10  -6    0.16    0.52
   1  10   6    0.24    0.53
  -1 -10  -6    0.75    0.65
  -1 -10  -6    0.41    0.50
   1 -10   6   -0.12    0.58
  -1 -10  -6    0.37    0.53
   1 -10   6   -0.11    0.48
   1 -10   6    0.07    0.54
   1 -10   6    0.26    0.53
   1  11  -6   58.07    2.67
  -1  11   6   58.79    2.75
  -1  11   6   53.82    2.78
  -1 -11   6   56.81    2.86
  -1 -11   6   61.41    2.78
  -1 -11   6   60.53    2.80
  -1 -11   6   54.67    2.72
   1 -11  -6   56.14    2.68
  -1  11   5   -0.13    0.48
   1  11  -5    0.31    0.44
  -1  11   5   -0.08    0.52
   1  11  -5   -0.26    0.45
   1 -11  -5    0.31    0.43
  -1 -11   5   -0.28    0.46
  -1 -11   5   -0.64    0.52
  -1 -11   5    0.10    0.59
   1 -11  -5   -0.34    0.46
  -1 -11   5    0.31    0.45
   1 -11  -5   -0.10    0.44
   1  11  -4   42.32    1.96
  -1  11   4   35.16    1.98
   1  11  -4   40.45    1.92
  -1  11   4   39.50    1.98
  -1 -11   4   36.22    2.00
   1 -11  -4   42.45    1.93
   1 -11  -4   37.15    1.87
  -1 -11   4   41.01    1.94
  -1 -11   4   38.10    1.96
   1 -11  -4   41.31    1.96
  -1 -11   4   39.34    1.99
  -1  11   3   32.35    1.71
   1  11  -3   36.55    1.74
   1  11  -3   35.48    1.69
  -1  11   3   33.10    1.74
   1 -11  -3   33.47    1.69
  -1 -11   3   35.22    1.75
  -1 -11   3   32.75    1.71
  -1 -11   3   34.57    1.68
   1 -11  -3   32.72    1.62
  -1 -11   3   31.96    1.75
  -1  11   2   64.39    2.86
  -1  11   2   66.58    2.86
  -1  11   2   61.24    2.73
   1  11  -2   59.74    2.85
   1  11  -2   65.79    2.83
  -1 -11   2   61.63    2.81
   1 -11  -2   57.81    2.81
  -1 -11   2   63.39    2.87
  -1 -11   2   61.31    2.85
  -1 -11   2   68.07    2.86
   1 -11  -2   64.71    2.85
   1 -11  -2   59.62    2.76
  -1  11   1    7.84    0.78
   1  11  -1    7.20    0.85
  -1  11   1    7.89    0.55
   1  11  -1    8.80    0.73
   1  11  -1    7.68    0.76
  -1  11   1    8.33    0.83
   1 -11  -1    5.73    0.76
  -1 -11   1    6.88    0.82
  -1 -11   1    7.90    0.80
   1 -11  -1    6.11    0.79
   1  11   0  105.43    4.62
   1  11   0  113.41    4.65
  -1  11   0  112.62    4.65
   1  11   0  108.88    4.59
  -1  11   0  105.23    4.62
   1 -11   0  110.47    4.64
  -1 -11   0  109.82    4.65
   1 -11   0  103.41    4.53
  -1 -11   0  100.09    4.62
   1 -11   0  102.57    4.61
   1  11   1    8.13    0.84
   1  11   1    8.43    0.80
  -1  11  -1    6.81    0.84
   1  11   1    8.38    0.74
  -1  11  -1    8.05    0.78
   1 -11   1    7.33    0.83
  -1 -11  -1    9.32    0.83
  -1 -11  -1    7.96    0.86
   1 -11   1    8.66    0.67
   1 -11   1    6.96    0.81
  -1  11  -2    4.12    0.54
   1  11   2    3.71    0.53
   1  11   2    2.79    0.46
  -1  11  -2    2.07    0.50
   1 -11   2    3.65    0.46
   1 -11   2    3.41    0.35
  -1 -11  -2    4.54    0.58
   1 -11   2    2.98    0.53
   1 -11   2    3.14    0.54
  -1 -11  -2    2.83    0.49
  -1  11  -3    3.72    0.60
  -1  11  -3    4.18    0.56
   1  11   3    3.15    0.52
   1  11   3    3.23    0.52
   1 -11   3    2.83    0.51
   1 -11   3    3.78    0.40
  -1 -11  -3    3.23    0.53
   1 -11   3    3.62    0.51
  -1 -11  -3    3.83    0.53
  -1 -11  -3    2.87    0.59
   1  11   4   17.49    1.21
  -1  11  -4   19.37    1.27
  -1 -11  -4   18.06    1.25
   1 -11   4   17.93    1.03
   1 -11   4   16.20    1.21
  -1 -11  -4   17.01    1.19
   1 -11   4   17.94    1.19
  -1  11  -5    1.59    0.56
   1  11   5    0.78    0.52
   1  11   5   -0.16    0.56
  -1  11  -5    0.44    0.58
  -1 -11  -5    0.39    0.53
  -1 -11  -5    0.47    0.53
   1 -11   5    1.06    0.60
   1 -11   5    0.86    0.55
   1 -11   5    0.57    0.43
   1 -11   5    0.97    0.48
  -1  11  -6   55.72    2.78
   1  11   6   57.78    2.80
  -1  11  -6   60.23    2.80
   1  11   6   60.59    2.84
   1 -11   6   58.44    2.78
  -1 -11  -6   57.05    2.86
   1 -11   6   57.25    2.83
  -1 -11  -6   58.65    2.79
  -1 -11  -6   56.66    2.78
   1 -11   6   57.95    2.83
  -1  12   6   -0.91    0.65
   1  12  -6    0.57    0.54
  -1  12   6   -0.15    0.61
   1  12  -6    0.72    0.57
  -1 -12   6    0.85    0.60
  -1 -12   6    0.64    0.77
  -1 -12   6    0.95    0.61
   1 -12  -6    1.27    0.60
  -1 -12   6    0.42    0.62
   1 -12  -6    0.62    0.56
   1  12  -5   64.74    2.85
  -1  12   5   65.49    2.90
  -1  12   5   60.94    2.92
   1 -12  -5   58.82    2.79
   1 -12  -5   58.89    2.83
  -1 -12   5   59.95    2.92
  -1 -12   5   58.40    2.94
  -1 -12   5   59.18    2.88
   1  12  -4    9.01    1.00
  -1  12   4   10.64    1.04
  -1  12   4    8.59    1.03
  -1 -12   4    9.56    0.97
  -1 -12   4    8.85    1.04
  -1 -12   4   10.16    0.94
   1 -12  -4   10.17    0.94
  -1 -12   4    8.07    1.06
   1 -12  -4    7.61    0.85
   1  12  -3   -0.39    0.40
  -1  12   3   -0.14    0.47
  -1  12   3    0.39    0.45
  -1  12   3   -0.38    0.34
   1  12  -3    0.50    0.50
  -1 -12   3   -0.35    0.43
  -1 -12   3    0.44    0.53
   1 -12  -3   -0.17    0.40
  -1 -12   3   -0.10    0.44
   1 -12  -3   -0.52    0.44
  -1 -12   3    0.53    0.40
   1  12  -2   13.60    1.07
  -1  12   2   12.74    1.02
  -1  12   2   14.88    1.04
  -1  12   2   12.57    0.79
   1  12  -2   12.83    0.98
  -1 -12   2   13.28    1.05
  -1 -12   2   11.92    1.00
   1 -12  -2   12.69    1.03
  -1 -12   2   13.29    1.04
   1 -12  -2    9.80    0.87
  -1 -12   2   12.04    0.92
   1 -12  -2   13.65    0.97
   1  12  -1   45.78    2.07
  -1  12   1   48.65    2.18
   1  12  -1   44.29    2.11
   1  12  -1   45.07    2.16
  -1  12   1   44.45    1.96
  -1  12   1   42.68    2.13
   1 -12  -1   44.24    2.15
  -1 -12   1   43.32    2.13
   1 -12  -1   43.30    2.11
  -1 -12   1   43.67    2.15
  -1 -12   1   42.02    2.10
  -1  12   0    2.55    0.53
   1  12   0    2.49    0.52
   1  12   0    1.45    0.40
   1  12   0    1.56    0.44
   1 -12   0    2.07    0.39
   1 -12   0    1.28    0.44
   1 -12   0    2.14    0.48
   1  12   1   81.95    3.69
  -1  12  -1   85.70    3.73
   1  12   1   82.90    3.71
   1  12   1   84.78    3.65
  -1 -12  -1   80.75    3.69
   1 -12   1   84.42    3.70
   1 -12   1   84.46    3.61
   1 -12   1   82.20    3.71
   1  12   2    2.61    0.55
  -1  12  -2    1.10    0.52
   1  12   2    1.94    0.45
   1 -12   2    2.31    0.55
  -1 -12  -2    2.27    0.51
   1 -12   2    1.73    0.46
   1 -12   2    2.26    0.35
  -1  12  -3    7.50    0.76
   1  12   3    8.40    0.96
   1  12   3    6.90    0.89
   1 -12   3    7.62    0.67
   1 -12   3    7.99    0.97
   1 -12   3    6.38    0.83
  -1 -12  -3    8.15    0.81
  -1 -12  -3    7.41    0.93
  -1  12  -4    0.34    0.53
   1  12   4    1.79    0.67
  -1  12  -4    0.77    0.57
   1  12   4    1.36    0.59
   1 -12   4    1.12    0.40
   1 -12   4    0.47    0.55
  -1 -12  -4    0.80    0.53
   1 -12   4    0.32    0.52
  -1 -12  -4    0.31    0.55
  -1 -12  -4    0.44    0.55
   1  12   5   29.12    1.73
  -1  12  -5   31.61    1.79
  -1  12  -5   29.44    1.72
   1  12   5   27.78    1.76
  -1 -12  -5   27.61    1.70
   1 -12   5   29.37    1.71
   1 -12   5   28.51    1.76
   1 -12   5   29.15    1.70
  -1 -12  -5   27.89    1.74
  -1 -12  -5   27.59    1.77
   1 -12   5   32.79    1.57
  -1 -12  -6    0.55    0.68
  -1  13   5   -0.26    0.71
   1  13  -5    0.91    0.63
  -1  13   5    0.70    0.63
   1  13  -5    1.56    0.56
  -1 -13   5    1.71    0.57
   1 -13  -5    0.95    0.59
   1 -13  -5    1.47    0.55
  -1 -13   5    0.96    0.75
  -1 -13   5    0.57    0.67
   1  13  -4   26.40    1.58
   1  13  -4   23.64    1.64
  -1  13   4   25.13    1.60
  -1  13   4   25.09    1.62
  -1 -13   4   24.35    1.63
  -1 -13   4   26.35    1.52
   1 -13  -4   26.02    1.44
  -1 -13   4   27.07    1.63
  -1 -13   4   28.91    1.63
  -1  13   3    3.12    0.45
  -1  13   3    3.21    0.65
  -1  13   3    3.26    0.63
   1  13  -3    1.91    0.59
  -1 -13   3    2.44    0.50
  -1 -13   3    3.10    0.60
  -1 -13   3    2.32    0.62
   1 -13  -3    2.95    0.52
  -1 -13   3    2.39    0.59
   1 -13  -3    2.95    0.53
  -1  13   2   21.01    1.35
  -1  13   2   20.80    1.36
   1  13  -2   19.44    1.37
  -1  13   2   20.22    1.11
  -1 -13   2   22.68    1.37
  -1 -13   2   19.94    1.37
   1 -13  -2   21.49    1.31
  -1 -13   2   24.73    1.29
   1 -13  -2   19.96    1.21
  -1 -13   2   21.85    1.35
  -1  13   1    1.88    0.32
   1  13  -1    2.21    0.55
  -1  13   1    1.76    0.46
  -1  13   1    2.99    0.57
  -1 -13   1    2.67    0.57
  -1 -13   1    3.13    0.56
   1 -13  -1    1.39    0.47
   1  13   0  145.46    6.11
   1  13   0  149.55    6.19
  -1  13   0  139.08    6.19
   1 -13   0  149.95    6.18
   1 -13   0  136.33    6.07
   1  13   1    1.97    0.54
  -1  13  -1    1.04    0.52
   1  13   1    1.59    0.43
   1 -13   1    1.83    0.50
   1 -13   1    1.40    0.44
  -1 -13  -1    1.85    0.56
   1  13   2   11.97    0.97
   1  13   2   11.89    1.10
  -1  13  -2   13.62    1.50
  -1  13  -2    9.70    1.11
  -1 -13  -2   11.26    1.15
   1 -13   2   11.74    0.92
   1 -13   2   11.55    1.07
  -1 -13  -2   10.91    1.05
  -1  13  -3   10.01    0.93
   1  13   3   13.10    1.14
  -1  13  -3   11.40    1.08
   1  13   3   10.26    1.00
  -1 -13  -3    9.92    1.09
   1 -13   3    9.61    1.08
  -1 -13  -3    6.98    0.82
  -1 -13  -3   10.06    1.08
   1 -13   3    8.87    0.93
  -1  13  -4   63.41    3.01
   1  13   4   62.92    2.97
   1  13   4   59.17    2.98
   1  13   4   63.04    2.98
  -1  13  -4   62.68    2.96
   1 -13   4   59.04    2.96
  -1 -13  -4   64.15    2.97
   1 -13   4   63.80    2.91
  -1 -13  -4   60.11    3.00
   1 -13   4   64.31    2.98
   1  13   5   -0.12    0.69
  -1  13  -5    0.09    0.71
   1  13   5   -0.15    0.58
  -1  13  -5    0.40    0.64
  -1 -13  -5    0.29    0.65
   1 -13   5    0.23    0.65
   1 -13   5    0.54    0.56
   1 -13   5   -0.54    0.34
  -1 -13  -5    0.28    0.66
   1 -13   5    0.89    0.64
  -1 -13  -5    0.04    0.74
  -1  14   4   43.13    2.38
  -1  14   4   45.89    2.21
   1  14  -4   45.51    2.26
   1  14  -4   42.09    2.33
  -1  14   4   48.47    2.38
  -1 -14   4   45.26    2.36
  -1 -14   4   44.06    2.37
  -1 -14   4   46.34    2.39
   1 -14  -4   47.09    2.25
   1 -14  -4   43.32    2.31
  -1  14   3    0.75    0.56
  -1  14   3   -0.14    0.59
   1  14  -3   -0.35    0.49
  -1  14   3    0.60    0.41
   1  14  -3   -0.52    0.57
  -1 -14   3    0.35    0.61
   1 -14  -3   -0.56    0.48
  -1 -14   3    0.09    0.49
  -1 -14   3    0.38    0.64
   1 -14  -3    0.79    0.52
  -1 -14   3    0.41    0.60
   1 -14  -3   -0.38    0.56
  -1  14   2   26.20    1.54
   1  14  -2   25.81    1.47
  -1  14   2   26.46    1.54
  -1  14   2   24.11    1.23
   1  14  -2   21.88    1.53
   1 -14  -2   23.38    1.44
   1 -14  -2   21.37    1.34
  -1 -14   2   24.42    1.49
  -1 -14   2   23.94    1.55
   1 -14  -2   23.46    1.53
  -1 -14   2   24.68    1.49
  -1  14   1   90.96    4.17
  -1  14   1   94.50    3.98
   1  14  -1   87.64    4.14
   1  14  -1   99.83    4.20
  -1  14   1   94.13    4.18
   1 -14  -1   99.90    4.21
   1 -14  -1   95.28    4.16
  -1 -14   1   85.11    4.22
  -1 -14   1   93.93    4.18
  -1 -14   1   97.82    4.15
   1  14   0   10.05    1.07
   1  14   0   10.71    0.89
   1  14   0    9.47    1.03
  -1  14   0    9.81    1.05
   1 -14   0    9.35    1.07
   1 -14   0   10.37    1.06
   1 -14   0   10.73    0.85
  -1 -14   0   11.18    1.06
   1  14   1   41.31    2.17
   1  14   1   42.05    2.05
  -1  14  -1   42.82    2.21
   1  14   1   41.22    2.18
   1 -14   1   44.03    2.04
   1 -14   1   44.70    2.19
   1 -14   1   44.57    2.19
  -1  14  -2   86.25    3.84
   1  14   2   80.67    3.80
   1  14   2   81.45    3.81
  -1  14  -2   85.86    3.80
   1  14   2   83.08    3.72
   1 -14   2   83.72    3.82
   1 -14   2   80.86    3.80
  -1 -14  -2   88.72    3.82
  -1 -14  -2   85.97    3.85
   1 -14   2   83.97    3.70
   1  14   3    3.17    0.72
  -1  14  -3    4.64    0.71
   1  14   3    4.21    0.63
   1  14   3    3.72    0.70
  -1  14  -3    3.89    0.78
  -1 -14  -3    3.21    0.66
   1 -14   3    3.52    0.70
  -1 -14  -3    2.08    0.71
   1 -14   3    3.76    0.69
   1 -14   3    3.13    0.62
   1  14   4   22.09    1.69
  -1  14  -4   27.02    1.79
   1  14   4   28.76    1.64
  -1  14  -4   24.39    1.67
   1  14   4   25.90    1.71
   1 -14   4   28.09    1.71
  -1 -14  -4   26.71    1.73
  -1 -14  -4   22.70    1.75
  -1 -14  -4   28.22    1.67
   1 -14   4   25.42    1.69
   1 -14   4   26.16    1.60
   1  15  -3   20.01    1.38
  -1  15   3   17.72    1.48
   1  15  -3   17.71    1.48
  -1  15   3   19.64    1.18
  -1  15   3   18.61    1.45
  -1 -15   3   20.68    1.47
  -1 -15   3   19.78    1.51
   1 -15  -3   16.77    1.45
   1 -15  -3   21.52    1.38
  -1 -15   3   19.56    1.43
   1  15  -2   15.49    1.35
  -1  15   2   19.60    1.39
  -1  15   2   15.18    1.34
   1  15  -2   17.46    1.28
  -1  15   2   15.95    0.97
  -1 -15   2   16.09    1.32
   1 -15  -2   18.13    1.26
  -1 -15   2   15.00    1.37
   1 -15  -2   14.90    1.33
  -1 -15   2   15.59    1.29
  -1  15   1    6.63    0.76
  -1  15   1    6.49    0.80
   1  15  -1    6.12    0.75
  -1  15   1    4.81    0.58
   1  15  -1    6.03    0.77
   1 -15  -1    5.14    0.67
  -1 -15   1    5.24    0.67
  -1 -15   1    5.20    0.73
   1 -15  -1    5.14    0.72
  -1 -15   1    5.37    0.72
   1  15   0   86.91    3.72
  -1  15   0   84.38    3.74
   1  15   0   79.28    3.69
   1  15   0   83.44    3.59
  -1  15   0   76.53    3.69
   1 -15   0   79.27    3.70
  -1 -15   0   80.75    3.70
   1 -15   0   78.09    3.68
   1 -15   0   80.43    3.57
  -1 -15   0   84.36    3.73
   1  15   1   22.25    1.48
   1  15   1   20.46    1.29
  -1  15  -1   20.65    1.47
   1  15   1   22.69    1.47
  -1  15  -1   21.86    1.50
   1 -15   1   21.58    1.49
   1 -15   1   20.63    1.28
  -1 -15  -1   24.61    1.55
   1 -15   1   20.16    1.49
  -1  15  -2    5.94    0.80
  -1  15  -2    5.72    0.75
   1  15   2    5.09    0.80
   1  15   2    6.22    0.79
   1  15   2    4.53    0.63
   1 -15   2    4.15    0.76
  -1 -15  -2    4.65    0.77
   1 -15   2    4.69    0.67
  -1 -15  -2    4.86    0.74
   1 -15   2    5.09    0.71
   1  15   3   30.21    1.79
  -1  15  -3   30.51    1.87
   1  15   3   35.06    1.90
  -1  15  -3   32.74    1.97
   1  15   3   30.98    1.90
  -1 -15  -3   25.73    1.93
  -1 -15  -3   32.62    1.91
  -1 -15  -3   34.53    1.89
   1 -15   3   32.36    1.91
   1 -15   3   35.99    1.95
   1 -15   3   31.16    1.77
   1  16  -2   47.49    2.55
  -1  16   2   50.62    2.31
   1  16  -2   53.79    2.64
   1 -16  -2   53.28    2.58
   1 -16  -2   47.70    2.62
  -1 -16   2   58.09    2.61
   1  16  -1   26.97    1.66
   1  16  -1   23.76    1.62
  -1  16   1   28.08    1.72
  -1  16   1   21.55    1.56
  -1 -16   1   22.04    1.60
  -1 -16   1   24.91    1.69
  -1 -16   1   24.69    1.59
   1 -16  -1   25.96    1.42
   1 -16  -1   30.11    1.65
   1 -16  -1   28.85    1.71
  -1  16   0    0.04    0.63
   1  16   0   -0.60    0.46
   1  16   0    0.25    0.59
  -1  16   0    1.05    0.64
   1  16   0    1.15    0.66
   1 -16   0    0.09    0.50
  -1 -16   0    0.67    0.57
   1 -16   0    0.84    0.60
  -1 -16   0    0.24    0.66
   1 -16   0   -0.08    0.61
   1  16   1   18.66    1.38
   1  16   1   15.27    1.36
  -1  16  -1   16.59    1.43
   1  16   1   15.97    1.16
  -1  16  -1   15.88    1.33
  -1 -16  -1   15.09    1.42
   1 -16   1   15.62    1.19
   1 -16   1   18.63    1.41
   1 -16   1   14.45    1.34
  -1 -16  -1   18.14    1.35
   1  16   2   67.98    3.14
   1 -16   2   69.34    3.16
  -2   0   8    8.40    0.83
   2   0  -8    7.58    0.84
  -2   0   8    7.48    0.81
  -2   0   8    6.20    0.81
  -2   0   7    0.04    0.33
  -2   0   7   -0.09    0.34
  -2   0   7   -0.29    0.46
   2   0  -7   -0.01    0.19
  -2   0   6  147.61    6.18
  -2   0   6  149.07    6.11
  -2   0   6  146.30    6.11
   2   0  -6  145.20    6.03
   2   0  -6  140.47    6.17
  -2   0   5    0.13    0.20
   2   0  -5    0.06    0.29
  -2   0   5   -0.37    0.19
  -2   0   5    0.09    0.31
  -2   0   4   53.26    2.26
  -2   0   4   49.95    2.32
   2   0  -4   54.98    2.33
  -2   0   4   55.21    2.27
  -2   0   3   -0.08    0.10
   2   0  -3   -0.08    0.17
  -2   0   3    0.13    0.10
  -2   0   3   -0.18    0.17
   2   0  -2  399.99   16.38
  -2   0   2  395.32   16.37
   2   0  -1    0.15    0.13
  -2   0   1    0.01    0.13
  -2   0   0  194.00    7.86
  -2   0   0  197.88    7.87
   2   0   0  183.07    7.92
  -2   0   0  185.15    7.92
   2   0   0  193.17    7.86
   2   0   1   -0.01    0.09
  -2   0  -1   -0.12    0.12
  -2   0  -1   -0.06    0.10
   2   0   1   -0.11    0.09
  -2   0  -1   -0.02    0.10
  -2   0  -2    0.69    0.18
   2   0   2    0.74    0.16
  -2   0  -2    0.59    0.16
   2   0   2    0.98    0.20
   2   0   2    0.71    0.15
  -2   0  -2    0.68    0.15
   2   0   3    0.09    0.18
  -2   0  -3   -0.19    0.21
   2   0   3    0.07    0.19
  -2   0  -3   -0.10    0.17
  -2   0  -3   -0.09    0.17
   2   0   3   -0.10    0.21
  -2   0  -4  972.35   38.00
  -2   0  -4  928.30   38.00
  -2   0  -4 1000.00   38.00
   2   0   4  863.97   37.99
   2   0   4  935.12   38.00
   2   0   4  839.34   37.98
   2   0   5    0.13    0.36
   2   0   5    0.12    0.29
  -2   0  -5   -0.23    0.29
  -2   0  -5   -0.13    0.34
  -2   0  -5    0.11    0.27
   2   0   5   -0.20    0.31
  -2   0  -6  266.57   11.19
   2   0   6  270.76   11.20
   2   0   6  274.09   11.23
  -2   0  -6  265.51   11.19
   2   0   6  266.34   11.20
  -2   0  -7   -0.52    0.43
   2   0   7    0.29    0.58
   2   0   7    0.24    0.42
   2   0   7   -0.50    0.44
   2   0   8    3.27    0.64
  -2   0  -8    3.91    0.74
  -2   0  -8    5.02    0.63
   2   0   8    3.56    0.76
   2   0   8    4.44    0.64
  -2   0  -8    4.36    0.62
   2   1  -8    1.62    0.58
  -2   1   8    1.11    0.45
  -2   1   8    1.55    0.58
  -2   1   8    2.68    0.48
  -2  -1   8    1.54    0.47
  -2  -1   8    2.84    0.65
   2  -1  -8    1.79    0.59
  -2  -1   8    2.61    0.46
  -2   1   7   39.38    1.93
  -2   1   7   36.92    1.83
  -2   1   7   39.66    1.83
   2   1  -7   38.66    1.68
  -2  -1   7   38.82    1.83
  -2  -1   7   42.28    1.96
   2  -1  -7   38.24    1.69
  -2  -1   7   39.92    1.83
   2   1  -6    6.01    0.70
  -2   1   6    6.60    0.56
  -2   1   6    5.72    0.68
   2   1  -6    6.12    0.40
  -2   1   6    6.65    0.56
  -2  -1   6    5.99    0.56
  -2  -1   6    6.07    0.72
   2  -1  -6    6.15    0.71
   2  -1  -6    6.32    0.41
  -2  -1   6    5.80    0.56
   2  -1  -6    5.65    0.38
  -2   1   5  147.85    6.21
   2   1  -5  149.46    6.28
   2   1  -5  151.27    6.15
  -2   1   5  149.24    6.21
  -2   1   5  144.80    6.26
   2  -1  -5  155.49    6.27
  -2  -1   5  150.69    6.28
  -2  -1   5  142.22    6.21
  -2  -1   5  151.95    6.22
   2  -1  -5  148.51    6.15
   2  -1  -5  148.49    6.15
  -2   1   4   54.86    2.21
  -2   1   4   48.30    2.25
   2   1  -4   52.82    2.28
  -2   1   4   50.49    2.21
  -2  -1   4   51.35    2.21
  -2  -1   4   53.91    2.28
   2  -1  -4   51.70    2.26
  -2  -1   4   52.24    2.21
   2   1  -3    4.46    0.41
  -2   1   3    4.55    0.29
  -2   1   3    4.98    0.29
  -2   1   3    5.53    0.38
  -2  -1   3    4.74    0.29
  -2  -1   3    4.71    0.30
   2  -1  -3    4.72    0.39
  -2  -1   3    5.17    0.40
  -2   1   2   59.48    2.51
  -2  -1   2   60.59    2.54
  -2  -1   2   61.86    2.47
   2  -1  -2   61.63    2.52
  -2  -1   2   57.52    2.55
  -2  -1   2   58.07    2.48
  -2   1   1  320.68   13.35
  -2   1   1  322.20   13.33
   2   1  -1  326.95   13.37
  -2  -1   1  325.14   13.38
  -2   1   0   18.04    0.73
   2   1   0   17.49    0.74
   2   1   0   14.63    0.82
  -2   1   0   17.42    0.79
   2   1   0   16.65    0.72
  -2   1   0   16.43    0.74
   2  -1   0   18.11    0.74
  -2  -1   0   14.96    0.83
   2  -1   0   16.53    0.78
  -2  -1   0   17.16    0.73
   2  -1   0   18.26    0.72
  -2  -1   0   16.87    0.74
  -2   1  -1  244.66    9.66
   2   1   1  230.63    9.65
  -2   1  -1  227.76    9.65
   2   1   1  231.92    9.65
  -2   1  -1  240.23    9.66
   2  -1   1  246.35    9.66
   2  -1   1  222.03    9.65
   2  -1   1  245.93    9.66
  -2  -1  -1  223.61    9.65
  -2  -1  -1  228.25    9.66
  -2   1  -2   15.26    0.74
  -2   1  -2   15.64    0.74
   2   1   2   15.66    0.74
   2   1   2   16.35    0.74
  -2   1  -2   14.86    0.74
   2  -1   2   14.14    0.73
   2  -1   2   15.48    0.75
  -2  -1  -2   14.41    0.75
  -2  -1  -2   14.39    0.74
   2  -1   2   15.76    0.74
  -2  -1  -2   15.43    0.74
  -2   1  -3    9.05    0.57
   2   1   3    9.55    0.56
  -2   1  -3    8.96    0.57
   2   1   3    9.60    0.56
   2   1   3    9.23    0.59
  -2   1  -3    9.67    0.56
   2  -1   3    9.46    0.57
  -2  -1  -3    9.43    0.56
  -2  -1  -3    9.03    0.56
   2  -1   3    9.17    0.55
   2  -1   3    9.78    0.59
  -2  -1  -3    9.38    0.58
  -2   1  -4   45.79    2.06
   2   1   4   43.43    2.06
   2   1   4   48.65    2.05
   2   1   4   44.77    2.03
  -2   1  -4   46.71    2.05
  -2   1  -4   46.96    2.04
  -2  -1  -4   47.05    2.04
   2  -1   4   47.71    2.05
   2  -1   4   44.98    2.05
   2  -1   4   46.82    2.04
  -2  -1  -4   44.64    2.05
  -2  -1  -4   45.05    2.04
   2   1   5   91.25    4.17
   2   1   5   96.81    4.21
  -2   1  -5  100.13    4.18
  -2   1  -5  102.34    4.19
  -2   1  -5   99.26    4.20
   2   1   5   99.04    4.19
   2  -1   5   92.49    4.17
  -2  -1  -5  102.67    4.18
  -2  -1  -5  104.68    4.19
  -2  -1  -5   91.12    4.20
   2  -1   5  100.62    4.19
   2  -1   5   94.40    4.20
  -2   1  -6   44.90    2.00
  -2   1  -6   41.93    2.00
  -2   1  -6   40.92    2.05
   2   1   6   43.79    2.05
   2   1   6   43.94    2.00
   2   1   6   41.82    2.01
   2  -1   6   41.99    2.05
   2  -1   6   38.98    1.98
  -2  -1  -6   46.66    2.01
  -2  -1  -6   44.11    2.01
   2  -1   6   41.89    2.01
  -2   1  -7    6.10    0.70
   2   1   7    6.58    0.86
  -2   1  -7    6.86    0.85
   2   1   7    7.57    0.78
   2   1   7    7.77    0.84
  -2  -1  -7    7.09    0.83
   2  -1   7    6.99    0.89
   2  -1   7    7.35    0.95
   2  -1   7    7.50    0.83
  -2   1  -8   -0.79    0.63
   2   1   8    0.60    0.56
   2   1   8    0.15    0.54
  -2   1  -8    0.56    0.51
  -2   1  -8    0.57    0.55
   2   1   8    0.37    0.66
  -2  -1  -8   -0.23    0.50
  -2  -1  -8    0.69    0.66
  -2  -1  -8    0.76    0.52
   2  -1   8    0.38    0.68
   2  -1   8    0.17    0.52
   2  -1   8    0.96    0.51
   2   2  -8    8.76    0.90
  -2   2   8    8.74    0.85
  -2   2   8    8.69    0.83
  -2   2   8    6.75    0.82
   2  -2  -8    6.35    0.78
  -2  -2   8    7.18    0.84
  -2  -2   8    9.71    0.86
  -2  -2   8    8.67    1.09
   2   2  -7    0.45    0.21
  -2   2   7    0.67    0.35
  -2   2   7    0.02    0.34
  -2   2   7    0.71    0.49
   2   2  -7    0.41    0.18
  -2  -2   7    0.97    0.48
   2  -2  -7    0.37    0.16
  -2  -2   7    0.62    0.34
   2  -2  -7    0.71    0.23
  -2  -2   7    0.06    0.35
   2  -2  -7    0.81    0.40
  -2   2   6   97.03    3.93
   2   2  -6   89.34    3.79
  -2   2   6   90.24    3.86
   2   2  -6   88.68    3.78
  -2   2   6   91.57    3.86
   2   2  -6   94.96    3.95
   2  -2  -6   90.20    3.78
  -2  -2   6   88.38    3.94
  -2  -2   6   82.40    3.85
  -2  -2   6   90.63    3.87
   2  -2  -6   92.66    3.79
   2  -2  -6   92.86    3.93
  -2   2   5    3.42    0.39
  -2   2   5    3.05    0.31
  -2   2   5    3.49    0.40
   2   2  -5    2.86    0.30
   2   2  -5    3.55    0.42
   2   2  -5    3.13    0.27
   2  -2  -5    3.03    0.25
  -2  -2   5    3.33    0.32
   2  -2  -5    2.87    0.31
  -2  -2   5    3.23    0.40
  -2  -2   5    2.80    0.38
   2  -2  -5    3.72    0.41
  -2   2   4    2.47    0.29
  -2   2   4    2.31    0.30
  -2   2   4    2.25    0.29
   2   2  -4    2.59    0.35
   2  -2  -4    2.63    0.32
  -2  -2   4    2.52    0.29
  -2  -2   4    1.64    0.29
  -2  -2   4    2.36    0.31
  -2   2   3   71.77    2.80
  -2   2   3   67.37    2.79
   2   2  -3   68.01    2.86
  -2   2   3   66.96    2.82
  -2  -2   3   64.18    2.85
  -2  -2   3   63.47    2.80
   2  -2  -3   65.58    2.83
  -2  -2   3   65.17    2.79
  -2   2   2  164.52    6.72
  -2   2   2  161.07    6.73
  -2   2   2  159.81    6.74
  -2  -2   2  158.85    6.78
  -2  -2   2  171.13    6.72
   2  -2  -2  162.89    6.74
  -2  -2   2  158.24    6.73
  -2  -2   2  168.39    6.80
  -2   2   1   20.87    0.89
  -2   2   1   21.03    0.92
  -2   2   1   21.00    0.89
   2   2  -1   20.35    0.98
  -2   2   1   20.97    0.89
  -2  -2   1   20.81    0.98
  -2  -2   1   20.99    0.89
  -2  -2   1   19.13    0.89
   2   2   0  545.46   23.12
  -2  -2   0  575.66   23.13
  -2   2  -1   14.11    0.68
   2   2   1   14.47    0.67
  -2   2  -1   14.81    0.68
  -2   2  -1   15.46    0.66
   2   2   1   14.21    0.67
  -2  -2  -1   13.38    0.67
   2  -2   1   15.76    0.68
   2  -2   1   15.55    0.68
  -2  -2  -1   14.26    0.68
   2  -2   1   14.52    0.66
  -2   2  -2    7.98    0.47
   2   2   2    8.92    0.47
   2   2   2    8.06    0.46
  -2   2  -2    7.31    0.45
  -2   2  -2    7.56    0.47
   2  -2   2    7.51    0.46
   2  -2   2    8.55    0.47
  -2  -2  -2    7.48    0.47
  -2  -2  -2    7.52    0.46
   2  -2   2    7.95    0.46
  -2   2  -3   28.04    1.25
   2   2   3   27.31    1.25
  -2   2  -3   26.60    1.25
  -2   2  -3   26.16    1.25
   2   2   3   28.06    1.25
   2   2   3   29.54    1.29
  -2  -2  -3   26.38    1.25
   2  -2   3   26.30    1.25
  -2  -2  -3   26.24    1.27
   2  -2   3   26.81    1.26
   2  -2   3   27.61    1.25
  -2  -2  -3   28.30    1.25
   2   2   4   24.18    1.15
   2   2   4   23.99    1.15
  -2   2  -4   23.92    1.16
  -2   2  -4   24.02    1.16
  -2   2  -4   25.64    1.18
   2   2   4   22.13    1.20
   2  -2   4   23.69    1.16
   2  -2   4   21.33    1.14
  -2  -2  -4   25.07    1.17
  -2  -2  -4   22.64    1.17
  -2  -2  -4   23.03    1.15
   2  -2   4   24.23    1.18
  -2   2  -5    1.49    0.42
   2   2   5    1.43    0.33
  -2   2  -5    1.27    0.32
   2   2   5    1.09    0.42
   2   2   5    1.10    0.31
  -2   2  -5    1.75    0.35
  -2  -2  -5    1.35    0.41
   2  -2   5    0.84    0.33
   2  -2   5    1.63    0.31
   2  -2   5    1.88    0.41
  -2  -2  -5    1.65    0.33
  -2  -2  -5    1.48    0.33
  -2   2  -6   32.46    1.59
   2   2   6   31.21    1.60
   2   2   6   31.75    1.59
  -2   2  -6   31.74    1.58
   2   2   6   32.86    1.64
  -2   2  -6   31.05    1.63
  -2  -2  -6   34.56    1.60
  -2  -2  -6   29.30    1.57
   2  -2   6   34.81    1.66
   2  -2   6   31.36    1.57
   2  -2   6   31.38    1.61
  -2   2  -7    1.91    0.52
  -2   2  -7    2.14    0.48
   2   2   7    3.54    0.55
   2   2   7    3.53    0.65
   2   2   7    2.84    0.51
   2  -2   7    2.62    0.52
   2  -2   7    2.19    0.52
   2  -2   7    2.25    0.61
  -2  -2  -7    2.66    0.50
   2   2   8    0.61    0.55
  -2   2  -8   -0.07    0.69
   2   2   8    0.79    0.72
   2   2   8   -0.71    0.54
  -2   2  -8    0.59    0.52
  -2   2  -8   -0.42    0.50
   2  -2   8    0.01    0.56
   2  -2   8    0.07    0.50
   2  -2   8   -0.73    0.63
  -2  -2  -8   -0.71    0.51
  -2  -2  -8    0.23    0.51
  -2  -2  -8   -0.41    0.70
  -2   3   8    5.59    0.60
  -2   3   8    5.74    0.74
  -2   3   8    5.64    0.60
   2   3  -8    5.45    0.72
  -2  -3   8    6.13    0.61
  -2  -3   8    7.14    0.84
  -2  -3   8    6.43    0.81
   2  -3  -8    5.09    0.71
  -2   3   7   90.23    3.94
  -2   3   7   92.29    3.89
   2   3  -7   92.31    3.77
  -2   3   7   91.47    3.89
   2   3  -7   88.21    4.01
  -2  -3   7   85.08    3.87
  -2  -3   7   90.40    3.89
   2  -3  -7   88.71    3.78
  -2  -3   7   92.09    3.99
   2   3  -6    0.24    0.19
  -2   3   6    0.19    0.28
  -2   3   6   -0.10    0.28
   2   3  -6    0.22    0.21
  -2   3   6    0.46    0.39
   2   3  -6    0.54    0.39
   2  -3  -6    0.29    0.37
  -2  -3   6    0.71    0.41
  -2  -3   6    0.29    0.30
   2  -3  -6    0.44    0.17
  -2  -3   6    0.28    0.27
   2  -3  -6    0.16    0.22
   2   3  -5  128.37    5.45
   2   3  -5  128.91    5.46
  -2   3   5  122.26    5.50
   2   3  -5  130.02    5.58
  -2   3   5  127.46    5.51
  -2   3   5  142.43    5.55
   2  -3  -5  129.33    5.46
  -2  -3   5  128.77    5.51
  -2  -3   5  133.03    5.50
   2  -3  -5  138.44    5.55
  -2  -3   5  138.15    5.59
   2  -3  -5  132.49    5.45
   2   3  -4   22.90    0.96
  -2   3   4   23.82    1.06
  -2   3   4   24.05    1.03
   2   3  -4   21.25    0.98
   2   3  -4   23.17    1.13
  -2   3   4   21.82    1.02
   2  -3  -4   20.95    1.06
  -2  -3   4   20.74    1.11
  -2  -3   4   21.98    1.02
  -2  -3   4   20.90    1.03
   2  -3  -4   22.77    0.96
  -2   3   3    3.13    0.26
   2   3  -3    2.78    0.19
   2   3  -3    2.92    0.20
  -2   3   3    2.90    0.31
  -2   3   3    2.87    0.30
   2   3  -3    2.23    0.30
  -2  -3   3    3.50    0.42
  -2  -3   3    3.20    0.41
  -2  -3   3    2.58    0.27
   2  -3  -3    2.57    0.19
  -2  -3   3    2.61    0.30
   2  -3  -3    2.42    0.31
  -2   3   2   20.19    0.89
  -2   3   2   19.31    0.91
   2   3  -2   20.41    0.86
   2   3  -2   19.69    0.86
  -2   3   2   21.41    0.89
  -2  -3   2   19.74    0.98
  -2  -3   2   20.88    0.99
  -2  -3   2   20.00    0.89
   2  -3  -2   21.38    0.89
  -2  -3   2   19.43    0.92
  -2   3   1  316.24   13.56
   2   3  -1  338.35   13.63
  -2   3   1  322.07   13.57
  -2  -3   1  330.33   13.56
  -2  -3   1  331.66   13.63
  -2  -3   1  334.11   13.57
   2  -3  -1  333.20   13.54
  -2   3   0    3.07    0.25
   2   3   0    3.38    0.23
  -2   3   0    2.88    0.29
   2   3   0    3.09    0.41
   2   3   0    2.57    0.29
  -2  -3   0    2.73    0.33
   2  -3   0    2.24    0.29
  -2  -3   0    3.28    0.25
   2  -3   0    3.59    0.19
  -2  -3   0    3.29    0.29
   2  -3   0    3.42    0.23
   2   3   1  152.17    6.22
   2   3   1  149.49    6.22
  -2   3  -1  150.29    6.22
  -2   3  -1  146.48    6.22
  -2   3  -1  148.64    6.20
   2  -3   1  155.02    6.22
  -2  -3  -1  150.57    6.22
   2  -3   1  150.95    6.20
  -2  -3  -1  143.60    6.22
   2  -3   1  153.04    6.22
  -2   3  -2   54.35    2.33
  -2   3  -2   56.90    2.35
  -2   3  -2   58.37    2.35
   2   3   2   55.42    2.35
   2   3   2   51.92    2.34
   2  -3   2   56.55    2.35
  -2  -3  -2   56.22    2.35
   2  -3   2   54.87    2.33
  -2  -3  -2   55.77    2.35
  -2  -3  -2   50.05    2.36
   2  -3   2   53.71    2.34
   2   3   3   44.52    1.96
  -2   3  -3   46.98    1.96
  -2   3  -3   46.06    1.96
  -2   3  -3   45.09    1.96
  -2  -3  -3   41.78    1.95
   2  -3   3   45.36    1.96
  -2  -3  -3   41.69    1.97
  -2  -3  -3   46.56    1.96
   2  -3   3   45.79    1.96
   2  -3   3   42.74    1.95
  -2   3  -4    2.19    0.34
   2   3   4    2.19    0.29
   2   3   4    2.80    0.34
   2   3   4    3.46    0.44
  -2   3  -4    2.73    0.36
  -2   3  -4    2.19    0.32
   2  -3   4    1.72    0.30
   2  -3   4    2.53    0.33
  -2  -3  -4    2.84    0.34
   2  -3   4    2.71    0.35
  -2  -3  -4    3.37    0.40
  -2  -3  -4    2.37    0.31
  -2   3  -5  121.87    5.45
   2   3   5  137.60    5.50
  -2   3  -5  128.83    5.46
  -2   3  -5  134.76    5.48
   2   3   5  137.02    5.47
   2   3   5  126.54    5.46
  -2  -3  -5  111.80    5.44
   2  -3   5  133.34    5.47
  -2  -3  -5  131.49    5.49
   2  -3   5  128.73    5.48
   2  -3   5  129.52    5.46
  -2  -3  -5  127.27    5.46
   2   3   6    1.90    0.51
   2   3   6    1.88    0.40
  -2   3  -6    1.27    0.42
  -2   3  -6    1.71    0.45
   2   3   6    1.55    0.40
  -2   3  -6    1.71    0.41
  -2  -3  -6    2.35    0.45
   2  -3   6    1.84    0.50
  -2  -3  -6    2.00    0.41
   2  -3   6    1.85    0.40
   2  -3   6    1.74    0.42
   2   3   7    9.51    1.08
  -2   3  -7    8.57    0.93
  -2   3  -7   10.71    1.04
   2   3   7   11.04    0.95
   2   3   7    9.03    0.94
   2  -3   7    7.76    0.95
   2  -3   7   10.46    1.07
  -2  -3  -7    8.86    0.93
   2  -3   7   11.14    0.93
   2   3   8   10.95    1.10
  -2   3  -8   10.65    1.04
  -2   3  -8    7.92    1.04
   2   3   8   10.69    1.07
   2   3   8   10.18    1.20
  -2   3  -8    9.58    0.97
   2  -3   8    9.95    1.23
   2  -3   8    9.33    1.09
  -2  -3  -8    9.64    1.05
  -2  -3  -8   10.07    1.03
   2  -3   8    8.73    0.85
  -2  -3  -8    7.91    0.94
  -2   4   8   18.99    1.32
  -2   4   8   18.78    1.21
  -2   4   8   18.90    1.19
   2   4  -8   17.32    1.44
  -2  -4   8   19.73    1.22
   2  -4  -8   18.98    1.37
  -2  -4   8   18.84    1.20
  -2  -4   8   22.66    1.47
  -2   4   7   11.79    0.96
  -2   4   7   11.06    0.83
   2   4  -7   10.99    0.64
  -2   4   7   12.12    0.87
   2   4  -7   12.69    1.07
  -2  -4   7   12.70    1.05
   2  -4  -7   10.58    0.94
   2  -4  -7   11.31    0.69
  -2  -4   7   10.64    0.86
  -2  -4   7   11.56    0.84
  -2   4   6   99.16    4.22
  -2   4   6   89.61    4.23
  -2   4   6  105.96    4.22
   2   4  -6  105.78    4.35
   2   4  -6   96.52    4.13
   2   4  -6   96.13    4.15
   2  -4  -6  101.84    4.13
  -2  -4   6  100.24    4.21
   2  -4  -6   99.34    4.15
  -2  -4   6   95.49    4.30
  -2  -4   6   98.65    4.22
   2   4  -5    5.88    0.45
   2   4  -5    5.76    0.68
  -2   4   5    5.38    0.51
  -2   4   5    5.83    0.57
   2   4  -5    5.87    0.40
  -2   4   5    5.02    0.48
  -2  -4   5    6.37    0.52
  -2  -4   5    6.34    0.67
   2  -4  -5    5.39    0.45
   2  -4  -5    5.82    0.57
  -2  -4   5    6.32    0.51
   2  -4  -5    6.05    0.38
   2   4  -4   98.97    3.96
   2   4  -4   90.17    4.06
  -2   4   4   98.05    4.01
  -2   4   4   92.18    4.00
  -2   4   4   90.49    3.99
   2   4  -4   97.36    3.97
   2  -4  -4  102.48    4.02
  -2  -4   4   93.60    3.99
  -2  -4   4   93.12    4.07
   2  -4  -4   92.39    3.95
  -2  -4   4   97.53    4.01
   2   4  -3   51.84    2.27
  -2   4   3   55.88    2.31
  -2   4   3   55.02    2.31
  -2   4   3   54.63    2.33
   2   4  -3   54.86    2.29
  -2  -4   3   58.25    2.39
   2  -4  -3   53.50    2.31
   2  -4  -3   51.92    2.27
   2  -4  -3   53.09    2.28
  -2  -4   3   57.43    2.34
  -2  -4   3   52.22    2.38
  -2  -4   3   53.35    2.31
  -2   4   2   89.28    3.98
   2   4  -2   99.34    3.94
   2   4  -2   95.58    3.94
  -2   4   2   98.63    3.96
  -2   4   2   88.36    3.93
  -2  -4   2   96.31    3.98
   2  -4  -2   94.59    3.94
   2  -4  -2   93.53    3.94
  -2  -4   2   96.25    4.03
  -2  -4   2   95.02    4.03
  -2  -4   2   95.15    3.96
   2  -4  -2   96.57    3.93
   2   4  -1    1.96    0.22
   2   4  -1    1.84    0.29
   2   4  -1    1.55    0.18
  -2   4   1    1.57    0.20
   2  -4  -1    1.69    0.16
  -2  -4   1    1.97    0.25
  -2  -4   1    1.78    0.28
   2  -4  -1    2.02    0.21
  -2  -4   1    1.42    0.21
  -2   4   0  234.29    9.22
   2   4   0  219.04    9.27
   2   4   0  225.30    9.19
  -2   4   0  227.17    9.20
   2   4   0  219.80    9.22
  -2  -4   0  210.81    9.28
   2  -4   0  225.93    9.19
  -2  -4   0  212.07    9.20
   2  -4   0  221.74    9.22
  -2  -4   0  229.76    9.22
  -2   4  -1  120.20    5.27
   2   4   1  135.63    5.39
  -2   4  -1  133.96    5.31
   2   4   1  119.66    5.30
   2   4   1  130.22    5.32
  -2   4  -1  127.21    5.32
   2  -4   1  124.61    5.30
  -2  -4  -1  128.49    5.32
   2  -4   1  128.22    5.28
  -2  -4  -1  128.50    5.31
   2  -4   1  126.37    5.31
  -2   4  -2    3.89    0.34
  -2   4  -2    4.14    0.38
  -2   4  -2    3.81    0.38
   2   4   2    4.30    0.38
   2   4   2    4.24    0.38
  -2  -4  -2    4.30    0.37
  -2  -4  -2    4.03    0.46
  -2  -4  -2    4.32    0.39
   2  -4   2    3.92    0.37
   2  -4   2    3.55    0.38
   2  -4   2    4.09    0.34
   2   4   3   88.16    3.55
   2   4   3   85.88    3.54
  -2   4  -3   84.80    3.55
  -2   4  -3   83.14    3.54
  -2   4  -3   85.46    3.53
  -2  -4  -3   77.56    3.54
   2  -4   3   87.83    3.55
   2  -4   3   77.34    3.53
  -2  -4  -3   83.83    3.54
  -2  -4  -3   77.40    3.56
   2  -4   3   85.57    3.54
   2   4   4   31.48    1.47
  -2   4  -4   30.91    1.47
  -2   4  -4   31.34    1.47
  -2   4  -4   32.85    1.47
   2   4   4   31.91    1.47
   2  -4   4   29.47    1.47
  -2  -4  -4   31.93    1.47
   2  -4   4   31.48    1.48
  -2  -4  -4   29.28    1.50
   2  -4   4   31.30    1.46
  -2  -4  -4   31.06    1.47
  -2   4  -5    0.23    0.32
   2   4   5   -0.03    0.30
  -2   4  -5    0.24    0.35
   2   4   5    0.20    0.32
  -2   4  -5    0.05    0.32
  -2  -4  -5   -0.32    0.31
  -2  -4  -5    0.27    0.36
   2  -4   5    0.74    0.40
  -2  -4  -5   -0.18    0.32
   2  -4   5    0.05    0.34
   2  -4   5    0.22    0.34
   2   4   6   24.00    1.42
  -2   4  -6   24.87    1.36
   2   4   6   26.57    1.37
  -2   4  -6   24.68    1.36
  -2   4  -6   24.86    1.41
   2  -4   6   24.99    1.38
   2  -4   6   24.38    1.42
  -2  -4  -6   25.78    1.36
  -2  -4  -6   27.77    1.38
   2   4   7   21.36    1.32
  -2   4  -7   21.32    1.38
  -2   4  -7   19.20    1.29
   2   4   7   23.17    1.42
   2   4   7   22.03    1.32
  -2   4  -7   23.43    1.30
  -2  -4  -7   20.59    1.40
  -2  -4  -7   21.91    1.30
  -2  -4  -7   20.86    1.27
   2  -4   7   19.68    1.28
   2  -4   7   19.96    1.34
   2  -4   7   20.53    1.43
  -2   4  -8   -0.57    0.54
   2   4   8    0.93    0.60
   2   4   8   -0.41    0.71
   2   4   8   -0.69    0.51
  -2   4  -8   -0.77    0.65
  -2   4  -8   -0.64    0.53
  -2  -4  -8   -0.63    0.53
  -2  -4  -8   -0.36    0.52
  -2  -4  -8    0.12    0.72
   2  -4   8   -0.03    0.54
   2  -4   8    0.30    0.71
   2  -4   8   -0.26    0.50
  -2   5   8   26.38    1.53
   2   5  -8   25.80    1.70
  -2   5   8   28.42    1.54
  -2   5   8   31.21    1.63
  -2  -5   8   28.05    1.73
  -2  -5   8   29.50    1.53
   2  -5  -8   27.18    1.66
  -2  -5   8   25.42    1.52
   2   5  -7   24.23    1.65
  -2   5   7   22.99    1.33
  -2   5   7   25.52    1.41
  -2   5   7   24.04    1.36
   2   5  -7   25.62    1.19
   2  -5  -7   25.31    1.21
  -2  -5   7   25.55    1.34
   2  -5  -7   25.12    1.42
  -2  -5   7   27.92    1.38
  -2  -5   7   28.37    1.54
  -2   5   6    0.68    0.33
  -2   5   6    0.89    0.33
   2   5  -6    1.13    0.28
  -2   5   6    0.31    0.38
   2   5  -6    0.66    0.23
  -2  -5   6    0.52    0.45
   2  -5  -6    0.66    0.22
  -2  -5   6    0.82    0.34
   2  -5  -6    0.75    0.27
  -2  -5   6    0.80    0.32
   2  -5  -6    0.51    0.40
  -2   5   5   22.76    1.09
   2   5  -5   22.30    0.99
   2   5  -5   18.79    1.18
  -2   5   5   21.99    1.07
   2   5  -5   21.36    1.02
  -2   5   5   21.28    1.09
  -2  -5   5   21.27    1.06
   2  -5  -5   19.70    1.09
  -2  -5   5   20.63    1.19
   2  -5  -5   21.08    0.97
   2  -5  -5   21.32    1.02
  -2  -5   5   21.73    1.09
  -2   5   4   62.25    2.79
   2   5  -4   64.66    2.77
  -2   5   4   65.18    2.79
  -2   5   4   62.91    2.80
   2   5  -4   65.53    2.75
  -2  -5   4   67.65    2.82
  -2  -5   4   62.19    2.87
   2  -5  -4   64.61    2.80
   2  -5  -4   65.54    2.74
  -2  -5   4   64.61    2.79
  -2  -5   4   72.70    2.89
   2   5  -3   75.82    3.28
   2   5  -3   75.93    3.26
  -2   5   3   83.44    3.33
  -2   5   3   77.53    3.29
  -2   5   3   80.81    3.28
  -2  -5   3   76.68    3.32
  -2  -5   3   76.51    3.29
   2  -5  -3   78.42    3.28
   2  -5  -3   77.23    3.28
  -2  -5   3   80.08    3.38
  -2  -5   3   77.90    3.36
   2  -5  -3   76.89    3.26
  -2   5   2   62.33    2.65
  -2   5   2   64.87    2.62
   2   5  -2   61.37    2.59
   2   5  -2   63.72    2.61
   2  -5  -2   61.65    2.60
   2  -5  -2   61.77    2.58
  -2  -5   2   61.54    2.62
  -2  -5   2   60.20    2.68
   2  -5  -2   61.11    2.59
  -2  -5   2   58.53    2.64
  -2  -5   2   61.50    2.70
   2   5  -1  193.49    7.97
  -2   5   1  186.39    7.90
  -2   5   1  189.72    7.92
   2   5  -1  186.23    7.89
   2   5  -1  184.45    7.88
   2  -5  -1  193.75    7.88
  -2  -5   1  194.96    7.91
  -2  -5   1  195.48    7.97
   2  -5  -1  193.77    7.89
  -2  -5   1  186.82    7.92
   2   5   0  211.00    8.43
  -2   5   0  195.45    8.46
   2   5   0  207.07    8.51
  -2   5   0  204.37    8.44
   2   5   0  204.75    8.46
  -2  -5   0  198.46    8.46
  -2  -5   0  213.85    8.53
   2  -5   0  200.70    8.43
   2  -5   0  203.53    8.46
  -2  -5   0  204.88    8.44
   2  -5   0  195.74    8.37
   2   5   1   23.11    1.09
  -2   5  -1   24.01    1.04
  -2   5  -1   22.76    1.10
   2   5   1   23.71    1.11
   2   5   1   24.47    1.20
  -2   5  -1   25.03    1.12
   2  -5   1   23.35    1.04
  -2  -5  -1   23.83    1.11
   2  -5   1   23.34    1.11
  -2  -5  -1   23.44    1.10
   2  -5   1   24.85    1.09
   2   5   2  144.43    5.94
   2   5   2  134.79    5.94
  -2   5  -2  142.78    5.95
  -2   5  -2  141.73    5.95
  -2   5  -2  147.21    5.92
   2  -5   2  152.46    5.92
  -2  -5  -2  137.59    5.94
   2  -5   2  144.92    5.94
   2  -5   2  145.51    5.94
  -2  -5  -2  131.03    5.94
  -2   5  -3  128.34    5.35
   2   5   3  129.05    5.35
  -2   5  -3  117.16    5.34
  -2   5  -3  121.42    5.33
   2   5   3  128.35    5.35
  -2  -5  -3  130.31    5.35
   2  -5   3  128.42    5.34
   2  -5   3  140.87    5.36
  -2  -5  -3  116.43    5.34
  -2  -5  -3  124.86    5.37
   2  -5   3  134.65    5.36
  -2   5  -4   16.07    0.87
  -2   5  -4   14.15    0.86
  -2   5  -4   13.01    0.85
   2   5   4   14.58    0.87
   2   5   4   15.49    0.86
  -2  -5  -4   14.07    0.92
  -2  -5  -4   15.24    0.87
   2  -5   4   15.28    0.88
   2  -5   4   13.68    0.85
  -2  -5  -4   13.14    0.84
   2  -5   4   16.68    0.87
   2   5   5  156.07    6.70
  -2   5  -5  151.99    6.70
   2   5   5  160.67    6.71
  -2   5  -5  153.67    6.70
  -2   5  -5  162.09    6.71
   2  -5   5  163.28    6.72
  -2  -5  -5  164.81    6.71
   2  -5   5  155.81    6.71
  -2  -5  -5  164.82    6.71
   2  -5   5  162.65    6.70
  -2  -5  -5  153.96    6.73
  -2   5  -6    5.84    0.66
   2   5   6    5.33    0.56
  -2   5  -6    5.03    0.57
   2  -5   6    6.06    0.66
  -2  -5  -6    4.63    0.55
   2  -5   6    5.47    0.61
   2   5   7   17.07    1.22
  -2   5  -7   16.51    1.19
  -2   5  -7   18.18    1.20
   2   5   7   16.37    1.19
  -2   5  -7   16.24    1.25
   2  -5   7   16.38    1.16
   2  -5   7   15.51    1.21
  -2  -5  -7   18.63    1.18
   2  -5   7   16.10    1.29
  -2  -5  -7   17.91    1.20
  -2  -5  -7   15.19    1.30
  -2   5  -8   23.88    1.74
  -2   5  -8   27.19    1.60
  -2   5  -8   29.60    1.63
   2  -5   8   22.74    1.73
  -2  -5  -8   24.58    1.63
  -2  -5  -8   30.88    1.60
  -2   6   8    7.14    0.69
  -2   6   8    5.54    0.65
  -2   6   8    5.32    0.71
  -2  -6   8    5.71    0.67
  -2  -6   8    5.69    0.64
   2  -6  -8    5.40    0.78
   2   6  -7   20.67    1.47
   2   6  -7   23.74    1.12
  -2   6   7   24.31    1.31
  -2   6   7   24.67    1.30
  -2   6   7   23.74    1.33
  -2  -6   7   25.51    1.29
  -2  -6   7   21.49    1.29
   2  -6  -7   23.61    1.15
  -2  -6   7   23.55    1.47
   2  -6  -7   18.27    1.28
   2   6  -6   45.85    2.02
  -2   6   6   50.08    2.12
   2   6  -6   45.12    2.05
  -2   6   6   44.75    2.12
  -2   6   6   46.03    2.13
  -2  -6   6   46.79    2.14
  -2  -6   6   48.73    2.25
   2  -6  -6   46.16    2.01
   2  -6  -6   43.45    2.14
  -2  -6   6   45.31    2.11
   2  -6  -6   47.23    2.05
  -2   6   5   60.67    2.75
  -2   6   5   62.91    2.75
   2   6  -5   62.44    2.69
  -2   6   5   68.35    2.78
   2   6  -5   60.77    2.72
   2  -6  -5   59.91    2.76
   2  -6  -5   63.70    2.69
  -2  -6   5   59.51    2.84
  -2  -6   5   66.21    2.87
   2  -6  -5   65.76    2.73
  -2  -6   5   65.65    2.78
  -2  -6   5   63.08    2.75
  -2   6   4   26.27    1.22
   2   6  -4   25.21    1.16
  -2   6   4   25.48    1.25
   2   6  -4   25.48    1.20
  -2   6   4   22.63    1.20
   2  -6  -4   25.97    1.21
  -2  -6   4   26.14    1.34
   2  -6  -4   25.01    1.15
  -2  -6   4   27.23    1.32
  -2  -6   4   25.69    1.22
  -2  -6   4   27.44    1.27
   2   6  -3  157.10    7.01
   2   6  -3  168.73    7.03
  -2   6   3  171.84    7.04
  -2   6   3  169.11    7.07
  -2  -6   3  175.32    7.08
   2  -6  -3  165.59    7.01
  -2  -6   3  173.30    7.12
  -2  -6   3  166.46    7.04
   2  -6  -3  172.92    7.02
  -2  -6   3  175.61    7.11
   2  -6  -3  164.70    7.03
   2   6  -2    0.38    0.19
  -2   6   2    0.83    0.21
   2   6  -2    0.54    0.20
  -2   6   2    0.56    0.23
   2  -6  -2    0.71    0.17
   2  -6  -2    0.76    0.20
  -2  -6   2    0.36    0.30
  -2  -6   2    0.57    0.26
  -2  -6   2    0.18    0.20
  -2  -6   2    0.40    0.24
   2  -6  -2    0.76    0.15
   2   6  -1   36.33    1.51
   2   6  -1   34.52    1.60
  -2   6   1   34.12    1.55
  -2   6   1   34.93    1.53
   2   6  -1   34.87    1.53
   2  -6  -1   36.34    1.52
   2  -6  -1   35.38    1.50
  -2  -6   1   31.82    1.52
  -2  -6   1   30.85    1.55
   2  -6  -1   30.41    1.42
  -2  -6   1   33.25    1.59
   2   6   0   93.90    3.82
   2   6   0   90.55    3.73
   2   6   0   87.99    3.77
  -2   6   0   89.29    3.74
  -2   6   0   85.46    3.77
   2  -6   0   87.40    3.66
  -2  -6   0   90.09    3.74
   2  -6   0   90.78    3.73
   2  -6   0   83.25    3.76
  -2  -6   0   86.66    3.77
  -2   6  -1   85.96    3.52
  -2   6  -1   82.88    3.49
   2   6   1   84.50    3.49
   2   6   1   87.33    3.51
   2   6   1   77.13    3.55
  -2  -6  -1   83.77    3.52
   2  -6   1   81.78    3.44
   2  -6   1   85.26    3.40
  -2  -6  -1   76.06    3.49
   2  -6   1   83.57    3.49
   2  -6   1   77.27    3.50
   2   6   2   31.37    1.44
  -2   6  -2   29.28    1.44
   2   6   2   32.34    1.45
  -2   6  -2   32.20    1.39
  -2   6  -2   31.22    1.45
   2  -6   2   31.73    1.44
   2  -6   2   32.31    1.44
  -2  -6  -2   29.93    1.44
   2  -6   2   31.42    1.40
  -2  -6  -2   31.02    1.44
  -2   6  -3   96.43    4.12
   2   6   3   95.87    4.12
  -2   6  -3  100.77    4.13
   2   6   3   94.71    4.11
  -2   6  -3   97.30    4.09
  -2  -6  -3  102.31    4.16
   2  -6   3   94.89    4.12
  -2  -6  -3   99.13    4.12
   2  -6   3   95.13    4.10
   2  -6   3   90.23    4.11
  -2  -6  -3   98.23    4.12
   2   6   4   50.75    2.42
  -2   6  -4   59.16    2.43
   2   6   4   52.60    2.41
  -2   6  -4   47.46    2.41
  -2   6  -4   59.14    2.41
   2  -6   4   49.84    2.42
  -2  -6  -4   51.27    2.41
  -2  -6  -4   59.87    2.44
   2  -6   4   59.66    2.43
   2  -6   4   53.15    2.41
  -2   6  -5    0.04    0.40
  -2   6  -5   -0.19    0.37
   2   6   5   -0.10    0.35
  -2   6  -5   -0.11    0.35
  -2  -6  -5   -0.02    0.38
   2  -6   5   -0.03    0.38
  -2  -6  -5   -0.05    0.40
   2  -6   5    0.30    0.39
  -2  -6  -5   -0.03    0.33
   2   6   6   21.44    1.31
  -2   6  -6   24.50    1.36
  -2   6  -6   23.56    1.32
  -2  -6  -6   22.15    1.32
   2  -6   6   22.22    1.36
   2  -6   6   22.77    1.33
  -2   6  -7   32.38    1.75
   2   6   7   35.20    1.79
   2   6   7   32.05    1.77
  -2   6  -7   31.96    1.75
  -2   6  -7   32.78    1.81
   2  -6   7   33.50    1.80
  -2  -6  -7   32.36    1.77
  -2  -6  -7   32.87    1.73
   2  -6   7   34.09    1.87
  -2  -6  -7   34.04    1.89
   2  -6   7   29.71    1.73
   2   7  -7    0.09    0.23
  -2   7   7    0.01    0.41
  -2   7   7    1.14    0.51
  -2   7   7    0.27    0.46
   2   7  -7   -0.09    0.30
   2   7  -7    0.70    0.63
  -2  -7   7   -0.25    0.53
  -2  -7   7   -0.21    0.45
   2  -7  -7   -0.11    0.39
  -2  -7   7   -0.02    0.52
  -2  -7   7    0.34    0.43
   2  -7  -7   -0.01    0.19
  -2   7   6    0.64    0.39
  -2   7   6    0.46    0.36
   2   7  -6    0.67    0.28
   2   7  -6    0.23    0.32
  -2   7   6    0.35    0.42
  -2  -7   6    0.41    0.39
  -2  -7   6    1.00    0.57
   2  -7  -6   -0.12    0.40
  -2  -7   6    0.22    0.35
   2  -7  -6    0.52    0.26
   2  -7  -6    0.44    0.34
  -2   7   5    5.74    0.63
   2   7  -5    6.12    0.58
  -2   7   5    6.80    0.64
   2   7  -5    7.01    0.53
  -2   7   5    6.58    0.70
   2  -7  -5    7.24    0.64
  -2  -7   5    6.62    0.65
  -2  -7   5    7.16    0.78
   2  -7  -5    6.30    0.51
  -2  -7   5    6.47    0.70
  -2  -7   5    7.48    0.83
  -2   7   4  188.69    7.45
   2   7  -4  179.96    7.40
   2   7  -4  167.81    7.42
  -2   7   4  172.46    7.46
  -2  -7   4  172.76    7.44
   2  -7  -4  171.03    7.39
  -2  -7   4  181.71    7.53
  -2  -7   4  177.55    7.50
   2  -7  -4  179.72    7.42
  -2  -7   4  189.28    7.48
   2   7  -3    1.23    0.25
  -2   7   3    1.34    0.28
   2   7  -3    1.23    0.27
  -2   7   3    0.85    0.30
  -2  -7   3    1.00    0.30
  -2  -7   3    1.18    0.32
  -2  -7   3    0.53    0.36
   2  -7  -3    1.45    0.25
   2  -7  -3    1.62    0.23
   2  -7  -3    1.07    0.26
  -2  -7   3    1.03    0.27
  -2   7   2  189.97    7.84
  -2   7   2  189.32    7.83
   2   7  -2  198.61    7.81
   2   7  -2  193.33    7.81
   2  -7  -2  194.59    7.80
   2  -7  -2  180.37    7.80
   2  -7  -2  177.91    7.75
  -2  -7   2  182.14    7.83
  -2  -7   2  194.92    7.85
  -2  -7   2  191.27    7.87
  -2  -7   2  171.24    7.86
   2   7  -1   94.02    4.24
   2   7  -1  100.79    4.30
  -2   7   1   99.67    4.25
   2   7  -1  105.26    4.23
  -2   7   1   98.37    4.27
  -2  -7   1  107.33    4.26
   2  -7  -1   98.39    4.24
  -2  -7   1   98.55    4.30
   2  -7  -1   97.93    4.22
  -2  -7   1  103.30    4.28
   2  -7  -1   99.08    4.15
   2   7   0    4.28    0.45
   2   7   0    4.62    0.53
   2   7   0    4.98    0.58
  -2   7   0    3.90    0.41
  -2  -7   0    4.45    0.46
   2  -7   0    4.42    0.45
   2  -7   0    4.43    0.53
  -2  -7   0    4.32    0.54
   2  -7   0    4.63    0.30
   2   7   1   40.63    1.83
  -2   7  -1   44.55    1.88
  -2   7  -1   39.33    1.83
   2   7   1   41.33    1.86
   2   7   1   38.83    1.90
   2  -7   1   41.76    1.76
  -2  -7  -1   43.55    1.87
  -2  -7  -1   41.76    1.84
   2  -7   1   39.46    1.83
   2  -7   1   38.76    1.85
   2   7   2  227.14    9.20
   2   7   2  216.31    9.19
  -2   7  -2  240.35    9.16
  -2   7  -2  228.81    9.22
  -2   7  -2  214.13    9.20
  -2  -7  -2  223.31    9.21
   2  -7   2  217.13    9.20
   2  -7   2  222.23    9.19
   2  -7   2  215.06    9.15
  -2  -7  -2  204.20    9.19
   2   7   3    0.51    0.30
  -2   7  -3    0.59    0.28
  -2   7  -3    0.55    0.27
  -2   7  -3    0.41    0.31
   2   7   3    0.78    0.30
  -2  -7  -3    0.97    0.32
   2  -7   3    0.29    0.29
   2  -7   3    0.83    0.31
   2  -7   3    0.60    0.28
  -2  -7  -3    0.59    0.28
  -2  -7  -3    0.00    0.41
  -2   7  -4   56.07    2.51
  -2   7  -4   51.01    2.45
  -2   7  -4   60.02    2.50
   2   7   4   55.79    2.50
   2   7   4   54.14    2.49
   2  -7   4   55.64    2.48
  -2  -7  -4   56.77    2.49
   2  -7   4   53.98    2.50
  -2  -7  -4   54.54    2.54
   2  -7   4   55.10    2.48
  -2  -7  -4   58.30    2.50
  -2   7  -5   13.57    0.96
   2   7   5   12.13    0.96
  -2   7  -5   13.35    0.96
  -2   7  -5   13.23    0.93
   2  -7   5   13.57    0.97
   2  -7   5   14.01    0.98
  -2  -7  -5   13.52    1.06
  -2  -7  -5   14.61    0.97
  -2  -7  -5   13.74    0.94
   2   7   6   21.42    1.30
  -2   7  -6   21.79    1.54
  -2   7  -6   21.65    1.31
  -2   7  -6   21.36    1.30
   2   7   6   17.32    1.49
  -2  -7  -6   23.06    1.33
  -2  -7  -6   21.86    1.69
   2  -7   6   20.81    1.34
  -2  -7  -6   23.37    1.41
   2  -7   6   21.51    1.32
   2   7   7   -0.65    0.50
  -2   7  -7   -0.05    0.50
   2   7   7   -0.08    0.54
  -2   7  -7    0.22    0.52
  -2   7  -7   -0.01    0.56
  -2  -7  -7    0.13    0.52
  -2  -7  -7   -0.03    0.63
   2  -7   7   -0.04    0.55
   2  -7   7    0.49    0.53
   2  -7   7    0.58    0.63
  -2  -7  -7    0.43    0.55
   2   8  -7    5.58    0.64
  -2   8   7    5.99    0.64
  -2   8   7    6.74    0.69
  -2  -8   7    6.13    0.80
  -2  -8   7    6.43    0.65
  -2  -8   7    7.32    0.85
  -2  -8   7    5.68    0.68
  -2   8   6   18.53    1.14
   2   8  -6   17.39    0.97
  -2   8   6   18.24    1.09
   2   8  -6   17.04    1.01
  -2  -8   6   17.81    1.31
   2  -8  -6   18.00    0.95
  -2  -8   6   16.80    1.09
  -2  -8   6   18.48    1.16
   2  -8  -6   17.39    1.10
  -2  -8   6   19.39    1.76
  -2   8   5   11.99    0.83
  -2   8   5   10.44    0.88
   2   8  -5   11.65    0.77
   2   8  -5   11.07    0.71
  -2  -8   5   10.21    1.00
  -2  -8   5   10.86    0.89
   2  -8  -5   10.30    0.79
   2  -8  -5   11.53    0.69
  -2  -8   5   10.96    0.95
  -2  -8   5   11.56    0.82
   2   8  -4    5.43    0.53
  -2   8   4    5.05    0.66
  -2   8   4    5.60    0.62
   2   8  -4    5.25    0.57
  -2  -8   4    6.52    0.80
  -2  -8   4    4.49    0.51
  -2  -8   4    5.17    0.61
  -2  -8   4    6.30    0.72
   2  -8  -4    5.29    0.50
   2  -8  -4    5.24    0.53
   2   8  -3  191.82    8.18
  -2   8   3  196.53    8.22
   2   8  -3  197.83    8.17
  -2   8   3  196.17    8.20
   2  -8  -3  212.57    8.17
   2  -8  -3  191.40    8.13
  -2  -8   3  193.04    8.27
  -2  -8   3  188.43    8.19
  -2  -8   3  197.77    8.24
   2  -8  -3  195.77    8.18
  -2  -8   3  196.98    8.23
  -2   8   2   21.21    1.08
   2   8  -2   19.74    1.03
   2   8  -2   20.08    1.02
  -2   8   2   18.34    1.05
   2  -8  -2   19.65    1.02
  -2  -8   2   20.48    1.10
  -2  -8   2   17.38    1.13
   2  -8  -2   20.84    0.92
  -2  -8   2   20.02    1.07
   2  -8  -2   21.17    1.01
  -2   8   1   18.74    0.99
  -2   8   1   17.80    1.01
   2   8  -1   19.94    1.05
   2   8  -1   18.09    0.95
   2   8  -1   15.21    0.99
  -2   8   1   18.19    0.81
  -2  -8   1   19.03    1.03
  -2  -8   1   18.41    1.04
  -2  -8   1   18.67    1.00
   2  -8  -1   17.91    0.98
   2  -8  -1   18.46    0.95
  -2   8   0   18.84    0.99
   2   8   0   18.18    1.02
   2   8   0   19.41    1.05
   2   8   0   19.57    0.97
  -2   8   0   19.04    1.04
   2  -8   0   18.92    1.03
  -2  -8   0   18.08    0.98
   2  -8   0   16.93    0.85
  -2  -8   0   18.54    1.04
   2  -8   0   18.83    0.97
   2   8   1   64.39    2.92
   2   8   1   65.06    2.89
  -2   8  -1   65.18    2.90
   2   8   1   66.82    2.86
  -2  -8  -1   63.09    2.89
  -2  -8  -1   68.50    2.87
   2  -8   1   64.17    2.85
   2  -8   1   63.82    2.88
   2  -8   1   70.18    2.79
   2   8   2    1.64    0.35
  -2   8  -2    1.15    0.34
   2   8   2    1.88    0.35
   2   8   2    1.31    0.37
  -2   8  -2    0.99    0.29
   2  -8   2    1.15    0.32
   2  -8   2    1.66    0.28
   2  -8   2    1.11    0.30
  -2  -8  -2    1.91    0.35
   2  -8   2    1.69    0.20
  -2  -8  -2    1.57    0.35
  -2   8  -3  119.50    4.89
  -2   8  -3  123.06    4.94
   2   8   3  118.58    4.93
  -2   8  -3  107.78    4.93
   2   8   3  100.07    4.91
   2  -8   3  105.34    4.91
  -2  -8  -3  115.09    4.98
   2  -8   3  131.98    4.91
  -2  -8  -3  130.36    4.96
   2  -8   3  116.45    4.93
  -2  -8  -3  104.82    4.91
  -2   8  -4   26.37    1.35
  -2   8  -4   28.20    1.42
   2   8   4   27.53    1.41
  -2   8  -4   27.21    1.39
  -2  -8  -4   25.78    1.39
  -2  -8  -4   27.83    1.49
   2  -8   4   25.70    1.37
   2  -8   4   23.46    1.66
  -2  -8  -4   28.27    1.40
   2  -8   4   26.13    1.40
  -2   8  -5    0.10    0.45
  -2   8  -5   -0.14    0.41
   2   8   5    0.21    0.42
  -2  -8  -5   -0.07    0.40
  -2  -8  -5    0.45    0.47
   2  -8   5    0.51    0.44
   2  -8   5   -0.12    0.43
  -2   8  -6   12.58    1.06
   2   8   6   12.54    1.09
  -2   8  -6   11.88    1.08
  -2   8  -6   11.83    1.06
   2   8   6   12.92    1.09
  -2  -8  -6   13.90    1.10
  -2  -8  -6   11.39    1.21
   2  -8   6   12.97    1.04
  -2  -8  -6   13.13    1.09
   2  -8   6   13.70    1.12
   2  -8   6   15.13    1.13
  -2   8  -7   28.73    1.77
   2   8   7   31.74    1.79
   2   8   7   31.99    1.76
  -2   8  -7   31.74    1.75
  -2   8  -7   31.41    1.77
   2  -8   7   29.03    1.74
  -2  -8  -7   33.42    1.76
   2  -8   7   31.95    1.78
   2  -8   7   34.21    1.87
  -2  -8  -7   29.23    1.76
  -2  -8  -7   28.79    1.89
  -2   9   7   17.13    1.31
  -2   9   7   18.47    1.25
   2   9  -7   18.21    1.06
  -2  -9   7   20.14    1.27
  -2  -9   7   16.80    1.32
  -2  -9   7   19.51    1.46
  -2  -9   7   18.18    1.45
  -2   9   6    1.28    0.47
  -2   9   6    0.27    0.48
   2   9  -6    0.14    0.38
   2   9  -6    0.99    0.36
  -2  -9   6    0.90    0.50
  -2  -9   6    0.13    0.60
   2  -9  -6    0.53    0.47
   2  -9  -6    0.76    0.31
  -2  -9   6    0.99    0.46
  -2  -9   6    0.60    0.55
   2   9  -5   24.89    1.28
  -2   9   5   27.35    1.36
   2   9  -5   25.23    1.25
  -2   9   5   23.91    1.40
  -2  -9   5   26.39    1.42
  -2  -9   5   24.94    1.43
   2  -9  -5   24.53    1.29
  -2  -9   5   24.16    1.34
   2  -9  -5   24.91    1.24
  -2  -9   5   23.62    1.50
   2   9  -4   96.70    4.08
  -2   9   4   94.72    4.16
  -2   9   4   90.74    4.12
   2   9  -4   94.60    4.09
  -2  -9   4   95.92    4.18
  -2  -9   4   92.15    4.12
   2  -9  -4   97.00    4.07
   2  -9  -4   94.26    4.06
   2  -9  -4   96.18    4.09
  -2  -9   4   96.97    4.17
  -2  -9   4  103.45    4.23
  -2   9   3   13.17    0.93
  -2   9   3   14.66    0.91
   2   9  -3   14.68    0.85
   2   9  -3   14.06    0.84
  -2  -9   3   14.08    0.95
  -2  -9   3   13.51    0.93
   2  -9  -3   14.00    0.85
  -2  -9   3   12.88    0.88
  -2  -9   3   11.23    1.02
   2  -9  -3   14.76    0.81
   2  -9  -3   13.16    0.74
   2   9  -2   91.33    3.78
   2   9  -2   87.34    3.76
  -2   9   2   85.29    3.80
  -2   9   2   87.58    3.80
  -2  -9   2   85.63    3.84
   2  -9  -2   89.59    3.77
   2  -9  -2   88.44    3.68
   2  -9  -2   88.89    3.76
  -2  -9   2   84.99    3.80
  -2  -9   2   88.26    3.83
  -2   9   1    1.10    0.37
   2   9  -1    1.40    0.33
   2   9  -1    0.77    0.38
  -2   9   1    1.03    0.32
  -2   9   1    1.38    0.16
   2   9  -1    0.57    0.36
   2  -9  -1    1.24    0.34
  -2  -9   1    1.45    0.41
   2  -9  -1    1.52    0.33
  -2  -9   1    1.16    0.37
  -2  -9   1    0.74    0.33
   2   9   0   28.89    1.42
   2   9   0   27.20    1.40
  -2   9   0   27.74    1.37
  -2   9   0   28.26    1.41
   2   9   0   28.93    1.36
   2  -9   0   28.37    1.23
  -2  -9   0   25.60    1.37
  -2  -9   0   28.63    1.42
   2  -9   0   25.64    1.39
   2  -9   0   26.34    1.35
  -2   9  -1   14.41    0.88
  -2   9  -1   14.50    0.95
   2   9   1   14.37    0.95
   2   9   1   13.30    0.92
   2   9   1   14.28    0.87
  -2  -9  -1   14.15    0.93
   2  -9   1   13.74    0.87
   2  -9   1   12.73    0.91
  -2  -9  -1   14.14    0.87
   2  -9   1   14.72    0.74
   2   9   2  207.00    8.77
   2   9   2  208.94    8.76
  -2   9  -2  195.29    8.75
   2   9   2  225.89    8.82
  -2   9  -2  188.45    8.77
   2  -9   2  218.33    8.70
   2  -9   2  222.55    8.65
  -2  -9  -2  199.38    8.77
   2  -9   2  222.11    8.78
  -2  -9  -2  182.92    8.74
   2  -9   2  230.49    8.77
  -2   9  -3    0.19    0.39
   2   9   3    0.40    0.35
  -2   9  -3    0.36    0.34
   2   9   3    0.70    0.37
  -2  -9  -3    0.53    0.50
   2  -9   3    0.60    0.40
   2  -9   3    1.05    0.34
  -2  -9  -3    0.89    0.38
  -2  -9  -3    0.48    0.38
   2  -9   3    0.94    0.36
   2  -9   3    0.76    0.24
  -2   9  -4   60.52    2.56
  -2   9  -4   59.20    2.61
   2   9   4   55.21    2.61
  -2   9  -4   57.48    2.63
   2  -9   4   54.90    2.61
  -2  -9  -4   53.10    2.59
  -2  -9  -4   58.35    2.62
   2  -9   4   56.60    2.58
  -2  -9  -4   58.21    2.69
   2   9   5    0.65    0.47
  -2   9  -5   -0.50    0.44
  -2   9  -5   -0.17    0.47
  -2  -9  -5    0.06    0.45
   2  -9   5   -0.10    0.45
   2  -9   5    0.27    0.47
   2   9   6   43.84    2.12
  -2   9  -6   42.52    2.11
  -2   9  -6   41.12    2.08
   2   9   6   39.47    2.10
  -2   9  -6   39.27    2.08
   2  -9   6   44.72    2.14
   2  -9   6   41.50    2.12
  -2  -9  -6   40.24    2.09
  -2  -9  -6   37.92    2.08
  -2  -9  -6   43.08    2.20
   2  -9   6   40.65    2.08
  -2   9  -7    0.44    0.68
  -2   9  -7   -0.14    0.61
  -2   9  -7    0.63    0.61
  -2  -9  -7    0.06    0.75
   2  -9   7    0.16    0.73
  -2  -9  -7    0.85    0.60
  -2  -9  -7    1.34    0.64
  -2  10   6    8.73    0.96
   2  10  -6    6.32    0.78
  -2  10   6    7.90    1.02
  -2 -10   6    9.66    1.10
  -2 -10   6    8.44    1.05
   2 -10  -6    7.75    0.90
  -2 -10   6    9.14    0.95
  -2 -10   6   10.58    1.03
   2  10  -5   32.01    1.43
   2  10  -5   26.87    1.43
  -2  10   5   29.08    1.52
  -2  10   5   27.71    1.57
  -2 -10   5   26.15    1.56
  -2 -10   5   28.76    1.52
   2 -10  -5   28.05    1.39
   2 -10  -5   25.45    1.42
  -2 -10   5   28.72    1.67
   2  10  -4   25.18    1.34
  -2  10   4   24.91    1.44
  -2  10   4   26.03    1.41
   2  10  -4   27.78    1.35
  -2 -10   4   25.20    1.53
   2 -10  -4   26.84    1.29
  -2 -10   4   26.57    1.47
  -2 -10   4   23.02    1.44
  -2 -10   4   25.81    1.41
   2 -10  -4   27.72    1.34
   2 -10  -4   27.71    1.32
  -2  10   3  132.02    5.25
   2  10  -3  123.04    5.18
   2  10  -3  123.90    5.17
  -2  10   3  117.75    5.21
   2 -10  -3  125.61    5.17
  -2 -10   3  104.84    5.21
  -2 -10   3  124.16    5.22
  -2 -10   3  122.55    5.23
   2 -10  -3  121.66    5.11
  -2 -10   3  116.08    5.27
   2 -10  -3  127.36    5.17
   2  10  -2   25.44    1.29
   2  10  -2   23.15    1.24
  -2  10   2   24.66    1.32
  -2  10   2   21.39    1.29
  -2 -10   2   25.79    1.38
  -2 -10   2   23.19    1.31
   2 -10  -2   25.77    1.26
   2 -10  -2   25.75    1.26
   2 -10  -2   23.17    1.11
  -2 -10   2   20.34    1.29
   2  10  -1   12.36    0.92
   2  10  -1   12.89    0.93
  -2  10   1   10.92    0.92
   2  10  -1   13.03    0.85
  -2  10   1   12.89    0.88
  -2  10   1   12.99    0.60
   2 -10  -1   12.18    0.89
  -2 -10   1   10.58    0.89
   2 -10  -1   12.68    0.85
  -2 -10   1   14.14    0.95
  -2 -10   1   11.60    0.91
   2  10   0    6.58    0.66
  -2  10   0    4.91    0.55
   2  10   0    6.75    0.74
   2  10   0    7.35    0.74
  -2  10   0    4.33    0.49
   2 -10   0    6.63    0.48
  -2 -10   0    5.70    0.70
  -2 -10   0    5.84    0.74
   2 -10   0    6.51    0.71
   2 -10   0    6.08    0.67
  -2  10  -1  238.85   10.08
   2  10   1  248.91   10.08
   2  10   1  246.84   10.07
   2  10   1  209.92   10.02
  -2  10  -1  243.88   10.05
  -2 -10  -1  243.10   10.08
   2 -10   1  216.13   10.05
   2 -10   1  255.34    9.97
   2 -10   1  249.44   10.05
  -2 -10  -1  250.62   10.06
   2  10   2    7.29    0.77
   2  10   2    5.88    0.62
   2  10   2    8.20    0.77
  -2  10  -2    6.40    0.82
  -2 -10  -2    6.86    0.74
   2 -10   2    7.26    0.46
   2 -10   2    6.28    0.77
   2 -10   2    7.81    0.61
  -2 -10  -2    7.05    0.79
   2 -10   2    6.12    0.75
  -2  10  -3  155.66    6.44
   2  10   3  155.34    6.43
   2  10   3  152.26    6.45
   2  10   3  142.54    6.40
   2 -10   3  152.35    6.29
   2 -10   3  152.80    6.41
   2 -10   3  143.49    6.40
   2 -10   3  147.40    6.34
  -2 -10  -3  150.92    6.40
  -2 -10  -3  154.36    6.46
   2  10   4    2.16    0.50
  -2  10  -4    2.32    0.55
  -2 -10  -4    2.90    0.54
  -2 -10  -4    2.88    0.65
   2 -10   4    2.48    0.49
   2 -10   4    2.70    0.37
   2 -10   4    2.97    0.56
  -2  10  -5   -0.26    0.46
  -2  10  -5   -0.36    0.52
   2  10   5    0.14    0.53
  -2  10  -5    0.40    0.49
   2 -10   5   -0.19    0.50
  -2 -10  -5    0.69    0.51
  -2 -10  -5   -0.77    0.61
   2 -10   5    0.18    0.50
  -2 -10  -5    1.21    0.55
  -2  10  -6    1.11    0.58
   2  10   6    0.32    0.61
  -2  10  -6    0.99    0.59
  -2  10  -6   -0.14    0.60
   2  10   6    0.75    0.60
   2 -10   6    2.14    0.68
   2 -10   6    1.10    0.56
  -2 -10  -6   -0.12    0.74
   2 -10   6   -0.53    0.59
  -2 -10  -6    0.78    0.57
  -2 -10  -6    0.54    0.59
  -2  11   6    1.49    0.59
   2  11  -6    0.68    0.47
  -2  11   6    2.45    0.64
  -2 -11   6    0.99    0.61
   2 -11  -6    0.06    0.37
  -2 -11   6    1.79    0.66
  -2 -11   6    1.56    0.72
  -2 -11   6    0.89    0.58
   2 -11  -6    2.44    0.48
  -2  11   5    0.31    0.55
   2  11  -5   -0.04    0.42
   2  11  -5    0.51    0.43
  -2  11   5    0.71    0.51
   2 -11  -5    1.21    0.43
  -2 -11   5    0.49    0.53
   2 -11  -5    0.68    0.44
   2 -11  -5    1.38    0.42
  -2 -11   5    1.14    0.49
  -2 -11   5    2.28    0.66
   2  11  -4   84.08    3.53
  -2  11   4   80.33    3.60
  -2  11   4   84.48    3.59
   2  11  -4   80.37    3.50
   2 -11  -4   78.87    3.50
   2 -11  -4   81.30    3.46
   2 -11  -4   79.97    3.51
  -2 -11   4   83.50    3.61
  -2 -11   4   78.87    3.60
  -2 -11   4   72.99    3.63
  -2 -11   4   77.26    3.56
  -2  11   3   -0.38    0.43
  -2  11   3   -0.06    0.40
   2  11  -3   -0.05    0.35
   2  11  -3    0.03    0.40
  -2 -11   3    0.17    0.42
   2 -11  -3   -0.03    0.36
   2 -11  -3    0.37    0.36
  -2 -11   3    0.26    0.51
  -2 -11   3    0.03    0.40
   2 -11  -3   -0.01    0.30
  -2 -11   3   -0.31    0.41
   2  11  -2   85.96    4.07
   2  11  -2   88.06    4.10
  -2  11   2  102.90    4.14
  -2  11   2   88.66    3.97
  -2  11   2   92.25    4.13
  -2 -11   2  101.02    4.18
  -2 -11   2   94.84    4.14
   2 -11  -2   88.66    4.09
   2 -11  -2   97.77    4.09
   2 -11  -2   98.50    3.99
  -2 -11   2   97.04    4.13
  -2 -11   2   98.55    4.15
   2  11  -1   31.25    1.54
  -2  11   1   29.72    1.24
   2  11  -1   27.85    1.46
  -2  11   1   30.51    1.54
  -2  11   1   28.29    1.50
   2  11  -1   30.28    1.53
  -2 -11   1   28.67    1.52
   2 -11  -1   27.44    1.46
  -2 -11   1   28.37    1.54
   2 -11  -1   24.58    1.48
   2  11   0   20.86    1.22
  -2  11   0   22.05    1.30
   2  11   0   23.83    1.27
  -2  11   0   20.87    1.25
   2  11   0   24.06    1.29
   2 -11   0   22.58    1.07
   2 -11   0   18.37    1.22
  -2 -11   0   21.85    1.30
   2 -11   0   24.08    1.28
  -2 -11   0   22.92    1.27
   2  11   1   19.08    1.17
   2  11   1   19.54    1.19
   2  11   1   18.03    1.14
  -2  11  -1   19.34    1.22
  -2  11  -1   20.11    1.15
   2 -11   1   18.88    1.18
   2 -11   1   18.46    1.14
  -2 -11  -1   19.54    1.21
   2 -11   1   17.92    0.98
  -2 -11  -1   19.21    1.16
   2  11   2   95.17    4.28
   2  11   2   90.48    4.29
  -2  11  -2  102.44    4.33
   2  11   2  102.05    4.31
   2 -11   2  100.20    4.12
   2 -11   2   97.25    4.19
   2 -11   2   96.97    4.30
  -2 -11  -2   98.69    4.28
   2 -11   2  101.25    4.29
   2  11   3    4.91    0.60
   2  11   3    5.82    0.66
  -2  11  -3    5.12    0.66
   2 -11   3    6.40    0.53
   2 -11   3    6.23    0.65
   2 -11   3    6.10    0.72
  -2 -11  -3    6.43    0.78
  -2 -11  -3    5.01    0.58
  -2  11  -4    8.03    1.04
   2  11   4    7.73    0.98
  -2 -11  -4    7.05    0.93
  -2 -11  -4    8.11    0.80
   2 -11   4    7.77    0.77
   2 -11   4    7.15    0.85
   2 -11   4    7.85    0.67
  -2  11  -5    1.08    0.64
   2  11   5    2.29    0.65
   2  11   5    1.86    0.62
   2 -11   5    1.71    0.55
   2 -11   5    2.47    0.60
  -2 -11  -5    1.06    0.58
  -2 -11  -5    0.95    0.56
  -2 -11  -5    1.14    0.72
   2 -11   5    1.26    0.58
   2 -11   5    1.08    0.38
  -2  11  -6    0.46    0.65
  -2 -11  -6    1.74    0.63
  -2 -11  -6    1.18    0.83
  -2 -11  -6    1.47    0.67
   2 -11   6    1.78    0.68
   2 -11   6    0.60    0.71
  -2  12   5   31.29    1.93
   2  12  -5   36.14    1.79
  -2  12   5   33.20    1.91
   2  12  -5   34.92    1.76
  -2 -12   5   33.58    2.02
  -2 -12   5   37.59    1.96
   2 -12  -5   34.52    1.77
  -2 -12   5   35.37    1.95
   2 -12  -5   37.70    1.77
  -2 -12   5   35.29    1.88
  -2  12   4   -0.68    0.50
   2  12  -4    0.51    0.42
   2  12  -4   -0.07    0.47
  -2  12   4    0.74    0.50
   2 -12  -4    0.66    0.42
  -2 -12   4   -0.52    0.51
  -2 -12   4    0.01    0.51
   2 -12  -4   -0.01    0.43
  -2 -12   4    0.14    0.40
   2 -12  -4   -0.13    0.27
  -2 -12   4   -0.18    0.64
  -2  12   3  136.59    5.73
   2  12  -3  137.59    5.65
   2  12  -3  130.15    5.67
  -2  12   3  127.03    5.71
   2 -12  -3  131.05    5.66
  -2 -12   3  130.43    5.75
   2 -12  -3  125.33    5.56
   2 -12  -3  132.59    5.65
  -2 -12   3  128.48    5.72
  -2 -12   3  135.34    5.72
  -2 -12   3  141.34    5.73
  -2  12   2    7.58    0.88
  -2  12   2    7.33    0.90
   2  12  -2    7.15    0.70
   2  12  -2    7.65    0.80
  -2  12   2    6.49    0.53
   2 -12  -2    6.45    0.60
  -2 -12   2    7.09    0.91
   2 -12  -2    5.97    0.65
  -2 -12   2    8.31    0.88
  -2 -12   2    6.23    0.72
   2 -12  -2    8.18    0.81
  -2 -12   2    7.96    0.87
   2  12  -1    8.58    0.83
  -2  12   1    8.31    0.85
   2  12  -1    7.94    0.91
  -2  12   1    8.42    0.91
   2  12  -1    7.92    0.86
   2 -12  -1    8.63    0.60
  -2 -12   1    7.81    0.90
   2 -12  -1    6.60    0.88
   2 -12  -1    8.41    0.84
  -2  12   0   22.57    1.34
   2  12   0   25.35    1.37
   2  12   0   22.51    1.32
  -2  12   0   24.21    1.37
   2  12   0   22.97    1.31
   2 -12   0   23.51    1.13
   2 -12   0   24.20    1.36
  -2 -12   0   22.34    1.38
   2 -12   0   21.18    1.31
  -2 -12   0   22.28    1.33
   2  12   1   21.19    1.28
   2  12   1   21.19    1.30
  -2  12  -1   20.58    1.35
   2  12   1   24.83    1.35
   2 -12   1   19.91    1.29
  -2 -12  -1   23.28    1.33
   2 -12   1   23.04    1.34
   2 -12   1   21.69    1.12
   2  12   2    0.22    0.50
   2  12   2    0.28    0.48
  -2  12  -2   -0.16    0.49
   2 -12   2   -0.23    0.37
   2 -12   2    0.19    0.48
  -2 -12  -2    0.28    0.45
   2  12   3   66.59    3.18
  -2  12  -3   73.59    3.24
   2  12   3   68.18    3.18
   2  12   3   64.46    3.15
   2 -12   3   66.98    3.17
  -2 -12  -3   72.11    3.17
   2 -12   3   69.39    3.17
   2 -12   3   71.04    3.07
  -2  12  -4    1.40    0.62
   2  12   4    1.83    0.60
   2  12   4    1.16    0.55
  -2  12  -4    1.43    0.57
   2  12   4    1.81    0.65
   2 -12   4    1.62    0.64
  -2 -12  -4    0.62    0.70
  -2 -12  -4    2.02    0.60
   2 -12   4    0.87    0.50
  -2 -12  -4    1.47    0.63
   2 -12   4    2.03    0.59
   2  12   5   -0.17    0.63
   2  12   5    0.57    0.63
  -2  12  -5   -0.24    0.68
   2 -12   5    0.51    0.57
  -2 -12  -5   -1.06    0.73
  -2 -12  -5    0.39    0.59
   2 -12   5   -0.30    0.60
   2 -12   5    1.01    0.60
  -2 -12  -5    0.90    0.64
  -2  13   5   12.52    1.37
  -2  13   5   13.90    1.26
   2  13  -5   11.43    1.14
   2 -13  -5   13.81    1.06
  -2 -13   5   13.38    1.31
  -2 -13   5   13.22    1.27
  -2 -13   5   10.47    1.41
  -2 -13   5   14.51    1.34
  -2  13   4   81.88    3.69
  -2  13   4   79.62    3.67
   2  13  -4   84.36    3.62
  -2 -13   4   84.51    3.70
   2 -13  -4   82.67    3.57
   2 -13  -4   68.64    3.54
  -2 -13   4   81.86    3.69
  -2 -13   4   80.16    3.73
   2  13  -3   -0.46    0.49
  -2  13   3   -0.27    0.32
  -2  13   3    0.94    0.53
   2  13  -3   -0.37    0.37
  -2  13   3    0.02    0.52
   2 -13  -3   -0.02    0.23
   2 -13  -3    0.50    0.45
   2 -13  -3   -0.46    0.46
  -2 -13   3    0.09    0.48
  -2 -13   3    0.20    0.49
  -2 -13   3    0.28    0.51
  -2 -13   3    0.82    0.61
  -2  13   2   74.22    3.21
  -2  13   2   69.25    2.96
   2  13  -2   58.84    3.09
  -2  13   2   71.96    3.21
   2  13  -2   69.27    3.18
  -2 -13   2   67.27    3.19
   2 -13  -2   68.79    3.17
  -2 -13   2   71.65    3.20
  -2 -13   2   79.59    3.25
   2 -13  -2   71.00    3.14
  -2 -13   2   66.10    3.21
   2  13  -1    4.49    0.60
  -2  13   1    3.48    0.56
  -2  13   1    4.46    0.59
   2  13  -1    4.67    0.61
   2 -13  -1    4.29    0.57
  -2 -13   1    4.94    0.67
   2 -13  -1    4.12    0.59
   2 -13  -1    4.97    0.55
   2  13   0    5.60    0.63
  -2  13   0    4.56    0.60
   2  13   0    7.20    0.70
  -2  13   0    7.28    0.93
  -2 -13   0    6.01    0.69
  -2 -13   0    4.45    0.63
   2 -13   0    6.35    0.60
   2 -13   0    6.66    0.68
  -2  13  -1    2.89    0.58
   2  13   1    1.50    0.51
   2  13   1    2.91    0.58
   2 -13   1    2.50    0.56
  -2 -13  -1    3.15    0.62
   2 -13   1    2.88    0.43
  -2  13  -2   99.15    4.37
   2  13   2   98.42    4.33
   2  13   2   97.56    4.34
   2  13   2   97.90    4.32
   2 -13   2   99.92    4.20
   2 -13   2   96.57    4.33
  -2 -13  -2   91.39    4.32
   2 -13   2  100.54    4.35
   2  13   3    0.16    0.54
   2  13   3   -0.15    0.52
  -2  13  -3    0.73    0.59
   2  13   3    0.76    0.56
  -2  13  -3    0.35    0.62
   2 -13   3   -0.48    0.58
   2 -13   3    0.30    0.46
  -2 -13  -3   -0.04    0.55
  -2 -13  -3   -0.81    0.99
   2 -13   3   -0.02    0.56
   2 -13   3    0.49    0.19
  -2 -13  -3   -0.84    0.55
   2  13   4   27.50    1.72
  -2  13  -4   27.96    1.77
  -2  13  -4   26.78    1.69
   2  13   4   26.42    1.70
   2  13   4   28.78    1.71
   2 -13   4   27.75    1.71
   2 -13   4   24.84    1.53
  -2 -13  -4   27.14    1.80
  -2 -13  -4   27.29    1.67
  -2 -13  -4   25.37    1.76
   2 -13   4   27.58    1.69
   2  13   5    8.20    0.97
  -2  13  -5    5.92    0.92
  -2  13  -5    4.39    1.14
  -2 -13  -5    5.91    1.03
  -2 -13  -5    6.03    0.92
  -2 -13  -5    7.38    0.87
   2 -13   5    7.30    0.85
   2  14  -4   -0.17    0.61
  -2  14   4   -0.03    0.63
   2  14  -4    1.10    0.53
  -2  14   4    0.40    0.47
  -2  14   4    0.61    0.63
   2 -14  -4    0.46    0.72
   2 -14  -4    0.22    0.32
  -2 -14   4   -0.38    0.73
  -2 -14   4    1.63    0.66
   2 -14  -4    1.22    0.54
  -2 -14   4   -0.12    0.60
  -2 -14   4   -0.14    0.60
   2  14  -3   50.13    2.57
  -2  14   3   50.46    2.36
  -2  14   3   54.41    2.64
  -2  14   3   52.29    2.63
   2  14  -3   58.60    2.60
  -2 -14   3   54.21    2.67
  -2 -14   3   52.97    2.64
   2 -14  -3   51.72    2.51
  -2 -14   3   54.23    2.61
  -2  14   2   50.88    2.39
  -2  14   2   45.58    2.04
   2  14  -2   47.20    2.35
  -2  14   2   47.09    2.37
  -2 -14   2   46.62    2.39
  -2 -14   2   47.70    2.35
  -2 -14   2   45.21    2.39
   2 -14  -2   48.53    2.29
   2  14  -1   10.21    1.04
  -2  14   1    7.95    1.04
   2  14  -1    7.69    0.95
   2  14  -1    8.96    0.91
  -2  14   1    9.85    1.06
   2 -14  -1    9.37    0.71
  -2 -14   1    9.11    1.07
  -2 -14   1    9.49    1.03
   2 -14  -1    8.60    0.96
   2  14   0   34.84    1.94
  -2  14   0   38.09    1.95
  -2  14   0   37.93    2.00
   2  14   0   35.73    1.93
   2  14   0   35.94    1.88
  -2 -14   0   39.87    1.99
   2 -14   0   37.55    1.93
   2 -14   0   37.34    1.73
   2 -14   0   37.20    1.94
  -2 -14   0   37.06    1.99
  -2  14  -1   56.79    2.74
   2  14   1   55.37    2.73
   2  14   1   58.05    2.70
  -2  14  -1   59.62    2.78
   2  14   1   54.97    2.74
   2 -14   1   58.94    2.56
   2 -14   1   60.13    2.75
  -2 -14  -1   60.32    2.80
   2 -14   1   54.47    2.72
  -2 -14  -1   54.82    2.73
  -2  14  -2    0.35    0.54
   2  14   2    0.87    0.56
   2  14   2    0.96    0.54
   2  14   2    2.52    0.65
  -2  14  -2    1.23    0.67
  -2 -14  -2    1.06    0.63
  -2 -14  -2    1.17    0.64
   2 -14   2    0.66    0.63
   2 -14   2    0.59    0.46
   2 -14   2    1.59    0.59
  -2  14  -3   45.68    2.42
   2  14   3   50.87    2.45
   2  14   3   50.12    2.44
   2  14   3   46.18    2.38
  -2  14  -3   46.28    2.47
   2 -14   3   46.64    2.24
  -2 -14  -3   44.80    2.38
   2 -14   3   44.60    2.42
  -2 -14  -3   44.63    2.46
  -2 -14  -3   48.87    2.49
   2 -14   3   46.12    2.39
   2  14   4   37.78    2.16
  -2  14  -4   42.62    2.46
  -2  14  -4   40.59    2.20
  -2 -14  -4   43.19    2.15
   2 -14   4   38.11    2.01
   2 -14   4   31.96    2.13
  -2 -14  -4   41.48    2.27
  -2 -14  -4   33.50    2.24
  -2  15   3   -0.97    0.65
  -2  15   3   -0.07    0.35
   2  15  -3   -0.64    0.56
  -2  15   3    1.35    0.58
   2  15  -3    1.40    0.65
  -2 -15   3    0.52    0.67
  -2 -15   3    0.11    0.69
   2 -15  -3   -0.20    0.61
   2 -15  -3    0.50    0.56
   2 -15  -3   -0.13    0.32
  -2 -15   3    0.14    1.02
  -2 -15   3   -0.09    0.60
  -2  15   2   14.67    0.77
  -2  15   2   15.94    1.31
   2  15  -2   13.42    1.19
  -2  15   2   13.35    1.32
   2  15  -2   14.96    1.28
   2 -15  -2   15.23    1.19
   2 -15  -2   14.35    1.26
  -2 -15   2   15.01    1.31
  -2 -15   2   13.99    1.32
  -2 -15   2   15.82    1.25
   2  15  -1   17.36    1.34
  -2  15   1   20.08    1.39
   2  15  -1   15.26    1.31
  -2  15   1   16.27    1.37
   2 -15  -1   17.56    1.30
  -2 -15   1   19.89    1.38
   2 -15  -1   19.54    1.05
  -2 -15   1   21.01    1.36
   2 -15  -1   16.59    1.35
  -2 -15   1   18.53    1.40
   2  15   0    4.74    0.67
  -2  15   0    3.20    0.65
   2  15   0    4.18    0.71
  -2  15   0    4.67    0.75
   2  15   0    4.83    0.64
  -2 -15   0    3.12    0.71
   2 -15   0    4.57    0.52
   2 -15   0    4.41    0.67
   2 -15   0    4.14    0.66
   2  15   1   14.97    1.30
  -2  15  -1   12.35    1.25
   2  15   1   13.50    1.26
   2  15   1   14.98    1.17
  -2  15  -1   17.61    1.38
  -2 -15  -1   13.42    1.34
  -2 -15  -1   15.09    1.33
   2 -15   1   14.52    1.28
   2 -15   1   16.55    1.29
   2 -15   1   14.45    0.99
   2  15   2   58.00    2.79
   2  15   2   64.70    2.88
   2  15   2   54.32    2.85
  -2  15  -2   60.05    2.90
  -2  15  -2   54.71    2.85
  -2 -15  -2   59.98    2.92
   2 -15   2   55.60    2.85
  -2 -15  -2   57.48    2.84
   2 -15   2   58.91    2.66
   2 -15   2   59.48    2.87
   2  15   3    5.00    0.78
   2  15   3    7.23    0.82
   2 -15   3    5.85    0.73
  -2 -15  -3    7.74    1.00
   2 -15   3    6.48    0.86
   2  16  -1    3.76    0.69
   2  16  -1    4.45    0.70
   2 -16  -1    4.58    0.73
   2 -16  -1    4.51    0.55
   2 -16  -1    2.09    0.67
  -2 -16   1    5.97    0.77
   2  16   0   59.04    2.84
   2  16   0   54.80    2.83
   2  16   0   59.72    2.77
   2 -16   0   57.32    2.62
   2 -16   0   61.16    2.84
   2 -16   0   58.23    2.83
   2  16   1   15.22    1.27
   2  16   1   19.23    1.40
   2  16   1   15.48    1.40
   2 -16   1   15.42    1.36
   2 -16   1   16.63    1.43
   2 -16   1   18.17    1.13
  -3   0   8   13.83    0.99
  -3   0   8   14.75    1.20
  -3   0   8   15.59    1.01
   3   0  -8   13.82    1.22
  -3   0   7   -0.12    0.47
  -3   0   7    0.25    0.33
  -3   0   7   -0.14    0.30
  -3   0   6    2.53    0.31
   3   0  -6    1.72    0.43
  -3   0   6    2.23    0.31
  -3   0   6    1.45    0.41
  -3   0   5    0.01    0.19
  -3   0   5    0.14    0.28
  -3   0   5   -0.19    0.18
   3   0  -5    0.15    0.32
  -3   0   4  176.21    7.48
  -3   0   4  176.14    7.41
   3   0  -4  184.42    7.50
  -3   0   4  180.98    7.41
  -3   0   3    0.05    0.20
  -3   0   3    0.17    0.21
  -3   0   2  187.98    7.89
  -3   0   2  192.81    7.93
   3   0  -1   -0.01    0.17
  -3   0   1    0.25    0.21
  -3   0   0  212.90    8.80
   3   0   0  209.55    8.88
  -3   0   0  214.66    8.89
  -3   0   0  216.73    8.80
  -3   0  -1    0.09    0.13
  -3   0  -1   -0.04    0.13
   3   0   1    0.14    0.25
   3   0   1   -0.06    0.12
   3   0   1    0.18    0.12
  -3   0  -1    0.12    0.17
   3   0   2  177.64    7.34
  -3   0  -2  172.80    7.35
   3   0   2  183.43    7.34
  -3   0  -2  176.50    7.35
  -3   0  -2  173.64    7.35
   3   0   3    0.06    0.20
  -3   0  -3   -0.20    0.22
   3   0   3   -0.16    0.28
   3   0   3   -0.01    0.21
  -3   0  -3    0.13    0.23
  -3   0  -3   -0.11    0.21
  -3   0  -4   12.92    0.78
   3   0   4   11.90    0.81
   3   0   4   12.33    0.76
  -3   0  -4   11.63    0.78
  -3   0  -4   13.79    0.78
   3   0   4   11.38    0.74
  -3   0  -5    0.32    0.31
  -3   0  -5   -0.02    0.36
  -3   0  -5    0.03    0.33
   3   0   5   -0.10    0.29
   3   0   5   -0.03    0.42
   3   0   5   -0.05    0.34
   3   0   6  210.83    8.92
  -3   0  -6  216.52    8.95
  -3   0  -6  214.64    8.92
   3   0   6  208.12    8.94
   3   0   7    0.46    0.50
   3   0   7    0.81    0.62
  -3   0  -7    0.21    0.47
  -3   0  -7   -0.04    0.59
   3   0   7   -0.77    0.48
  -3   0  -7    0.00    0.49
  -3   0  -8  139.09    6.00
  -3   0  -8  142.53    6.00
  -3   0  -8  134.21    6.31
  -3   1   8    1.06    0.43
  -3   1   8    2.48    0.64
   3   1  -8    1.79    0.68
  -3   1   8    1.68    0.44
  -3  -1   8    1.45    0.43
   3  -1  -8    1.69    0.58
  -3  -1   8    1.09    0.63
  -3  -1   8    1.18    0.45
  -3   1   7   23.31    1.19
  -3   1   7   21.68    1.31
  -3   1   7   23.88    1.19
  -3  -1   7   22.55    1.18
  -3  -1   7   23.61    1.36
  -3  -1   7   22.06    1.18
  -3   1   6    3.74    0.47
  -3   1   6    4.22    0.52
  -3   1   6    3.55    0.46
   3   1  -6    4.11    0.51
  -3  -1   6    3.62    0.47
  -3  -1   6    3.54    0.49
   3  -1  -6    4.71    0.52
  -3  -1   6    3.49    0.36
  -3   1   5   37.40    1.64
  -3   1   5   39.23    1.65
  -3   1   5   38.37    1.73
   3   1  -5   36.11    1.76
  -3  -1   5   35.12    1.64
  -3  -1   5   36.23    1.75
   3  -1  -5   38.05    1.74
  -3  -1   5   39.72    1.64
   3   1  -4   13.85    0.83
  -3   1   4   13.40    0.66
  -3   1   4   15.44    0.77
  -3   1   4   14.31    0.67
  -3  -1   4   14.05    0.67
   3  -1  -4   14.85    0.79
  -3  -1   4   13.55    0.66
  -3  -1   4   14.74    0.80
  -3   1   3  263.79   10.83
  -3   1   3  257.36   10.83
  -3   1   3  266.94   10.89
  -3  -1   3  259.46   10.83
   3  -1  -3  264.22   10.90
  -3  -1   3  265.36   10.95
  -3  -1   3  266.20   10.91
  -3   1   2   44.87    1.94
  -3   1   2   45.70    1.99
  -3  -1   2   45.65    2.01
  -3  -1   2   46.18    1.98
  -3   1   1   72.19    3.20
   3   1  -1   77.02    3.22
  -3  -1   1   77.00    3.24
   3  -1  -1   74.96    3.18
   3   1   0   83.38    3.80
   3   1   0   90.14    3.69
   3   1   0   87.74    3.68
  -3   1   0   88.95    3.70
  -3   1   0   91.82    3.70
  -3  -1   0   90.62    3.71
   3  -1   0   91.93    3.77
  -3  -1   0   86.66    3.81
   3  -1   0   88.75    3.68
   3  -1   0   88.30    3.69
  -3  -1   0   92.14    3.70
   3   1   1  176.75    7.20
   3   1   1  174.00    7.30
  -3   1  -1  170.77    7.21
  -3   1  -1  168.38    7.21
  -3   1  -1  175.45    7.20
   3   1   1  169.52    7.20
  -3  -1  -1  181.00    7.21
   3  -1   1  182.61    7.20
  -3  -1  -1  180.70    7.21
   3  -1   1  161.51    7.19
  -3   1  -2    3.16    0.35
  -3   1  -2    2.98    0.34
  -3   1  -2    3.14    0.36
   3   1   2    3.15    0.33
   3   1   2    3.09    0.33
  -3  -1  -2    3.00    0.39
   3  -1   2    3.20    0.34
  -3  -1  -2    3.22    0.35
  -3  -1  -2    2.71    0.36
   3  -1   2    3.17    0.34
  -3   1  -3  179.54    7.49
   3   1   3  168.82    7.48
  -3   1  -3  186.37    7.49
  -3   1  -3  178.65    7.49
   3   1   3  177.01    7.48
   3  -1   3  183.84    7.49
   3  -1   3  181.10    7.49
   3  -1   3  187.18    7.49
  -3  -1  -3  168.45    7.49
  -3  -1  -3  193.69    7.50
  -3  -1  -3  172.75    7.49
  -3   1  -4    0.52    0.29
   3   1   4    1.02    0.29
  -3   1  -4    0.62    0.31
   3   1   4    0.83    0.39
   3   1   4    0.91    0.31
  -3   1  -4    0.64    0.26
  -3  -1  -4    0.80    0.32
   3  -1   4    0.44    0.28
   3  -1   4    1.01    0.29
  -3  -1  -4    0.65    0.28
  -3  -1  -4    0.87    0.34
   3  -1   4    1.13    0.35
   3   1   5    0.25    0.41
   3   1   5    0.14    0.32
  -3   1  -5    0.41    0.35
  -3   1  -5    0.47    0.33
   3   1   5    0.26    0.33
  -3   1  -5    0.42    0.39
   3  -1   5    0.54    0.38
  -3  -1  -5    0.37    0.36
   3  -1   5    0.69    0.35
   3  -1   5   -0.12    0.27
  -3  -1  -5    0.21    0.33
  -3  -1  -5   -0.18    0.34
   3   1   6   26.86    1.42
  -3   1  -6   24.80    1.46
  -3   1  -6   25.86    1.42
   3   1   6   25.28    1.49
   3  -1   6   26.60    1.47
  -3  -1  -6   28.26    1.48
  -3  -1  -6   26.52    1.42
   3  -1   6   25.82    1.41
  -3   1  -7   34.99    1.86
   3   1   7   37.50    1.92
   3   1   7   35.97    1.96
   3   1   7   35.89    1.88
  -3   1  -7   37.10    1.93
  -3   1  -7   37.19    1.88
   3  -1   7   38.04    1.90
  -3  -1  -7   37.43    1.87
  -3  -1  -7   37.57    1.89
  -3  -1  -7   37.44    1.96
   3  -1   7   35.02    1.93
   3  -1   7   34.56    1.86
  -3   1  -8   11.88    1.21
  -3   1  -8   12.67    1.55
  -3   1  -8   14.38    1.19
   3  -1   8    9.48    1.26
  -3  -1  -8   10.76    1.18
  -3  -1  -8   13.07    1.19
  -3   2   8   30.73    1.50
  -3   2   8   30.23    1.50
   3   2  -8   27.70    1.72
  -3   2   8   29.10    1.64
  -3  -2   8   28.86    1.50
   3  -2  -8   26.48    1.63
  -3  -2   8   29.18    1.69
  -3  -2   8   27.34    1.48
  -3   2   7    6.12    0.64
  -3   2   7    6.54    0.65
  -3   2   7    7.72    0.82
   3   2  -7    5.35    0.73
   3  -2  -7    3.93    0.55
  -3  -2   7    6.49    0.64
  -3  -2   7    7.10    0.65
  -3  -2   7    4.93    0.60
   3   2  -6    1.48    0.47
  -3   2   6    1.22    0.40
  -3   2   6    1.25    0.28
  -3   2   6    1.48    0.29
  -3  -2   6    1.42    0.28
  -3  -2   6    1.29    0.40
   3  -2  -6    1.89    0.43
  -3  -2   6    1.24    0.30
  -3   2   5    0.76    0.21
   3   2  -5    1.02    0.37
  -3   2   5    1.20    0.32
  -3   2   5    1.07    0.22
  -3  -2   5    0.83    0.22
  -3  -2   5    0.85    0.21
   3  -2  -5    0.98    0.33
  -3  -2   5    0.72    0.37
  -3   2   4  157.54    6.43
   3   2  -4  150.04    6.51
  -3   2   4  160.24    6.48
  -3   2   4  153.81    6.42
  -3  -2   4  156.09    6.55
   3  -2  -4  153.62    6.48
  -3  -2   4  158.32    6.43
  -3  -2   4  149.17    6.43
  -3  -2   4  158.08    6.52
  -3   2   3    1.69    0.23
  -3   2   3    1.67    0.17
  -3   2   3    1.43    0.19
  -3  -2   3    1.80    0.30
  -3  -2   3    1.68    0.19
  -3  -2   3    1.84    0.33
   3  -2  -3    1.56    0.24
  -3   2   2   22.00    0.94
  -3   2   2   22.27    0.98
  -3   2   2   21.92    1.04
  -3   2   2   22.31    0.94
  -3  -2   2   21.33    1.09
  -3  -2   2   22.54    0.94
  -3  -2   2   22.65    1.07
  -3  -2   2   23.07    0.94
  -3   2   1   76.44    3.25
  -3   2   1   78.49    3.23
  -3   2   1   78.54    3.24
   3   2  -1   81.55    3.35
  -3   2   1   77.20    3.29
  -3  -2   1   71.47    3.25
  -3  -2   1   79.06    3.23
  -3  -2   1   78.44    3.36
   3   2   0   64.53    3.11
   3   2   0   71.08    2.98
  -3   2   0   73.77    3.00
  -3   2   0   74.66    3.01
  -3   2   0   73.69    2.99
   3   2   0   67.77    3.00
  -3  -2   0   73.97    3.01
   3  -2   0   72.86    2.98
   3  -2   0   69.83    3.00
   3  -2   0   77.82    3.04
  -3  -2   0   68.12    3.12
  -3  -2   0   73.54    3.00
  -3   2  -1   31.62    1.36
  -3   2  -1   29.41    1.37
  -3   2  -1   30.54    1.38
   3   2   1   32.69    1.51
   3   2   1   31.19    1.37
   3   2   1   31.68    1.37
   3  -2   1   31.84    1.37
  -3  -2  -1   32.12    1.38
   3  -2   1   32.40    1.37
  -3  -2  -1   31.45    1.38
  -3   2  -2  374.02   15.21
  -3   2  -2  364.86   15.21
   3   2   2  360.06   15.20
   3   2   2  370.50   15.20
  -3   2  -2  377.25   15.20
   3  -2   2  358.32   15.20
   3  -2   2  382.90   15.20
  -3  -2  -2  373.97   15.21
  -3  -2  -2  364.99   15.21
   3  -2   2  361.32   15.20
  -3  -2  -2  363.27   15.22
  -3   2  -3    4.05    0.45
  -3   2  -3    3.40    0.44
   3   2   3    3.93    0.44
   3   2   3    3.41    0.43
  -3   2  -3    3.81    0.46
  -3  -2  -3    4.01    0.46
  -3  -2  -3    4.00    0.45
   3  -2   3    3.26    0.33
   3  -2   3    3.89    0.44
   3  -2   3    4.00    0.46
  -3  -2  -3    4.47    0.49
  -3   2  -4   35.44    1.71
   3   2   4   37.46    1.70
  -3   2  -4   36.14    1.71
  -3   2  -4   36.97    1.71
   3   2   4   38.36    1.71
   3  -2   4   37.70    1.70
  -3  -2  -4   36.97    1.71
   3  -2   4   35.92    1.70
  -3  -2  -4   38.08    1.73
   3  -2   4   38.85    1.73
  -3  -2  -4   36.16    1.70
   3   2   5   13.81    1.01
   3   2   5   15.50    0.94
  -3   2  -5   15.01    0.94
  -3   2  -5   14.38    0.96
   3   2   5   15.77    0.92
  -3   2  -5   14.73    0.92
   3  -2   5   14.80    0.94
   3  -2   5   15.10    0.98
  -3  -2  -5   15.32    0.95
  -3  -2  -5   15.12    0.93
  -3  -2  -5   13.97    0.96
   3  -2   5   14.61    0.91
   3   2   6    8.27    0.83
   3   2   6    7.06    0.93
  -3   2  -6    8.21    0.90
  -3   2  -6    6.34    0.83
   3  -2   6    9.16    0.90
  -3  -2  -6    7.31    0.84
   3  -2   6   10.10    0.87
  -3   2  -7    2.02    0.59
   3   2   7    2.45    0.52
  -3   2  -7    2.45    0.54
   3   2   7    2.46    0.57
   3   2   7    2.63    0.71
  -3   2  -7    1.87    0.54
  -3  -2  -7    2.93    0.70
   3  -2   7    2.38    0.67
   3  -2   7    2.97    0.56
  -3  -2  -7    3.01    0.55
   3  -2   7    1.87    0.55
  -3  -2  -7    2.73    0.54
  -3   2  -8    9.13    0.87
  -3   2  -8    8.32    0.82
  -3   2  -8    6.98    1.03
   3  -2   8    5.89    0.92
  -3  -2  -8    9.48    1.12
  -3  -2  -8    8.72    0.83
  -3   3   8    0.03    0.41
  -3   3   8    0.99    0.43
   3   3  -8    0.32    0.63
  -3   3   8    0.16    0.58
  -3  -3   8    0.37    0.42
  -3  -3   8    0.49    0.43
  -3  -3   8    0.99    0.62
   3  -3  -8    0.08    0.57
  -3   3   7   12.35    0.82
   3   3  -7   12.34    1.09
  -3   3   7   12.72    0.97
  -3   3   7   11.49    0.83
  -3  -3   7   12.16    0.83
  -3  -3   7   12.27    0.83
  -3  -3   7   12.43    1.05
   3  -3  -7   12.45    0.97
  -3   3   6   11.25    0.72
  -3   3   6   10.24    0.81
  -3   3   6   11.86    0.70
   3   3  -6   11.32    0.94
   3  -3  -6   10.79    0.83
  -3  -3   6   11.36    0.90
  -3  -3   6   11.55    0.71
  -3  -3   6   10.90    0.71
  -3   3   5  116.17    5.15
   3   3  -5  136.04    5.23
  -3   3   5  119.85    5.11
  -3   3   5  119.82    5.11
  -3  -3   5  126.06    5.22
  -3  -3   5  117.87    5.11
  -3  -3   5  121.08    5.12
   3  -3  -5  122.21    5.17
  -3   3   4    3.54    0.34
  -3   3   4    3.56    0.40
  -3   3   4    3.61    0.32
  -3  -3   4    2.69    0.35
  -3  -3   4    3.38    0.33
  -3  -3   4    3.51    0.41
  -3  -3   4    2.84    0.40
   3  -3  -4    3.91    0.36
  -3   3   3  256.37   11.32
  -3   3   3  265.18   11.30
  -3   3   3  279.16   11.32
   3  -3  -3  269.29   11.33
  -3  -3   3  292.77   11.40
  -3  -3   3  284.39   11.30
  -3  -3   3  273.13   11.41
  -3   3   2   22.06    0.99
  -3   3   2   21.16    0.92
  -3   3   2   20.76    0.92
  -3   3   2   21.78    0.91
  -3  -3   2   21.05    1.07
  -3  -3   2   21.45    0.92
  -3  -3   2   18.62    1.04
  -3  -3   2   20.50    0.92
  -3   3   1    5.51    0.38
  -3   3   1    5.99    0.33
  -3   3   1    5.62    0.39
  -3   3   1    6.14    0.29
   3   3  -1    5.65    0.54
  -3  -3   1    5.91    0.33
  -3  -3   1    5.58    0.56
  -3  -3   1    5.38    0.38
   3   3   0   16.31    0.82
  -3   3   0   18.36    0.80
  -3   3   0   17.24    0.82
   3   3   0   17.59    0.78
   3   3   0   15.43    0.97
  -3   3   0   18.59    0.76
   3  -3   0   18.35    0.80
  -3  -3   0   17.38    0.80
   3  -3   0   18.31    0.78
   3  -3   0   16.96    0.82
  -3  -3   0   18.16    0.82
  -3  -3   0   15.58    0.98
   3   3   1  201.23    8.37
  -3   3  -1  199.40    8.23
   3   3   1  186.29    8.25
  -3   3  -1  201.66    8.26
  -3   3  -1  208.08    8.27
   3   3   1  198.30    8.25
  -3  -3  -1  204.01    8.26
  -3  -3  -1  195.83    8.26
   3  -3   1  200.15    8.25
   3  -3   1  200.24    8.26
   3   3   2   10.27    0.60
  -3   3  -2    9.51    0.60
  -3   3  -2   10.81    0.58
   3   3   2   10.38    0.60
  -3   3  -2   11.33    0.61
   3  -3   2   10.00    0.60
  -3  -3  -2   10.50    0.68
  -3  -3  -2   10.00    0.61
  -3  -3  -2   10.94    0.61
   3  -3   2   10.88    0.60
   3  -3   2   10.61    0.59
  -3   3  -3  141.38    5.93
   3   3   3  140.92    5.93
  -3   3  -3  145.84    5.92
   3   3   3  144.63    5.93
  -3   3  -3  140.82    5.93
   3  -3   3  144.29    5.93
  -3  -3  -3  136.81    5.93
   3  -3   3  146.15    5.93
  -3  -3  -3  142.95    5.94
  -3  -3  -3  137.99    5.95
   3  -3   3  135.53    5.92
   3   3   4   24.99    1.18
  -3   3  -4   23.87    1.17
  -3   3  -4   22.32    1.18
  -3   3  -4   22.19    1.17
   3   3   4   23.02    1.16
   3  -3   4   22.87    1.18
  -3  -3  -4   24.42    1.19
   3  -3   4   21.66    1.16
   3  -3   4   23.68    1.18
  -3  -3  -4   22.27    1.21
  -3  -3  -4   22.97    1.18
  -3   3  -5    3.40    0.46
   3   3   5    3.45    0.45
   3   3   5    4.22    0.47
  -3   3  -5    3.67    0.49
  -3   3  -5    3.83    0.45
  -3  -3  -5    3.48    0.44
   3  -3   5    3.89    0.53
  -3  -3  -5    4.01    0.46
   3  -3   5    4.07    0.47
   3  -3   5    3.69    0.49
  -3  -3  -5    4.08    0.55
   3   3   6    2.95    0.51
  -3   3  -6    3.13    0.54
  -3   3  -6    3.01    0.55
  -3  -3  -6    3.34    0.49
   3  -3   6    2.33    0.49
   3  -3   6    3.47    0.59
   3   3   7   50.36    2.36
  -3   3  -7   44.52    2.37
   3   3   7   49.89    2.36
  -3   3  -7   51.51    2.37
  -3   3  -7   46.73    2.36
   3  -3   7   49.92    2.42
   3  -3   7   46.97    2.37
  -3  -3  -7   52.15    2.38
  -3  -3  -7   50.54    2.45
   3  -3   7   49.74    2.36
  -3  -3  -7   47.32    2.35
  -3   3  -8   -0.31    0.56
   3  -3   8    1.39    0.96
  -3  -3  -8    1.07    0.58
  -3   4   8   66.83    2.98
  -3   4   8   65.81    2.99
  -3   4   8   71.42    3.07
   3   4  -8   61.15    3.15
  -3  -4   8   69.10    2.99
   3  -4  -8   62.57    3.08
  -3  -4   8   67.68    2.99
  -3  -4   8   66.47    3.15
  -3   4   7   19.67    1.06
  -3   4   7   18.47    1.07
  -3   4   7   18.25    1.16
   3   4  -7   17.69    1.34
   3  -4  -7   18.48    1.21
  -3  -4   7   18.31    1.08
  -3  -4   7   20.56    1.08
  -3  -4   7   19.50    1.27
  -3   4   6   13.32    0.89
  -3   4   6   13.48    0.78
  -3   4   6   13.15    0.80
  -3  -4   6   12.79    0.80
   3  -4  -6   12.43    0.89
  -3  -4   6   13.64    0.79
  -3  -4   6   12.83    0.99
  -3   4   5   40.46    1.92
  -3   4   5   45.10    1.92
  -3   4   5   45.13    1.96
  -3  -4   5   44.90    2.05
  -3  -4   5   44.58    1.92
  -3  -4   5   44.83    1.93
  -3  -4   5   42.44    2.06
   3  -4  -5   41.87    1.96
  -3   4   4  167.75    6.99
  -3   4   4  170.70    7.00
  -3   4   4  169.53    7.00
  -3  -4   4  164.38    6.99
  -3  -4   4  166.50    7.10
   3  -4  -4  165.89    7.01
  -3  -4   4  176.11    7.09
  -3  -4   4  166.44    7.01
  -3   4   3    0.64    0.21
  -3   4   3    0.61    0.16
  -3   4   3    0.65    0.18
  -3  -4   3    0.88    0.29
  -3  -4   3    0.66    0.33
   3  -4  -3    0.86    0.20
  -3  -4   3    0.84    0.17
  -3   4   2  215.25    8.97
  -3   4   2  202.10    8.94
   3   4  -2  236.24    9.10
  -3  -4   2  212.26    9.06
  -3  -4   2  221.16    9.08
  -3  -4   2  214.70    8.98
  -3  -4   2  219.59    8.98
  -3   4   1   54.34    2.34
  -3   4   1   54.78    2.37
   3   4  -1   52.90    2.46
  -3   4   1   53.89    2.34
   3   4  -1   54.82    2.30
   3   4  -1   57.47    2.31
  -3  -4   1   54.74    2.47
   3  -4  -1   55.47    2.30
  -3  -4   1   57.92    2.38
  -3  -4   1   56.22    2.34
   3  -4  -1   55.29    2.30
   3   4   0   20.09    0.89
   3   4   0   19.63    1.08
  -3   4   0   21.12    0.95
   3   4   0   18.64    0.94
  -3   4   0   19.69    0.92
   3  -4   0   18.58    0.94
  -3  -4   0   19.36    1.10
   3  -4   0   20.24    0.86
  -3  -4   0   20.66    0.95
  -3  -4   0   20.58    0.92
   3  -4   0   20.18    0.89
  -3   4  -1   20.75    0.99
  -3   4  -1   20.67    0.92
   3   4   1   19.62    1.13
   3   4   1   20.17    0.98
  -3   4  -1   20.85    0.98
   3   4   1   21.11    0.97
   3  -4   1   21.05    0.97
   3  -4   1   21.80    0.94
  -3  -4  -1   21.59    0.99
  -3  -4  -1   22.66    0.99
   3  -4   1   19.72    0.98
  -3   4  -2  188.04    7.70
   3   4   2  189.32    7.69
  -3   4  -2  184.96    7.69
  -3   4  -2  182.24    7.66
   3   4   2  178.19    7.68
  -3  -4  -2  173.91    7.69
   3  -4   2  184.49    7.69
   3  -4   2  176.20    7.68
  -3  -4  -2  196.00    7.70
   3  -4   2  187.42    7.67
  -3  -4  -2  193.09    7.74
  -3   4  -3   35.22    1.69
  -3   4  -3   34.92    1.69
  -3   4  -3   36.69    1.67
   3   4   3   37.61    1.69
   3   4   3   38.57    1.70
   3  -4   3   37.68    1.69
  -3  -4  -3   38.93    1.70
   3  -4   3   39.39    1.69
   3  -4   3   38.35    1.68
  -3  -4  -3   37.70    1.74
  -3  -4  -3   35.14    1.69
  -3   4  -4    8.40    0.72
  -3   4  -4    9.73    0.75
  -3   4  -4   10.73    0.73
   3   4   4   12.69    0.76
   3   4   4   11.96    0.75
  -3  -4  -4   10.20    0.74
  -3  -4  -4    9.27    0.78
   3  -4   4   10.19    0.74
   3  -4   4   11.46    0.73
   3  -4   4   11.39    0.75
  -3  -4  -4   10.74    0.75
   3   4   5   45.18    2.07
   3   4   5   44.79    2.05
  -3   4  -5   46.21    2.06
  -3   4  -5   41.02    2.04
  -3  -4  -5   43.16    2.05
   3  -4   5   43.91    2.05
  -3  -4  -5   46.16    2.33
   3  -4   5   43.56    2.06
   3  -4   5   42.78    2.03
  -3   4  -6   10.30    0.91
  -3   4  -6    9.10    0.89
   3   4   6    9.45    0.91
   3  -4   6    8.58    0.91
  -3  -4  -6    8.12    0.89
   3  -4   6    8.99    0.93
  -3   4  -7    0.67    0.57
   3   4   7    0.83    0.54
  -3   4  -7    0.29    0.54
  -3   4  -7    1.47    0.53
   3   4   7    1.09    0.52
   3  -4   7    1.28    0.51
  -3  -4  -7   -0.05    0.51
   3  -4   7   -0.37    0.60
  -3  -4  -7    1.39    0.54
   3  -4   7    0.65    0.56
  -3  -4  -7    0.58    0.64
  -3   5   8   29.50    1.61
  -3   5   8   30.19    1.61
  -3   5   8   29.26    1.69
  -3  -5   8   30.48    1.60
   3  -5  -8   31.49    1.74
  -3  -5   8   30.65    1.59
  -3   5   7    1.44    0.47
  -3   5   7    1.71    0.41
   3   5  -7    1.05    0.62
  -3   5   7    1.14    0.40
  -3  -5   7    1.63    0.60
  -3  -5   7    1.96    0.42
  -3  -5   7    1.98    0.40
   3  -5  -7    1.79    0.52
  -3  -5   7    1.58    0.58
  -3   5   6   93.35    3.69
  -3   5   6   86.84    3.69
  -3   5   6   81.70    3.70
  -3  -5   6   79.30    3.68
  -3  -5   6   87.31    3.68
   3  -5  -6   87.63    3.72
  -3  -5   6   84.40    3.81
  -3   5   5   22.52    1.10
  -3   5   5   23.08    1.10
  -3   5   5   19.57    1.07
   3  -5  -5   22.12    1.12
  -3  -5   5   23.11    1.26
  -3  -5   5   23.24    1.26
  -3  -5   5   20.46    1.08
  -3  -5   5   23.17    1.12
  -3   5   4    1.56    0.27
  -3   5   4    1.39    0.23
  -3   5   4    1.60    0.28
   3  -5  -4    1.51    0.28
  -3  -5   4    1.22    0.41
  -3  -5   4    1.02    0.28
  -3  -5   4    1.92    0.26
  -3  -5   4    1.06    0.37
  -3   5   3   46.90    2.13
  -3   5   3   48.51    2.16
  -3   5   3   50.23    2.10
  -3  -5   3   48.38    2.25
  -3  -5   3   51.83    2.26
  -3  -5   3   50.07    2.13
   3  -5  -3   51.11    2.11
   3   5  -2   42.78    1.87
   3   5  -2   45.40    1.87
  -3   5   2   46.28    1.95
  -3   5   2   43.86    1.93
   3   5  -2   45.87    2.07
  -3  -5   2   44.82    1.94
  -3  -5   2   45.77    1.94
   3  -5  -2   45.15    1.86
  -3  -5   2   44.26    2.04
   3  -5  -2   45.14    1.86
  -3  -5   2   41.41    2.03
   3   5  -1   40.60    1.94
   3   5  -1   44.98    1.80
  -3   5   1   40.80    1.77
  -3   5   1   40.06    1.81
  -3   5   1   42.32    1.85
   3   5  -1   41.53    1.78
   3  -5  -1   44.40    1.79
   3  -5  -1   42.86    1.77
  -3  -5   1   39.55    1.94
  -3  -5   1   39.57    1.85
  -3  -5   1   43.30    1.82
   3   5   0  100.65    4.51
   3   5   0  109.67    4.62
   3   5   0  106.84    4.48
  -3   5   0  106.96    4.52
  -3   5   0  105.59    4.50
   3  -5   0  106.82    4.47
  -3  -5   0  110.68    4.64
  -3  -5   0  115.00    4.53
  -3  -5   0  106.24    4.50
   3  -5   0  105.96    4.52
   3   5   1  129.14    5.53
   3   5   1  132.38    5.55
  -3   5  -1  134.34    5.56
  -3   5  -1  134.65    5.49
  -3   5  -1  136.31    5.55
   3   5   1  129.76    5.65
  -3  -5  -1  134.66    5.56
  -3  -5  -1  133.62    5.55
   3  -5   1  134.68    5.49
   3  -5   1  136.81    5.50
   3  -5   1  130.27    5.53
   3  -5   1  125.41    5.55
  -3   5  -2   48.32    2.23
  -3   5  -2   52.24    2.23
   3   5   2   52.49    2.23
   3   5   2   49.54    2.21
  -3   5  -2   52.19    2.18
  -3  -5  -2   53.07    2.23
   3  -5   2   51.90    2.19
   3  -5   2   47.88    2.21
   3  -5   2   49.09    2.22
  -3  -5  -2   52.25    2.23
   3   5   3   38.19    1.75
  -3   5  -3   38.74    1.72
  -3   5  -3   39.61    1.76
   3   5   3   37.53    1.75
  -3   5  -3   39.40    1.76
   3  -5   3   39.10    1.76
  -3  -5  -3   39.15    1.76
  -3  -5  -3   39.46    1.81
   3  -5   3   40.06    1.73
  -3  -5  -3   37.18    1.75
   3  -5   3   34.81    1.74
   3   5   4   77.07    3.42
   3   5   4   78.99    3.42
  -3   5  -4   81.67    3.43
  -3   5  -4   75.87    3.40
  -3   5  -4   84.42    3.44
  -3  -5  -4   82.55    3.43
   3  -5   4   82.07    3.42
   3  -5   4   82.15    3.43
  -3  -5  -4   74.66    3.42
  -3  -5  -4   82.50    3.47
   3  -5   4   67.44    3.41
  -3   5  -5   20.64    1.24
  -3   5  -5   24.22    1.24
   3   5   5   23.05    1.25
  -3  -5  -5   20.65    1.24
   3  -5   5   23.10    1.26
   3  -5   5   21.94    1.24
   3   5   6   12.00    0.99
  -3   5  -6   14.12    1.01
  -3   5  -6   10.72    1.00
  -3   5  -6   11.75    1.01
  -3  -5  -6   11.07    1.00
  -3  -5  -6   12.02    0.98
   3  -5   6   12.75    1.02
   3  -5   6   11.65    1.01
  -3   5  -7   50.32    2.58
  -3   5  -7   55.82    2.59
  -3   5  -7   52.27    2.60
   3   5   7   56.91    2.59
   3   5   7   54.40    2.59
  -3  -5  -7   57.90    2.60
   3  -5   7   52.96    2.62
  -3  -5  -7   52.95    2.66
   3  -5   7   52.48    2.60
   3  -5   7   54.08    2.55
  -3  -5  -7   50.84    2.56
  -3   6   7   41.92    2.04
  -3   6   7   46.19    2.06
  -3   6   7   41.30    2.07
  -3  -6   7   43.05    2.25
   3  -6  -7   42.95    2.10
  -3  -6   7   43.31    2.06
  -3  -6   7   44.05    2.26
  -3  -6   7   44.62    2.04
  -3   6   6   20.00    1.14
  -3   6   6   21.41    1.12
  -3   6   6   23.36    1.16
  -3  -6   6   22.54    1.42
  -3  -6   6   20.17    1.33
   3  -6  -6   21.56    1.18
  -3  -6   6   19.24    1.11
  -3  -6   6   20.22    1.15
  -3   6   5   77.35    3.39
  -3   6   5   82.31    3.42
  -3   6   5   75.07    3.38
   3  -6  -5   80.64    3.40
  -3  -6   5   73.84    3.38
  -3  -6   5   81.53    3.53
  -3  -6   5   83.67    3.53
  -3  -6   5   78.92    3.42
  -3   6   4   52.26    2.34
  -3   6   4   55.40    2.39
  -3   6   4   53.61    2.32
   3  -6  -4   55.42    2.34
  -3  -6   4   53.39    2.48
  -3  -6   4   53.72    2.47
  -3  -6   4   53.31    2.39
  -3  -6   4   55.11    2.35
   3   6  -3   35.46    1.52
  -3   6   3   36.06    1.60
  -3   6   3   33.65    1.63
   3   6  -3   35.86    1.52
  -3  -6   3   36.88    1.74
   3  -6  -3   37.24    1.55
  -3  -6   3   35.68    1.72
  -3  -6   3   35.03    1.60
   3  -6  -3   35.38    1.51
   3  -6  -3   35.52    1.50
  -3   6   2   75.02    3.21
   3   6  -2   75.87    3.14
  -3   6   2   76.24    3.21
   3   6  -2   73.71    3.14
   3   6  -2   77.96    3.32
  -3  -6   2   74.83    3.21
   3  -6  -2   71.46    3.13
  -3  -6   2   77.57    3.30
  -3  -6   2   73.10    3.21
   3  -6  -2   75.43    3.13
   3   6  -1  225.78    8.69
   3   6  -1  210.14    8.80
  -3   6   1  220.84    8.74
   3   6  -1  209.65    8.67
  -3  -6   1  202.65    8.70
  -3  -6   1  196.13    8.80
   3  -6  -1  207.10    8.68
  -3  -6   1  212.03    8.74
   3  -6  -1  201.88    8.66
  -3   6   0    1.34    0.24
   3   6   0    1.71    0.29
   3   6   0    1.52    0.22
  -3   6   0    1.15    0.29
   3   6   0    1.17    0.36
   3  -6   0    1.34    0.22
  -3  -6   0    0.97    0.27
  -3  -6   0    1.43    0.23
   3  -6   0    1.45    0.28
   3   6   1   55.94    2.54
   3   6   1   59.48    2.51
  -3   6  -1   61.65    2.56
  -3   6  -1   60.17    2.53
  -3   6  -1   58.39    2.45
   3   6   1   55.05    2.64
   3  -6   1   59.59    2.45
  -3  -6  -1   58.38    2.53
   3  -6   1   58.34    2.51
   3  -6   1   59.06    2.54
  -3  -6  -1   56.49    2.55
  -3   6  -2   44.18    1.88
   3   6   2   44.46    1.95
   3   6   2   41.57    1.93
   3   6   2   46.29    2.08
  -3   6  -2   41.75    1.94
  -3   6  -2   45.85    1.97
  -3  -6  -2   43.32    1.95
   3  -6   2   41.04    1.93
  -3  -6  -2   42.12    1.94
   3  -6   2   41.85    1.94
   3  -6   2   46.04    1.89
  -3   6  -3   19.84    1.02
  -3   6  -3   19.84    1.09
   3   6   3   21.54    1.07
   3   6   3   20.70    1.09
  -3   6  -3   20.17    1.08
   3  -6   3   21.36    1.03
  -3  -6  -3   19.94    1.16
  -3  -6  -3   20.56    1.08
   3  -6   3   21.58    1.08
   3  -6   3   19.95    1.07
  -3  -6  -3   19.56    1.08
  -3   6  -4   36.12    1.76
  -3   6  -4   36.65    1.77
  -3   6  -4   35.19    1.72
   3   6   4   36.94    1.77
   3   6   4   38.74    1.78
  -3  -6  -4   39.31    1.78
  -3  -6  -4   37.83    1.77
   3  -6   4   35.40    1.77
   3  -6   4   37.48    1.75
   3  -6   4   37.84    1.77
  -3  -6  -4   38.64    1.85
  -3   6  -5   53.49    2.67
   3   6   5   62.36    2.72
  -3   6  -5   62.28    2.72
  -3  -6  -5   60.25    2.72
   3  -6   5   61.39    2.71
   3  -6   5   59.68    2.71
   3   6   6   13.41    1.10
  -3   6  -6   14.10    1.11
  -3   6  -6   15.43    1.12
  -3   6  -6   13.20    1.08
  -3  -6  -6   14.25    1.21
  -3  -6  -6   15.08    1.08
  -3  -6  -6   14.12    1.10
   3  -6   6   14.00    1.13
   3  -6   6   14.18    1.11
  -3   6  -7    1.73    0.65
   3   6   7    1.15    0.60
  -3   6  -7    2.05    0.61
  -3   6  -7    1.34    0.58
   3   6   7    0.30    0.56
   3  -6   7    1.21    0.67
  -3  -6  -7    1.62    0.60
  -3  -6  -7    0.67    0.67
  -3  -6  -7    0.88    0.58
   3  -6   7    1.44    0.58
   3  -6   7    2.09    0.62
  -3   7   7    0.67    0.48
  -3   7   7    0.63    0.43
  -3   7   7    0.01    0.45
  -3  -7   7   -0.28    0.45
  -3  -7   7    1.38    0.44
  -3  -7   7    0.03    0.63
  -3  -7   7    0.56    0.68
   3  -7  -7    0.50    0.51
  -3   7   6   45.48    2.02
  -3   7   6   38.51    1.96
  -3   7   6   43.56    1.98
  -3  -7   6   45.28    2.17
  -3  -7   6   43.64    1.99
   3  -7  -6   42.62    1.99
  -3  -7   6   43.11    2.02
  -3  -7   6   38.31    2.14
  -3   7   5    0.35    0.34
  -3   7   5    0.29    0.31
   3   7  -5    0.28    0.17
   3   7  -5    0.04    0.16
  -3   7   5    0.27    0.31
  -3  -7   5    0.25    0.36
  -3  -7   5    1.01    0.47
  -3  -7   5    0.35    0.31
  -3  -7   5    0.19    0.44
   3  -7  -5    0.40    0.32
  -3   7   4   16.17    0.98
   3   7  -4   17.11    0.80
  -3   7   4   15.80    0.92
   3   7  -4   16.97    0.81
  -3  -7   4   17.72    0.94
  -3  -7   4   16.53    1.00
   3  -7  -4   18.37    0.78
  -3  -7   4   18.13    1.10
  -3  -7   4   17.91    1.13
   3  -7  -4   17.02    0.79
   3  -7  -4   17.23    0.87
   3   7  -3    7.83    0.47
  -3   7   3    7.60    0.64
  -3   7   3    8.12    0.58
   3   7  -3    7.26    0.46
   3  -7  -3    7.20    0.43
   3  -7  -3    7.37    0.45
  -3  -7   3    8.30    0.75
  -3  -7   3    6.44    0.77
   3  -7  -3    7.90    0.45
  -3  -7   3    6.75    0.58
   3   7  -2  193.16    7.96
  -3   7   2  191.12    8.02
  -3   7   2  187.10    8.01
   3   7  -2  185.41    8.09
   3   7  -2  213.07    7.96
  -3  -7   2  191.69    8.09
   3  -7  -2  189.34    7.95
  -3  -7   2  191.71    8.02
   3  -7  -2  187.93    7.95
  -3  -7   2  188.77    8.02
   3   7  -1    1.23    0.39
   3   7  -1    2.29    0.26
  -3   7   1    2.31    0.34
   3   7  -1    2.01    0.31
   3  -7  -1    1.75    0.24
  -3  -7   1    1.76    0.28
  -3  -7   1    2.69    0.45
   3  -7  -1    1.87    0.28
  -3  -7   1    1.87    0.34
   3   7   0  244.85   10.19
  -3   7   0  247.14   10.20
   3   7   0  253.60   10.27
  -3   7   0  228.70   10.16
   3   7   0  236.26   10.15
  -3  -7   0  248.22   10.21
   3  -7   0  234.52   10.14
  -3  -7   0  241.61   10.17
   3  -7   0  269.76   10.20
   3   7   1   68.68    3.01
  -3   7  -1   77.21    3.07
   3   7   1   72.12    3.05
   3   7   1   66.66    3.13
  -3   7  -1   67.40    3.03
   3  -7   1   67.89    3.05
   3  -7   1   72.89    3.02
   3  -7   1   70.62    2.94
  -3  -7  -1   71.98    3.03
  -3  -7  -1   67.03    3.05
   3   7   2   25.23    1.35
   3   7   2   23.00    1.19
  -3   7  -2   24.89    1.22
   3   7   2   23.02    1.18
  -3   7  -2   22.32    1.19
  -3   7  -2   22.87    1.09
  -3  -7  -2   23.39    1.20
   3  -7   2   24.97    1.10
   3  -7   2   24.70    1.19
   3  -7   2   23.12    1.17
  -3  -7  -2   23.13    1.19
  -3   7  -3   32.89    1.54
  -3   7  -3   35.85    1.62
   3   7   3   29.55    1.59
  -3   7  -3   34.57    1.64
   3   7   3   31.66    1.61
   3  -7   3   36.41    1.62
  -3  -7  -3   33.13    1.62
  -3  -7  -3   36.58    1.63
   3  -7   3   34.72    1.56
   3  -7   3   32.54    1.60
  -3  -7  -3   33.31    1.70
  -3   7  -4   89.42    3.82
   3   7   4   78.17    3.78
  -3   7  -4   86.89    3.76
   3   7   4   93.13    3.82
  -3  -7  -4   84.61    3.80
  -3  -7  -4   85.14    3.87
   3  -7   4   92.57    3.81
   3  -7   4   92.56    3.78
   3  -7   4   85.73    3.80
   3   7   5    2.38    0.49
  -3   7  -5    2.48    0.51
  -3   7  -5    3.16    0.50
   3  -7   5    2.91    0.51
   3  -7   5    2.31    0.50
  -3  -7  -5    2.63    0.49
   3   7   6   52.12    2.41
  -3   7  -6   48.86    2.42
  -3   7  -6   49.10    2.39
  -3   7  -6   53.26    2.43
   3   7   6   50.47    2.42
   3  -7   6   47.06    2.39
   3  -7   6   51.71    2.43
  -3  -7  -6   49.39    2.41
  -3  -7  -6   51.47    2.52
  -3  -7  -6   49.97    2.42
   3  -7   6   50.53    2.41
  -3   7  -7    4.53    0.73
  -3   7  -7    3.40    0.62
   3   7   7    2.90    0.64
   3   7   7    4.42    0.72
  -3   7  -7    3.22    0.70
  -3  -7  -7    3.52    0.67
   3  -7   7    3.64    0.68
   3  -7   7    3.36    0.74
  -3  -7  -7    3.90    0.81
   3  -7   7    3.59    0.64
  -3  -7  -7    4.15    0.70
  -3   8   7   32.67    1.69
  -3   8   7   33.47    1.74
   3  -8  -7   31.81    1.71
  -3  -8   7   32.56    1.91
  -3  -8   7   33.95    1.70
  -3  -8   7   30.64    1.74
  -3  -8   7   33.35    1.94
  -3   8   6   23.51    1.34
  -3   8   6   24.08    1.40
  -3  -8   6   26.23    1.56
  -3  -8   6   25.08    1.35
  -3  -8   6   25.04    1.40
   3  -8  -6   24.70    1.33
  -3  -8   6   26.68    1.58
   3   8  -5   25.90    1.16
   3   8  -5   24.52    1.17
  -3   8   5   28.97    1.33
  -3   8   5   24.10    1.36
  -3  -8   5   25.54    1.52
   3  -8  -5   25.50    1.27
   3  -8  -5   25.47    1.13
  -3  -8   5   24.72    1.38
   3  -8  -5   25.61    1.15
  -3  -8   5   25.36    1.32
  -3   8   4   34.31    1.59
   3   8  -4   33.39    1.48
  -3   8   4   33.37    1.64
   3   8  -4   32.14    1.49
  -3  -8   4   31.62    1.74
  -3  -8   4   31.65    1.64
   3  -8  -4   34.25    1.50
   3  -8  -4   34.66    1.46
  -3  -8   4   32.28    1.59
  -3  -8   4   35.28    1.73
   3  -8  -4   33.50    1.48
   3   8  -3    0.65    0.23
   3   8  -3    0.66    0.24
  -3   8   3    0.62    0.34
  -3   8   3    0.66    0.31
   3  -8  -3    0.48    0.20
   3  -8  -3    0.41    0.22
   3  -8  -3    0.90    0.22
  -3  -8   3    0.51    0.30
  -3  -8   3    0.86    0.46
  -3  -8   3    0.90    0.39
  -3   8   2    9.92    0.74
   3   8  -2   10.43    0.65
   3   8  -2   10.89    0.90
   3   8  -2   10.02    0.63
  -3   8   2    9.60    0.74
  -3  -8   2   11.03    0.85
  -3  -8   2   10.74    0.74
   3  -8  -2    9.79    0.61
   3  -8  -2   10.62    0.61
  -3  -8   2    9.15    0.74
  -3   8   1  187.20    8.02
   3   8  -1  190.71    8.10
  -3   8   1  207.34    8.06
   3   8  -1  196.47    7.98
   3   8  -1  187.80    8.01
  -3  -8   1  191.86    8.11
  -3  -8   1  196.07    8.02
   3  -8  -1  171.76    7.99
  -3  -8   1  196.90    8.05
   3  -8  -1  191.98    7.98
  -3   8   0    8.20    0.72
   3   8   0    9.70    0.72
   3   8   0    9.33    0.62
   3   8   0    8.31    0.83
   3  -8   0    8.32    0.60
  -3  -8   0    7.93    0.72
  -3  -8   0    8.95    0.65
   3  -8   0    8.91    0.70
  -3   8  -1   54.61    2.48
   3   8   1   51.16    2.50
   3   8   1   56.66    2.47
   3   8   1   55.45    2.60
  -3   8  -1   57.78    2.53
   3  -8   1   52.44    2.51
   3  -8   1   60.67    2.48
   3  -8   1   57.37    2.38
  -3  -8  -1   58.04    2.49
  -3  -8  -1   57.90    2.53
   3   8   2   18.10    1.02
  -3   8  -2   14.94    1.02
  -3   8  -2   16.93    0.98
  -3   8  -2   19.70    0.87
   3   8   2   17.55    1.13
   3   8   2   17.80    0.98
  -3  -8  -2   14.82    0.98
   3  -8   2   17.71    0.98
   3  -8   2   17.54    0.99
  -3  -8  -2   15.04    1.00
   3  -8   2   18.56    0.87
  -3   8  -3   20.82    1.09
   3   8   3   21.67    1.20
   3   8   3   22.24    1.19
  -3   8  -3   21.93    1.19
  -3   8  -3   22.48    1.23
  -3  -8  -3   22.40    1.20
   3  -8   3   20.98    1.19
   3  -8   3   21.79    1.19
  -3  -8  -3   21.89    1.33
  -3  -8  -3   22.16    1.21
   3  -8   3   21.86    1.10
  -3   8  -4    0.18    0.43
   3   8   4   -0.09    0.41
  -3   8  -4   -0.31    0.34
   3   8   4   -0.05    0.37
  -3  -8  -4    0.48    0.56
   3  -8   4    0.42    0.38
   3  -8   4    0.02    0.38
  -3  -8  -4    0.07    0.40
   3  -8   4   -0.26    0.39
  -3   8  -5   64.54    2.98
   3   8   5   65.65    2.97
  -3   8  -5   62.15    2.90
   3   8   5   67.77    3.33
   3  -8   5   65.33    2.94
   3  -8   5   65.98    2.97
  -3  -8  -5   65.80    2.97
  -3  -8  -5   61.32    3.07
   3  -8   5   67.80    2.98
   3   8   6   10.71    1.09
  -3   8  -6    9.48    1.07
  -3   8  -6   10.60    1.07
  -3   8  -6   11.23    1.00
   3   8   6    8.50    1.04
   3  -8   6    9.38    1.04
   3  -8   6    8.90    1.04
  -3  -8  -6   10.04    1.25
  -3  -8  -6    9.51    1.13
   3  -8   6    9.74    1.09
  -3  -8  -6   10.23    1.08
  -3   8  -7    4.53    0.83
  -3  -8  -7    5.30    0.88
  -3   9   7    4.75    0.64
  -3  -9   7    5.23    0.64
  -3  -9   7    3.95    0.83
  -3  -9   7    4.85    0.68
  -3   9   6   79.96    3.87
  -3   9   6   88.12    3.93
  -3  -9   6   94.62    4.05
  -3  -9   6   84.15    3.92
  -3  -9   6   96.29    3.91
  -3  -9   6   89.16    4.05
  -3   9   5   23.18    1.22
   3   9  -5   20.66    1.02
  -3   9   5   20.49    1.26
  -3  -9   5   18.29    1.26
  -3  -9   5   20.25    1.41
   3  -9  -5   20.84    1.10
   3  -9  -5   21.58    1.01
  -3  -9   5   21.42    1.20
  -3   9   4   13.12    0.98
   3   9  -4   14.11    0.81
  -3   9   4   14.13    0.94
   3   9  -4   14.89    0.79
   3  -9  -4   14.63    0.77
  -3  -9   4   14.58    0.94
   3  -9  -4   14.92    0.78
  -3  -9   4   15.11    1.10
  -3  -9   4   13.46    1.00
   3  -9  -4   14.00    0.78
  -3  -9   4   13.67    1.14
  -3   9   3   51.94    2.27
   3   9  -3   48.63    2.16
   3   9  -3   48.50    2.16
  -3   9   3   48.80    2.24
   3  -9  -3   52.79    2.15
   3  -9  -3   48.73    2.15
  -3  -9   3   44.33    2.25
  -3  -9   3   45.54    2.35
  -3  -9   3   52.34    2.34
   3  -9  -3   50.97    2.09
  -3  -9   3   46.06    2.24
   3   9  -2   76.31    3.15
   3   9  -2   75.17    3.13
  -3   9   2   76.38    3.20
   3   9  -2   72.36    3.28
  -3   9   2   70.21    3.20
  -3  -9   2   61.42    3.24
   3  -9  -2   75.96    3.12
  -3  -9   2   76.91    3.21
  -3  -9   2   72.62    3.21
  -3  -9   2   72.27    3.26
   3  -9  -2   69.98    3.12
   3   9  -1   16.27    0.97
   3   9  -1   17.41    1.12
  -3   9   1   16.26    1.01
  -3   9   1   16.29    0.98
   3   9  -1   16.25    0.90
  -3  -9   1   17.04    0.98
  -3  -9   1   17.09    1.02
   3  -9  -1   17.17    0.90
   3  -9  -1   14.93    0.94
  -3  -9   1   16.42    1.11
   3   9   0  144.63    5.94
  -3   9   0  145.08    5.90
   3   9   0  129.26    5.82
   3   9   0  133.99    5.87
   3  -9   0  151.32    5.89
  -3  -9   0  130.76    5.85
  -3  -9   0  137.62    5.89
   3  -9   0  135.98    5.83
  -3   9  -1    0.00    0.29
   3   9   1    0.34    0.41
   3   9   1   -0.37    0.30
  -3   9  -1   -0.41    0.35
   3   9   1   -0.14    0.35
  -3  -9  -1   -0.04    0.32
  -3  -9  -1   -0.25    0.31
   3  -9   1   -0.08    0.30
   3  -9   1   -0.24    0.34
   3  -9   1    0.46    0.21
   3   9   2    0.31    0.42
   3   9   2    1.12    0.38
   3   9   2    0.81    0.36
  -3   9  -2    0.23    0.36
  -3   9  -2    0.41    0.41
   3  -9   2    0.62    0.14
  -3  -9  -2    0.16    0.37
   3  -9   2    0.69    0.36
  -3  -9  -2    0.24    0.33
   3  -9   2    0.49    0.37
   3  -9   2    0.35    0.27
   3   9   3   14.43    0.94
  -3   9  -3   12.89    0.97
   3   9   3   14.22    0.97
   3   9   3   12.00    1.07
  -3   9  -3   11.90    0.79
  -3  -9  -3   12.94    1.13
  -3  -9  -3   13.65    0.95
   3  -9   3   12.82    0.93
   3  -9   3   12.43    0.92
   3  -9   3   13.18    0.82
  -3   9  -4   95.42    4.17
  -3   9  -4   98.65    4.09
   3   9   4   93.82    4.15
   3  -9   4   96.54    4.10
   3  -9   4   90.03    4.14
  -3  -9  -4   94.73    4.15
   3   9   5    0.69    0.50
  -3   9  -5    1.02    0.48
   3   9   5    0.68    0.53
  -3   9  -5    0.66    0.51
  -3   9  -5    1.20    0.47
   3  -9   5    1.32    0.56
   3  -9   5    1.60    0.53
  -3  -9  -5    0.76    0.72
  -3  -9  -5    0.65    0.51
   3  -9   5    0.59    0.49
  -3  -9  -5    0.37    0.49
  -3   9  -6   47.55    2.36
  -3   9  -6   52.08    2.44
   3   9   6   47.51    2.44
   3   9   6   47.22    2.43
  -3   9  -6   50.66    2.42
   3  -9   6   48.21    2.44
  -3  -9  -6   44.53    2.56
  -3  -9  -6   46.69    2.43
   3  -9   6   50.85    2.42
   3  -9   6   47.95    2.41
  -3  -9  -6   51.77    2.43
   3  10  -6   -0.07    0.25
  -3  10   6   -0.46    0.53
  -3  10   6    0.31    0.50
   3 -10  -6    0.45    0.19
  -3 -10   6    0.37    0.56
  -3 -10   6    0.77    0.48
   3 -10  -6   -0.09    0.17
   3 -10  -6    0.02    0.31
  -3 -10   6    0.13    0.63
  -3 -10   6    0.19    0.68
   3  10  -5   83.21    3.40
  -3  10   5   79.65    3.53
  -3  10   5   74.97    3.56
  -3 -10   5   80.68    3.53
  -3 -10   5   77.70    3.68
  -3 -10   5   83.39    3.66
   3 -10  -5   78.45    3.39
  -3 -10   5   78.32    3.58
  -3  10   4    8.77    0.88
  -3  10   4    8.10    0.91
   3  10  -4    8.82    0.70
   3  10  -4    9.23    0.68
  -3 -10   4    9.15    1.07
  -3 -10   4    8.86    0.83
   3 -10  -4    9.36    0.62
  -3 -10   4    9.79    0.93
   3 -10  -4   10.30    0.66
   3 -10  -4    9.77    0.67
  -3  10   3   11.00    0.90
   3  10  -3    9.68    0.73
   3  10  -3   11.43    0.76
  -3  10   3   10.59    0.87
   3 -10  -3   11.32    0.59
   3 -10  -3   10.57    0.71
  -3 -10   3   10.62    0.90
  -3 -10   3    8.68    1.02
  -3 -10   3   10.80    0.97
  -3 -10   3   10.35    0.86
   3 -10  -3   10.45    0.72
  -3  10   2   33.73    1.64
   3  10  -2   32.21    1.56
  -3  10   2   30.41    1.38
  -3  10   2   31.88    1.62
   3  10  -2   33.11    1.71
   3  10  -2   31.44    1.53
  -3 -10   2   30.15    1.69
   3 -10  -2   31.59    1.52
  -3 -10   2   33.79    1.65
   3 -10  -2   31.38    1.54
  -3 -10   2   31.28    1.70
  -3 -10   2   35.66    1.64
   3  10  -1  133.63    5.59
   3  10  -1  128.44    5.65
  -3  10   1  133.94    5.62
  -3  10   1  129.71    5.60
   3  10  -1  126.11    5.55
   3 -10  -1  135.44    5.55
   3 -10  -1  124.78    5.57
  -3 -10   1  134.89    5.68
  -3 -10   1  134.52    5.63
  -3 -10   1  132.24    5.60
  -3  10   0   22.44    1.26
   3  10   0   24.75    1.29
  -3  10   0   25.29    1.34
   3  10   0   21.11    1.35
   3  10   0   23.80    1.23
   3 -10   0   24.02    1.22
  -3 -10   0   21.07    1.30
  -3 -10   0   23.38    1.27
   3 -10   0   24.54    1.29
   3  10   1   47.26    2.26
   3  10   1   44.59    2.14
  -3  10  -1   48.76    2.22
   3  10   1   47.94    2.20
   3 -10   1   44.93    2.18
  -3 -10  -1   45.67    2.21
  -3 -10  -1   47.19    2.17
   3 -10   1   46.68    2.01
   3 -10   1   45.87    2.14
  -3  10  -2    7.99    0.87
   3  10   2    8.10    0.79
   3  10   2    7.25    0.93
  -3  10  -2    7.54    0.79
   3  10   2    9.20    0.84
  -3 -10  -2    9.78    0.81
   3 -10   2    8.80    0.61
   3 -10   2    8.22    0.81
   3 -10   2    6.71    0.78
  -3 -10  -2    5.69    0.65
   3  10   3   88.20    4.05
  -3  10  -3   95.28    4.02
   3  10   3   90.18    3.98
   3 -10   3   76.08    3.93
   3 -10   3   91.25    3.97
   3 -10   3   92.51    3.89
  -3 -10  -3   95.72    3.98
   3 -10   3   95.23    3.80
  -3  10  -4    2.72    0.57
   3  10   4    2.87    0.53
   3  10   4    2.86    0.57
  -3  10  -4    3.33    0.48
  -3 -10  -4    3.04    0.56
   3 -10   4    2.40    0.55
   3 -10   4    2.88    0.50
  -3 -10  -4    2.01    0.87
   3 -10   4    3.20    0.57
   3  10   5  103.16    4.52
  -3  10  -5  103.77    4.51
  -3  10  -5   98.39    4.42
   3  10   5   97.21    4.50
  -3  10  -5  100.73    4.53
  -3 -10  -5  108.17    4.54
   3 -10   5   97.21    4.49
   3 -10   5   99.71    4.51
   3 -10   5  103.73    4.46
  -3 -10  -5  103.61    4.51
  -3 -10  -5  108.44    4.63
  -3  10  -6    1.06    0.61
  -3  10  -6    0.51    0.58
   3  10   6    0.32    0.74
  -3  10  -6    0.55    0.63
   3  10   6   -0.44    0.56
  -3 -10  -6    0.41    0.59
   3 -10   6    0.95    0.60
  -3 -10  -6    0.47    0.62
   3 -10   6    0.21    0.61
  -3 -10  -6    0.97    0.80
   3 -10   6   -0.02    0.64
   3  11  -6   23.86    1.21
  -3  11   5    1.71    0.57
   3  11  -5    2.62    0.41
  -3  11   5    2.08    0.63
  -3 -11   5    3.78    0.71
  -3 -11   5    2.37    0.77
   3 -11  -5    2.60    0.41
  -3 -11   5    2.51    0.55
  -3 -11   5    2.83    0.61
  -3  11   4    1.93    0.54
   3  11  -4    2.12    0.42
   3  11  -4    2.41    0.42
  -3  11   4    1.93    0.50
  -3 -11   4    2.59    0.53
   3 -11  -4    2.71    0.40
  -3 -11   4    2.07    0.65
  -3 -11   4    2.47    0.53
   3 -11  -4    2.45    0.39
  -3  11   3    2.68    0.50
   3  11  -3    2.24    0.40
   3  11  -3    2.05    0.43
  -3  11   3    1.44    0.49
   3 -11  -3    1.61    0.38
  -3 -11   3    1.24    0.49
   3 -11  -3    1.95    0.38
  -3 -11   3    2.85    0.67
  -3 -11   3    1.43    0.51
   3 -11  -3    2.17    0.28
  -3 -11   3    1.63    0.49
  -3  11   2   66.32    3.05
  -3  11   2   67.45    3.04
   3  11  -2   66.26    2.97
   3  11  -2   63.85    2.99
   3  11  -2   72.72    3.13
  -3 -11   2   66.04    3.10
  -3 -11   2   75.70    3.14
   3 -11  -2   64.95    2.96
  -3 -11   2   64.81    3.06
   3 -11  -2   67.65    2.98
  -3  11   1   -0.09    0.38
  -3  11   1    0.02    0.38
   3  11  -1   -0.35    0.34
   3  11  -1   -0.20    0.47
   3  11  -1    0.45    0.41
  -3 -11   1   -0.10    0.41
  -3 -11   1    0.26    0.44
   3 -11  -1    0.30    0.40
   3 -11  -1    0.11    0.35
   3  11   0  121.01    5.24
  -3  11   0  122.53    5.28
  -3  11   0  121.66    5.31
   3  11   0  105.81    5.25
   3  11   0  127.62    5.33
   3 -11   0  123.98    5.25
  -3 -11   0  137.35    5.33
   3 -11   0  131.53    5.29
   3 -11   0  118.37    5.10
  -3 -11   0  120.99    5.28
  -3  11  -1   16.17    1.04
  -3  11  -1   14.27    1.09
   3  11   1   15.12    1.07
   3  11   1   14.24    1.11
   3  11   1   15.81    1.00
   3 -11   1   13.43    1.04
   3 -11   1   13.73    0.99
   3 -11   1   14.42    0.77
  -3 -11  -1   14.16    1.10
  -3 -11  -1   13.94    1.02
  -3  11  -2    0.07    0.46
   3  11   2    0.75    0.46
   3  11   2   -0.43    0.42
   3  11   2    0.31    0.52
   3 -11   2    0.29    0.43
   3 -11   2    0.15    0.45
   3 -11   2    0.46    0.31
  -3 -11  -2    0.74    0.49
  -3 -11  -2    0.66    0.40
   3  11   3   22.81    1.39
  -3  11  -3   23.90    1.46
   3  11   3   20.75    1.44
   3 -11   3   24.02    1.21
  -3 -11  -3   21.85    1.36
   3 -11   3   21.24    1.36
  -3  11  -4   62.12    2.92
   3  11   4   63.74    2.91
   3  11   4   58.78    2.88
  -3  11  -4   65.34    2.96
   3  11   4   59.67    2.99
   3 -11   4   59.22    2.78
  -3 -11  -4   61.90    3.01
   3 -11   4   62.25    2.88
  -3 -11  -4   61.59    2.98
  -3 -11  -4   60.62    2.88
   3 -11   4   63.12    2.89
  -3  11  -5    3.79    0.75
  -3  11  -5    2.36    0.66
   3  11   5    3.42    0.69
   3  11   5    1.84    0.64
  -3 -11  -5    3.46    0.90
  -3 -11  -5    2.93    0.65
  -3 -11  -5    2.84    0.68
   3 -11   5    2.68    0.60
   3 -11   5    4.15    0.70
   3 -11   5    2.83    0.64
  -3  12   5   23.87    1.69
  -3  12   5   28.01    1.67
   3  12  -5   28.31    1.43
  -3 -12   5   25.21    1.80
  -3 -12   5   28.55    1.79
  -3 -12   5   28.86    1.70
   3 -12  -5   29.23    1.41
  -3 -12   5   29.00    1.62
  -3  12   4    5.99    0.73
   3  12  -4    7.59    0.83
   3  12  -4    7.01    0.76
  -3  12   4    6.13    0.71
  -3 -12   4    8.26    1.03
  -3 -12   4    5.21    0.73
  -3 -12   4    5.08    0.80
   3 -12  -4    7.46    0.73
   3 -12  -4    6.39    0.73
  -3 -12   4    9.02    0.98
  -3  12   3   20.11    1.26
   3  12  -3   19.10    1.15
   3  12  -3   18.50    1.09
  -3  12   3   17.85    1.28
  -3 -12   3   20.07    1.41
   3 -12  -3   18.19    1.09
   3 -12  -3   14.68    1.08
  -3 -12   3   21.44    1.29
  -3 -12   3   18.11    1.26
  -3  12   2    0.06    0.47
  -3  12   2    0.19    0.47
   3  12  -2   -0.31    0.37
   3  12  -2   -1.04    0.42
  -3 -12   2    0.74    0.55
   3 -12  -2   -0.03    0.41
  -3 -12   2    0.09    0.53
   3 -12  -2    0.53    0.21
  -3 -12   2    0.12    0.49
   3 -12  -2   -0.04    0.38
   3  12  -1  178.79    7.30
   3  12  -1  166.65    7.27
  -3  12   1  171.36    7.33
  -3  12   1  170.22    7.32
   3  12  -1  179.29    7.36
   3 -12  -1  164.38    7.26
  -3 -12   1  167.80    7.32
  -3 -12   1  176.03    7.34
   3 -12  -1  175.79    7.30
   3  12   0    2.83    0.50
  -3  12   0    2.21    0.54
   3  12   0    2.44    0.57
  -3  12   0    3.14    0.57
   3  12   0    2.61    0.52
  -3 -12   0    2.67    0.52
   3 -12   0    2.71    0.52
   3 -12   0    2.49    0.50
   3 -12   0    2.37    0.28
  -3 -12   0    2.66    0.54
  -3  12  -1   26.93    1.62
   3  12   1   29.89    1.62
  -3  12  -1   29.66    1.59
   3  12   1   29.63    1.59
  -3 -12  -1   26.93    1.64
   3 -12   1   30.19    1.59
   3 -12   1   28.70    1.54
  -3 -12  -1   28.00    1.58
   3 -12   1   29.21    1.34
   3  12   2   19.77    1.31
  -3  12  -2   19.32    1.30
   3  12   2   20.52    1.35
  -3  12  -2   16.08    1.33
  -3 -12  -2   19.62    1.38
   3 -12   2   20.21    1.26
   3 -12   2   19.70    1.04
  -3 -12  -2   19.19    1.27
   3  12   3    4.08    0.63
   3  12   3    4.58    0.69
  -3  12  -3    5.09    0.72
   3  12   3    4.32    0.74
   3 -12   3    4.79    0.54
   3 -12   3    3.41    0.61
  -3 -12  -3    4.73    0.81
   3 -12   3    4.51    0.62
  -3 -12  -3    5.36    0.99
  -3 -12  -3    4.50    0.65
  -3  12  -4    0.47    0.66
   3  12   4    0.12    0.64
   3  12   4    0.17    0.59
   3  12   4   -0.33    0.59
   3 -12   4    0.28    0.55
   3 -12   4    0.41    0.50
  -3 -12  -4   -0.14    0.62
  -3 -12  -4   -0.32    0.77
   3 -12   4   -0.51    0.21
   3 -12   4   -0.15    0.60
  -3 -12  -4    0.71    0.58
   3  12   5   30.43    1.81
  -3  12  -5   32.00    1.98
   3  12   5   38.26    2.06
   3  12   5   25.87    2.05
   3 -12   5   36.52    2.29
   3 -12   5   32.80    1.75
  -3 -12  -5   27.25    1.75
  -3 -12  -5   29.77    2.05
   3 -12   5   31.06    1.85
  -3 -12  -5   28.65    2.21
   3  13  -4   13.65    1.09
  -3  13   4   13.35    1.28
  -3  13   4   15.73    1.24
  -3 -13   4   13.30    1.32
  -3 -13   4   15.75    1.25
  -3 -13   4   12.46    1.25
  -3 -13   4   10.98    1.36
   3 -13  -4   14.64    1.00
  -3  13   3   22.70    1.46
  -3  13   3   21.61    1.08
  -3  13   3   22.82    1.48
   3  13  -3   21.16    1.36
   3  13  -3   23.70    1.31
  -3 -13   3   24.81    1.61
  -3 -13   3   22.77    1.48
   3 -13  -3   23.59    1.30
   3 -13  -3   21.20    1.32
  -3 -13   3   24.15    1.45
  -3 -13   3   23.93    1.62
  -3  13   2   63.28    2.94
   3  13  -2   60.84    2.84
  -3  13   2   65.10    2.94
   3  13  -2   61.20    2.88
  -3 -13   2   62.85    2.95
   3 -13  -2   59.84    2.86
   3 -13  -2   63.99    2.65
  -3 -13   2   67.38    3.00
   3 -13  -2   61.00    2.83
   3  13  -1    3.39    0.57
  -3  13   1    3.74    0.62
   3  13  -1    4.13    0.57
   3  13  -1    2.45    0.62
  -3  13   1    3.65    0.60
  -3 -13   1    2.75    0.59
   3 -13  -1    3.21    0.58
   3 -13  -1    3.04    0.37
  -3 -13   1    2.87    0.57
   3 -13  -1    3.19    0.53
   3  13   0  106.99    4.43
  -3  13   0  103.07    4.45
   3  13   0  100.44    4.45
  -3  13   0  107.38    4.48
  -3 -13   0  103.64    4.48
  -3 -13   0   95.80    4.44
   3 -13   0   93.89    4.21
   3 -13   0   95.34    4.39
   3  13   1    4.47    0.62
   3  13   1    2.60    0.59
  -3  13  -1    3.29    0.62
  -3  13  -1    3.14    0.62
  -3 -13  -1    4.44    0.65
   3 -13   1    3.06    0.38
  -3 -13  -1    3.54    0.70
   3 -13   1    3.66    0.58
   3  13   2   -0.45    0.54
  -3  13  -2   -0.48    0.52
   3  13   2    0.72    0.58
  -3  13  -2   -0.28    0.61
   3  13   2   -0.13    0.51
   3 -13   2   -1.46    0.49
  -3 -13  -2    0.67    0.56
   3 -13   2    0.51    0.55
   3 -13   2   -0.08    0.38
  -3 -13  -2   -0.42    0.58
   3  13   3    1.24    0.62
   3  13   3    1.77    0.67
   3  13   3    3.70    0.74
  -3  13  -3    1.94    0.70
  -3  13  -3    2.13    0.62
   3 -13   3    1.55    0.62
  -3 -13  -3    2.42    0.84
   3 -13   3    2.18    0.51
  -3 -13  -3    2.21    0.64
   3 -13   3    2.90    0.64
  -3 -13  -3    0.52    0.64
   3  13   4   42.79    2.34
  -3  13  -4   45.25    2.38
   3  13   4   44.82    2.36
   3  13   4   46.37    2.43
   3 -13   4   47.86    2.36
  -3 -13  -4   40.88    2.50
   3 -13   4   44.96    2.33
  -3 -13  -4   45.90    2.30
   3 -13   4   43.92    2.18
  -3 -13  -4   43.04    2.39
  -3  14   3    3.26    0.40
  -3  14   3    3.53    0.73
   3  14  -3    1.72    0.60
  -3  14   3    4.13    0.70
  -3 -14   3    2.97    0.70
  -3 -14   3    2.36    0.76
  -3 -14   3    3.46    0.65
  -3 -14   3    3.33    0.75
   3 -14  -3    3.30    0.56
  -3  14   2    4.74    0.73
  -3  14   2    5.24    0.68
   3  14  -2    5.57    0.69
  -3 -14   2    7.90    0.90
   3 -14  -2    4.80    0.60
  -3 -14   2    5.14    0.70
  -3 -14   2    5.52    0.75
  -3  14   1   56.95    2.72
  -3  14   1   57.82    2.74
   3  14  -1   58.79    2.69
   3  14  -1   57.25    2.74
   3 -14  -1   55.44    2.65
  -3 -14   1   55.19    2.75
   3  14   0   27.30    1.57
   3  14   0   31.18    1.61
  -3  14   0   28.59    1.69
   3  14   0   27.16    1.62
  -3  14   0   26.83    1.64
  -3 -14   0   25.17    1.63
   3 -14   0   26.20    1.26
   3 -14   0   27.30    1.60
  -3 -14   0   27.43    1.69
   3 -14   0   26.12    1.57
   3  14   1   20.14    1.42
   3  14   1   22.71    1.40
  -3  14  -1   20.82    1.48
   3  14   1   20.14    1.40
  -3  14  -1   22.33    1.46
  -3 -14  -1   21.23    1.47
  -3 -14  -1   19.88    1.51
   3 -14   1   19.68    1.36
   3 -14   1   20.48    1.40
   3 -14   1   20.34    1.08
  -3  14  -2   33.60    1.91
   3  14   2   32.70    1.89
   3  14   2   36.21    1.91
   3  14   2   32.60    1.88
  -3  14  -2   31.16    1.95
   3 -14   2   32.20    1.62
   3 -14   2   36.03    1.92
  -3 -14  -2   33.47    2.00
  -3 -14  -2   31.47    1.90
   3 -14   2   33.34    1.85
  -3  14  -3   17.63    1.47
   3  14   3   21.74    1.52
   3  14   3   17.38    1.48
  -3  14  -3   16.90    1.45
   3  14   3   19.88    1.50
   3 -14   3   18.34    1.18
  -3 -14  -3   18.22    1.66
   3 -14   3   15.81    1.45
  -3 -14  -3   16.66    1.42
   3 -14   3   18.15    1.46
  -3 -14  -3   22.41    1.69
   3  15  -2   23.19    1.48
   3  15  -2   20.27    1.40
  -3  15   2   21.56    1.47
  -3  15   2   22.52    1.54
   3 -15  -2   19.70    1.46
  -3 -15   2   21.24    1.56
  -3 -15   2   22.52    1.49
  -3 -15   2   23.56    1.63
   3 -15  -2   22.73    1.40
   3  15  -1    5.26    0.76
   3  15  -1    5.53    0.72
  -3  15   1    4.95    0.70
  -3  15   1    4.51    0.74
   3  15  -1    5.42    0.69
   3 -15  -1    4.17    0.67
   3 -15  -1    4.82    0.70
  -3 -15   1    4.79    0.81
   3  15   0   19.57    1.40
   3  15   0   23.43    1.45
  -3  15   0   19.48    1.47
  -3  15   0   24.87    1.52
   3  15   0   22.54    1.46
   3 -15   0   17.25    1.38
  -3 -15   0   20.42    1.52
  -3 -15   0   19.95    1.53
   3 -15   0   19.98    1.43
   3  15   1    8.52    1.13
   3  15   1   12.03    1.14
   3  15   1   10.75    0.95
  -3  15  -1    9.21    1.13
  -3  15  -1    6.92    0.84
   3 -15   1   11.33    1.15
  -3 -15  -1    6.52    0.89
  -3 -15  -1    8.70    1.09
   3 -15   1    9.20    1.13
   3 -15   1    8.80    0.75
   3  15   2   -1.40    0.61
   3  15   2   -0.01    0.65
   3  15   2    1.13    0.61
   3 -15   2   -1.26    0.59
   3 -15   2   -0.69    0.47
   3 -15   2    0.00    0.64
  -4   0   8    5.55    0.73
  -4   0   8    5.65    0.55
   4   0  -8    6.16    0.83
  -4   0   8    4.66    0.54
  -4   0   7   -0.01    0.30
  -4   0   7    0.31    0.50
  -4   0   7   -0.63    0.30
  -4   0   6   44.07    1.91
  -4   0   6   42.48    2.03
   4   0  -6   43.95    2.08
  -4   0   6   43.18    1.91
  -4   0   5   -0.06    0.37
  -4   0   5   -0.08    0.18
  -4   0   5   -0.15    0.17
  -4   0   5    0.08    0.31
  -4   0   4    1.33    0.37
  -4   0   4    1.51    0.16
  -4   0   4    1.88    0.32
  -4   0   4    1.87    0.20
  -4   0   3    0.22    0.22
  -4   0   3    0.29    0.28
  -4   0   2  129.27    5.35
  -4   0   2  126.61    5.41
  -4   0   1   -0.20    0.09
  -4   0   1    0.17    0.28
  -4   0   1   -0.08    0.09
   4   0  -1   -0.01    0.23
  -4   0   0  280.78   11.51
  -4   0   0  277.84   11.51
   4   0   0  278.89   11.61
   4   0   1    0.08    0.14
  -4   0  -1   -0.12    0.17
  -4   0  -1    0.13    0.17
   4   0   1   -0.15    0.14
  -4   0  -1    0.12    0.22
   4   0   1   -0.22    0.29
  -4   0  -2   29.36    1.37
   4   0   2   28.67    1.34
  -4   0  -2   30.00    1.36
   4   0   2   30.81    1.34
  -4   0  -2   29.90    1.36
  -4   0  -3   -0.04    0.25
  -4   0  -3    0.01    0.28
   4   0   3    0.16    0.23
   4   0   3   -0.09    0.24
  -4   0  -3   -0.37    0.26
   4   0   4  101.76    4.33
  -4   0  -4  101.30    4.35
   4   0   4  101.23    4.34
  -4   0  -4  103.81    4.35
  -4   0  -4  100.46    4.35
  -4   0  -5    0.24    0.40
   4   0   5   -0.10    0.32
   4   0   5    0.68    0.48
  -4   0  -5    0.31    0.37
   4   0   5   -0.26    0.36
  -4   0  -6   17.78    1.22
   4   0   6   20.74    1.29
   4   0   6   16.88    1.18
  -4   0  -6   16.89    1.20
   4   0   6   18.89    1.15
  -4   0  -7    0.04    0.53
  -4   0  -7   -0.60    0.52
   4   0   7   -1.17    0.53
  -4   0  -7    0.37    0.62
   4   0   7    0.36    0.71
   4   0   7    0.16    0.49
   4   1  -8    2.12    0.75
  -4   1   8    0.42    0.42
  -4   1   8    0.89    0.56
  -4   1   8    1.77    0.43
  -4  -1   8    0.83    0.41
   4  -1  -8    1.77    0.63
  -4  -1   8    0.69    0.43
  -4  -1   8    1.45    0.63
  -4   1   7  128.92    5.41
   4   1  -7  122.29    5.58
  -4   1   7  130.81    5.41
  -4   1   7  128.84    5.51
  -4  -1   7  131.83    5.41
  -4  -1   7  123.92    5.52
  -4  -1   7  132.28    5.42
  -4   1   6    2.31    0.30
  -4   1   6    2.74    0.46
  -4   1   6    2.24    0.30
   4   1  -6    2.64    0.53
  -4  -1   6    2.73    0.31
  -4  -1   6    2.86    0.58
  -4  -1   6    2.00    0.30
   4  -1  -6    1.63    0.48
  -4  -1   6    2.38    0.47
  -4   1   5   86.71    3.78
  -4   1   5   88.94    3.70
  -4   1   5   92.13    3.70
  -4  -1   5   87.24    3.87
  -4  -1   5   85.42    3.81
  -4  -1   5   90.81    3.70
   4  -1  -5   87.83    3.81
  -4  -1   5   87.41    3.70
  -4   1   4    4.88    0.30
  -4   1   4    5.12    0.61
  -4   1   4    4.95    0.29
  -4   1   4    4.50    0.48
  -4  -1   4    5.25    0.64
  -4  -1   4    4.41    0.30
  -4  -1   4    4.60    0.53
  -4  -1   4    4.58    0.30
  -4   1   3   14.39    0.74
  -4   1   3   14.37    0.84
  -4  -1   3   13.61    0.86
  -4  -1   3   14.24    0.78
  -4   1   2   17.62    0.84
  -4   1   2   17.94    0.94
  -4  -1   2   17.17    0.97
  -4  -1   2   17.92    0.91
   4   1  -1  277.88   10.92
  -4   1   1  266.32   10.79
  -4   1   1  258.33   10.79
  -4   1   1  246.99   10.90
  -4  -1   1  256.57   10.79
  -4  -1   1  258.80   10.94
  -4  -1   1  261.30   10.79
   4  -1  -1  271.53   10.88
  -4   1   0   12.09    0.59
   4   1   0   12.98    0.81
  -4   1   0   11.47    0.59
   4  -1   0   12.35    0.73
  -4  -1   0   13.10    0.60
  -4  -1   0   12.16    0.59
  -4   1  -1  122.90    4.90
  -4   1  -1  118.40    4.90
   4   1   1  115.01    4.88
   4   1   1  110.90    5.02
  -4   1  -1  115.91    4.90
   4   1   1  119.30    4.88
  -4  -1  -1  117.56    4.90
   4  -1   1  103.91    4.98
   4  -1   1  122.41    4.88
   4  -1   1  120.18    4.88
  -4  -1  -1  124.04    4.90
  -4   1  -2   59.41    2.57
   4   1   2   58.05    2.55
  -4   1  -2   58.98    2.57
   4   1   2   62.23    2.56
  -4   1  -2   62.10    2.58
  -4  -1  -2   56.65    2.59
   4  -1   2   58.24    2.55
  -4  -1  -2   59.01    2.57
   4  -1   2   60.90    2.56
  -4  -1  -2   62.27    2.58
   4   1   3   50.80    2.28
  -4   1  -3   50.29    2.30
   4   1   3   53.68    2.29
  -4   1  -3   50.90    2.29
  -4   1  -3   54.20    2.31
  -4  -1  -3   50.24    2.31
  -4  -1  -3   50.00    2.30
  -4  -1  -3   52.47    2.31
   4  -1   3   54.94    2.29
   4  -1   3   54.55    2.29
  -4   1  -4    0.29    0.32
   4   1   4    0.64    0.33
   4   1   4    1.12    0.31
  -4   1  -4    0.55    0.33
  -4   1  -4    0.51    0.36
   4  -1   4    0.29    0.33
  -4  -1  -4    0.60    0.32
   4  -1   4    0.36    0.28
  -4  -1  -4    0.18    0.31
  -4  -1  -4    0.92    0.39
   4  -1   4    0.64    0.42
   4   1   5  102.37    4.37
   4   1   5  104.91    4.39
  -4   1  -5   95.07    4.38
  -4   1  -5  101.43    4.39
   4  -1   5   99.33    4.37
  -4  -1  -5  104.95    4.40
   4  -1   5   98.35    4.38
   4  -1   5  103.13    4.41
  -4  -1  -5  106.31    4.41
   4   1   6   -0.44    0.44
   4   1   6    0.20    0.43
  -4   1  -6   -0.93    0.43
  -4   1  -6    0.80    0.54
   4  -1   6   -0.03    0.48
   4  -1   6    0.22    0.41
  -4  -1  -6    0.06    0.45
   4  -1   6    0.68    0.55
  -4  -1  -6    0.03    0.54
   4   1   7    3.69    0.57
  -4   1  -7    2.89    0.72
   4   1   7    3.37    0.64
  -4   1  -7    3.82    0.65
  -4   1  -7    3.15    0.59
   4  -1   7    3.85    0.74
   4  -1   7    3.52    0.66
  -4  -1  -7    3.29    0.62
   4  -1   7    4.96    0.67
  -4  -1  -7    2.23    0.65
  -4  -1  -7    4.40    0.67
  -4   2   8   18.02    1.10
  -4   2   8   17.49    1.30
  -4   2   8   18.96    1.11
   4   2  -8   19.90    1.45
  -4  -2   8   19.05    1.11
  -4  -2   8   17.16    1.09
   4  -2  -8   16.65    1.34
  -4  -2   8   18.87    1.36
   4   2  -7    5.27    0.65
  -4   2   7    5.11    0.61
  -4   2   7    4.45    0.59
  -4   2   7    6.87    0.65
  -4  -2   7    3.53    0.63
  -4  -2   7    5.20    0.60
  -4  -2   7    4.39    0.58
  -4  -2   7    5.15    0.63
  -4   2   6   68.11    3.01
  -4   2   6   73.62    2.92
  -4   2   6   67.93    2.91
   4  -2  -6   69.02    3.03
  -4  -2   6   63.37    2.91
  -4  -2   6   65.49    2.92
  -4  -2   6   69.86    3.13
  -4  -2   6   68.24    3.06
  -4   2   5   14.58    0.75
  -4   2   5   16.57    0.89
  -4   2   5   15.55    0.75
  -4  -2   5   15.78    0.76
  -4  -2   5   15.37    0.75
  -4  -2   5   14.87    1.03
  -4  -2   5   14.90    0.94
   4  -2  -5   14.39    0.93
  -4   2   4    4.39    0.46
  -4   2   4    4.84    0.32
  -4   2   4    5.19    0.33
  -4   2   4    4.79    0.60
  -4  -2   4    4.84    0.58
  -4  -2   4    4.53    0.32
  -4  -2   4    4.87    0.35
  -4  -2   4    5.10    0.65
  -4   2   3    1.03    0.22
  -4   2   3    1.23    0.30
  -4  -2   3    1.50    0.31
  -4  -2   3    1.16    0.12
  -4  -2   3    1.39    0.33
  -4  -2   3    1.32    0.14
  -4   2   2  150.67    6.38
  -4   2   2  155.64    6.46
  -4  -2   2  152.90    6.45
  -4  -2   2  159.33    6.51
  -4  -2   2  150.35    6.34
  -4  -2   2  155.48    6.35
  -4   2   1   -0.08    0.14
  -4   2   1    0.00    0.23
  -4   2   1    0.15    0.11
   4   2  -1    0.52    0.30
  -4  -2   1    0.23    0.28
   4  -2  -1    0.43    0.19
  -4  -2   1    0.10    0.11
  -4  -2   1    0.30    0.14
  -4   2   0   59.80    2.48
   4   2   0   51.59    2.61
  -4   2   0   59.29    2.47
  -4  -2   0   59.02    2.48
  -4  -2   0   59.80    2.47
   4  -2   0   61.88    2.54
   4   2   1   37.02    1.89
   4   2   1   41.49    1.72
   4   2   1   39.86    1.71
  -4   2  -1   36.59    1.73
  -4   2  -1   39.02    1.73
  -4   2  -1   40.78    1.72
  -4  -2  -1   42.30    1.74
   4  -2   1   35.96    1.80
   4  -2   1   40.45    1.72
   4  -2   1   41.29    1.71
  -4  -2  -1   40.86    1.73
  -4   2  -2   10.82    0.63
  -4   2  -2   10.79    0.65
   4   2   2   11.14    0.62
  -4   2  -2   10.49    0.65
   4   2   2   11.32    0.63
  -4  -2  -2   11.64    0.72
   4  -2   2   10.95    0.63
   4  -2   2   11.86    0.64
  -4  -2  -2   11.58    0.66
  -4  -2  -2   10.39    0.65
  -4   2  -3   24.84    1.18
   4   2   3   24.38    1.15
   4   2   3   24.86    1.16
  -4   2  -3   24.38    1.16
  -4   2  -3   22.83    1.17
  -4  -2  -3   22.95    1.20
   4  -2   3   21.31    1.14
  -4  -2  -3   22.53    1.17
  -4  -2  -3   24.26    1.18
   4  -2   3   24.16    1.16
  -4   2  -4  148.29    6.29
   4   2   4  150.00    6.28
   4   2   4  138.02    6.26
  -4   2  -4  150.26    6.28
  -4   2  -4  154.57    6.30
   4  -2   4  155.85    6.29
  -4  -2  -4  149.99    6.31
  -4  -2  -4  153.46    6.29
   4  -2   4  133.39    6.26
   4  -2   4  151.84    6.30
  -4  -2  -4  155.20    6.29
   4   2   5    0.07    0.36
  -4   2  -5    0.48    0.44
   4   2   5    0.27    0.39
  -4   2  -5   -0.24    0.38
   4  -2   5   -0.31    0.36
   4  -2   5    0.15    0.37
  -4  -2  -5    0.25    0.45
   4  -2   5    0.90    0.46
  -4  -2  -5    0.59    0.38
  -4   2  -6   40.19    1.98
   4   2   6   40.78    1.96
   4   2   6   40.72    1.94
  -4   2  -6   37.49    1.98
   4  -2   6   38.86    1.94
  -4  -2  -6   36.87    1.99
   4  -2   6   40.98    1.97
   4  -2   6   38.93    1.99
  -4  -2  -6   40.49    1.98
   4   2   7    5.13    0.68
  -4   2  -7    4.99    0.77
  -4   2  -7    3.98    0.65
   4   2   7    4.27    0.65
  -4   2  -7    4.99    0.67
  -4  -2  -7    4.65    0.77
  -4  -2  -7    5.10    0.69
   4  -2   7    5.79    0.80
  -4  -2  -7    4.68    0.66
   4  -2   7    6.14    0.68
   4  -2   7    5.50    0.73
  -4  -3   8    7.35    0.79
  -4   3   7   13.45    0.84
  -4   3   7   12.98    0.84
  -4   3   7   12.76    0.99
  -4  -3   7   11.77    1.08
  -4  -3   7   13.58    1.20
  -4  -3   7   13.85    0.85
  -4  -3   7   12.64    0.84
   4  -3  -7   12.39    0.99
  -4   3   6    1.71    0.30
  -4   3   6    1.16    0.39
  -4   3   6    0.96    0.27
  -4  -3   6    0.75    0.43
  -4  -3   6    1.25    0.30
   4  -3  -6    0.51    0.41
  -4  -3   6    1.37    0.29
  -4  -3   6    1.92    0.46
  -4   3   5   47.53    2.14
  -4   3   5   50.39    2.08
  -4   3   5   50.42    2.09
  -4  -3   5   44.46    2.08
  -4  -3   5   48.89    2.23
  -4  -3   5   48.20    2.08
   4  -3  -5   48.43    2.17
  -4  -3   5   47.72    2.29
  -4   3   4   11.91    0.58
  -4   3   4   11.09    0.66
  -4   3   4   11.87    0.61
  -4  -3   4   12.01    0.62
  -4  -3   4   11.64    0.87
   4  -3  -4   10.73    0.70
  -4  -3   4   11.26    0.80
  -4  -3   4   11.32    0.58
  -4   3   3   84.84    3.77
  -4   3   3   90.59    3.68
  -4   3   3   90.81    3.70
  -4   3   3   85.90    3.66
  -4  -3   3   90.57    3.67
  -4  -3   3   89.70    3.80
  -4  -3   3   87.47    3.83
  -4  -3   3   86.01    3.69
  -4   3   2   19.88    1.00
  -4   3   2   19.77    0.89
  -4   3   2   20.38    0.88
  -4   3   2   20.59    0.89
   4   3  -2   20.80    1.12
  -4  -3   2   19.85    1.12
  -4  -3   2   18.14    0.90
  -4  -3   2   20.20    0.88
  -4   3   1  329.11   13.35
  -4   3   1  322.18   13.33
  -4   3   1  311.28   13.41
   4   3  -1  324.15   13.49
  -4   3   1  333.98   13.36
  -4  -3   1  316.52   13.50
  -4  -3   1  325.38   13.35
  -4  -3   1  329.24   13.37
  -4   3   0    9.70    0.52
  -4   3   0    9.48    0.53
   4   3   0    9.59    0.45
  -4   3   0    9.92    0.47
   4   3   0    8.23    0.50
   4   3   0    8.96    0.78
  -4  -3   0   10.12    0.53
   4  -3   0    8.65    0.49
   4  -3   0   10.10    0.55
   4  -3   0    9.54    0.45
  -4  -3   0    9.69    0.52
   4   3   1   29.12    1.59
  -4   3  -1   30.44    1.41
   4   3   1   32.65    1.41
   4   3   1   30.48    1.38
  -4   3  -1   31.39    1.41
  -4   3  -1   32.94    1.38
   4  -3   1   31.83    1.39
   4  -3   1   32.38    1.40
   4  -3   1   29.90    1.46
  -4  -3  -1   32.80    1.42
  -4  -3  -1   33.00    1.42
   4   3   2   11.34    0.68
  -4   3  -2   12.05    0.72
  -4   3  -2   12.45    0.72
  -4   3  -2   13.34    0.68
   4   3   2   13.94    0.94
   4   3   2   12.67    0.70
   4  -3   2   12.28    0.69
  -4  -3  -2   12.60    0.72
  -4  -3  -2   13.36    0.72
   4  -3   2   12.00    0.70
  -4  -3  -2   13.19    0.81
  -4   3  -3   64.90    2.86
  -4   3  -3   67.19    2.89
  -4   3  -3   70.88    2.89
   4   3   3   66.60    2.87
   4   3   3   66.98    2.87
   4  -3   3   67.42    2.87
  -4  -3  -3   64.58    2.88
  -4  -3  -3   61.58    2.91
   4  -3   3   66.80    2.87
   4  -3   3   71.42    2.89
  -4  -3  -3   61.87    2.88
  -4   3  -4   10.34    0.78
   4   3   4   10.07    0.75
  -4   3  -4   11.85    0.78
  -4   3  -4   11.41    0.81
   4   3   4    9.27    0.78
  -4  -3  -4   10.03    0.79
  -4  -3  -4   11.68    0.86
   4  -3   4   12.20    0.81
  -4  -3  -4   11.19    0.81
   4  -3   4   10.36    0.76
   4  -3   4   10.29    0.78
   4   3   5   73.63    3.48
  -4   3  -5   76.53    3.51
   4   3   5   84.23    3.51
  -4   3  -5   78.26    3.50
  -4  -3  -5   83.41    3.52
   4  -3   5   82.09    3.51
  -4  -3  -5   75.32    3.53
   4  -3   5   82.22    3.49
   4  -3   5   83.54    3.52
  -4   3  -6    5.47    0.64
   4   3   6    5.26    0.60
   4   3   6    4.99    0.58
  -4   3  -6    4.84    0.60
   4  -3   6    4.12    0.59
   4  -3   6    4.06    0.61
   4  -3   6    5.75    0.61
  -4  -3  -6    3.84    0.63
  -4  -3  -6    5.56    0.65
   4   3   7   -0.38    0.53
  -4   3  -7    0.04    0.57
   4   3   7    0.68    0.56
  -4   3  -7    0.18    0.53
  -4   3  -7    0.15    0.60
  -4  -3  -7   -0.21    0.51
  -4  -3  -7    0.69    0.55
   4  -3   7   -0.05    0.54
   4  -3   7    1.30    0.66
   4  -3   7    0.86    0.53
  -4  -3  -7    0.03    0.63
  -4   4   7   22.59    1.28
  -4   4   7   21.41    1.15
  -4   4   7   21.30    1.17
  -4  -4   7   23.58    1.42
   4  -4  -7   21.93    1.31
  -4  -4   7   18.49    1.15
  -4  -4   7   22.77    1.16
  -4  -4   7   22.35    1.50
  -4   4   6  161.56    6.54
  -4   4   6  152.97    6.54
  -4   4   6  151.83    6.58
  -4  -4   6  162.15    6.54
   4  -4  -6  158.91    6.61
  -4  -4   6  163.84    6.69
  -4  -4   6  144.06    6.54
  -4   4   5   15.74    0.77
  -4   4   5   14.56    0.78
  -4   4   5   13.92    0.83
  -4  -4   5   13.98    0.99
   4  -4  -5   14.34    0.86
  -4  -4   5   14.07    0.79
  -4  -4   5   14.71    0.76
  -4   4   4    0.57    0.24
  -4   4   4    0.46    0.18
  -4   4   4    0.78    0.23
  -4  -4   4    0.88    0.40
  -4  -4   4    0.58    0.19
   4  -4  -4    0.68    0.28
  -4  -4   4    0.52    0.24
  -4  -4   4    0.82    0.37
  -4   4   3   91.62    3.86
  -4   4   3   93.20    3.94
  -4   4   3   95.35    3.87
  -4   4   3   94.16    3.89
  -4  -4   3   92.33    4.00
  -4  -4   3   96.26    4.04
  -4  -4   3   88.92    3.89
  -4  -4   3   89.26    3.87
  -4   4   2  178.98    7.36
   4   4  -2  178.93    7.50
  -4   4   2  174.45    7.32
  -4   4   2  171.75    7.39
  -4   4   2  174.57    7.34
  -4  -4   2  179.88    7.37
  -4  -4   2  184.91    7.51
  -4  -4   2  176.96    7.35
  -4   4   1    1.63    0.25
  -4   4   1    1.96    0.21
   4   4  -1    1.53    0.40
  -4   4   1    1.95    0.25
  -4  -4   1    1.80    0.42
  -4  -4   1    2.18    0.22
  -4  -4   1    1.82    0.25
  -4   4   0  248.13    9.58
   4   4   0  222.55    9.53
   4   4   0  226.84    9.71
   4   4   0  226.51    9.56
  -4   4   0  226.80    9.51
  -4   4   0  238.84    9.57
   4  -4   0  236.10    9.56
  -4  -4   0  232.76    9.58
   4  -4   0  229.94    9.55
  -4  -4   0  223.56    9.56
   4  -4   0  231.39    9.53
  -4   4  -1   36.33    1.56
  -4   4  -1   36.37    1.61
  -4   4  -1   36.68    1.62
   4   4   1   34.70    1.59
   4   4   1   37.25    1.62
   4   4   1   34.47    1.80
  -4  -4  -1   37.36    1.62
   4  -4   1   37.66    1.62
   4  -4   1   36.49    1.62
   4  -4   1   36.08    1.59
  -4  -4  -1   35.72    1.62
   4   4   2    0.29    0.23
   4   4   2    0.76    0.25
   4   4   2    0.51    0.40
  -4   4  -2    0.08    0.23
  -4   4  -2    0.13    0.22
  -4   4  -2    0.35    0.22
  -4  -4  -2   -0.08    0.37
  -4  -4  -2    0.25    0.26
   4  -4   2    0.19    0.23
  -4  -4  -2    0.27    0.25
   4  -4   2    0.08    0.23
   4   4   3   29.94    1.43
  -4   4  -3   30.79    1.44
  -4   4  -3   30.96    1.45
  -4   4  -3   28.72    1.40
   4   4   3   30.07    1.42
  -4  -4  -3   29.29    1.51
   4  -4   3   27.97    1.42
  -4  -4  -3   30.43    1.45
   4  -4   3   30.44    1.43
   4  -4   3   31.86    1.42
  -4  -4  -3   30.48    1.45
   4   4   4  102.40    4.26
   4   4   4  100.16    4.26
  -4   4  -4   99.74    4.25
  -4   4  -4  101.19    4.28
  -4   4  -4  103.11    4.28
   4  -4   4   99.96    4.26
   4  -4   4   97.49    4.26
  -4  -4  -4   92.15    4.30
   4  -4   4  100.84    4.27
  -4  -4  -4   97.24    4.27
  -4  -4  -4  100.16    4.27
  -4   4  -5    4.50    0.54
  -4   4  -5    3.85    0.51
   4   4   5    3.61    0.50
   4  -4   5    3.46    0.49
   4  -4   5    5.19    0.57
  -4  -4  -5    4.47    0.54
  -4  -4  -5    2.69    0.54
   4   4   6    9.27    0.97
  -4   4  -6    9.54    0.98
   4   4   6   10.62    1.00
  -4   4  -6   10.11    1.00
   4  -4   6   10.82    1.00
  -4  -4  -6    9.75    1.08
   4  -4   6    9.69    1.02
   4  -4   6   10.91    0.95
  -4  -4  -6   13.11    1.49
  -4  -4  -6   10.50    1.02
   4   4   7   15.92    1.26
  -4   4  -7   14.80    1.25
  -4   4  -7   16.25    1.27
  -4   4  -7   15.31    1.27
   4   4   7   15.82    1.28
  -4  -4  -7   15.63    1.27
  -4  -4  -7   14.73    1.26
  -4  -4  -7   15.16    1.33
   4  -4   7   17.29    1.31
   4  -4   7   12.44    1.26
   4  -4   7   14.86    1.21
  -4   5   7   22.97    1.29
  -4   5   7   26.33    1.36
  -4   5   7   25.14    1.29
  -4  -5   7   23.30    1.59
  -4  -5   7   24.24    1.28
  -4  -5   7   24.80    1.56
   4  -5  -7   24.56    1.39
  -4  -5   7   24.31    1.29
  -4   5   6   19.00    0.98
  -4   5   6   17.56    1.02
  -4   5   6   17.93    0.97
   4  -5  -6   18.60    1.06
  -4  -5   6   17.60    0.96
  -4  -5   6   16.99    0.98
  -4  -5   6   15.28    1.18
  -4   5   5    9.07    0.60
  -4   5   5    9.49    0.64
  -4   5   5    8.81    0.64
  -4  -5   5    8.74    0.66
   4  -5  -5    9.09    0.67
  -4  -5   5    9.82    0.62
  -4  -5   5    8.13    0.86
  -4   5   4  162.62    6.89
  -4   5   4  167.73    6.92
  -4   5   4  157.53    6.88
  -4  -5   4  159.36    7.03
  -4  -5   4  171.97    6.93
  -4  -5   4  170.41    6.89
  -4  -5   4  159.84    7.01
   4  -5  -4  175.60    6.91
  -4   5   3    8.50    0.61
  -4   5   3    8.14    0.51
  -4   5   3    7.82    0.57
  -4   5   3    8.22    0.45
  -4  -5   3    8.92    0.58
  -4  -5   3    7.56    0.74
  -4  -5   3    7.73    0.52
  -4  -5   3    7.50    0.75
  -4   5   2   12.89    0.72
   4   5  -2   13.17    0.98
  -4   5   2   12.55    0.73
  -4   5   2   13.10    0.69
  -4  -5   2   14.12    0.70
  -4  -5   2   12.67    0.74
  -4  -5   2   15.16    0.94
  -4   5   1   65.03    2.70
  -4   5   1   64.80    2.71
   4   5  -1   66.57    2.64
   4   5  -1   63.94    2.64
  -4   5   1   59.41    2.73
   4   5  -1   63.66    2.89
  -4  -5   1   63.74    2.71
  -4  -5   1   61.68    2.74
  -4  -5   1   63.45    2.89
   4   5   0   13.02    0.76
  -4   5   0   13.80    0.78
   4   5   0   15.11    0.70
   4   5   0   13.92    1.01
  -4   5   0   15.56    0.76
  -4  -5   0   14.96    0.75
   4  -5   0   13.71    0.75
   4  -5   0   14.58    0.69
  -4  -5   0   14.86    0.78
   4   5   1    3.52    0.45
   4   5   1    2.79    0.50
  -4   5  -1    2.99    0.32
  -4   5  -1    2.61    0.28
   4   5   1    2.88    0.38
  -4   5  -1    2.75    0.31
   4  -5   1    2.54    0.31
  -4  -5  -1    3.01    0.33
   4  -5   1    3.48    0.35
   4  -5   1    2.98    0.29
  -4  -5  -1    3.27    0.42
   4   5   2   85.66    3.70
  -4   5  -2   82.93    3.71
   4   5   2   83.80    3.69
  -4   5  -2   84.17    3.65
   4   5   2   87.39    3.86
  -4   5  -2   86.68    3.71
   4  -5   2   88.06    3.69
  -4  -5  -2   87.96    3.72
   4  -5   2   89.80    3.70
  -4  -5  -2   91.91    3.72
   4  -5   2   88.09    3.67
  -4   5  -3   51.48    2.25
   4   5   3   53.22    2.29
   4   5   3   52.28    2.28
  -4   5  -3   55.26    2.32
  -4   5  -3   44.57    2.28
  -4  -5  -3   51.76    2.36
  -4  -5  -3   47.57    2.29
   4  -5   3   49.01    2.28
   4  -5   3   51.77    2.28
   4  -5   3   53.70    2.26
  -4  -5  -3   53.87    2.31
   4   5   4    3.65    0.46
  -4   5  -4    2.93    0.45
   4   5   4    3.55    0.46
  -4   5  -4    2.94    0.43
  -4   5  -4    2.58    0.42
  -4  -5  -4    2.14    0.40
   4  -5   4    2.94    0.44
  -4  -5  -4    2.32    0.43
   4  -5   4    2.04    0.42
  -4  -5  -4    3.63    0.56
   4  -5   4    3.03    0.44
   4   5   5   28.79    1.43
  -4   5  -5   23.91    1.36
  -4   5  -5   24.43    1.41
   4  -5   5   26.96    1.43
  -4  -5  -5   23.98    1.40
   4  -5   5   26.53    1.41
  -4   5  -6   27.67    1.65
   4   5   6   30.43    1.67
  -4   5  -6   30.12    1.69
   4   5   6   31.23    1.69
  -4   5  -6   32.91    1.71
   4  -5   6   30.84    1.68
  -4  -5  -6   30.24    1.78
  -4  -5  -6   31.75    1.69
  -4  -5  -6   32.37    1.70
   4  -5   6   30.16    1.67
   4  -5   6   33.20    1.70
   4   5   7    0.84    0.56
  -4   5  -7    1.56    0.68
  -4   5  -7    1.59    0.60
   4   5   7    0.76    0.60
  -4   5  -7    0.81    0.61
   4  -5   7    0.52    0.53
  -4  -5  -7    0.38    0.59
  -4  -5  -7    0.00    0.79
   4  -5   7    2.01    0.61
  -4  -5  -7    2.09    0.60
   4  -5   7    0.61    0.67
  -4   6   7    1.39    0.42
  -4   6   7    1.73    0.43
  -4   6   7    1.63    0.50
  -4  -6   7    0.63    0.43
   4  -6  -7    1.04    0.51
  -4  -6   7    1.71    0.43
  -4  -6   7    1.08    0.65
  -4  -6   7    0.83    0.60
  -4   6   6   20.09    1.06
  -4   6   6   19.32    1.09
  -4   6   6   19.34    1.08
  -4  -6   6   21.91    1.45
  -4  -6   6   19.32    1.07
  -4  -6   6   18.25    1.09
  -4  -6   6   21.64    1.35
   4  -6  -6   18.74    1.11
  -4   6   5   45.15    2.02
  -4   6   5   48.30    2.06
  -4   6   5   45.24    2.01
   4  -6  -5   43.55    2.03
  -4  -6   5   47.94    2.07
  -4  -6   5   42.76    2.02
  -4  -6   5   44.77    2.21
  -4   6   4   50.84    2.17
  -4   6   4   49.48    2.13
  -4   6   4   45.64    2.20
   4  -6  -4   50.53    2.15
  -4  -6   4   49.87    2.17
  -4  -6   4   51.95    2.35
  -4  -6   4   48.45    2.21
  -4   6   3  141.45    6.05
  -4   6   3  152.63    6.08
  -4   6   3  143.56    6.06
  -4  -6   3  143.30    6.05
  -4  -6   3  141.92    6.18
  -4  -6   3  145.42    6.18
  -4  -6   3  144.35    6.07
  -4   6   2   28.60    1.27
  -4   6   2   27.70    1.33
   4   6  -2   27.31    1.52
  -4  -6   2   26.33    1.33
  -4  -6   2   29.15    1.30
  -4  -6   2   28.83    1.51
   4   6  -1    3.44    0.34
   4   6  -1    3.79    0.30
  -4   6   1    3.00    0.40
   4   6  -1    3.00    0.51
  -4   6   1    2.54    0.35
   4  -6  -1    4.07    0.30
  -4  -6   1    3.55    0.50
   4  -6  -1    3.17    0.28
  -4  -6   1    3.95    0.41
  -4  -6   1    3.30    0.37
  -4   6   0  112.48    4.71
  -4   6   0  112.76    4.69
   4   6   0  107.90    4.84
   4   6   0  110.65    4.65
   4   6   0  115.70    4.70
  -4  -6   0  110.92    4.71
   4  -6   0  106.28    4.68
   4  -6   0  114.13    4.65
  -4  -6   0  110.50    4.68
  -4   6  -1  154.90    6.45
  -4   6  -1  152.05    6.37
  -4   6  -1  159.98    6.47
   4   6   1  155.36    6.43
   4   6   1  156.69    6.60
   4   6   1  146.58    6.46
   4  -6   1  149.89    6.46
   4  -6   1  159.05    6.43
  -4  -6  -1  160.73    6.46
  -4  -6  -1  149.72    6.46
   4  -6   1  150.10    6.36
   4   6   2    1.67    0.49
  -4   6  -2    2.18    0.35
  -4   6  -2    3.08    0.37
   4   6   2    2.80    0.36
   4   6   2    3.10    0.36
  -4   6  -2    3.07    0.38
   4  -6   2    3.14    0.32
   4  -6   2    2.75    0.36
  -4  -6  -2    2.21    0.34
   4  -6   2    3.00    0.36
  -4  -6  -2    2.32    0.34
  -4   6  -3   50.46    2.26
   4   6   3   52.80    2.32
  -4   6  -3   56.58    2.35
   4   6   3   46.64    2.29
  -4   6  -3   50.77    2.33
   4  -6   3   53.02    2.28
   4  -6   3   49.52    2.31
  -4  -6  -3   51.73    2.34
   4  -6   3   51.25    2.31
  -4  -6  -3   49.15    2.32
  -4  -6  -3   56.89    2.43
  -4   6  -4   15.52    0.93
  -4   6  -4   14.53    1.02
   4   6   4   15.51    0.98
  -4   6  -4   14.59    1.01
   4   6   4   15.45    1.01
  -4  -6  -4   15.24    1.00
   4  -6   4   15.59    0.99
   4  -6   4   17.11    1.00
  -4  -6  -4   15.94    1.02
   4  -6   4   16.36    0.96
  -4   6  -5    1.78    0.47
  -4   6  -5    1.17    0.50
   4   6   5    1.54    0.48
   4  -6   5    1.81    0.49
   4  -6   5    1.62    0.47
  -4  -6  -5    1.57    0.46
  -4   6  -6   27.48    1.60
  -4   6  -6   28.19    1.56
   4   6   6   27.03    1.60
  -4   6  -6   27.04    1.61
   4   6   6   27.60    1.59
  -4  -6  -6   27.28    1.59
  -4  -6  -6   28.15    1.72
   4  -6   6   27.08    1.57
  -4  -6  -6   28.27    1.60
   4  -6   6   27.97    1.57
   4  -6   6   27.89    1.60
  -4   6  -7   22.40    1.55
   4  -6   7   23.08    1.58
  -4   7   7   16.18    1.08
  -4   7   7   17.23    1.07
  -4   7   7   15.51    1.11
  -4  -7   7   17.09    1.12
  -4  -7   7   18.46    1.09
  -4  -7   7   14.40    1.36
  -4  -7   7   14.57    1.48
  -4   7   6    0.18    0.40
  -4   7   6    0.56    0.37
  -4   7   6    0.64    0.38
  -4  -7   6    0.77    0.57
  -4  -7   6    0.38    0.40
   4  -7  -6    0.74    0.35
  -4  -7   6    1.19    0.65
  -4  -7   6    0.75    0.38
  -4   7   5    4.95    0.59
  -4   7   5    4.47    0.49
  -4   7   5    4.78    0.54
  -4  -7   5    4.43    0.66
   4  -7  -5    5.01    0.55
  -4  -7   5    5.29    0.60
  -4  -7   5    4.80    0.52
  -4  -7   5    6.11    0.95
  -4   7   4   43.33    2.10
  -4   7   4   45.13    2.06
  -4  -7   4   51.33    2.27
   4  -7  -4   47.78    2.00
  -4  -7   4   42.81    2.22
  -4  -7   4   46.21    2.12
  -4  -7   4   46.86    2.07
  -4   7   3    0.26    0.27
  -4   7   3   -0.15    0.24
  -4   7   3   -0.21    0.30
  -4  -7   3    0.12    0.31
  -4  -7   3   -0.01    0.44
  -4  -7   3   -0.09    0.42
  -4  -7   3    0.06    0.28
   4   7  -2   56.69    2.74
   4   7  -2   61.54    2.47
  -4   7   2   57.06    2.50
  -4   7   2   57.47    2.60
   4   7  -2   57.60    2.46
  -4   7   2   57.93    2.57
  -4  -7   2   61.99    2.74
   4  -7  -2   61.06    2.45
  -4  -7   2   61.16    2.58
  -4  -7   2   56.41    2.60
   4   7  -1    4.55    0.38
  -4   7   1    3.87    0.42
   4   7  -1    4.48    0.44
  -4   7   1    3.96    0.48
   4   7  -1    4.03    0.59
  -4  -7   1    3.97    0.58
  -4  -7   1    4.34    0.45
   4  -7  -1    4.21    0.36
   4  -7  -1    4.59    0.40
  -4  -7   1    4.66    0.49
   4   7   0  101.48    4.55
  -4   7   0  108.28    4.57
   4   7   0  107.97    4.50
  -4   7   0  102.34    4.54
   4   7   0  107.83    4.70
   4  -7   0  113.52    4.56
  -4  -7   0  107.92    4.58
  -4  -7   0  107.84    4.55
   4  -7   0  109.09    4.50
  -4   7  -1    9.73    0.72
   4   7   1    8.14    0.92
   4   7   1   10.58    0.64
   4   7   1   10.26    0.73
  -4   7  -1    8.80    0.68
  -4  -7  -1    9.18    0.69
   4  -7   1    9.18    0.63
  -4  -7  -1    9.54    0.71
   4  -7   1    8.81    0.71
  -4   7  -2  194.19    7.69
  -4   7  -2  169.49    7.76
  -4   7  -2  203.57    7.80
   4   7   2  186.55    7.75
   4   7   2  178.35    7.89
   4   7   2  185.79    7.77
   4  -7   2  190.43    7.70
   4  -7   2  177.12    7.76
  -4  -7  -2  174.12    7.77
  -4  -7  -2  192.74    7.77
   4  -7   2  186.67    7.75
  -4   7  -3   26.26    1.34
  -4   7  -3   25.98    1.36
   4   7   3   26.60    1.34
   4   7   3   27.83    1.56
   4   7   3   24.70    1.31
  -4   7  -3   25.40    1.23
   4  -7   3   23.54    1.31
   4  -7   3   25.98    1.25
  -4  -7  -3   25.60    1.34
  -4  -7  -3   26.18    1.35
   4  -7   3   24.24    1.32
   4   7   4   33.02    1.63
  -4   7  -4   32.73    1.54
  -4   7  -4   30.90    1.62
  -4   7  -4   30.38    1.61
   4   7   4   29.82    1.57
   4  -7   4   32.29    1.60
  -4  -7  -4   32.96    1.62
   4  -7   4   31.74    1.60
   4  -7   4   31.72    1.56
   4   7   5   22.46    1.32
  -4   7  -5   22.02    1.24
   4   7   5   21.53    1.30
  -4   7  -5   19.03    1.30
   4  -7   5   20.64    1.26
  -4  -7  -5   22.36    1.32
   4  -7   5   20.06    1.28
   4  -7   5   21.73    1.30
  -4   7  -6   20.17    1.38
  -4   7  -6   17.90    1.28
  -4   7  -6   20.82    1.38
   4   7   6   20.78    1.37
   4   7   6   19.56    1.36
   4  -7   6   20.35    1.36
  -4  -7  -6   18.91    1.37
  -4  -7  -6   17.54    1.52
   4  -7   6   16.72    1.31
   4  -7   6   19.79    1.34
  -4  -7  -6   20.69    1.40
  -4   8   6    1.76    0.49
  -4   8   6    1.40    0.44
  -4  -8   6    1.94    0.68
  -4  -8   6    1.37    0.48
  -4  -8   6    2.68    0.75
  -4  -8   6    1.41    0.43
  -4   8   5   44.15    2.22
  -4   8   5   50.18    2.20
  -4  -8   5   49.87    2.41
  -4  -8   5   47.66    2.41
  -4  -8   5   49.30    2.26
  -4  -8   5   46.97    2.19
  -4   8   4   21.34    1.20
  -4   8   4   21.76    1.14
  -4  -8   4   20.76    1.15
   4  -8  -4   23.11    1.01
  -4  -8   4   18.45    1.35
  -4  -8   4   21.65    1.21
  -4   8   3   51.46    2.26
  -4   8   3   49.11    2.33
  -4   8   3   53.05    2.36
  -4  -8   3   50.14    2.34
  -4  -8   3   56.14    2.37
  -4  -8   3   52.10    2.49
  -4  -8   3   52.11    2.49
  -4   8   2   45.75    2.12
   4   8  -2   47.20    2.28
   4   8  -2   46.40    1.98
  -4   8   2   44.10    2.09
   4   8  -2   49.30    1.99
  -4   8   2   45.21    1.96
   4  -8  -2   46.29    1.97
  -4  -8   2   46.28    2.13
   4  -8  -2   45.41    1.97
  -4  -8   2   46.77    2.10
  -4  -8   2   45.53    2.25
   4   8  -1    7.56    0.51
   4   8  -1    6.77    0.58
  -4   8   1    7.05    0.68
   4   8  -1    6.86    0.90
  -4  -8   1    6.54    0.62
   4  -8  -1    6.85    0.54
  -4  -8   1    7.08    0.90
   4  -8  -1    7.30    0.49
  -4  -8   1    7.09    0.69
   4   8   0   12.69    1.03
   4   8   0   12.46    0.81
  -4   8   0   11.69    0.83
  -4   8   0   12.05    0.77
   4   8   0   11.88    0.70
  -4  -8   0   11.68    0.77
  -4  -8   0   10.35    0.83
   4  -8   0   10.87    0.79
   4  -8   0   11.88    0.69
   4   8   1   99.91    4.30
   4   8   1  103.95    4.26
  -4   8  -1   87.85    4.29
  -4   8  -1   98.09    4.28
   4   8   1  103.30    4.43
  -4  -8  -1  107.62    4.32
   4  -8   1  108.82    4.26
  -4  -8  -1   94.81    4.28
   4  -8   1   96.78    4.30
   4   8   2    0.96    0.38
  -4   8  -2    0.38    0.34
  -4   8  -2    0.32    0.39
   4   8   2    0.54    0.54
  -4   8  -2    0.61    0.24
   4   8   2    1.03    0.34
   4  -8   2    0.80    0.34
   4  -8   2    1.32    0.28
  -4  -8  -2    1.28    0.38
   4  -8   2    0.81    0.19
   4  -8   2    1.05    0.35
  -4  -8  -2    0.95    0.38
   4   8   3   69.80    3.02
   4   8   3   70.09    3.18
  -4   8  -3   69.81    3.04
   4   8   3   66.82    2.99
  -4   8  -3   65.97    3.01
  -4   8  -3   67.96    2.91
   4  -8   3   65.61    2.92
   4  -8   3   67.73    3.01
  -4  -8  -3   66.72    3.03
   4  -8   3   68.30    3.00
  -4  -8  -3   65.24    3.01
  -4   8  -4    9.39    0.77
   4   8   4    9.36    0.92
  -4   8  -4    9.76    0.95
  -4   8  -4    8.80    0.86
   4  -8   4   10.58    0.91
  -4  -8  -4   10.92    0.93
   4  -8   4    9.92    0.82
  -4   8  -5    3.05    0.53
   4   8   5    2.73    0.57
  -4   8  -5    2.58    0.58
   4   8   5    3.28    0.58
  -4   8  -5    3.79    0.64
  -4  -8  -5    3.72    0.83
   4  -8   5    2.69    0.56
  -4  -8  -5    4.04    0.65
   4  -8   5    2.82    0.54
  -4  -8  -5    2.33    0.55
   4  -8   5    2.17    0.53
   4   8   6    0.15    0.60
  -4   8  -6   -0.45    0.61
  -4   8  -6    0.06    0.57
   4   8   6    0.61    0.56
  -4   8  -6   -0.53    0.53
   4  -8   6   -0.01    0.56
   4  -8   6   -0.74    0.56
   4  -8   6    0.03    0.58
  -4  -8  -6   -0.11    0.61
  -4  -8  -6   -0.87    0.56
  -4  -8  -6   -0.51    0.79
  -4   9   6    4.44    0.63
  -4   9   6    5.01    0.60
  -4  -9   6    6.16    0.92
  -4  -9   6    5.12    0.86
  -4  -9   6    5.18    0.59
  -4  -9   6    4.44    0.63
  -4   9   5    8.28    0.90
  -4   9   5    9.87    0.84
  -4  -9   5    8.16    0.92
  -4  -9   5   10.67    0.85
  -4  -9   5    9.16    1.14
  -4  -9   5    7.85    0.90
  -4   9   4  130.67    5.59
  -4   9   4  123.00    5.61
  -4  -9   4  136.54    5.60
  -4  -9   4  133.98    5.63
  -4  -9   4  132.47    5.73
   4   9  -3   13.87    0.70
  -4   9   3   13.49    0.74
   4   9  -3   13.62    0.70
  -4   9   3   11.78    0.92
  -4   9   3   14.10    0.93
  -4  -9   3   13.13    1.14
   4  -9  -3   13.80    0.66
  -4  -9   3   12.63    0.94
  -4  -9   3   12.66    1.08
   4  -9  -3   14.65    0.67
   4   9  -2   50.78    2.19
   4   9  -2   51.99    2.48
  -4   9   2   52.24    2.32
  -4   9   2   50.68    2.32
   4   9  -2   53.64    2.21
  -4  -9   2   49.01    2.31
  -4  -9   2   44.81    2.44
   4  -9  -2   50.55    2.19
   4  -9  -2   51.68    2.18
  -4  -9   2   50.31    2.34
  -4   9   1   65.67    2.81
   4   9  -1   68.27    2.96
   4   9  -1   61.68    2.72
   4   9  -1   56.44    2.75
  -4   9   1   66.83    2.84
  -4  -9   1   67.39    2.98
  -4  -9   1   62.08    2.83
   4  -9  -1   64.94    2.75
   4  -9  -1   65.33    2.72
  -4  -9   1   53.57    2.78
   4   9   0   32.32    1.70
   4   9   0   34.55    1.53
  -4   9   0   30.27    1.56
   4   9   0   30.38    1.45
  -4   9   0   27.48    1.49
  -4  -9   0   25.66    1.54
  -4  -9   0   30.95    1.51
   4  -9   0   32.54    1.52
   4  -9   0   31.75    1.44
   4   9   1   11.79    0.81
   4   9   1   11.53    1.07
   4   9   1   11.94    0.91
  -4   9  -1   11.66    0.91
  -4   9  -1   10.44    0.85
   4  -9   1   13.53    0.90
   4  -9   1   12.54    0.60
  -4  -9  -1   12.18    0.86
   4  -9   1   13.03    0.81
  -4  -9  -1   12.26    0.93
   4   9   2  118.10    5.08
   4   9   2  111.86    5.19
  -4   9  -2  128.71    5.12
  -4   9  -2  126.33    5.09
   4   9   2  121.40    5.05
   4  -9   2  118.42    4.96
  -4  -9  -2  112.53    5.07
  -4  -9  -2  125.44    5.11
   4  -9   2  108.62    5.03
   4  -9   2  113.85    5.08
  -4   9  -3    0.03    0.44
   4   9   3    0.72    0.40
  -4   9  -3    0.01    0.31
   4   9   3    0.82    0.42
   4   9   3    0.31    0.53
  -4   9  -3    0.58    0.46
   4  -9   3    0.67    0.42
   4  -9   3    0.16    0.33
  -4  -9  -3    0.30    0.48
   4  -9   3    0.53    0.43
  -4  -9  -3    0.51    0.39
  -4   9  -4    5.11    0.53
   4   9   4    5.48    0.81
  -4   9  -4    4.38    0.57
   4   9   4    5.28    0.64
   4   9   4    4.26    0.58
  -4   9  -4    5.57    0.68
   4  -9   4    5.87    0.74
  -4  -9  -4    4.73    0.62
  -4  -9  -4    5.34    0.84
  -4  -9  -4    4.47    0.61
   4  -9   4    5.60    0.57
   4  -9   4    4.69    0.58
  -4   9  -5    7.89    0.86
   4   9   5    9.21    1.04
  -4   9  -5    8.26    0.82
  -4   9  -5    9.25    1.03
   4   9   5    6.43    0.74
   4  -9   5    6.64    0.74
  -4  -9  -5    6.86    0.77
   4  -9   5    8.10    1.03
  -4  -9  -5   11.07    1.07
  -4  -9  -5    9.00    1.07
   4  -9   5    7.26    0.91
   4   9   6   22.57    1.54
  -4   9  -6   23.06    1.45
   4  -9   6   23.35    1.51
   4  -9   6   23.03    1.54
  -4  10   6   -0.28    0.56
  -4  10   6   -0.23    0.52
   4 -10  -6   -0.44    0.29
  -4 -10   6    0.26    0.56
  -4 -10   6    0.41    0.66
  -4 -10   6    0.65    0.49
  -4  10   5   36.53    1.96
  -4  10   5   41.41    1.95
  -4 -10   5   39.14    2.14
  -4 -10   5   36.95    1.98
  -4 -10   5   40.21    1.93
  -4 -10   5   37.72    2.16
   4  10  -4    0.49    0.22
  -4  10   4    0.19    0.46
  -4  10   4    0.63    0.43
  -4 -10   4   -0.62    0.57
  -4 -10   4    0.86    0.45
  -4 -10   4    1.13    0.63
  -4 -10   4    0.41    0.43
  -4  10   3  144.70    6.24
  -4  10   3  144.56    6.08
  -4  10   3  157.89    6.25
   4  10  -3  142.72    6.10
   4  10  -3  146.33    6.10
  -4 -10   3  147.05    6.25
   4 -10  -3  149.84    6.09
   4 -10  -3  145.23    6.09
  -4 -10   3  139.08    6.34
   4  10  -2    7.98    0.61
  -4  10   2    7.33    0.80
  -4  10   2    7.65    0.80
   4  10  -2    7.90    1.00
   4  10  -2    7.76    0.66
  -4 -10   2    7.35    0.82
   4 -10  -2    7.94    0.58
   4 -10  -2    8.06    0.60
  -4 -10   2    8.03    0.83
  -4 -10   2    7.71    0.81
  -4  10   1    0.18    0.40
   4  10  -1   -0.62    0.50
   4  10  -1   -0.17    0.34
  -4  10   1   -0.22    0.35
   4  10  -1   -0.05    0.30
  -4 -10   1    0.48    0.42
  -4 -10   1   -0.02    0.36
   4 -10  -1   -0.39    0.32
  -4 -10   1   -0.17    0.54
   4 -10  -1   -0.02    0.28
  -4  10   0   31.14    1.56
   4  10   0   30.34    1.50
   4  10   0   29.08    1.67
   4  10   0   28.42    1.43
   4 -10   0   30.32    1.50
  -4 -10   0   27.84    1.55
  -4 -10   0   28.87    1.50
   4 -10   0   28.19    1.42
   4  10   1   94.05    4.08
   4  10   1   90.71    3.97
   4  10   1   91.14    3.92
  -4  10  -1   87.72    3.95
  -4  10  -1   88.75    3.99
  -4 -10  -1   90.96    3.95
  -4 -10  -1   88.76    4.00
   4 -10   1   92.14    3.97
   4 -10   1   92.40    3.91
  -4  10  -2   16.76    1.08
  -4  10  -2   15.12    1.14
   4  10   2   15.30    1.26
   4  10   2   14.45    1.08
   4  10   2   15.96    1.04
   4 -10   2   16.72    1.04
  -4 -10  -2   14.79    1.05
  -4 -10  -2   16.69    1.14
   4 -10   2   15.73    0.83
   4 -10   2   15.41    1.08
   4  10   3   55.89    2.80
  -4  10  -3   59.67    2.72
  -4  10  -3   57.45    2.67
   4  10   3   61.38    2.69
  -4 -10  -3   60.29    2.72
   4 -10   3   56.93    2.65
  -4 -10  -3   48.15    2.81
  -4 -10  -3   57.52    2.67
   4 -10   3   59.24    2.54
   4  10   4    4.65    0.80
  -4  10  -4    4.47    0.67
  -4  10  -4    6.73    0.72
   4  10   4    4.73    0.62
  -4  10  -4    6.79    0.73
   4  10   4    4.71    0.61
   4 -10   4    4.73    0.63
  -4 -10  -4    4.97    0.87
  -4 -10  -4    3.97    0.69
   4 -10   4    5.96    0.68
  -4 -10  -4    3.82    0.61
   4 -10   4    5.46    0.58
  -4  10  -5   16.46    1.14
  -4  10  -5   15.22    1.34
  -4  10  -5   18.90    1.32
   4  10   5   17.44    1.33
   4  10   5   15.27    1.33
   4 -10   5   17.90    1.30
  -4 -10  -5   14.85    1.34
  -4 -10  -5   13.58    1.56
  -4 -10  -5   15.13    1.28
   4 -10   5   18.45    1.31
   4 -10   5   15.56    1.18
  -4  11   5    1.19    0.53
  -4  11   5   -0.36    0.54
  -4 -11   5   -1.17    0.71
  -4 -11   5    0.51    0.59
   4 -11  -5   -0.41    0.21
  -4 -11   5    0.93    0.53
  -4 -11   5    0.24    0.68
  -4  11   4   99.30    4.38
   4  11  -4  102.96    4.19
  -4  11   4  105.19    4.41
  -4 -11   4  107.46    4.40
   4 -11  -4   84.23    4.16
  -4 -11   4   98.28    4.51
  -4 -11   4   97.49    4.39
  -4 -11   4  104.43    4.52
   4  11  -3    1.69    0.33
   4  11  -3    1.57    0.37
  -4  11   3    0.88    0.49
  -4  11   3    1.56    0.23
  -4  11   3    1.90    0.50
  -4 -11   3    2.79    0.75
  -4 -11   3    2.15    0.62
  -4 -11   3    1.71    0.51
   4 -11  -3    1.72    0.31
  -4  11   2   23.80    1.35
   4  11  -2   24.66    1.24
   4  11  -2   23.60    1.19
  -4  11   2   22.99    1.35
   4  11  -2   26.30    1.53
   4 -11  -2   23.60    1.16
  -4 -11   2   21.54    1.35
   4 -11  -2   20.43    1.19
  -4 -11   2   23.10    1.37
  -4  11   1    2.97    0.51
  -4  11   1    3.41    0.51
   4  11  -1    2.54    0.46
   4  11  -1    2.84    0.42
   4  11  -1    2.89    0.64
  -4 -11   1    3.56    0.57
   4 -11  -1    3.05    0.41
  -4 -11   1    3.16    0.53
   4 -11  -1    3.39    0.47
  -4  11   0   31.99    1.71
  -4  11   0   33.88    1.69
   4  11   0   31.58    1.60
   4  11   0   35.24    1.67
   4  11   0   33.23    1.81
  -4 -11   0   30.12    1.66
   4 -11   0   31.95    1.59
  -4 -11   0   31.12    1.72
   4 -11   0   33.69    1.65
   4  11   1   -0.44    0.39
   4  11   1    0.64    0.56
   4  11   1   -0.30    0.41
  -4  11  -1   -0.64    0.47
   4 -11   1    0.56    0.45
  -4 -11  -1   -0.10    0.50
   4 -11   1    0.67    0.40
  -4 -11  -1    0.34    0.45
   4  11   2   88.67    4.07
  -4  11  -2   88.66    3.97
  -4  11  -2   92.30    4.02
   4  11   2   88.16    3.98
  -4 -11  -2   86.22    4.01
   4 -11   2   88.86    3.93
  -4 -11  -2   93.67    3.98
   4 -11   2   91.43    3.79
  -4  11  -3    3.97    0.68
   4  11   3    3.42    0.69
   4  11   3    4.24    0.61
   4  11   3    4.06    0.63
  -4  11  -3    4.30    0.63
   4 -11   3    4.59    0.49
  -4 -11  -3    2.37    0.81
   4 -11   3    4.75    0.62
  -4 -11  -3    3.88    0.64
   4 -11   3    2.98    0.56
  -4 -11  -3    3.94    0.59
   4  11   4    5.83    0.73
   4  11   4    5.20    0.83
   4  11   4    3.90    0.69
  -4  11  -4    6.23    0.80
  -4  11  -4    4.98    0.71
   4 -11   4    4.90    0.59
  -4 -11  -4    3.70    0.65
   4 -11   4    5.48    0.71
   4 -11   4    3.47    0.67
  -4 -11  -4    4.51    0.99
  -4 -11  -4    4.27    0.72
   4  11   5   12.01    1.56
   4  11   5   17.66    1.40
   4  11   5   16.66    1.40
  -4  11  -5   16.46    1.15
   4 -11   5   14.12    1.22
   4 -11   5   18.07    1.40
   4 -11   5   17.31    1.31
   4  12  -4   -0.52    0.22
  -4  12   4   -0.11    0.56
  -4  12   4    0.99    0.54
   4  12  -4    0.14    0.34
  -4 -12   4    1.01    0.55
  -4 -12   4    0.03    0.75
  -4 -12   4   -0.23    0.64
   4 -12  -4   -0.22    0.20
   4 -12  -4    0.56    0.26
  -4 -12   4    0.49    0.54
  -4  12   3   58.35    2.74
   4  12  -3   58.00    2.59
  -4  12   3   59.09    2.74
  -4 -12   3   59.39    2.75
   4 -12  -3   58.63    2.55
  -4 -12   3   60.07    2.74
  -4 -12   3   52.99    2.85
  -4 -12   3   57.69    2.87
   4  12  -2    8.79    0.86
  -4  12   2    9.70    0.97
   4  12  -2    9.40    0.92
   4  12  -2    8.46    0.77
  -4  12   2    9.94    0.98
  -4 -12   2   10.37    1.12
  -4 -12   2    9.87    1.00
  -4 -12   2    8.78    0.98
  -4 -12   2   10.36    0.99
   4 -12  -2    8.78    0.74
   4 -12  -2    8.00    0.79
  -4  12   1    3.19    0.58
   4  12  -1    2.71    0.64
   4  12  -1    3.03    0.51
   4  12  -1    3.13    0.48
  -4  12   1    3.13    0.56
  -4 -12   1    2.88    0.57
   4 -12  -1    3.27    0.46
  -4 -12   1    3.82    0.58
   4 -12  -1    2.96    0.50
   4  12   0    0.29    0.43
  -4  12   0    0.49    0.47
   4  12   0    0.75    0.47
   4  12   0   -0.59    0.56
  -4  12   0    0.96    0.53
   4 -12   0    0.03    0.41
  -4 -12   0    0.70    0.51
  -4 -12   0    0.06    0.49
   4 -12   0    0.19    0.44
  -4  12  -1  119.55    5.41
   4  12   1  127.54    5.47
   4  12   1  127.71    5.37
  -4  12  -1  116.51    5.38
   4 -12   1  125.47    5.37
  -4 -12  -1  125.36    5.39
  -4 -12  -1  124.83    5.44
   4 -12   1  127.89    5.34
   4  12   2    0.98    0.62
  -4  12  -2    1.35    0.57
   4  12   2   -0.33    0.62
   4  12   2    0.31    0.50
  -4 -12  -2   -0.18    0.56
   4 -12   2    0.36    0.30
   4 -12   2    0.00    0.47
  -4 -12  -2    1.06    0.54
  -4  12  -3   37.91    2.07
  -4  12  -3   40.05    2.00
   4  12   3   37.76    1.98
   4  12   3   39.59    2.13
   4  12   3   37.76    2.02
   4 -12   3   36.41    1.76
  -4 -12  -3   37.59    2.10
   4 -12   3   37.69    1.97
  -4 -12  -3   29.31    2.19
   4 -12   3   38.47    2.00
  -4 -12  -3   37.94    2.00
   4  12   4   11.04    1.22
  -4  12  -4    9.11    1.17
   4  12   4    9.33    1.05
   4  12   4    9.65    1.19
  -4  12  -4    9.49    1.21
  -4 -12  -4    9.86    1.14
   4 -12   4    9.42    1.13
   4 -12   4    9.12    0.94
  -4 -12  -4    8.27    1.15
  -4 -12  -4    7.38    0.91
   4 -12   4    9.41    1.15
  -4  13   4   49.55    2.50
  -4  13   4   50.31    2.55
   4  13  -4   49.77    2.29
  -4 -13   4   55.09    2.54
  -4 -13   4   49.19    2.68
  -4 -13   4   49.11    2.53
   4  13  -3    0.35    0.47
  -4  13   3    1.32    0.56
  -4  13   3    0.70    0.60
  -4 -13   3    1.21    0.56
  -4 -13   3    0.54    0.69
  -4 -13   3    0.87    0.55
  -4 -13   3    0.98    0.70
   4 -13  -3    0.91    0.40
  -4  13   2   36.55    1.92
   4  13  -2   36.79    1.78
  -4  13   2   37.03    1.92
   4  13  -2   30.91    1.81
  -4 -13   2   38.61    1.95
   4 -13  -2   35.94    1.75
  -4 -13   2   38.66    2.12
  -4 -13   2   39.44    2.04
   4 -13  -2   34.99    1.79
   4  13  -1   25.71    1.40
   4  13  -1   23.45    1.59
  -4  13   1   23.70    1.46
  -4  13   1   25.44    1.48
   4  13  -1   22.67    1.33
  -4 -13   1   23.19    1.46
   4 -13  -1   21.99    1.36
  -4 -13   1   23.13    1.48
   4 -13  -1   22.47    1.31
  -4  13   0   24.65    1.51
   4  13   0   24.07    1.58
  -4  13   0   25.48    1.55
   4  13   0   28.04    1.46
  -4 -13   0   23.32    1.53
   4 -13   0   22.59    1.40
   4 -13   0   25.05    1.40
  -4 -13   0   23.55    1.57
   4  13   1    6.87    0.83
  -4  13  -1    9.03    0.86
   4  13   1    6.81    0.81
  -4  13  -1    8.25    0.85
   4  13   1   10.17    1.00
  -4 -13  -1    8.12    1.07
   4 -13   1    9.49    0.96
  -4 -13  -1    6.61    0.84
  -4  13  -2   80.26    3.85
   4  13   2   82.98    3.81
   4  13   2   88.22    3.93
  -4  13  -2   84.78    3.89
   4  13   2   85.20    3.83
   4 -13   2   82.95    3.60
   4 -13   2   88.22    3.81
   4 -13   2   86.74    3.84
  -4 -13  -2   83.93    3.84
  -4 -13  -2   84.28    3.91
   4  13   3    0.42    0.62
  -4  13  -3    0.88    0.66
   4  13   3    1.58    0.67
   4  13   3   -0.09    0.67
   4 -13   3    1.36    0.46
   4 -13   3    1.30    0.63
  -4 -13  -3    0.06    0.73
  -4 -13  -3    1.20    0.58
   4 -13   3    1.14    0.63
  -4 -13  -3    1.65    0.89
  -4  14   2    3.88    0.73
   4  14  -2    3.81    0.63
   4  14  -2    4.19    0.57
  -4  14   2    4.41    0.66
   4 -14  -2    3.41    0.54
  -4 -14   2    4.33    0.80
  -4 -14   2    2.23    0.68
   4  14  -1   -0.69    0.62
   4  14  -1    0.15    0.52
  -4  14   1    0.33    0.57
  -4  14   1    0.19    0.58
   4 -14  -1   -0.78    0.42
  -4 -14   1   -0.06    0.61
   4 -14  -1   -0.21    0.45
  -4 -14   1   -0.01    0.59
   4  14   0    9.21    1.20
   4  14   0    9.53    1.05
  -4  14   0   14.13    1.20
  -4  14   0   12.36    1.20
   4  14   0   12.58    1.11
   4 -14   0    9.31    1.03
  -4 -14   0   10.06    1.21
  -4 -14   0    8.12    0.92
   4 -14   0   10.77    1.23
   4  14   1   41.97    2.19
  -4  14  -1   39.99    2.16
   4  14   1   37.65    2.07
  -4  14  -1   39.79    2.16
   4  14   1   44.26    2.08
  -4 -14  -1   35.52    2.19
   4 -14   1   37.37    2.04
   4 -14   1   39.85    2.07
  -4 -14  -1   39.72    2.14
   4  14   2   10.08    1.16
  -4  14  -2    6.67    1.00
   4  14   2    7.04    0.90
   4  14   2    8.94    1.16
  -4 -14  -2    4.64    1.13
   4 -14   2    8.12    0.86
   4 -14   2    9.22    1.12
  -5   0   7   -0.28    0.29
  -5   0   7   -0.90    0.48
  -5   0   7    0.07    0.30
  -5   0   7   -1.25    0.58
  -5   0   6    2.17    0.27
  -5   0   6    1.88    0.28
  -5   0   6    2.26    0.48
  -5   0   6    2.18    0.59
  -5   0   5    0.50    0.36
  -5   0   5    0.35    0.43
  -5   0   5   -0.16    0.16
  -5   0   4   68.01    3.08
  -5   0   4   69.37    2.98
  -5   0   3    0.08    0.33
  -5   0   3    0.12    0.26
  -5   0   2   17.02    0.89
  -5   0   2   16.98    1.03
  -5   0   1    0.12    0.13
  -5   0   1   -0.09    0.32
   5   0  -1    0.41    0.29
  -5   0   1   -0.13    0.12
   5   0   0   55.14    2.47
  -5   0   0   53.55    2.32
  -5   0   0   54.97    2.32
   5   0   1    0.10    0.16
  -5   0  -1   -0.01    0.21
  -5   0  -1    0.22    0.27
  -5   0  -1   -0.32    0.20
   5   0   1   -0.16    0.35
   5   0   1    0.00    0.16
   5   0   2  225.85    9.07
   5   0   2  214.56    9.06
  -5   0  -2  220.43    9.10
   5   0   2  211.97    9.21
  -5   0  -2  220.04    9.10
  -5   0  -2  218.84    9.10
   5   0   3    0.37    0.27
  -5   0  -3   -0.50    0.33
   5   0   3    0.01    0.26
  -5   0  -3   -0.08    0.31
  -5   0  -3    0.26    0.31
  -5   0  -4    0.49    0.37
   5   0   4    1.11    0.34
  -5   0  -4    0.53    0.41
  -5   0  -4    0.75    0.39
   5   0   4    0.82    0.36
  -5   0  -5   -0.76    0.39
  -5   0  -5    0.26    0.40
   5   0   5   -0.02    0.41
  -5   0  -5   -0.04    0.49
   5   0   6   33.52    1.86
  -5   0  -6   38.19    1.91
  -5   0  -6   37.70    1.90
   5   0   6   35.91    1.84
  -5   0  -6   34.67    1.91
   5   0   7   -0.15    0.63
  -5   0  -7   -0.16    0.69
   5   0   7   -1.12    0.58
  -5   1   7    0.00    0.48
  -5   1   7   -0.30    0.30
  -5   1   7    0.30    0.29
  -5   1   7   -0.06    0.55
  -5  -1   7    0.29    0.30
  -5  -1   7   -0.14    0.57
  -5  -1   7    0.46    0.53
  -5  -1   7    0.26    0.31
  -5   1   6    0.92    0.25
  -5   1   6    1.39    0.43
  -5   1   6    1.07    0.25
  -5   1   6    0.71    0.48
  -5  -1   6    1.21    0.52
  -5  -1   6    0.97    0.24
  -5  -1   6    1.71    0.48
  -5  -1   6    0.66    0.25
  -5   1   5  179.37    7.21
  -5   1   5  179.24    7.32
  -5   1   5  173.47    7.40
  -5   1   5  177.02    7.21
  -5  -1   5  164.46    7.33
  -5  -1   5  165.26    7.21
  -5  -1   5  173.69    7.42
  -5  -1   5  181.95    7.21
  -5   1   4    1.56    0.40
  -5   1   4    1.47    0.31
  -5  -1   4    1.76    0.37
  -5  -1   4    1.81    0.45
  -5   1   3  181.85    7.70
  -5   1   3  185.13    7.80
  -5  -1   3  185.38    7.74
  -5  -1   3  188.37    7.83
  -5   1   2    3.98    0.45
  -5   1   2    3.82    0.40
  -5  -1   2    3.73    0.49
  -5  -1   2    3.83    0.50
   5   1  -1    0.28    0.32
  -5   1   1    0.04    0.32
  -5   1   1    0.13    0.13
  -5   1   1    0.24    0.13
  -5  -1   1    0.15    0.13
   5  -1  -1    0.19    0.27
  -5  -1   1    0.26    0.13
  -5  -1   1    0.15    0.36
  -5   1   0    9.61    0.54
   5   1   0    9.25    0.82
  -5   1   0    9.61    0.53
   5  -1   0   10.63    0.74
  -5  -1   0    9.84    0.54
  -5  -1   0    9.55    0.54
  -5   1  -1  160.70    6.52
  -5   1  -1  156.52    6.51
   5   1   1  155.24    6.47
   5   1   1  161.64    6.48
  -5   1  -1  158.98    6.51
   5   1   1  140.67    6.64
  -5  -1  -1  154.11    6.51
   5  -1   1  159.70    6.47
  -5  -1  -1  164.42    6.52
   5  -1   1  156.36    6.48
   5  -1   1  149.98    6.62
  -5   1  -2    0.44    0.26
   5   1   2    0.53    0.23
  -5   1  -2   -0.01    0.26
  -5   1  -2    0.39    0.28
   5   1   2    0.36    0.42
   5   1   2    0.41    0.22
   5  -1   2    0.34    0.40
  -5  -1  -2    0.28    0.26
  -5  -1  -2    0.80    0.28
   5  -1   2    0.42    0.22
  -5  -1  -2   -0.02    0.30
   5  -1   2    0.34    0.23
  -5   1  -3   90.49    4.06
   5   1   3   93.89    4.04
   5   1   3   92.71    4.03
  -5   1  -3   95.65    4.06
  -5   1  -3  104.43    4.08
  -5  -1  -3   95.77    4.07
   5  -1   3   99.13    4.04
  -5  -1  -3   93.27    4.07
  -5  -1  -3   88.00    4.06
   5  -1   3   96.71    4.04
   5   1   4   26.73    1.36
  -5   1  -4   26.99    1.41
   5   1   4   28.98    1.39
  -5   1  -4   27.19    1.40
  -5   1  -4   25.83    1.40
   5  -1   4   27.55    1.38
  -5  -1  -4   25.04    1.41
  -5  -1  -4   27.31    1.41
  -5  -1  -4   27.72    1.41
   5  -1   4   28.12    1.37
  -5   1  -5    6.44    0.84
  -5   1  -5    7.28    0.90
  -5   1  -5    8.72    0.87
   5   1   5    7.34    0.83
  -5  -1  -5    8.86    0.87
  -5  -1  -5    7.45    0.86
   5  -1   5    6.71    0.81
  -5  -1  -5    7.39    0.90
  -5   1  -6    0.76    0.60
  -5   1  -6   -0.18    0.51
   5   1   6    1.40    0.46
   5   1   6   -0.09    0.51
  -5   1  -6   -0.67    0.50
   5  -1   6    0.16    0.49
   5  -1   6   -0.21    0.51
  -5  -1  -6    0.61    0.55
  -5  -1  -6   -0.47    0.53
  -5  -1  -6   -0.05    0.53
  -5   1  -7   32.61    2.07
   5   1   7   36.98    2.03
   5   1   7   41.17    2.35
  -5  -1  -7   39.50    2.38
   5  -1   7   42.42    2.32
   5  -1   7   36.90    2.03
  -5   2   7    6.77    0.61
  -5   2   7    6.05    0.61
  -5   2   7    5.54    0.63
  -5   2   7    6.06    0.77
  -5  -2   7    7.25    0.62
  -5  -2   7    6.56    0.61
  -5  -2   7    6.54    0.73
  -5  -2   7    5.61    0.77
  -5   2   6   11.37    0.85
  -5   2   6   10.87    0.64
  -5   2   6   10.86    1.03
  -5   2   6    9.49    0.63
  -5  -2   6   11.50    0.64
  -5  -2   6   10.32    0.64
  -5  -2   6   11.54    1.10
  -5  -2   6   10.83    0.92
  -5   2   5    2.69    0.49
  -5   2   5    2.70    0.31
  -5   2   5    1.91    0.23
  -5   2   5    2.03    0.39
  -5  -2   5    2.07    0.24
  -5  -2   5    2.23    0.53
  -5  -2   5    2.48    0.25
  -5  -2   5    2.87    0.46
  -5   2   4  101.47    4.19
  -5   2   4  103.27    4.27
  -5   2   4   98.89    4.17
  -5   2   4   98.60    4.36
  -5  -2   4  100.64    4.33
  -5  -2   4  102.22    4.41
  -5  -2   4  100.78    4.18
  -5   2   3   23.88    1.10
  -5   2   3   22.95    1.24
  -5  -2   3   22.77    1.30
  -5  -2   3   24.26    1.22
  -5   2   2   34.26    1.68
   5   2  -2   38.69    1.74
  -5   2   2   34.12    1.53
  -5   2   2   35.41    1.48
  -5   2   2   33.65    1.50
  -5  -2   2   35.03    1.76
  -5  -2   2   34.50    1.50
  -5  -2   2   35.57    1.48
  -5   2   1    1.50    0.19
   5   2  -1    2.11    0.44
  -5   2   1    1.47    0.18
  -5   2   1    1.91    0.36
   5  -2  -1    2.06    0.30
  -5  -2   1    1.57    0.18
  -5  -2   1    1.95    0.45
  -5  -2   1    1.63    0.19
  -5   2   0   76.38    3.23
   5   2   0   74.64    3.41
  -5   2   0   76.43    3.23
  -5   2   0   77.02    3.23
  -5  -2   0   76.16    3.23
  -5  -2   0   73.39    3.22
   5  -2   0   82.29    3.31
   5   2   1    0.08    0.17
  -5   2  -1    0.14    0.22
   5   2   1   -0.09    0.40
  -5   2  -1    0.21    0.22
   5   2   1    0.31    0.20
  -5   2  -1   -0.13    0.21
   5  -2   1    0.13    0.17
  -5  -2  -1    0.10    0.21
   5  -2   1   -0.29    0.19
   5  -2   1    0.54    0.31
  -5  -2  -1    0.19    0.22
  -5   2  -2   70.99    2.97
   5   2   2   68.02    3.15
  -5   2  -2   67.52    2.95
  -5   2  -2   66.71    2.96
   5   2   2   70.47    2.93
   5   2   2   69.78    2.94
   5  -2   2   65.77    3.07
   5  -2   2   66.30    2.93
  -5  -2  -2   66.70    2.96
   5  -2   2   68.25    2.93
  -5  -2  -2   71.80    2.97
  -5  -2  -2   72.76    3.01
  -5   2  -3    9.75    0.75
   5   2   3   10.85    0.72
   5   2   3   10.43    0.69
  -5   2  -3   10.67    0.77
  -5   2  -3   11.08    0.73
   5  -2   3   11.30    0.72
  -5  -2  -3    8.91    0.79
   5  -2   3   10.80    0.72
  -5  -2  -3   11.64    0.77
  -5  -2  -3    9.50    0.76
   5   2   4    0.04    0.33
   5   2   4   -0.60    0.34
  -5   2  -4   -0.21    0.35
  -5   2  -4   -0.11    0.38
  -5   2  -4   -0.45    0.36
   5  -2   4   -0.50    0.31
  -5  -2  -4   -0.22    0.33
  -5  -2  -4    0.12    0.36
   5  -2   4   -0.13    0.35
  -5  -2  -4    0.12    0.44
  -5   2  -5   11.17    1.00
  -5   2  -5   12.23    0.99
   5   2   5   12.62    0.96
  -5   2  -5   13.00    0.98
   5  -2   5   11.59    0.96
  -5  -2  -5   12.36    0.99
  -5  -2  -5   11.89    1.05
  -5  -2  -5   11.92    0.99
   5   2   6   38.08    1.99
  -5   2  -6   41.55    2.02
  -5   2  -6   38.47    2.02
   5   2   6   40.66    1.96
  -5   2  -6   42.28    2.03
  -5  -2  -6   36.13    2.04
   5  -2   6   38.30    1.97
  -5  -2  -6   39.22    2.01
  -5  -2  -6   40.31    2.03
   5  -2   6   36.21    1.98
  -5   3   7    9.16    0.88
  -5   3   7    7.30    0.66
  -5   3   7    8.14    0.87
  -5   3   7    8.28    0.66
  -5  -3   7    6.94    0.67
  -5  -3   7    8.66    0.69
  -5  -3   7    8.49    0.85
  -5  -3   7    7.01    0.87
  -5   3   6   21.33    1.06
  -5   3   6   23.16    1.20
  -5   3   6   22.15    1.07
  -5   3   6   22.61    1.40
  -5  -3   6   23.42    1.34
  -5  -3   6   21.12    1.08
  -5  -3   6   21.08    1.47
  -5  -3   6   22.67    1.08
  -5   3   5    7.89    0.64
  -5   3   5    7.65    0.49
  -5   3   5    7.59    0.48
  -5   3   5    7.97    0.85
  -5  -3   5    7.76    0.51
  -5  -3   5    6.75    0.78
  -5  -3   5    7.39    0.48
  -5  -3   5    8.06    0.94
  -5   3   4    4.57    0.51
  -5   3   4    5.35    0.48
  -5   3   4    5.48    0.35
  -5   3   4    4.87    0.40
  -5  -3   4    4.76    0.56
  -5  -3   4    5.68    0.57
  -5  -3   4    5.20    0.36
  -5   3   3   86.40    3.79
  -5   3   3   86.50    3.65
  -5   3   3   91.52    3.69
  -5   3   3   87.60    3.65
  -5  -3   3   87.70    3.81
  -5  -3   3   87.89    3.65
  -5  -3   3   89.23    3.88
  -5  -3   3   84.79    3.65
   5   3  -2    3.91    0.50
  -5   3   2    4.47    0.35
  -5   3   2    4.57    0.58
  -5   3   2    4.79    0.31
  -5   3   2    3.91    0.37
  -5  -3   2    4.20    0.38
  -5  -3   2    4.93    0.32
  -5  -3   2    3.47    0.52
  -5   3   1   20.96    1.10
  -5   3   1   21.91    0.98
   5   3  -1   20.78    1.25
  -5   3   1   21.09    0.96
  -5   3   1   21.37    0.96
  -5  -3   1   19.38    1.26
  -5  -3   1   21.24    0.98
  -5  -3   1   22.02    0.97
   5   3   0   30.94    1.72
  -5   3   0   33.06    1.47
  -5   3   0   34.05    1.44
  -5   3   0   34.61    1.48
  -5  -3   0   31.52    1.47
  -5  -3   0   33.77    1.47
   5  -3   0   33.48    1.51
  -5   3  -1  238.77    9.70
   5   3   1  232.85    9.71
  -5   3  -1  232.85    9.73
   5   3   1  225.22    9.89
   5   3   1  234.17    9.69
  -5   3  -1  236.96    9.73
  -5  -3  -1  242.38    9.73
  -5  -3  -1  231.68    9.73
   5  -3   1  235.87    9.69
   5  -3   1  228.06    9.71
   5  -3   1  241.37    9.78
  -5   3  -2    1.06    0.29
   5   3   2    0.93    0.26
   5   3   2    1.62    0.51
   5   3   2    1.84    0.30
  -5   3  -2    0.98    0.29
  -5   3  -2    2.14    0.30
  -5  -3  -2    1.87    0.43
   5  -3   2    1.44    0.28
   5  -3   2    1.79    0.41
  -5  -3  -2    1.70    0.31
  -5  -3  -2    1.31    0.30
   5  -3   2    1.47    0.28
  -5   3  -3   44.39    2.04
   5   3   3   44.67    2.00
  -5   3  -3   44.91    2.01
   5   3   3   44.80    2.01
  -5   3  -3   45.75    2.05
  -5  -3  -3   40.25    2.07
   5  -3   3   45.17    2.01
  -5  -3  -3   46.99    2.05
   5  -3   3   42.16    2.00
  -5  -3  -3   46.64    2.04
  -5   3  -4    4.68    0.52
   5   3   4    5.42    0.69
   5   3   4    5.50    0.65
  -5   3  -4    6.85    0.72
  -5   3  -4    4.79    0.52
   5  -3   4    5.35    0.52
   5  -3   4    6.39    0.68
  -5  -3  -4    4.83    0.52
  -5  -3  -4    4.28    0.59
  -5  -3  -4    4.36    0.50
  -5   3  -5   12.41    0.99
   5   3   5   10.78    0.96
  -5   3  -5   12.38    1.00
  -5   3  -5   12.86    0.98
   5  -3   5   12.07    0.96
  -5  -3  -5   11.94    1.07
  -5  -3  -5   11.91    1.00
  -5  -3  -5   12.58    1.02
   5   3   6    6.61    0.71
  -5   3  -6    7.73    0.79
   5   3   6    7.63    0.77
  -5   3  -6    7.32    0.77
  -5   3  -6    8.58    1.00
   5  -3   6    7.18    0.93
   5  -3   6    7.83    0.83
   5  -3   6    5.84    0.71
  -5  -3  -6    7.84    1.01
  -5  -3  -6    7.24    0.86
  -5  -3  -6    7.21    0.78
  -5   4   7   14.17    1.01
  -5   4   7   13.04    0.86
  -5   4   7   12.14    0.86
  -5  -4   7   12.65    0.84
  -5  -4   7   14.79    1.19
  -5  -4   7   13.56    0.85
   5  -4  -7   12.84    1.07
  -5  -4   7   11.00    1.29
  -5   4   6   17.20    0.92
  -5   4   6   15.89    0.91
  -5   4   6   18.07    1.23
  -5   4   6   17.87    1.02
  -5  -4   6   16.81    0.92
  -5  -4   6   17.77    1.20
  -5  -4   6   17.39    1.34
  -5  -4   6   18.60    0.92
  -5   4   5   44.32    2.15
  -5   4   5   44.43    1.96
  -5   4   5   42.12    1.99
  -5   4   5   43.06    1.94
  -5  -4   5   44.49    1.97
  -5  -4   5   45.67    2.24
  -5  -4   5   46.99    2.16
  -5  -4   5   47.83    1.95
  -5   4   4  232.52    9.56
  -5   4   4  237.91    9.58
  -5   4   4  233.65    9.68
  -5   4   4  215.28    9.57
  -5  -4   4  237.40    9.56
  -5  -4   4  231.27    9.76
  -5  -4   4  230.44    9.70
  -5   4   3    3.16    0.36
  -5   4   3    3.08    0.40
  -5   4   3    3.10    0.33
  -5  -4   3    2.90    0.36
  -5  -4   3    2.36    0.48
  -5  -4   3    3.67    0.57
  -5  -4   3    3.54    0.36
   5   4  -2   12.51    1.02
  -5   4   2   13.49    0.66
  -5   4   2   13.18    0.81
  -5   4   2   11.91    0.71
  -5   4   2   14.44    0.62
  -5  -4   2   11.45    0.99
  -5  -4   2   13.06    0.71
  -5  -4   2   13.32    0.66
  -5   4   1  115.85    4.68
  -5   4   1  112.37    4.73
  -5   4   1  115.18    4.74
  -5   4   1  113.15    4.68
   5   4  -1  104.25    4.91
  -5   4   1  118.98    4.79
  -5  -4   1  109.85    4.94
  -5  -4   1  116.02    4.73
  -5  -4   1  112.09    4.74
  -5   4   0  114.51    4.64
   5   4   0  107.84    4.83
  -5   4   0  111.72    4.59
   5   4   0  106.84    4.58
  -5   4   0  113.91    4.65
   5   4   0  106.57    4.57
  -5  -4   0  110.24    4.65
   5  -4   0  112.78    4.64
  -5  -4   0  111.88    4.64
   5   4   1    9.75    0.55
  -5   4  -1    9.00    0.62
  -5   4  -1    9.89    0.53
  -5   4  -1    8.83    0.62
   5   4   1    8.97    0.96
   5   4   1    9.58    0.62
   5  -4   1   10.03    0.65
  -5  -4  -1    9.58    0.63
   5  -4   1    9.82    0.61
   5  -4   1    8.94    0.55
  -5  -4  -1    9.49    0.62
   5   4   2  144.44    6.03
  -5   4  -2  144.32    6.02
   5   4   2  142.37    6.24
  -5   4  -2  138.29    6.06
  -5   4  -2  150.77    6.07
   5   4   2  148.25    6.05
   5  -4   2  149.12    6.04
  -5  -4  -2  148.03    6.07
   5  -4   2  144.26    6.10
   5  -4   2  152.34    6.05
  -5  -4  -2  144.26    6.06
  -5  -4  -2  124.34    6.10
   5   4   3   14.80    1.23
  -5   4  -3   16.08    0.96
  -5   4  -3   15.20    0.87
   5   4   3   16.02    0.91
  -5   4  -3   15.23    0.93
   5   4   3   14.48    0.89
   5  -4   3   15.42    0.90
  -5  -4  -3   16.40    1.06
   5  -4   3   15.68    0.90
  -5  -4  -3   14.02    0.93
  -5  -4  -3   15.60    0.94
   5   4   4    7.00    0.77
   5   4   4    7.19    0.73
  -5   4  -4    6.51    0.72
  -5   4  -4    8.56    0.78
  -5   4  -4    7.35    0.79
  -5  -4  -4    8.44    0.90
  -5  -4  -4    8.07    0.79
   5  -4   4    7.39    0.74
  -5  -4  -4    6.94    0.81
   5  -4   4    7.58    0.75
  -5   4  -5   20.04    1.31
  -5   4  -5   21.50    1.30
  -5   4  -5   21.98    1.27
   5   4   5   21.36    1.29
  -5  -4  -5   21.07    1.40
  -5  -4  -5   21.77    1.31
   5  -4   5   21.26    1.28
  -5  -4  -5   22.66    1.31
   5  -4   5   22.58    1.32
  -5   4  -6   34.67    1.91
  -5   4  -6   36.07    1.91
   5   4   6   36.82    1.90
   5   4   6   35.19    1.87
  -5   4  -6   36.27    1.89
  -5  -4  -6   36.01    1.99
   5  -4   6   35.08    1.92
   5  -4   6   36.50    1.89
  -5  -4  -6   34.81    1.93
  -5  -4  -6   36.23    1.90
   5  -4   6   34.84    1.86
  -5   5   7    2.02    0.50
  -5   5   7    1.35    0.39
  -5   5   7    1.11    0.39
  -5  -5   7    1.19    0.41
  -5  -5   7    1.38    0.66
   5  -5  -7    0.76    0.41
  -5  -5   7    1.63    0.40
  -5   5   6   39.74    1.79
  -5   5   6   38.84    1.80
  -5   5   6   39.12    1.83
  -5  -5   6   37.36    2.03
  -5  -5   6   40.14    1.80
  -5  -5   6   39.72    1.81
  -5  -5   6   40.74    2.14
  -5   5   5   35.23    1.77
  -5   5   5   35.54    1.61
  -5   5   5   35.14    1.60
  -5   5   5   34.17    1.58
  -5  -5   5   37.19    1.82
  -5  -5   5   35.37    1.59
  -5  -5   5   33.50    1.62
  -5   5   4    1.53    0.40
  -5   5   4    1.34    0.30
  -5   5   4    1.69    0.27
  -5   5   4    1.91    0.27
  -5  -5   4    1.98    0.53
  -5  -5   4    1.76    0.28
  -5   5   3   21.07    1.03
  -5   5   3   21.69    1.03
  -5   5   3   21.20    1.10
  -5   5   3   20.73    0.94
  -5  -5   3   21.01    1.26
  -5  -5   3   19.74    1.04
  -5  -5   3   23.01    1.33
  -5  -5   3   21.27    1.03
  -5   5   2  195.17    7.92
   5   5  -2  185.88    8.08
  -5   5   2  191.73    7.89
  -5   5   2  190.32    7.93
  -5  -5   2  187.54    7.92
  -5  -5   2  193.58    7.89
  -5  -5   2  185.98    8.09
   5   5  -1    0.34    0.46
  -5   5   1    0.48    0.26
  -5   5   1    0.07    0.21
  -5  -5   1    0.10    0.21
  -5  -5   1    0.17    0.25
  -5  -5   1    0.51    0.48
   5   5   0   31.01    1.41
  -5   5   0   33.23    1.46
  -5   5   0   32.79    1.47
   5   5   0   28.03    1.71
   5   5   0   31.71    1.37
  -5  -5   0   32.12    1.46
   5  -5   0   32.10    1.37
  -5  -5   0   32.86    1.48
   5  -5   0   32.51    1.39
  -5   5  -1   48.13    2.10
   5   5   1   50.07    2.19
  -5   5  -1   47.57    2.18
  -5   5  -1   50.48    2.20
   5   5   1   50.08    2.43
   5   5   1   47.52    2.13
   5  -5   1   49.62    2.19
  -5  -5  -1   52.69    2.20
   5  -5   1   48.14    2.14
  -5  -5  -1   50.66    2.20
   5  -5   1   50.88    2.15
  -5   5  -2    1.87    0.35
   5   5   2    1.34    0.32
  -5   5  -2    1.18    0.32
   5   5   2    1.15    0.28
   5   5   2    1.38    0.58
  -5   5  -2    1.30    0.27
  -5  -5  -2    0.82    0.31
   5  -5   2    1.43    0.29
  -5  -5  -2    1.37    0.36
   5  -5   2    0.81    0.30
   5  -5   2    1.13    0.34
   5   5   3    2.89    0.39
   5   5   3    3.68    0.43
   5   5   3    3.73    0.69
  -5   5  -3    2.66    0.41
  -5   5  -3    3.07    0.42
  -5   5  -3    2.61    0.38
   5  -5   3    3.00    0.42
  -5  -5  -3    2.94    0.40
   5  -5   3    3.36    0.41
  -5  -5  -3    2.75    0.54
  -5  -5  -3    2.87    0.42
  -5   5  -4   41.74    1.96
   5   5   4   41.53    1.95
   5   5   4   40.48    1.93
  -5   5  -4   41.47    1.97
  -5   5  -4   39.23    1.90
  -5  -5  -4   39.97    1.95
  -5  -5  -4   38.41    2.05
  -5  -5  -4   39.48    1.96
   5  -5   4   42.24    1.93
   5  -5   4   44.12    1.95
   5  -5   4   40.35    1.94
  -5   5  -5   12.79    0.98
  -5   5  -5   11.96    1.06
   5   5   5   12.28    1.04
   5   5   5   13.26    1.02
  -5   5  -5   12.30    1.03
  -5  -5  -5   14.00    1.06
   5  -5   5   12.89    1.02
   5  -5   5   13.45    1.03
  -5  -5  -5   13.95    1.09
  -5  -5  -5   12.82    1.20
   5  -5   5   12.31    1.03
   5   5   6    0.59    0.52
  -5   5  -6    1.08    0.56
  -5   5  -6    1.38    0.59
   5   5   6    0.66    0.59
  -5   5  -6    0.13    0.59
  -5  -5  -6    0.23    0.55
   5  -5   6    1.08    0.61
   5  -5   6    0.50    0.54
  -5  -5  -6    0.60    0.71
   5  -5   6    0.42    0.58
  -5  -5  -6    0.89    0.59
  -5   6   6   13.64    0.89
  -5   6   6   14.17    0.92
  -5   6   6   15.98    0.91
  -5  -6   6   16.31    1.37
  -5  -6   6   14.39    0.90
  -5  -6   6   14.87    1.25
  -5  -6   6   15.21    0.95
  -5   6   5   14.33    0.78
  -5   6   5   13.32    1.00
  -5   6   5   14.35    0.82
  -5   6   5   12.10    0.85
  -5  -6   5   14.79    0.82
  -5  -6   5   13.45    0.88
  -5  -6   5   14.25    1.15
  -5   6   4   33.21    1.51
  -5   6   4   35.09    1.62
  -5   6   4   33.70    1.58
  -5   6   4   34.15    1.67
  -5  -6   4   37.52    1.81
  -5  -6   4   34.29    1.59
  -5   6   3   25.88    1.29
  -5   6   3   25.31    1.27
  -5   6   3   27.65    1.27
  -5  -6   3   26.05    1.28
  -5  -6   3   27.32    1.28
  -5  -6   3   25.34    1.49
  -5   6   2   68.85    2.90
  -5   6   2   67.97    2.87
   5   6  -2   66.18    3.11
  -5   6   2   68.16    2.86
  -5  -6   2   66.36    2.87
  -5  -6   2   61.82    3.07
  -5  -6   2   67.46    2.91
  -5   6   1  152.63    6.40
   5   6  -1  141.43    6.56
  -5   6   1  150.86    6.38
  -5  -6   1  159.75    6.61
  -5  -6   1  154.61    6.41
  -5  -6   1  156.29    6.38
   5   6   0    3.37    0.34
   5   6   0    3.68    0.35
  -5   6   0    4.15    0.52
   5   6   0    3.32    0.60
  -5   6   0    3.12    0.35
  -5  -6   0    4.24    0.49
   5  -6   0    3.63    0.33
   5  -6   0    3.12    0.41
  -5  -6   0    4.07    0.53
   5   6   1    3.76    0.62
   5   6   1    4.29    0.44
  -5   6  -1    4.55    0.33
   5   6   1    4.27    0.46
  -5   6  -1    4.69    0.55
  -5   6  -1    4.59    0.45
  -5  -6  -1    4.77    0.56
   5  -6   1    4.59    0.37
   5  -6   1    3.90    0.44
  -5  -6  -1    4.78    0.54
   5  -6   1    4.44    0.45
   5   6   2   85.12    4.01
  -5   6  -2   89.22    3.73
  -5   6  -2   92.11    3.83
  -5   6  -2   84.43    3.82
   5   6   2   91.89    3.81
   5   6   2   90.24    3.78
  -5  -6  -2   89.68    3.82
   5  -6   2   89.69    3.78
   5  -6   2   88.11    3.81
  -5  -6  -2   86.48    3.83
   5  -6   2   88.38    3.77
   5   6   3   58.21    3.03
  -5   6  -3   71.02    3.08
  -5   6  -3   69.96    2.98
   5   6   3   66.50    3.03
   5   6   3   70.20    3.27
  -5   6  -3   69.58    3.07
  -5  -6  -3   71.50    3.07
   5  -6   3   66.34    3.03
   5  -6   3   73.09    3.05
  -5  -6  -3   74.11    3.18
  -5  -6  -3   72.61    3.08
   5   6   4    2.77    0.43
   5   6   4    3.78    0.53
  -5   6  -4    6.20    0.78
  -5   6  -4    4.21    0.57
  -5   6  -4    5.34    0.65
  -5  -6  -4    4.26    0.56
   5  -6   4    4.83    0.53
  -5  -6  -4    5.71    0.60
   5  -6   4    4.25    0.54
  -5  -6  -4    4.64    0.73
   5  -6   4    3.03    0.47
   5   6   5   27.87    1.59
  -5   6  -5   26.49    1.52
  -5   6  -5   30.00    1.63
   5   6   5   28.99    1.58
  -5   6  -5   29.12    1.62
   5  -6   5   30.53    1.57
   5  -6   5   28.82    1.57
  -5  -6  -5   28.81    1.61
  -5  -6  -5   29.31    1.65
  -5  -6  -5   29.94    1.76
   5  -6   5   28.31    1.57
  -5   6  -6    3.40    0.68
  -5   6  -6    2.71    0.64
   5   6   6    4.13    0.69
   5   6   6    3.47    0.66
  -5   6  -6    3.28    0.66
   5  -6   6    4.08    0.67
  -5  -6  -6    1.84    0.57
   5  -6   6    3.37    0.63
  -5  -6  -6    3.70    0.70
   5  -6   6    3.19    0.69
  -5  -6  -6    2.84    0.86
  -5   7   6   34.92    1.76
  -5   7   6   34.54    1.68
  -5   7   6   36.51    1.74
  -5  -7   6   36.47    1.77
  -5  -7   6   37.66    2.03
  -5  -7   6   37.06    2.11
  -5  -7   6   37.04    1.74
  -5   7   5   16.70    1.16
  -5   7   5   19.97    1.05
  -5   7   5   18.84    1.10
  -5   7   5   18.19    0.95
  -5  -7   5   19.52    1.45
  -5  -7   5   19.96    1.36
  -5  -7   5   19.57    1.12
  -5  -7   5   19.65    1.06
  -5   7   4    0.42    0.35
  -5   7   4    0.40    0.32
  -5   7   4   -0.37    0.34
  -5  -7   4    0.06    0.30
  -5  -7   4    0.41    0.57
  -5   7   3   15.72    0.90
  -5   7   3   14.75    0.88
  -5   7   3   15.13    0.83
  -5  -7   3   15.39    0.89
  -5  -7   3   11.88    1.12
  -5  -7   3   12.15    0.88
  -5   7   2   28.11    1.44
  -5   7   2   30.28    1.34
   5   7  -2   29.26    1.71
  -5  -7   2   29.85    1.45
  -5  -7   2   30.16    1.41
  -5   7   1    0.12    0.32
   5   7  -1    0.27    0.13
   5   7  -1   -0.19    0.55
  -5   7   1    0.22    0.26
   5   7  -1    0.09    0.15
  -5  -7   1    0.05    0.26
  -5  -7   1   -0.44    0.64
  -5  -7   1   -0.10    0.31
  -5   7   0   93.62    3.79
  -5   7   0   86.62    3.76
   5   7   0   83.76    3.73
   5   7   0   88.00    3.97
   5   7   0   88.21    3.69
   5  -7   0   86.43    3.68
  -5  -7   0   89.15    3.76
   5  -7   0   85.52    3.72
  -5  -7   0   88.39    3.79
   5   7   1    0.23    0.56
  -5   7  -1    0.23    0.34
  -5   7  -1    1.28    0.34
   5   7   1    0.82    0.35
   5   7   1    0.91    0.28
   5  -7   1    1.18    0.35
  -5  -7  -1    0.69    0.33
   5  -7   1    0.94    0.27
  -5  -7  -1    1.08    0.35
  -5   7  -2   23.68    1.27
  -5   7  -2   24.07    1.09
  -5   7  -2   22.16    1.24
   5   7   2   23.24    1.19
   5   7   2   24.51    1.25
   5   7   2   23.40    1.52
  -5  -7  -2   24.02    1.27
  -5  -7  -2   23.71    1.25
   5  -7   2   23.26    1.19
   5  -7   2   21.82    1.22
   5  -7   2   23.34    1.09
   5   7   3   10.16    1.16
   5   7   3   10.13    0.86
  -5   7  -3   11.72    0.91
   5   7   3   11.42    0.82
  -5   7  -3   10.89    0.89
  -5   7  -3   10.21    0.70
   5  -7   3    9.53    0.82
   5  -7   3   10.60    0.76
  -5  -7  -3    9.32    0.87
   5  -7   3   10.38    0.83
  -5  -7  -3   10.72    0.91
   5   7   4  100.71    4.33
  -5   7  -4  103.61    4.35
   5   7   4  100.65    4.54
  -5   7  -4   93.68    4.25
  -5   7  -4  100.58    4.35
   5  -7   4   98.37    4.31
   5  -7   4  101.97    4.28
  -5  -7  -4  101.59    4.35
  -5  -7  -4  102.21    4.34
  -5  -7  -4   90.48    4.44
  -5   7  -5    3.85    0.59
   5   7   5    3.70    0.63
  -5   7  -5    4.71    0.68
  -5   7  -5    5.11    0.64
   5   7   5    4.29    0.62
  -5  -7  -5    5.72    0.70
  -5  -7  -5    6.60    0.89
   5  -7   5    4.95    0.64
  -5  -7  -5    4.85    0.65
   5  -7   5    3.92    0.64
   5  -7   5    3.90    0.59
   5   7   6   22.74    1.47
   5   7   6   22.94    1.56
  -5   7  -6   24.19    1.47
   5  -7   6   22.92    1.48
   5  -7   6   24.50    1.50
   5  -7   6   21.94    1.50
  -5   8   6    0.34    0.44
  -5   8   6    0.50    0.47
  -5  -8   6    0.67    0.43
  -5  -8   6    0.40    0.47
  -5  -8   6    0.65    0.66
  -5  -8   6   -0.71    0.71
  -5   8   5   18.85    1.06
  -5   8   5   15.38    1.10
  -5   8   5   17.82    1.13
  -5  -8   5   19.51    1.42
  -5  -8   5   16.12    1.06
  -5  -8   5   18.25    1.40
  -5  -8   5   17.44    1.13
  -5   8   4    1.52    0.37
  -5   8   4    1.81    0.41
  -5   8   4    1.53    0.43
  -5  -8   4    1.72    0.74
  -5  -8   4    1.68    0.42
  -5  -8   4    1.88    0.65
  -5   8   3   37.84    1.80
  -5   8   3   38.46    1.69
  -5   8   3   39.96    1.80
  -5  -8   3   39.76    1.80
  -5  -8   3   30.17    1.95
  -5  -8   3   37.62    1.80
  -5   8   2   11.87    0.79
   5   8  -2    8.78    1.13
  -5   8   2   10.88    0.81
  -5  -8   2   10.27    0.77
  -5  -8   2   10.02    0.81
   5   8  -1   64.70    2.59
   5   8  -1   61.77    2.92
  -5   8   1   60.59    2.68
  -5   8   1   57.43    2.71
   5   8  -1   61.12    2.57
  -5  -8   1   60.08    2.72
   5  -8  -1   61.26    2.56
   5  -8  -1   62.13    2.57
  -5  -8   1   58.19    2.68
   5   8   0   44.31    2.22
   5   8   0   42.81    1.88
  -5   8   0   41.57    2.00
   5   8   0   42.91    1.94
  -5   8   0   43.26    1.97
  -5  -8   0   41.39    1.96
   5  -8   0   41.62    1.92
  -5  -8   0   43.23    2.01
   5  -8   0   42.96    1.87
   5   8   1   22.17    1.15
   5   8   1   22.89    1.49
  -5   8  -1   23.51    1.27
  -5   8  -1   21.85    1.23
   5   8   1   24.35    1.26
  -5  -8  -1   23.75    1.27
   5  -8   1   24.09    1.24
   5  -8   1   21.25    1.14
  -5  -8  -1   23.40    1.24
  -5   8  -2    8.66    0.56
   5   8   2    9.07    0.81
   5   8   2   10.74    0.74
  -5   8  -2    8.11    0.83
   5   8   2   10.01    1.13
  -5   8  -2    9.13    0.81
   5  -8   2    8.67    0.73
   5  -8   2    8.26    0.79
  -5  -8  -2    9.17    0.84
  -5  -8  -2    8.78    0.82
  -5   8  -3   27.28    1.43
  -5   8  -3   24.86    1.24
   5   8   3   24.06    1.67
   5   8   3   23.79    1.39
  -5   8  -3   26.10    1.44
   5   8   3   24.95    1.36
   5  -8   3   26.54    1.28
   5  -8   3   26.15    1.39
   5  -8   3   26.27    1.36
  -5  -8  -3   25.14    1.44
  -5  -8  -3   25.27    1.41
  -5   8  -4   -0.22    0.40
  -5   8  -4   -0.25    0.49
   5   8   4    0.54    0.47
  -5   8  -4    0.30    0.48
   5   8   4    0.31    0.47
   5   8   4    0.73    0.68
   5  -8   4    0.71    0.46
   5  -8   4    0.64    0.59
  -5  -8  -4    0.03    0.75
  -5  -8  -4    0.12    0.50
  -5  -8  -4   -1.14    0.44
   5  -8   4    0.64    0.43
  -5   8  -5   47.10    2.25
  -5   8  -5   45.99    2.23
   5   8   5   41.60    2.21
   5   8   5   44.12    2.19
  -5   8  -5   43.04    2.09
  -5  -8  -5   43.28    2.24
   5  -8   5   41.72    2.12
   5  -8   5   44.81    2.19
  -5  -8  -5   43.53    2.23
  -5  -8  -5   42.91    2.41
   5  -8   5   43.60    2.19
  -5   9   5    1.69    0.48
  -5   9   5    1.21    0.52
  -5   9   5    1.62    0.47
  -5  -9   5    1.51    0.44
  -5  -9   5    2.38    0.54
  -5  -9   5    0.66    0.71
  -5  -9   5    2.16    0.74
  -5   9   4    0.33    0.39
  -5   9   4   -0.49    0.32
  -5   9   4   -0.39    0.42
  -5  -9   4    0.98    0.43
  -5  -9   4   -0.58    0.60
  -5  -9   4    0.47    0.44
  -5  -9   4   -0.42    0.68
  -5   9   3   10.82    0.64
  -5   9   3   11.73    0.90
  -5   9   3   11.09    0.88
  -5  -9   3    9.75    0.88
  -5  -9   3    8.98    1.14
  -5  -9   3   10.14    1.19
  -5  -9   3   12.09    0.91
   5   9  -2  130.34    5.63
  -5   9   2  128.89    5.45
  -5   9   2  127.62    5.43
  -5  -9   2  128.47    5.44
  -5  -9   2  122.94    5.45
  -5   9   1    2.66    0.48
   5   9  -1    3.82    0.70
   5   9  -1    3.53    0.37
   5   9  -1    3.95    0.44
  -5  -9   1    4.00    0.50
   5  -9  -1    4.30    0.40
  -5  -9   1    3.52    0.46
   5  -9  -1    3.65    0.45
  -5   9   0   77.90    3.52
   5   9   0   86.38    3.73
   5   9   0   82.80    3.50
   5   9   0   82.37    3.45
  -5   9   0   75.24    3.55
  -5  -9   0   79.08    3.56
   5  -9   0   81.46    3.44
   5  -9   0   77.67    3.48
  -5  -9   0   84.04    3.53
   5   9   1   55.15    2.44
   5   9   1   56.27    2.70
  -5   9  -1   55.32    2.50
  -5   9  -1   56.26    2.54
   5   9   1   56.71    2.50
  -5  -9  -1   51.03    2.49
   5  -9   1   57.32    2.51
  -5  -9  -1   51.77    2.53
   5  -9   1   53.84    2.42
   5   9   2    4.79    0.57
   5   9   2    3.88    0.72
  -5   9  -2    2.77    0.48
   5   9   2    4.77    0.51
  -5   9  -2    4.65    0.59
  -5  -9  -2    4.30    0.56
   5  -9   2    3.75    0.53
  -5  -9  -2    4.30    0.59
   5  -9   2    4.09    0.49
  -5   9  -3    6.46    0.70
   5   9   3    5.80    0.85
  -5   9  -3    7.25    0.61
  -5   9  -3    6.16    0.66
   5   9   3    6.93    0.89
   5  -9   3    6.96    0.53
  -5  -9  -3    7.15    0.73
   5  -9   3    7.57    0.67
  -5  -9  -3    7.91    0.90
   5  -9   3    6.56    0.80
   5   9   4   63.14    3.13
  -5   9  -4   65.09    2.78
   5   9   4   63.95    2.90
  -5   9  -4   62.59    2.91
   5   9   4   60.48    2.87
  -5   9  -4   61.98    2.95
   5  -9   4   63.25    2.87
  -5  -9  -4   64.85    2.96
   5  -9   4   63.37    2.80
  -5  -9  -4   62.85    2.92
  -5  -9  -4   58.52    3.09
   5  -9   4   59.95    2.89
   5   9   5    0.23    0.57
   5   9   5   -0.08    0.89
   5   9   5   -0.31    0.54
  -5   9  -5    0.95    0.69
  -5   9  -5   -0.65    0.48
   5  -9   5    0.04    0.53
   5  -9   5    1.07    0.55
  -5  -9  -5   -0.64    0.67
  -5  -9  -5   -1.10    0.52
   5  -9   5    0.34    0.55
  -5  10   5   23.65    1.36
  -5  10   5   19.42    1.39
  -5  10   5   21.40    1.26
  -5 -10   5   22.89    1.36
  -5 -10   5   24.22    1.42
  -5 -10   5   19.59    1.65
  -5  10   4    1.33    0.48
  -5  10   4    0.09    0.32
  -5  10   4   -0.46    0.48
  -5 -10   4    1.47    0.69
  -5 -10   4   -0.62    0.74
  -5 -10   4    0.94    0.49
  -5 -10   4    0.95    0.49
  -5  10   3   22.30    1.26
  -5  10   3   20.26    0.96
  -5  10   3   21.20    1.26
  -5 -10   3   18.96    1.27
  -5 -10   3   20.72    1.56
  -5 -10   3   21.25    1.29
  -5 -10   3   22.52    1.52
  -5  10   2    0.23    0.42
   5  10  -2    0.37    0.24
  -5  10   2    0.46    0.41
   5  10  -2   -0.76    0.59
   5 -10  -2    0.18    0.18
  -5 -10   2    0.20    0.65
  -5 -10   2   -0.13    0.40
  -5 -10   2   -0.47    0.42
   5  10  -1  171.63    7.07
  -5  10   1  164.91    7.14
   5  10  -1  162.02    7.03
   5  10  -1  186.64    7.32
  -5  10   1  165.34    7.16
   5 -10  -1  159.44    7.05
  -5 -10   1  178.85    7.18
  -5 -10   1  162.26    7.14
   5 -10  -1  170.14    7.03
  -5  10   0    4.59    0.60
   5  10   0    4.79    0.46
  -5  10   0    4.90    0.53
   5  10   0    5.05    0.78
   5  10   0    5.65    0.72
   5 -10   0    4.75    0.50
  -5 -10   0    3.94    0.52
   5 -10   0    4.93    0.56
  -5 -10   0    3.87    0.57
   5  10   1   10.12    0.81
  -5  10  -1   11.93    0.95
   5  10   1   11.23    0.92
  -5  10  -1    9.86    0.99
   5  10   1    9.38    1.19
  -5 -10  -1   10.78    0.92
   5 -10   1   11.73    0.82
  -5 -10  -1   10.47    1.01
   5 -10   1   11.12    0.91
   5  10   2   18.08    1.19
   5  10   2   16.69    1.43
   5  10   2   18.32    1.11
  -5  10  -2   17.71    1.18
  -5  10  -2   17.94    1.26
   5 -10   2   18.48    1.19
  -5 -10  -2   16.53    1.23
  -5 -10  -2   17.16    1.17
   5 -10   2   16.85    1.08
   5  10   3   40.37    2.13
   5  10   3   38.78    1.97
   5  10   3   35.32    2.17
  -5  10  -3   36.89    1.97
  -5  10  -3   39.92    2.03
  -5 -10  -3   40.08    1.99
  -5 -10  -3   38.14    2.04
  -5 -10  -3   40.29    2.23
   5 -10   3   38.58    1.78
   5 -10   3   38.28    1.91
   5  10   4    8.09    1.04
   5  10   4    7.00    1.02
  -5  10  -4    9.43    1.07
   5  10   4    8.92    1.02
  -5  10  -4    9.00    0.80
  -5  10  -4    8.51    0.89
  -5 -10  -4    7.94    1.06
   5 -10   4    7.51    0.84
  -5 -10  -4    8.44    1.06
   5 -10   4    7.50    1.00
   5 -10   4    8.83    1.07
  -5 -10  -4    8.37    0.90
  -5  11   4   -0.13    0.29
  -5  11   4    0.92    0.51
  -5  11   4    0.34    0.55
  -5 -11   4    1.01    0.53
  -5 -11   4    0.94    0.55
  -5 -11   4   -0.48    0.78
  -5 -11   4    0.85    0.71
  -5  11   3    0.13    0.46
  -5  11   3    1.37    0.49
  -5 -11   3   -0.36    0.47
  -5 -11   3    0.12    0.50
  -5 -11   3    0.86    0.67
  -5 -11   3   -0.45    0.70
   5  11  -2  101.58    4.20
   5  11  -2  102.42    4.54
  -5  11   2  100.65    4.37
  -5  11   2   97.67    4.36
  -5 -11   2  100.42    4.55
  -5 -11   2   97.17    4.36
  -5 -11   2   98.34    4.37
   5 -11  -2   98.58    4.17
   5  11  -1    0.29    0.33
  -5  11   1    0.53    0.49
   5  11  -1    0.77    0.38
  -5  11   1    1.52    0.47
   5  11  -1   -0.16    0.64
   5 -11  -1    0.96    0.32
   5 -11  -1   -0.11    0.31
  -5 -11   1    0.00    0.46
  -5 -11   1    0.49    0.47
  -5  11   0   46.28    2.33
   5  11   0   42.52    2.17
   5  11   0   51.69    2.25
   5  11   0   50.05    2.49
   5 -11   0   50.64    2.23
  -5 -11   0   48.38    2.29
   5 -11   0   48.59    2.17
  -5 -11   0   45.57    2.33
  -5  11  -1    3.41    0.57
  -5  11  -1    2.38    0.58
   5  11   1    3.16    0.72
   5  11   1    4.21    0.55
   5  11   1    3.07    0.49
   5 -11   1    4.09    0.56
   5 -11   1    2.06    0.46
  -5 -11  -1    2.83    0.54
  -5 -11  -1    2.55    0.58
   5  11   2    5.73    0.82
  -5  11  -2    5.77    0.74
   5  11   2    8.65    0.94
  -5  11  -2    5.59    0.66
  -5 -11  -2    7.70    0.74
   5 -11   2    5.39    0.60
  -5 -11  -2    5.32    0.71
  -5  11  -3   -0.09    0.55
   5  11   3    1.10    0.57
   5  11   3    0.60    0.54
  -5  11  -3   -0.10    0.57
   5  11   3    0.83    0.77
   5 -11   3    0.18    0.53
   5 -11   3   -0.42    0.48
   5 -11   3    0.44    0.37
  -5 -11  -3   -0.10    0.62
  -5 -11  -3   -0.27    0.52
  -5 -11  -3   -0.06    0.88
   5  11   4   41.53    2.10
   5  11   4   36.81    2.11
   5 -11   4   38.34    1.92
   5 -11   4   39.47    2.07
   5 -11   4   39.89    2.07
  -5  12   3   16.25    1.19
  -5  12   3   13.53    1.17
  -5 -12   3   13.82    1.48
  -5 -12   3   14.04    1.41
  -5 -12   3   12.81    1.16
   5  12  -2    0.68    0.37
  -5  12   2    0.85    0.51
  -5  12   2   -0.04    0.51
   5  12  -2   -0.57    0.22
   5  12  -2   -0.89    0.66
  -5 -12   2    0.42    0.69
   5 -12  -2   -0.35    0.22
  -5 -12   2    0.26    0.50
  -5 -12   2    1.25    0.71
   5 -12  -2    0.47    0.29
  -5 -12   2    0.10    0.52
  -5  12   1   71.11    3.21
   5  12  -1   70.82    3.34
  -5  12   1   65.93    3.17
   5  12  -1   68.83    3.08
  -5 -12   1   72.14    3.22
  -5 -12   1   66.11    3.18
   5 -12  -1   71.38    3.02
   5  12   0    7.74    0.80
  -5  12   0    7.17    0.74
   5  12   0    8.11    0.91
   5  12   0    7.97    0.90
  -5  12   0    6.28    0.73
   5 -12   0    6.49    0.76
  -5 -12   0    5.27    0.72
  -5 -12   0    5.72    0.68
   5 -12   0    7.52    0.84
   5  12   1    1.81    0.75
   5  12   1    1.25    0.49
   5  12   1    0.65    0.37
  -5  12  -1    1.18    0.57
   5 -12   1    0.35    0.44
  -5 -12  -1    0.77    0.60
  -5 -12  -1    0.93    0.52
   5 -12   1   -0.09    0.50
   5  12   2    1.79    0.57
  -5  12  -2    0.14    0.65
  -5  12  -2    0.69    0.57
   5  12   2    0.05    0.67
   5  12   2   -0.25    0.50
   5 -12   2   -0.36    0.48
  -5 -12  -2    0.68    0.58
   5 -12   2    0.03    0.53
  -5 -12  -2   -1.11    0.62
  -5  12  -3   55.41    2.67
   5  12   3   53.51    2.65
   5  12   3   51.54    2.79
   5  12   3   54.62    2.59
   5 -12   3   50.89    2.35
   5 -12   3   55.31    2.58
  -5 -12  -3   47.90    2.72
   5 -12   3   56.80    2.65
  -5 -12  -3   56.32    3.55
  -5  13   2   45.87    2.26
   5  13  -2   48.45    2.47
   5  13  -2   41.76    2.07
  -5  13   2   46.74    2.26
  -5 -13   2   44.89    2.26
  -5 -13   2   45.17    2.28
   5 -13  -2   45.27    2.01
  -5 -13   2   35.84    2.38
   5  13  -1   -0.02    0.74
  -5  13   1    0.41    0.55
  -5  13   1    1.60    0.60
   5  13  -1    0.97    0.49
   5  13  -1   -0.08    0.31
   5 -13  -1    0.91    0.42
   5 -13  -1   -0.30    0.31
  -5 -13   1   -0.88    0.57
  -5 -13   1    0.37    0.58
   5  13   0   51.10    2.41
  -5  13   0   51.62    2.52
   5  13   0   44.30    2.33
  -5  13   0   49.00    2.51
   5  13   0   52.15    2.63
  -5 -13   0   51.56    2.51
   5 -13   0   49.76    2.35
  -5 -13   0   51.87    2.56
   5 -13   0   54.10    2.40
   5  13   1   16.25    1.19
   5  13   1   18.72    1.49
  -5  13  -1   15.42    1.35
   5  13   1   15.57    1.33
  -5  13  -1   15.04    1.35
  -5 -13  -1   14.95    1.42
   5 -13   1   15.23    1.15
  -5 -13  -1   13.79    1.29
  -5  13  -2   -0.01    0.68
   5  13   2    2.45    0.81
   5  13   2    3.68    0.65
   5  13   2    1.44    0.60
   5 -13   2    2.16    0.61
  -5 -13  -2    1.74    0.87
   5 -13   2    2.76    0.66
  -6   0   6   56.21    2.59
  -6   0   6   56.75    2.41
  -6   0   6   56.52    2.76
  -6   0   6   56.93    2.41
  -6   0   5   -0.37    0.46
  -6   0   5    0.19    0.37
  -6   0   4    0.64    0.34
  -6   0   4    0.55    0.45
  -6   0   3    0.01    0.30
  -6   0   3    0.30    0.44
  -6   0   2   58.07    2.83
  -6   0   2   63.56    2.57
  -6   0   2   60.73    2.68
  -6   0   2   62.92    2.57
  -6   0   1   -0.10    0.17
  -6   0   1    0.10    0.41
  -6   0   1    0.05    0.17
   6   0  -1    0.68    0.40
  -6   0   0   38.05    1.71
   6   0   0   39.97    1.91
  -6   0   0   38.71    1.71
  -6   0  -1    0.31    0.24
   6   0   1    0.53    0.47
   6   0   1    0.20    0.18
   6   0   1   -0.25    0.16
  -6   0  -1   -0.08    0.25
  -6   0  -1    0.36    0.31
   6   0   2   10.21    1.07
   6   0   2   12.81    0.69
  -6   0  -2   12.37    0.79
   6   0   2   12.29    0.69
  -6   0  -2   10.68    0.78
  -6   0  -2   11.61    0.80
   6   0   3    0.49    0.55
  -6   0  -3   -0.18    0.35
  -6   0  -3   -0.03    0.39
  -6   0  -3    0.10    0.35
   6   0   3   -0.32    0.28
   6   0   3   -0.27    0.30
  -6   0  -4  106.84    4.79
   6   0   4  108.70    4.75
   6   0   4  114.94    4.76
  -6   0  -4  115.05    4.81
  -6   0  -4  110.90    4.80
  -6   0  -5   -0.31    0.51
  -6   0  -5    0.00    0.48
   6   0   5    0.07    0.45
  -6   0  -5    1.07    0.54
   6   0   5    0.40    0.45
  -6   0  -6    8.59    0.98
  -6   0  -6    9.61    1.18
   6   0   6    9.90    0.87
   6   0   6   10.81    1.05
  -6   1   6    0.40    0.54
  -6   1   6    0.59    0.44
  -6   1   6    0.41    0.23
  -6   1   6    0.39    0.23
  -6  -1   6    0.01    0.23
  -6  -1   6    0.80    0.49
  -6  -1   6    0.51    0.64
  -6  -1   6   -0.03    0.22
  -6   1   5    6.71    0.70
  -6   1   5    7.35    0.95
  -6  -1   5    7.79    0.99
  -6  -1   5    7.59    0.77
  -6  -1   5    7.40    0.41
  -6   1   4    0.62    0.44
  -6   1   4    0.46    0.32
  -6  -1   4    0.91    0.49
  -6  -1   4    0.92    0.38
  -6   1   3  144.88    6.06
  -6   1   3  141.57    6.20
  -6  -1   3  146.33    6.24
  -6  -1   3  146.28    6.11
  -6   1   2    0.24    0.14
  -6   1   2    0.72    0.41
  -6   1   2    0.59    0.28
  -6   1   2    0.22    0.13
  -6  -1   2    0.21    0.14
  -6  -1   2    0.53    0.34
  -6  -1   2    0.07    0.44
  -6  -1   2    0.29    0.14
  -6   1   1  211.03    8.85
   6   1  -1  224.06    9.03
  -6   1   1  217.23    9.03
  -6   1   1  214.12    8.85
  -6  -1   1  216.38    8.86
   6  -1  -1  217.00    8.97
  -6  -1   1  208.36    8.85
  -6  -1   1  205.62    9.06
  -6   1   0    2.66    0.29
   6   1   0    2.74    0.54
  -6   1   0    2.65    0.29
  -6  -1   0    2.72    0.29
   6  -1   0    2.88    0.46
  -6  -1   0    2.35    0.28
   6   1   1    8.08    0.46
  -6   1  -1    7.33    0.58
  -6   1  -1    7.94    0.60
  -6   1  -1    8.61    0.62
   6   1   1    5.64    0.68
   6   1   1    9.04    0.49
  -6  -1  -1    8.56    0.60
   6  -1   1    9.09    0.46
   6  -1   1    7.20    0.47
  -6  -1  -1    8.60    0.70
  -6  -1  -1    7.86    0.59
   6  -1   1    7.75    0.85
   6   1   2    2.63    0.59
   6   1   2    3.94    0.44
  -6   1  -2    3.11    0.39
  -6   1  -2    3.82    0.43
   6   1   2    4.39    0.46
  -6   1  -2    2.92    0.39
  -6  -1  -2    4.43    0.56
   6  -1   2    3.37    0.44
  -6  -1  -2    2.77    0.39
   6  -1   2    3.55    0.58
   6  -1   2    3.77    0.44
  -6  -1  -2    3.15    0.45
   6   1   3   53.50    2.43
   6   1   3   55.72    2.44
   6   1   3   53.17    2.71
  -6   1  -3   56.77    2.50
  -6   1  -3   49.31    2.47
  -6   1  -3   55.06    2.49
  -6  -1  -3   54.29    2.50
   6  -1   3   57.76    2.44
  -6  -1  -3   61.54    2.51
  -6  -1  -3   53.55    2.49
   6  -1   3   55.59    2.68
   6  -1   3   57.48    2.44
  -6   1  -4    1.07    0.46
  -6   1  -4    1.29    0.43
   6   1   4    0.89    0.38
  -6   1  -4    0.44    0.45
   6   1   4    0.02    0.38
  -6  -1  -4    0.79    0.44
  -6  -1  -4    0.80    0.44
   6  -1   4    0.36    0.38
  -6  -1  -4    0.18    0.46
   6  -1   4    0.27    0.37
  -6   1  -5   54.60    2.58
  -6   1  -5   53.59    2.57
  -6   1  -5   52.44    2.55
   6   1   5   56.44    2.53
   6   1   5   52.49    2.52
  -6  -1  -5   53.94    2.57
   6  -1   5   53.51    2.52
   6  -1   5   55.56    2.52
  -6  -1  -5   49.94    2.56
  -6  -1  -5   60.04    2.60
   6   1   6    6.83    0.74
  -6   1  -6   10.88    1.15
  -6   1  -6    5.15    0.94
   6   1   6   10.04    1.04
  -6  -1  -6    8.43    0.89
   6  -1   6    7.28    0.75
  -6  -1  -6    9.13    1.10
  -6   2   6   48.48    2.13
  -6   2   6   51.21    2.13
  -6   2   6   49.42    2.29
  -6   2   6   49.64    2.47
  -6  -2   6   49.83    2.36
  -6  -2   6   49.17    2.53
  -6  -2   6   48.50    2.14
  -6  -2   6   50.50    2.14
  -6   2   5    5.17    0.37
  -6   2   5    4.59    0.62
  -6   2   5    4.93    0.36
  -6   2   5    5.22    0.63
  -6  -2   5    5.84    0.61
  -6  -2   5    4.99    0.38
  -6  -2   5    5.62    0.36
  -6  -2   5    6.35    0.77
  -6   2   4    0.63    0.32
  -6   2   4    1.49    0.48
  -6  -2   4    1.07    0.54
  -6  -2   4    0.46    0.39
  -6   2   3    0.11    0.12
  -6   2   3    0.16    0.40
  -6   2   3    0.04    0.25
  -6  -2   3    0.35    0.13
  -6  -2   3    0.14    0.37
  -6  -2   3    0.43    0.46
  -6  -2   3    0.01    0.17
  -6   2   2   91.92    3.88
  -6   2   2   87.16    4.07
   6   2  -2  100.83    4.13
  -6   2   2   95.04    3.88
  -6   2   2   93.08    3.93
  -6  -2   2   93.97    3.89
  -6  -2   2   95.45    3.88
  -6  -2   2   88.28    4.15
  -6   2   1   21.64    1.01
  -6   2   1   22.91    1.01
   6   2  -1   20.64    1.33
  -6  -2   1   18.50    1.35
  -6  -2   1   22.15    1.01
   6  -2  -1   23.39    1.16
  -6  -2   1   22.75    1.01
  -6   2   0   60.52    2.66
   6   2   0   56.97    2.89
  -6   2   0   62.34    2.67
  -6   2   0   63.60    2.66
  -6  -2   0   65.34    2.67
   6  -2   0   64.15    2.76
  -6  -2   0   62.02    2.66
   6   2   1    1.62    0.24
   6   2   1    1.05    0.52
  -6   2  -1    1.75    0.31
   6   2   1    1.37    0.20
  -6   2  -1    1.78    0.30
  -6   2  -1    1.58    0.30
  -6  -2  -1    1.96    0.31
   6  -2   1    2.22    0.28
   6  -2   1    1.22    0.42
  -6  -2  -1    1.04    0.28
   6  -2   1    1.50    0.24
  -6   2  -2   14.28    0.84
   6   2   2   14.45    0.78
  -6   2  -2   14.43    0.88
  -6   2  -2   14.29    0.87
   6   2   2   13.27    1.22
   6   2   2   15.21    0.80
  -6  -2  -2   13.75    0.88
   6  -2   2   14.66    0.77
  -6  -2  -2   15.19    0.88
   6  -2   2   14.07    1.07
  -6  -2  -2   13.78    0.94
   6  -2   2   13.47    0.80
   6   2   3    0.38    0.33
   6   2   3    1.14    0.57
   6   2   3    0.66    0.31
  -6   2  -3    0.16    0.36
  -6   2  -3    0.81    0.38
  -6   2  -3    0.27    0.38
   6  -2   3    0.71    0.32
   6  -2   3    1.23    0.54
  -6  -2  -3    0.20    0.44
  -6  -2  -3    0.77    0.36
   6  -2   3    0.65    0.32
  -6  -2  -3    0.85    0.39
  -6   2  -4   42.79    2.03
   6   2   4   45.48    2.01
  -6   2  -4   45.41    2.07
  -6   2  -4   43.19    2.07
   6   2   4   43.90    2.02
  -6  -2  -4   43.41    2.06
   6  -2   4   41.17    2.00
  -6  -2  -4   39.92    2.06
  -6  -2  -4   40.44    2.10
   6  -2   4   42.98    2.00
  -6   2  -5    1.36    0.53
   6   2   5    1.25    0.46
  -6   2  -5    1.33    0.55
   6   2   5    0.98    0.50
  -6   2  -5    0.83    0.55
  -6  -2  -5    1.64    0.65
   6  -2   5    1.00    0.48
   6  -2   5    1.45    0.48
  -6  -2  -5    0.61    0.54
  -6  -2  -5    1.10    0.53
   6   2   6    0.60    0.56
   6   2   6    1.95    0.55
  -6   2  -6    1.36    0.66
   6  -2   6    0.54    0.58
  -6  -2  -6    1.23    0.73
   6  -2   6    2.23    0.58
  -6   3   6    5.12    0.50
  -6   3   6    5.77    0.69
  -6   3   6    6.35    0.73
  -6   3   6    4.94    0.47
  -6  -3   6    5.54    0.85
  -6  -3   6    4.44    0.64
  -6  -3   6    4.79    0.50
  -6  -3   6    5.70    0.49
  -6   3   5   22.89    1.18
  -6   3   5   23.19    1.04
  -6   3   5   22.91    1.39
  -6   3   5   23.72    1.05
  -6  -3   5   22.80    1.07
  -6  -3   5   24.21    1.51
  -6  -3   5   23.44    1.05
  -6  -3   5   20.27    1.32
  -6   3   4   39.52    1.67
  -6   3   4   40.03    1.75
  -6   3   4   38.04    1.69
  -6   3   4   39.62    1.94
  -6  -3   4   38.68    2.05
  -6  -3   4   38.78    1.68
  -6  -3   4   37.77    1.70
  -6  -3   4   39.56    1.90
  -6   3   3    1.29    0.26
  -6   3   3    1.06    0.42
  -6   3   3    0.98    0.17
  -6   3   3    0.97    0.22
  -6  -3   3    1.14    0.18
  -6  -3   3    1.02    0.44
  -6  -3   3    0.49    0.22
  -6  -3   3    1.04    0.54
   6   3  -2   11.57    1.03
  -6   3   2   10.39    0.58
  -6   3   2   11.34    0.56
  -6   3   2   10.86    0.59
  -6   3   2   10.46    0.84
  -6  -3   2   10.81    0.57
  -6  -3   2   10.54    0.59
  -6  -3   2    9.06    1.04
   6   3  -1   93.43    4.15
  -6   3   1   96.51    3.91
  -6   3   1   96.42    3.92
  -6   3   1   88.85    3.91
  -6  -3   1   91.77    4.19
  -6  -3   1   91.77    3.92
  -6  -3   1   94.25    3.92
  -6   3   0    0.21    0.23
   6   3   0   -0.10    0.55
  -6   3   0    0.40    0.24
  -6   3   0    0.42    0.23
  -6  -3   0    0.25    0.23
  -6  -3   0    0.27    0.23
   6  -3   0    0.57    0.30
  -6   3  -1    0.11    0.26
   6   3   1    0.00    0.50
   6   3   1    0.39    0.24
  -6   3  -1    0.15    0.26
  -6   3  -1    0.20    0.25
   6   3   1    0.15    0.18
   6  -3   1    0.65    0.34
  -6  -3  -1    0.08    0.26
  -6  -3  -1    0.19    0.27
   6  -3   1   -0.20    0.22
   6  -3   1    0.16    0.17
  -6   3  -2   24.78    1.26
   6   3   2   25.87    1.21
  -6   3  -2   24.92    1.27
   6   3   2   24.69    1.18
   6   3   2   23.71    1.60
  -6   3  -2   24.81    1.21
   6  -3   2   25.57    1.19
   6  -3   2   25.54    1.21
   6  -3   2   24.58    1.39
  -6  -3  -2   25.74    1.27
  -6  -3  -2   25.01    1.37
  -6  -3  -2   23.33    1.26
   6   3   3  109.24    4.59
   6   3   3  110.77    4.60
  -6   3  -3  108.55    4.64
  -6   3  -3  113.97    4.65
  -6   3  -3  105.85    4.60
   6   3   3  104.68    4.84
   6  -3   3  101.68    4.72
  -6  -3  -3  109.32    4.68
  -6  -3  -3  110.45    4.64
  -6  -3  -3  111.70    4.65
   6  -3   3  105.19    4.58
   6  -3   3  105.12    4.59
  -6   3  -4   -0.14    0.42
   6   3   4    0.13    0.71
   6   3   4    0.14    0.37
  -6   3  -4   -0.16    0.42
  -6   3  -4    0.13    0.44
   6   3   4   -0.57    0.38
   6  -3   4   -0.29    0.38
  -6  -3  -4    0.35    0.52
  -6  -3  -4    1.12    0.43
  -6  -3  -4   -0.72    0.39
   6  -3   4   -0.29    0.38
  -6   3  -5   31.16    1.75
   6   3   5   32.07    1.72
  -6   3  -5   32.98    1.72
   6   3   5   32.93    1.68
  -6   3  -5   31.36    1.77
  -6  -3  -5   34.47    1.79
  -6  -3  -5   33.71    1.83
   6  -3   5   33.22    1.70
  -6  -3  -5   32.21    1.76
   6  -3   5   31.90    1.69
   6   3   6    0.34    0.58
   6   3   6    0.99    0.54
  -6   3  -6    1.67    0.68
   6  -3   6    0.49    0.54
   6  -3   6    1.91    0.60
  -6  -3  -6    1.48    0.75
  -6   4   6   20.47    1.19
  -6   4   6   20.92    1.08
  -6   4   6   21.26    1.08
  -6   4   6   22.73    1.47
  -6  -4   6   22.76    1.10
  -6  -4   6   22.87    1.09
  -6  -4   6   19.47    1.61
  -6  -4   6   25.41    1.43
  -6   4   5   19.29    1.25
  -6   4   5   18.35    0.94
  -6   4   5   19.77    0.93
  -6   4   5   19.19    1.00
  -6  -4   5   18.15    0.97
  -6  -4   5   19.10    1.25
  -6  -4   5   20.12    0.94
  -6  -4   5   17.71    1.40
  -6   4   4    5.19    0.45
  -6   4   4    3.90    0.54
  -6   4   4    5.02    0.47
  -6   4   4    4.06    0.46
  -6  -4   4    4.89    0.59
  -6  -4   4    5.38    0.45
  -6  -4   4    4.85    0.49
  -6  -4   4    6.03    0.76
  -6   4   3   56.17    2.33
  -6   4   3   57.24    2.32
  -6   4   3   52.66    2.49
  -6   4   3   55.07    2.35
  -6  -4   3   51.82    2.54
  -6  -4   3   52.79    2.36
  -6  -4   3   55.80    2.33
  -6  -4   3   53.79    2.66
  -6   4   2  211.36    8.91
  -6   4   2  221.83    8.93
  -6   4   2  204.52    9.02
  -6   4   2  228.35    8.89
   6   4  -2  222.21    9.15
  -6  -4   2  216.77    8.94
  -6  -4   2  218.43    8.92
  -6  -4   2  199.33    9.16
  -6   4   1    1.45    0.27
  -6   4   1    1.82    0.21
   6   4  -1    1.38    0.57
  -6   4   1    1.74    0.21
  -6   4   1    1.55    0.25
  -6  -4   1    0.86    0.57
  -6  -4   1    1.73    0.27
  -6  -4   1    1.82    0.26
  -6   4   0   48.87    2.06
   6   4   0   44.24    2.35
  -6   4   0   47.45    2.00
  -6   4   0   47.02    2.06
  -6  -4   0   47.06    2.06
   6  -4   0   47.00    2.07
  -6  -4   0   45.43    2.06
  -6   4  -1   80.18    3.35
   6   4   1   77.51    3.31
   6   4   1   79.19    3.61
   6   4   1   75.81    3.26
  -6   4  -1   81.03    3.29
  -6   4  -1   75.36    3.34
   6  -4   1   74.92    3.30
  -6  -4  -1   77.72    3.34
   6  -4   1   78.04    3.26
   6  -4   1   79.61    3.36
  -6  -4  -1   76.37    3.35
   6   4   2   42.15    1.95
  -6   4  -2   44.43    1.96
  -6   4  -2   44.85    2.03
  -6   4  -2   43.59    2.03
   6   4   2   42.77    2.31
   6   4   2   44.42    1.99
  -6  -4  -2   43.23    2.03
   6  -4   2   44.96    1.98
  -6  -4  -2   42.92    2.03
   6  -4   2   44.75    2.08
   6  -4   2   45.12    1.96
  -6  -4  -2   47.26    2.15
  -6   4  -3   14.31    0.87
   6   4   3   15.11    0.91
   6   4   3   14.72    1.36
   6   4   3   12.70    0.86
  -6   4  -3   15.24    0.97
  -6   4  -3   14.41    0.97
  -6  -4  -3   12.97    0.96
  -6  -4  -3   13.96    0.96
   6  -4   3   14.02    1.07
   6  -4   3   12.40    0.89
   6  -4   3   14.10    0.88
  -6  -4  -3   15.18    1.11
  -6   4  -4   63.16    2.87
  -6   4  -4   63.87    2.83
   6   4   4   61.58    2.81
   6   4   4   63.00    2.84
  -6   4  -4   62.88    2.88
   6   4   4   64.11    3.15
   6  -4   4   60.58    2.82
  -6  -4  -4   70.70    2.96
   6  -4   4   61.71    2.83
  -6  -4  -4   64.61    2.89
  -6  -4  -4   60.46    2.88
   6   4   5    3.48    0.60
  -6   4  -5    3.56    0.62
  -6   4  -5    4.70    0.66
   6   4   5    3.54    0.54
  -6   4  -5    3.52    0.62
   6  -4   5    2.93    0.56
  -6  -4  -5    3.83    0.60
  -6  -4  -5    2.75    0.61
  -6  -4  -5    3.60    0.77
   6  -4   5    4.82    0.61
  -6   5   6    6.72    0.69
  -6   5   6    6.24    0.62
  -6   5   6    6.31    0.76
  -6   5   6    6.47    0.63
  -6  -5   6    7.21    0.65
  -6  -5   6    6.72    0.64
  -6  -5   6    5.31    0.82
  -6  -5   6    8.36    1.06
  -6   5   5   14.03    1.09
  -6   5   5   14.13    0.83
  -6   5   5   13.96    0.81
  -6   5   5   14.16    0.81
  -6  -5   5   14.73    0.86
  -6  -5   5   14.35    1.16
  -6  -5   5   14.26    0.81
  -6  -5   5   14.49    1.31
  -6   5   4   46.77    2.03
  -6   5   4   48.99    2.09
  -6   5   4   48.16    2.10
  -6   5   4   46.52    2.22
  -6  -5   4   47.75    2.30
  -6  -5   4   47.32    2.09
  -6  -5   4   48.43    2.43
  -6  -5   4   44.14    2.10
  -6   5   3   29.97    1.34
  -6   5   3   27.97    1.44
  -6   5   3   28.07    1.21
  -6  -5   3   26.48    1.30
  -6  -5   3   28.54    1.58
  -6  -5   3   29.14    1.71
  -6  -5   3   27.49    1.34
  -6   5   2    5.01    0.62
  -6   5   2    4.80    0.45
   6   5  -2    4.94    0.75
  -6   5   2    4.41    0.50
  -6  -5   2    4.78    0.52
  -6  -5   2    4.50    0.67
  -6  -5   2    4.78    0.46
  -6   5   1   28.73    1.37
   6   5  -1   26.95    1.73
  -6   5   1   30.44    1.36
  -6  -5   1   30.96    1.78
  -6  -5   1   29.83    1.38
  -6  -5   1   28.80    1.36
   6   5   0  134.16    5.97
  -6   5   0  134.69    5.74
  -6   5   0  133.08    5.74
  -6  -5   0  139.17    5.74
  -6  -5   0  142.00    5.75
  -6   5  -1    1.20    0.32
  -6   5  -1    1.77    0.25
  -6   5  -1    1.59    0.34
   6   5   1    1.50    0.32
   6   5   1    1.10    0.24
   6   5   1    1.63    0.60
  -6  -5  -1    1.08    0.33
   6  -5   1    1.25    0.23
   6  -5   1    1.35    0.31
   6  -5   1    1.19    0.30
  -6  -5  -1    1.61    0.34
  -6   5  -2   37.60    1.66
  -6   5  -2   37.26    1.77
   6   5   2   37.40    1.73
  -6   5  -2   37.60    1.76
   6   5   2   38.38    2.09
   6   5   2   34.98    1.67
   6  -5   2   37.39    1.75
   6  -5   2   37.16    1.71
  -6  -5  -2   34.89    1.76
  -6  -5  -2   34.22    1.89
  -6  -5  -2   37.81    1.76
   6  -5   2   38.55    1.68
   6   5   3   21.03    1.17
  -6   5  -3   20.64    1.23
   6   5   3   21.42    1.14
  -6   5  -3   20.83    1.22
   6   5   3   20.55    1.57
  -6   5  -3   21.44    1.12
   6  -5   3   21.05    1.16
  -6  -5  -3   20.74    1.23
   6  -5   3   22.28    1.27
   6  -5   3   20.91    1.15
  -6  -5  -3   22.20    1.21
  -6  -5  -3   21.89    1.38
  -6   5  -4   -0.53    0.44
   6   5   4    0.06    0.70
   6   5   4    0.14    0.26
  -6   5  -4   -0.09    0.42
   6   5   4    0.45    0.43
  -6   5  -4   -0.17    0.42
   6  -5   4   -0.29    0.40
  -6  -5  -4    0.33    0.65
  -6  -5  -4    0.09    0.42
  -6  -5  -4   -0.62    0.45
   6  -5   4    0.07    0.30
   6   5   5    7.12    0.72
  -6   5  -5    6.03    0.72
  -6   5  -5    6.25    0.69
  -6   5  -5    5.68    0.71
   6   5   5    7.31    0.90
   6  -5   5    7.69    0.93
  -6  -5  -5    5.69    0.70
  -6  -5  -5    7.60    0.95
   6  -5   5    5.48    0.65
  -6  -5  -5    4.47    0.65
  -6   6   6   19.26    1.03
  -6   6   6   18.16    1.05
  -6   6   6   16.57    1.34
  -6   6   6   17.74    1.05
  -6  -6   6   17.49    1.41
  -6  -6   6   18.74    1.05
  -6  -6   6   19.18    1.07
  -6   6   5   51.24    2.32
  -6   6   5   50.74    2.23
  -6   6   5   51.44    2.30
  -6   6   5   50.20    2.43
  -6  -6   5   51.19    2.33
  -6  -6   5   52.03    2.30
  -6  -6   5   54.50    2.67
  -6  -6   5   52.14    2.55
  -6   6   4    7.34    0.68
  -6   6   4    9.52    0.69
  -6   6   4    7.34    0.78
  -6  -6   4    9.04    0.69
  -6  -6   4    9.68    1.03
  -6  -6   4    6.72    0.80
  -6  -6   4    6.85    0.71
  -6   6   3   36.99    1.72
  -6   6   3   40.18    1.71
  -6   6   3   37.26    1.76
  -6  -6   3   38.88    1.74
  -6  -6   3   35.74    1.95
  -6  -6   3   32.53    2.01
  -6  -6   3   36.97    1.70
  -6   6   2   41.08    1.87
  -6   6   2   42.08    1.88
   6   6  -2   41.77    2.20
  -6   6   2   41.85    1.84
  -6  -6   2   41.39    1.85
  -6  -6   2   38.31    2.15
  -6  -6   2   41.43    1.89
   6   6  -1    6.03    0.85
  -6   6   1    4.95    0.60
  -6   6   1    6.31    0.57
  -6  -6   1    6.67    0.60
  -6  -6   1    6.61    0.58
  -6  -6   1    8.00    0.88
  -6   6   0   54.81    2.49
   6   6   0   56.41    2.81
  -6   6   0   56.07    2.50
  -6  -6   0   58.89    2.51
  -6  -6   0   56.80    2.50
   6   6   1   91.73    3.91
   6   6   1   95.95    4.26
  -6   6  -1   90.88    3.87
   6   6   1   94.23    3.97
  -6   6  -1   91.02    4.00
  -6   6  -1   98.15    4.01
   6  -6   1   97.09    3.97
   6  -6   1   89.67    3.91
  -6  -6  -1   86.53    3.99
  -6  -6  -1   93.15    4.00
   6  -6   1   95.94    3.91
   6   6   2    1.94    0.69
  -6   6  -2    1.38    0.40
  -6   6  -2    1.47    0.40
   6   6   2    1.44    0.38
  -6   6  -2    1.48    0.29
   6   6   2    1.67    0.33
   6  -6   2    1.93    0.34
   6  -6   2    1.79    0.38
   6  -6   2    1.36    0.33
  -6  -6  -2    1.54    0.38
  -6  -6  -2    1.19    0.41
  -6   6  -3   15.80    1.06
   6   6   3   17.18    1.46
   6   6   3   14.23    0.95
  -6   6  -3   15.58    1.05
   6   6   3   16.11    1.01
  -6   6  -3   14.07    0.89
   6  -6   3   15.38    0.97
  -6  -6  -3   15.67    1.05
  -6  -6  -3   15.09    1.25
   6  -6   3   15.32    1.02
  -6  -6  -3   15.58    1.07
   6  -6   3   16.45    1.00
  -6   6  -4   40.36    2.11
  -6   6  -4   45.67    2.24
  -6   6  -4   46.06    2.23
   6   6   4   49.60    2.20
   6   6   4   45.20    2.52
   6  -6   4   46.41    2.17
  -6  -6  -4   46.00    2.22
  -6  -6  -4   46.27    2.38
  -6  -6  -4   47.46    2.25
   6   6   5   21.84    1.33
   6   6   5   20.95    1.74
  -6   6  -5   21.07    1.28
   6   6   5   21.18    1.39
  -6   6  -5   19.44    1.37
  -6   6  -5   20.91    1.41
  -6  -6  -5   19.09    1.59
   6  -6   5   21.37    1.35
  -6  -6  -5   18.04    1.42
  -6  -6  -5   19.82    1.36
   6  -6   5   23.39    1.37
  -6   7   5    1.71    0.40
  -6   7   5    0.77    0.48
  -6   7   5   -0.23    0.40
  -6  -7   5    0.81    0.43
  -6  -7   5    0.56    0.71
  -6  -7   5    1.06    0.69
  -6  -7   5    1.03    0.39
  -6   7   4   61.07    2.65
  -6   7   4   60.24    2.65
  -6   7   4   58.91    2.67
  -6  -7   4   60.32    2.89
  -6  -7   4   58.67    2.66
  -6  -7   4   56.12    2.94
  -6   7   3   14.34    0.89
  -6   7   3   13.66    0.86
  -6   7   3   13.81    0.85
  -6  -7   3   12.22    1.20
  -6  -7   3   11.72    0.88
  -6  -7   3   14.30    0.87
  -6   7   2    4.33    0.54
  -6   7   2    4.88    0.61
   6   7  -2    3.10    0.72
  -6  -7   2    4.11    0.43
  -6  -7   2    4.14    0.47
   6   7  -1   21.31    1.56
  -6   7   1   23.36    1.20
  -6   7   1   21.21    1.15
  -6  -7   1   23.78    1.17
  -6  -7   1   22.27    1.19
  -6   7   0   11.18    0.82
   6   7   0   11.02    0.60
  -6   7   0   11.75    0.79
   6   7   0   10.58    1.24
   6   7   0   10.27    0.56
  -6  -7   0   11.42    0.82
  -6  -7   0   10.40    0.79
   6   7   1    1.29    0.36
   6   7   1   -0.21    0.58
   6   7   1    0.76    0.27
  -6   7  -1    0.85    0.37
  -6   7  -1    0.94    0.38
  -6  -7  -1    0.58    0.38
   6  -7   1    0.81    0.36
   6  -7   1    0.50    0.25
  -6  -7  -1    0.32    0.38
   6   7   2   67.58    3.31
   6   7   2   69.15    2.98
   6   7   2   71.23    3.04
  -6   7  -2   68.57    2.91
  -6   7  -2   63.07    3.05
  -6   7  -2   70.92    3.05
  -6  -7  -2   67.66    3.05
   6  -7   2   69.36    3.03
  -6  -7  -2   69.85    3.07
   6  -7   2   68.54    2.97
   6  -7   2   67.67    2.92
   6   7   3    1.27    0.72
  -6   7  -3    0.40    0.46
   6   7   3    0.26    0.37
  -6   7  -3    0.47    0.34
   6   7   3    0.59    0.41
  -6   7  -3    0.47    0.46
   6  -7   3   -0.02    0.37
  -6  -7  -3    0.70    0.46
  -6  -7  -3    0.60    0.48
  -6  -7  -3   -0.12    0.64
   6  -7   3    0.22    0.40
   6  -7   3    0.31    0.36
   6   7   4    1.44    0.81
   6   7   4    0.04    0.45
  -6   7  -4   -0.15    0.53
   6   7   4    0.92    0.46
  -6   7  -4    0.95    0.53
  -6   7  -4    0.19    0.44
  -6  -7  -4    0.47    0.49
  -6  -7  -4   -0.05    0.78
   6  -7   4    0.37    0.55
   6  -7   4    0.01    0.43
  -6  -7  -4    0.66    0.55
  -6   7  -5    4.33    0.64
   6   7   5    4.85    0.69
   6   7   5    5.83    0.71
   6  -7   5    6.46    0.71
   6  -7   5    4.32    0.67
  -6   8   5   40.50    1.93
  -6   8   5   39.29    1.96
  -6  -8   5   38.08    2.22
  -6  -8   5   42.21    1.95
  -6  -8   5   38.47    2.57
  -6  -8   5   39.63    1.95
  -6   8   4    0.71    0.39
  -6   8   4    0.53    0.43
  -6   8   4    0.87    0.42
  -6  -8   4   -0.64    0.67
  -6  -8   4    0.30    0.68
  -6  -8   4    0.64    0.43
  -6   8   3   48.58    2.15
  -6   8   3   43.78    2.15
  -6   8   3   48.01    2.07
  -6  -8   3   47.31    2.69
  -6  -8   3   47.73    2.17
  -6  -8   3   45.23    2.15
  -6  -8   3   44.04    2.37
   6   8  -2    0.03    0.69
  -6   8   2    0.49    0.36
  -6  -8   2    0.51    0.34
  -6  -8   2   -0.12    0.38
   6   8  -1   12.41    1.31
  -6   8   1   13.33    0.91
  -6   8   1   12.97    0.85
  -6  -8   1   10.76    0.89
  -6  -8   1   13.03    0.87
  -6   8   0    2.64    0.46
  -6   8   0    2.34    0.41
   6   8   0    1.91    0.25
   6   8   0    1.86    0.74
   6   8   0    1.99    0.31
  -6  -8   0    2.36    0.43
   6  -8   0    2.26    0.25
  -6  -8   0    1.76    0.45
  -6   8  -1   44.67    2.06
  -6   8  -1   40.95    2.03
   6   8   1   45.33    2.35
   6   8   1   43.09    1.92
   6   8   1   42.18    1.99
   6  -8   1   43.66    1.99
  -6  -8  -1   42.75    2.04
   6  -8   1   42.50    1.91
  -6  -8  -1   42.70    2.06
  -6   8  -2   26.76    1.16
  -6   8  -2   26.66    1.42
  -6   8  -2   25.70    1.44
   6   8   2   24.97    1.39
   6   8   2   25.68    1.30
   6   8   2   24.83    1.74
  -6  -8  -2   25.39    1.41
  -6  -8  -2   23.24    1.42
   6  -8   2   25.73    1.29
   6  -8   2   23.99    1.37
   6   8   3   22.82    1.31
  -6   8  -3   22.20    1.36
   6   8   3   22.34    1.70
  -6   8  -3   22.82    1.34
  -6   8  -3   20.99    1.11
   6   8   3   18.23    1.18
  -6  -8  -3   22.81    1.38
   6  -8   3   22.17    1.10
  -6  -8  -3   23.59    1.36
   6  -8   3   22.00    1.22
  -6  -8  -3   19.68    1.62
   6  -8   3   20.68    1.25
  -6   8  -4    5.32    0.56
   6   8   4    4.99    0.61
  -6   8  -4    5.54    0.73
  -6   8  -4    4.51    0.65
   6   8   4    5.77    0.66
   6  -8   4    4.88    0.57
  -6  -8  -4    4.76    0.69
  -6  -8  -4    4.68    0.94
   6  -8   4    4.30    0.58
  -6  -8  -4    4.71    0.69
   6  -8   4    5.08    0.63
  -6   9   4   57.18    2.60
  -6   9   4   56.21    2.51
  -6   9   4   56.02    2.62
  -6  -9   4   54.65    2.89
  -6  -9   4   58.24    2.62
  -6  -9   4   54.80    2.86
  -6   9   3    1.23    0.44
  -6   9   3    2.00    0.29
  -6   9   3    0.70    0.46
  -6  -9   3    1.03    0.47
  -6  -9   3    1.81    0.48
  -6  -9   3    0.81    0.66
  -6  -9   3    1.54    0.69
   6   9  -2    8.07    0.99
  -6   9   2    8.50    0.82
  -6   9   2    8.77    0.80
  -6  -9   2    7.80    0.80
  -6  -9   2    7.57    0.85
  -6  -9   2    7.44    0.93
  -6   9   1    9.70    0.81
   6   9  -1    9.06    0.96
  -6   9   1    8.84    0.87
  -6  -9   1    9.27    0.82
  -6  -9   1    8.61    0.88
  -6   9   0   69.56    3.17
  -6   9   0   73.78    3.15
   6   9   0   66.00    3.04
   6   9   0   72.13    3.41
   6  -9   0   70.22    2.99
  -6  -9   0   72.01    3.15
  -6  -9   0   71.27    3.18
   6   9   1   -0.01    0.31
   6   9   1    0.49    0.41
   6   9   1   -0.08    0.66
  -6   9  -1   -0.02    0.45
  -6   9  -1    0.06    0.41
   6  -9   1   -0.44    0.38
   6  -9   1   -0.23    0.30
  -6  -9  -1   -0.57    0.44
  -6  -9  -1   -0.23    0.42
   6   9   2   71.43    3.14
   6   9   2   71.13    3.07
  -6   9  -2   69.63    3.15
   6   9   2   69.25    3.41
  -6   9  -2   74.00    3.19
   6  -9   2   63.02    3.05
  -6  -9  -2   68.26    3.18
  -6  -9  -2   73.97    3.18
   6  -9   2   66.92    3.13
   6   9   3   30.29    1.70
   6   9   3   33.73    2.06
  -6   9  -3   31.86    1.73
  -6   9  -3   30.62    1.47
  -6   9  -3   35.33    1.78
  -6  -9  -3   30.62    1.78
  -6  -9  -3   31.57    1.74
  -6  -9  -3   27.24    2.01
   6  -9   3   31.32    1.63
  -6   9  -4   -0.41    0.44
   6   9   4    0.18    0.59
  -6   9  -4    0.14    0.50
   6   9   4    0.29    0.53
   6  -9   4   -0.34    0.54
   6  -9   4   -0.88    0.50
  -6  -9  -4    0.42    0.63
   6  -9   4    0.51    0.34
  -6  10   4    1.03    0.33
  -6  10   4    1.07    0.55
  -6  10   4    2.13    0.51
  -6 -10   4    2.04    0.54
  -6  10   3   46.34    2.17
  -6  10   3   49.22    2.16
  -6 -10   3   36.66    2.37
  -6 -10   3   44.43    2.15
  -6 -10   3   44.51    2.17
  -6 -10   3   43.74    2.50
  -6  10   2    0.73    0.45
  -6  10   2    0.91    0.45
   6  10  -2   -0.10    0.75
  -6 -10   2   -0.03    0.71
  -6 -10   2    0.00    0.44
  -6 -10   2    0.68    0.48
  -6  10   1    3.12    0.54
   6  10  -1    3.22    0.82
  -6 -10   1    2.39    0.55
  -6 -10   1    4.09    0.54
   6  10   0   -0.08    0.19
   6  10   0    0.24    0.37
  -6  10   0    0.40    0.48
  -6  10   0    0.27    0.45
   6  10   0   -1.95    0.70
   6 -10   0   -0.02    0.28
   6 -10   0   -0.16    0.23
  -6 -10   0    0.72    0.52
  -6 -10   0    0.62    0.44
   6  10   1  126.80    5.53
   6  10   1  125.99    5.27
  -6  10  -1  123.04    5.32
  -6  10  -1  130.58    5.36
   6 -10   1  118.92    5.21
  -6 -10  -1  123.45    5.32
  -6 -10  -1  114.34    5.34
  -6  10  -2    2.22    0.61
   6  10   2    1.74    0.84
   6  10   2    2.54    0.55
   6  10   2    2.57    0.49
  -6  10  -2    1.65    0.56
   6 -10   2    1.54    0.46
  -6 -10  -2    2.76    0.63
  -6 -10  -2    2.37    0.54
   6 -10   2    2.81    0.54
   6  10   3   24.15    1.42
  -6  10  -3   26.41    1.59
  -6  10  -3   25.42    1.53
   6  10   3   25.70    1.50
   6  10   3   20.02    1.80
  -6 -10  -3   26.17    2.15
  -6 -10  -3   22.50    1.51
   6 -10   3   25.16    1.49
   6 -10   3   24.02    1.42
  -6 -10  -3   23.04    1.61
  -6  11   3    1.23    0.51
  -6  11   3    0.41    0.52
  -6 -11   3   -0.19    0.54
  -6 -11   3    0.42    1.02
  -6 -11   3    0.28    0.54
  -6  11   2   11.15    1.05
  -6  11   2   11.91    1.07
   6  11  -2   11.27    1.48
  -6 -11   2   12.13    1.05
  -6 -11   2   10.98    1.08
  -6 -11   2   10.96    1.17
  -6  11   1    1.09    0.53
   6  11  -1   -0.42    0.16
   6  11  -1    0.51    0.21
   6  11  -1   -0.27    0.74
  -6  11   1    0.25    0.49
   6 -11  -1   -0.19    0.14
   6 -11  -1   -0.27    0.16
  -6 -11   1    0.33    0.50
  -6 -11   1    0.19    0.54
  -6  11   0   56.27    2.73
   6  11   0   58.91    2.58
   6  11   0   59.10    2.97
   6 -11   0   56.76    2.51
  -6 -11   0   56.81    2.70
  -6 -11   0   57.73    2.75
   6  11   1   -0.85    0.70
   6  11   1    0.30    0.45
  -6  11  -1   -0.13    0.48
   6  11   1    0.02    0.31
  -6  11  -1   -0.66    0.54
  -6 -11  -1    0.00    0.50
   6 -11   1    0.08    0.38
   6 -11   1   -0.80    0.31
  -6 -11  -1   -0.14    0.56
   6  11   2   38.76    2.47
  -6  11  -2   44.94    2.32
  -6  11  -2   45.13    2.37
   6  11   2   49.67    2.30
  -6 -11  -2   48.79    2.33
  -6 -11  -2   50.05    2.41
   6 -11   2   47.16    2.20
   6  12  -1    0.07    0.27
  -6  12   1    1.70    0.59
  -6  12   1    0.59    0.57
   6  12  -1   -0.10    0.21
   6  12  -1    0.40    0.74
   6 -12  -1    0.04    0.31
  -6 -12   1    1.49    0.57
  -6 -12   1    1.97    0.62
   6  12   0    3.07    0.51
   6  12   0    2.39    0.81
  -6  12   0    1.68    0.61
  -6  12   0    1.99    0.60
  -6 -12   0    3.10    0.65
   6 -12   0    2.29    0.41
  -6 -12   0    1.86    0.65
  -6  12  -1   47.00    2.51
   6  12   1   53.80    2.39
   6 -12   1   51.39    2.32
  -6 -12  -1   44.13    2.54
  -6 -12  -1   52.33    2.49
  -7   0   5    0.19    0.40
  -7   0   5   -1.13    0.57
  -7   0   4   96.11    4.09
  -7   0   4   93.53    4.29
  -7   0   3    0.34    0.35
  -7   0   3   -0.17    0.51
  -7   0   2    8.12    1.02
  -7   0   2    8.56    0.49
  -7   0   2    8.06    0.70
  -7   0   2    8.73    0.48
  -7   0   1   -0.34    0.21
   7   0  -1    0.10    0.46
  -7   0   1    0.10    0.22
  -7   0   0   30.37    1.43
   7   0   0   34.95    1.71
  -7   0   0   28.46    1.41
  -7   0  -1   -0.31    0.36
  -7   0  -1    0.15    0.32
   7   0   1    0.11    0.51
  -7   0  -1    0.12    0.30
  -7   0  -2   36.63    1.79
  -7   0  -2   38.36    1.78
   7   0   2   36.68    1.66
   7   0   2   36.26    2.02
  -7   0  -2   38.63    1.79
   7   0   2   37.30    1.66
  -7   0  -3    0.04    0.41
  -7   0  -3   -0.39    0.43
   7   0   3   -0.42    0.31
   7   0   3    0.12    0.61
  -7   0  -3   -0.29    0.46
   7   0   3    0.03    0.32
  -7   0  -4    0.86    0.49
   7   0   4    0.97    0.42
   7   0   4    0.61    0.68
   7   0   4    0.32    0.40
  -7   0  -4   -0.02    0.48
  -7   0  -4    0.38    0.54
   7   0   5   -0.79    0.49
   7   0   5   -0.42    0.47
   7   0   5   -1.04    0.77
  -7   0  -5   -0.69    0.56
  -7   0  -5   -0.16    0.59
  -7   0  -5    0.32    0.54
  -7   1   5   64.00    2.80
  -7   1   5   62.16    3.03
  -7  -1   5   59.58    2.83
  -7  -1   5   65.56    3.07
  -7   1   4    0.97    0.36
  -7   1   4    0.84    0.57
  -7  -1   4    0.40    0.41
  -7  -1   4    0.85    0.61
  -7   1   3   26.84    1.65
  -7   1   3   29.03    1.38
  -7  -1   3   27.28    1.45
  -7  -1   3   29.98    1.22
  -7  -1   3   27.72    1.71
  -7   1   2    0.29    0.31
  -7   1   2    0.42    0.48
  -7   1   2    0.28    0.18
  -7   1   2    0.18    0.18
  -7  -1   2    0.33    0.41
  -7  -1   2    0.25    0.19
  -7  -1   2    0.22    0.19
  -7  -1   2    0.36    0.52
  -7   1   1   71.17    3.03
  -7   1   1   72.31    3.03
   7   1  -1   74.41    3.27
  -7  -1   1   74.25    3.03
  -7  -1   1   72.00    3.03
   7  -1  -1   63.56    3.16
   7   1   0    0.10    0.51
  -7   1   0   -0.26    0.32
  -7   1   0   -0.30    0.24
  -7   1   0   -0.15    0.26
   7  -1   0    0.17    0.43
  -7  -1   0   -0.12    0.25
  -7  -1   0   -0.04    0.26
   7   1   1  147.38    6.34
  -7   1  -1  145.17    6.14
  -7   1  -1  134.16    6.13
  -7   1  -1  147.76    6.14
  -7  -1  -1  155.44    6.15
  -7  -1  -1  133.51    6.13
   7  -1   1  157.51    6.29
  -7  -1  -1  147.83    6.18
  -7   1  -2    0.69    0.41
   7   1   2    1.15    0.26
   7   1   2    0.47    0.58
   7   1   2    0.92    0.28
  -7   1  -2    0.12    0.37
  -7   1  -2    0.81    0.38
   7  -1   2    0.47    0.53
   7  -1   2    0.88    0.28
  -7  -1  -2    0.47    0.37
   7  -1   2    0.77    0.26
  -7  -1  -2    1.11    0.38
  -7  -1  -2    0.36    0.43
  -7   1  -3   14.69    1.02
  -7   1  -3   14.10    1.03
   7   1   3   14.42    0.90
  -7   1  -3   14.29    1.02
   7   1   3   14.47    0.88
   7   1   3   12.31    1.39
  -7  -1  -3   14.78    1.04
   7  -1   3   14.80    0.88
  -7  -1  -3   15.00    1.06
   7  -1   3   15.64    1.33
   7  -1   3   15.70    0.89
  -7  -1  -3   14.17    1.03
   7   1   4    0.15    0.76
  -7   1  -4    2.02    0.55
   7   1   4    1.14    0.42
  -7   1  -4    0.56    0.50
  -7   1  -4    1.01    0.52
   7   1   4    0.62    0.43
   7  -1   4    1.18    0.44
   7  -1   4    1.63    0.43
  -7  -1  -4    1.30    0.58
  -7  -1  -4    0.86    0.50
   7  -1   4    1.06    0.69
  -7  -1  -4    0.25    0.50
   7   1   5    9.86    1.00
   7   1   5   10.79    0.96
   7   1   5    8.63    1.05
  -7   1  -5    9.62    1.10
  -7   1  -5   11.94    1.12
  -7   1  -5    6.35    0.98
  -7  -1  -5   10.87    1.11
  -7  -1  -5    8.33    0.91
   7  -1   5   10.83    1.00
   7  -1   5    9.48    1.02
  -7   2   5    4.14    0.50
  -7   2   5    4.40    0.72
  -7  -2   5    3.57    0.59
  -7  -2   5    2.82    0.79
  -7   2   4   68.90    3.21
  -7   2   4   71.14    2.99
  -7  -2   4   66.78    3.08
  -7  -2   4   68.19    3.29
  -7   2   3    1.79    0.20
  -7   2   3    1.79    0.54
  -7   2   3    1.89    0.20
  -7   2   3    1.49    0.33
  -7  -2   3    1.83    0.21
  -7  -2   3    2.46    0.66
  -7  -2   3    2.15    0.48
  -7  -2   3    1.53    0.20
  -7   2   2    5.99    0.42
  -7   2   2    5.96    0.41
   7   2  -2    6.19    0.75
  -7   2   2    3.92    0.62
  -7   2   2    5.75    0.53
  -7  -2   2    4.20    0.70
  -7  -2   2    5.59    0.41
  -7  -2   2    6.04    0.75
  -7  -2   2    5.33    0.42
   7   2  -1    0.51    0.57
  -7   2   1    0.61    0.24
  -7   2   1    0.71    0.25
  -7  -2   1    0.87    0.25
   7  -2  -1    1.39    0.41
  -7  -2   1    0.97    0.25
  -7   2   0   55.44    2.46
   7   2   0   55.77    2.75
  -7   2   0   57.29    2.46
  -7   2   0   55.56    2.46
   7  -2   0   58.03    2.58
  -7  -2   0   56.97    2.47
  -7  -2   0   56.80    2.47
  -7   2  -1   15.32    0.90
   7   2   1   14.56    1.31
  -7   2  -1   15.61    0.88
  -7   2  -1   15.34    0.92
  -7  -2  -1   15.98    1.05
   7  -2   1   15.61    1.10
  -7  -2  -1   15.30    0.90
  -7  -2  -1   14.31    0.91
   7   2   2   54.22    2.38
  -7   2  -2   55.68    2.47
  -7   2  -2   56.08    2.50
   7   2   2   52.37    2.78
   7   2   2   58.03    2.41
  -7   2  -2   56.71    2.50
   7  -2   2   47.83    2.38
  -7  -2  -2   56.26    2.55
   7  -2   2   57.43    2.39
   7  -2   2   57.66    2.65
  -7  -2  -2   56.73    2.50
  -7  -2  -2   55.78    2.50
   7   2   3    1.63    0.36
  -7   2  -3    1.79    0.47
  -7   2  -3    0.86    0.44
   7   2   3    0.98    0.37
   7   2   3    0.51    0.74
  -7   2  -3    0.43    0.44
   7  -2   3    1.03    0.35
  -7  -2  -3    1.13    0.45
  -7  -2  -3    1.54    0.45
   7  -2   3    1.81    0.62
   7  -2   3    1.35    0.37
  -7  -2  -3    0.63    0.52
   7   2   4    0.21    0.39
   7   2   4    0.71    0.75
  -7   2  -4    0.44    0.50
   7   2   4   -0.14    0.42
  -7   2  -4    0.31    0.48
  -7   2  -4   -0.67    0.49
  -7  -2  -4   -0.50    0.49
   7  -2   4    0.04    0.41
  -7  -2  -4    0.35    0.57
   7  -2   4    0.74    0.42
  -7  -2  -4   -0.04    0.48
   7  -2   4   -0.30    0.65
   7   2   5   -0.13    0.79
   7   2   5    0.33    0.54
   7   2   5    0.53    0.49
  -7   2  -5    0.72    0.61
   7  -2   5    0.19    0.48
  -7  -2  -5    0.19    0.56
   7  -2   5   -0.32    0.51
  -7  -2  -5    0.67    0.69
  -7   3   5   49.80    2.51
  -7   3   5   50.08    2.15
  -7   3   5   53.62    2.27
  -7   3   5   50.14    2.17
  -7  -3   5   51.03    2.42
  -7  -3   5   50.61    2.17
  -7  -3   5   48.07    2.64
  -7  -3   5   49.54    2.17
  -7   3   4    2.35    0.37
  -7   3   4    2.15    0.27
  -7   3   4    1.85    0.26
  -7   3   4    2.62    0.58
  -7  -3   4    2.67    0.55
  -7  -3   4    1.43    0.27
  -7  -3   4    2.19    0.28
  -7  -3   4    2.42    0.74
  -7   3   3   42.56    1.81
  -7   3   3   38.97    2.09
  -7   3   3   43.81    1.86
  -7   3   3   41.88    1.80
  -7  -3   3   41.09    2.26
  -7  -3   3   41.81    1.81
  -7  -3   3   42.92    1.82
  -7  -3   3   42.47    2.06
  -7   3   2   43.30    1.96
   7   3  -2   49.97    2.35
  -7   3   2   44.12    1.97
  -7   3   2   45.47    2.20
  -7   3   2   45.45    1.96
  -7  -3   2   45.68    1.97
  -7  -3   2   45.34    2.39
  -7  -3   2   45.17    1.97
   7   3  -1    3.66    0.73
  -7   3   1    3.70    0.44
  -7   3   1    3.08    0.32
  -7   3   1    3.04    0.34
  -7   3   1    3.58    0.44
  -7  -3   1    3.65    0.46
  -7  -3   1    3.29    0.34
   7   3   0   14.90    1.32
  -7   3   0   14.41    0.80
  -7   3   0   13.79    0.84
  -7   3   0   15.18    0.86
  -7  -3   0   15.95    0.86
  -7  -3   0   15.22    0.86
   7  -3   0   15.63    0.95
  -7   3  -1   57.27    2.46
  -7   3  -1   54.29    2.50
   7   3   1   55.92    2.81
  -7   3  -1   53.45    2.50
   7  -3   1   60.60    2.59
  -7  -3  -1   52.90    2.50
  -7  -3  -1   59.80    2.51
  -7   3  -2    0.97    0.37
   7   3   2    1.53    0.72
   7   3   2    1.02    0.26
  -7   3  -2    1.17    0.40
   7   3   2    1.70    0.34
  -7   3  -2    1.62    0.42
  -7  -3  -2    1.12    0.51
   7  -3   2    1.67    0.29
  -7  -3  -2    1.67    0.40
  -7  -3  -2    1.11    0.39
   7  -3   2    2.05    0.51
   7  -3   2    1.15    0.25
  -7   3  -3   10.62    0.94
   7   3   3   11.11    1.45
   7   3   3   10.55    0.78
   7   3   3   11.69    0.82
  -7   3  -3   10.69    0.86
  -7   3  -3   10.00    0.94
  -7  -3  -3   10.87    0.94
  -7  -3  -3   10.04    1.03
   7  -3   3   11.20    0.79
   7  -3   3   10.36    1.10
  -7  -3  -3   10.87    0.94
   7  -3   3   11.26    0.78
  -7   3  -4   10.83    0.94
   7   3   4    9.59    0.92
  -7   3  -4    9.46    1.03
   7   3   4    7.77    1.04
  -7   3  -4    9.89    1.01
  -7  -3  -4   10.30    1.04
  -7  -3  -4   10.20    1.03
   7  -3   4   10.03    1.22
   7  -3   4    9.78    0.82
  -7  -3  -4   10.92    1.15
   7  -3   4    9.29    0.90
  -7   4   5   -0.10    0.26
  -7   4   5    0.14    0.34
  -7   4   5    0.78    0.30
  -7   4   5    0.39    0.55
  -7  -4   5    0.82    0.29
  -7  -4   5   -0.47    0.65
  -7  -4   5    0.16    0.30
  -7  -4   5   -0.02    0.57
  -7   4   4   40.72    2.09
  -7   4   4   42.91    1.83
  -7   4   4   39.37    1.82
  -7   4   4   41.30    1.82
  -7  -4   4   41.59    2.07
  -7  -4   4   42.10    2.29
  -7  -4   4   40.24    1.84
  -7  -4   4   41.36    1.84
  -7   4   3   18.74    0.87
  -7   4   3   17.59    1.19
  -7   4   3   17.82    0.89
  -7   4   3   17.80    0.87
  -7  -4   3   16.06    1.23
  -7  -4   3   17.17    0.87
  -7  -4   3   18.96    1.45
  -7  -4   3   17.14    0.90
  -7   4   2    0.15    0.24
  -7   4   2   -0.64    0.40
  -7   4   2   -0.28    0.22
   7   4  -2    0.23    0.61
  -7   4   2   -0.10    0.21
  -7  -4   2    0.26    0.60
  -7  -4   2    0.40    0.25
  -7  -4   2    0.31    0.24
  -7   4   1   44.97    1.90
   7   4  -1   44.16    2.37
  -7   4   1   46.60    1.97
  -7   4   1   42.95    1.90
  -7   4   1   44.10    1.96
  -7  -4   1   45.82    1.98
  -7  -4   1   42.38    1.96
  -7   4   0  117.13    4.95
  -7   4   0  115.90    4.95
  -7   4   0  119.76    4.89
   7   4   0  111.87    5.21
   7  -4   0  120.32    4.97
  -7  -4   0  117.29    4.95
  -7  -4   0  117.27    4.95
   7   4   1   10.18    1.31
  -7   4  -1   10.42    0.79
  -7   4  -1   10.90    0.66
  -7   4  -1   10.77    0.78
  -7  -4  -1    9.38    0.78
   7  -4   1   11.55    0.82
  -7  -4  -1   11.12    0.80
  -7   4  -2   57.48    2.68
  -7   4  -2   61.83    2.69
   7   4   2   59.47    2.62
  -7   4  -2   58.83    2.61
   7   4   2   58.42    3.01
   7  -4   2   59.20    2.57
   7  -4   2   59.08    2.73
  -7  -4  -2   59.84    2.80
  -7  -4  -2   60.92    2.69
  -7  -4  -2   62.39    2.70
   7   4   3   29.08    2.07
  -7   4  -3   34.12    1.68
  -7   4  -3   33.33    1.58
  -7   4  -3   31.52    1.66
   7   4   3   33.15    1.54
   7   4   3   32.89    1.58
  -7  -4  -3   31.31    1.77
  -7  -4  -3   32.90    1.67
   7  -4   3   28.45    1.55
  -7  -4  -3   31.81    1.68
   7  -4   3   32.14    1.55
   7  -4   3   32.58    1.76
   7   4   4   14.35    1.61
   7   4   4   11.10    0.98
  -7   4  -4   10.62    1.10
  -7   4  -4   14.91    1.11
  -7   4  -4   12.21    0.98
  -7  -4  -4   12.68    1.11
  -7  -4  -4   13.12    1.12
  -7  -4  -4   11.22    1.22
   7  -4   4   11.61    1.25
   7  -4   4   11.43    0.96
  -7   5   5   26.77    1.58
  -7   5   5   23.13    1.25
  -7   5   5   28.11    1.29
  -7   5   5   26.01    1.23
  -7  -5   5   24.48    1.88
  -7  -5   5   25.52    1.29
  -7  -5   5   24.10    1.59
  -7  -5   5   27.04    1.28
  -7   5   4    2.55    0.29
  -7   5   4    2.98    0.38
  -7   5   4    2.84    0.39
  -7   5   4    2.51    0.55
  -7  -5   4    3.14    0.40
  -7  -5   4    3.21    0.65
  -7  -5   4    1.91    0.39
  -7  -5   4    2.22    0.73
  -7   5   3   32.78    1.52
  -7   5   3   32.77    1.50
  -7   5   3   32.46    1.70
  -7  -5   3   31.76    1.53
  -7  -5   3   33.63    1.51
  -7  -5   3   33.99    1.82
  -7  -5   3   33.66    2.02
   7   5  -2   35.24    2.06
  -7   5   2   34.75    1.61
  -7   5   2   35.30    1.60
  -7  -5   2   36.26    1.62
  -7  -5   2   35.99    1.63
  -7  -5   2   34.41    2.09
   7   5  -1    9.64    1.33
  -7   5   1   12.22    0.75
  -7   5   1   12.98    0.76
  -7  -5   1   12.37    0.76
  -7  -5   1   11.86    0.77
   7   5   0   17.12    1.49
  -7   5   0   17.42    0.99
  -7   5   0   17.76    0.99
  -7  -5   0   17.56    0.99
  -7  -5   0   17.00    0.98
  -7   5  -1   24.61    1.27
  -7   5  -1   24.66    1.28
   7   5   1   23.47    1.74
  -7   5  -1   22.61    1.12
  -7  -5  -1   23.84    1.27
  -7  -5  -1   25.40    1.30
   7  -5   1   25.05    1.23
  -7   5  -2   59.93    2.74
   7   5   2   60.86    3.08
  -7   5  -2   60.25    2.73
   7   5   2   62.41    2.68
  -7   5  -2   58.89    2.62
  -7  -5  -2   58.93    2.74
  -7  -5  -2   62.45    2.89
  -7  -5  -2   59.13    2.73
   7  -5   2   61.27    2.61
   7  -5   2   61.33    2.71
  -7   5  -3    2.94    0.54
  -7   5  -3    3.25    0.47
   7   5   3    4.10    0.90
  -7   5  -3    2.16    0.52
   7   5   3    2.52    0.46
   7   5   3    2.70    0.43
   7  -5   3    3.54    0.57
  -7  -5  -3    4.04    0.75
  -7  -5  -3    3.37    0.55
   7  -5   3    2.47    0.43
   7  -5   3    3.21    0.47
  -7  -5  -3    2.35    0.51
  -7   5  -4   27.19    1.45
   7   5   4   25.49    1.48
  -7   5  -4   27.99    1.58
  -7   5  -4   27.26    1.59
   7   5   4   26.94    2.02
  -7  -5  -4   26.38    1.56
  -7  -5  -4   26.46    1.61
  -7  -5  -4   24.38    1.71
   7  -5   4   27.70    1.65
   7  -5   4   26.87    1.45
  -7   6   4   24.61    1.33
  -7   6   4   27.23    1.32
  -7   6   4   26.21    1.48
  -7  -6   4   26.52    1.66
  -7  -6   4   27.61    1.87
  -7  -6   4   26.48    1.34
  -7  -6   4   25.10    1.34
  -7   6   3   35.96    1.84
  -7   6   3   39.18    1.75
  -7  -6   3   38.47    2.21
  -7  -6   3   38.05    2.05
  -7  -6   3   38.23    1.74
  -7  -6   3   36.79    1.76
   7   6  -2    0.39    0.74
  -7   6   2    1.14    0.34
  -7   6   2    1.29    0.32
  -7  -6   2    0.04    0.67
  -7  -6   2    0.36    0.33
  -7  -6   2    0.81    0.31
  -7   6   1   52.90    2.30
  -7   6   1   55.54    2.32
   7   6  -1   50.35    2.71
  -7  -6   1   48.91    2.30
  -7  -6   1   50.09    2.31
  -7   6   0   32.53    1.54
  -7   6   0   30.81    1.54
   7   6   0   30.91    2.01
  -7  -6   0   31.17    1.54
  -7  -6   0   32.70    1.55
  -7   6  -1   -0.36    0.36
   7   6   1   -1.12    0.69
   7   6   1   -0.04    0.11
  -7   6  -1    0.26    0.21
  -7   6  -1    0.32    0.38
   7   6   1    0.26    0.24
  -7  -6  -1   -0.07    0.36
  -7  -6  -1   -0.69    0.36
   7  -6   1    0.02    0.27
  -7   6  -2   31.81    1.60
  -7   6  -2   29.85    1.59
   7   6   2   32.17    1.54
   7   6   2   30.38    2.00
  -7   6  -2   29.23    1.41
   7  -6   2   30.50    1.49
   7  -6   2   30.13    1.43
  -7  -6  -2   34.39    1.83
  -7  -6  -2   29.88    1.61
  -7  -6  -2   29.54    1.58
  -7   6  -3   34.93    1.82
   7   6   3   31.82    1.73
   7   6   3   38.11    2.22
   7   6   3   34.94    1.66
  -7   6  -3   33.85    1.64
  -7   6  -3   35.31    1.80
  -7  -6  -3   35.21    1.82
   7  -6   3   33.89    1.73
  -7  -6  -3   35.88    2.01
   7  -6   3   33.69    1.67
  -7  -6  -3   35.34    1.80
  -7   6  -4    7.35    0.82
   7   6   4    7.88    0.91
  -7   6  -4    6.83    0.78
  -7   6  -4    5.43    0.71
   7   6   4    7.23    0.94
   7  -6   4    4.90    0.98
  -7  -6  -4    5.93    0.76
  -7  -6  -4    7.15    0.79
  -7  -6  -4    5.48    0.88
   7  -6   4    8.06    1.04
   7  -6   4    7.88    0.91
  -7   7   4    1.45    0.41
  -7   7   4    0.58    0.42
  -7   7   4    0.83    0.47
  -7  -7   4    0.35    0.80
  -7  -7   4    0.71    0.71
  -7  -7   4    0.20    0.41
  -7  -7   4    0.50    0.43
  -7   7   3    3.72    0.49
  -7   7   3    3.43    0.46
  -7   7   3    4.14    0.47
  -7  -7   3    3.50    0.49
  -7  -7   3    3.95    0.78
  -7  -7   3    3.14    0.79
  -7  -7   3    3.86    0.47
  -7   7   2   55.89    2.55
  -7   7   2   53.43    2.56
   7   7  -2   57.76    2.97
  -7  -7   2   60.75    2.57
  -7  -7   2   58.91    2.59
  -7  -7   2   59.53    3.01
   7   7  -1    4.22    0.88
  -7   7   1    5.05    0.51
  -7   7   1    4.73    0.49
  -7  -7   1    4.92    0.50
  -7  -7   1    4.50    0.52
  -7   7   0   12.65    0.90
  -7   7   0   12.83    0.92
   7   7   0   12.41    1.44
  -7  -7   0   12.46    0.92
  -7  -7   0   12.95    0.93
  -7   7  -1   18.74    1.18
  -7   7  -1   20.49    1.18
   7   7   1   18.56    1.67
   7   7   1   19.68    0.99
  -7  -7  -1   20.18    1.19
  -7  -7  -1   19.86    1.18
   7   7   2    1.55    0.44
  -7   7  -2    1.20    0.48
   7   7   2    0.77    0.79
  -7   7  -2    1.14    0.47
  -7   7  -2    1.37    0.30
   7  -7   2    0.93    0.28
  -7  -7  -2    1.28    0.77
   7  -7   2    1.28    0.34
   7  -7   2    1.24    0.31
  -7  -7  -2    0.65    0.49
  -7  -7  -2    0.80    0.46
   7   7   3    0.75    0.38
   7   7   3    0.47    0.49
   7   7   3    1.15    0.82
  -7   7  -3    1.55    0.51
  -7   7  -3    0.55    0.39
  -7   7  -3    1.26    0.55
   7  -7   3    0.99    0.35
   7  -7   3    1.17    0.41
  -7  -7  -3    1.52    0.84
  -7  -7  -3    1.58    0.58
  -7  -7  -3    1.41    0.52
   7  -7   3    1.14    0.44
  -7   8   3   27.89    1.43
  -7   8   3   28.14    1.43
  -7  -8   3   28.68    1.93
  -7  -8   3   23.29    1.76
  -7  -8   3   25.68    1.46
  -7  -8   3   27.70    1.44
   7   8  -2    0.56    0.82
  -7   8   2    0.96    0.41
  -7  -8   2    0.23    0.43
  -7  -8   2    0.77    0.40
  -7  -8   2   -0.07    0.83
  -7   8   1   63.43    2.88
   7   8  -1   66.07    3.28
  -7   8   1   64.07    2.90
  -7  -8   1   66.33    2.92
  -7  -8   1   63.92    2.88
  -7   8   0    0.20    0.43
   7   8   0   -0.03    0.70
  -7   8   0    0.36    0.40
  -7  -8   0    0.33    0.42
  -7  -8   0    0.04    0.42
   7   8   1    0.31    0.82
   7   8   1    0.44    0.33
   7   8   1    0.28    0.18
  -7   8  -1    0.41    0.44
  -7   8  -1   -0.33    0.43
   7  -8   1   -0.13    0.20
  -7  -8  -1   -0.43    0.43
  -7  -8  -1    0.65    0.47
   7  -8   1   -0.31    0.21
  -7   8  -2    0.07    0.22
   7   8   2   -0.22    0.23
  -7   8  -2    0.77    0.48
   7   8   2   -0.49    0.82
  -7   8  -2   -0.84    0.48
   7   8   2    0.27    0.45
  -7  -8  -2    0.43    0.49
   7  -8   2    0.86    0.31
   7  -8   2   -0.30    0.34
  -7  -8  -2   -0.25    0.53
   7   8   3   19.79    1.29
  -7   8  -3   18.05    0.97
  -7   8  -3   18.26    1.31
  -7   8  -3   17.25    1.30
  -7  -8  -3   17.37    1.35
  -7  -8  -3   15.94    1.29
   7  -8   3   17.30    1.14
  -7   9   3    0.39    0.45
  -7   9   3   -0.18    0.45
  -7  -9   3   -0.29    0.49
  -7  -9   3    1.00    0.47
  -7  -9   3    0.48    0.66
  -7   9   2   57.00    2.61
   7   9  -2   54.01    2.96
  -7  -9   2   56.40    2.60
  -7  -9   2   58.74    3.03
  -7  -9   2   56.77    2.62
   7   9  -1    0.24    0.85
  -7   9   1    0.70    0.46
  -7   9   1    0.97    0.44
  -7  -9   1    0.28    0.48
  -7  -9   1    0.59    0.44
  -7   9   0   17.45    1.20
   7   9   0   18.19    1.70
  -7   9   0   19.32    1.17
  -7  -9   0   16.96    1.20
  -7  -9   0   16.96    1.16
  -7   9  -1    4.00    0.61
   7   9   1    5.34    0.63
   7   9   1    2.97    0.95
  -7   9  -1    4.62    0.60
  -7  -9  -1    3.84    0.63
  -7  -9  -1    4.86    0.64
  -7   9  -2   23.12    1.42
  -7   9  -2   21.24    1.41
   7   9   2   23.64    1.33
  -7  -9  -2   20.33    1.41
  -7  -9  -2   21.04    1.46
   7  -9   2   21.83    1.20
  -7  10   1   50.56    2.41
  -7 -10   1   46.21    2.42
  -7 -10   1   53.53    2.41
  -7  10   0   -0.24    0.50
  -7  10   0    0.73    0.51
  -7 -10   0    0.41    0.54
  -7 -10   0    0.75    0.52
   7  10   1    0.88    0.47
   7  10   1    0.15    0.24
  -7  10  -1    0.41    0.55
  -7  10  -1    1.31    0.57
  -7 -10  -1   -0.33    0.56
   7 -10   1   -0.66    0.28
  -7 -10  -1    0.90    0.53
  -8   0   4   17.11    1.06
  -8   0   4   15.57    1.48
  -8   0   3   -0.30    0.39
  -8   0   3    0.38    0.64
  -8   0   2  103.00    4.20
  -8   0   2  105.46    4.20
  -8   0   2  103.72    4.55
  -8   0   2   88.40    4.29
  -8   0   1   -0.12    0.27
   8   0  -1    0.00    0.52
  -8   0   1   -0.31    0.27
  -8   0   0   18.34    1.01
  -8   0   0   19.98    1.12
  -8   0   0   17.01    1.01
   8   0   0   18.12    1.35
   8   0   1   -0.22    0.60
  -8   0  -1   -0.29    0.43
  -8   0  -1   -0.60    0.36
  -8   0  -1    0.55    0.36
  -8   0  -2    7.13    0.82
   8   0   2    6.14    0.84
  -8   0  -2    6.86    0.83
  -8   0  -2    6.45    0.84
  -8   0  -3    0.04    0.49
   8   0   3   -0.42    0.36
   8   0   3    1.15    0.24
  -8   0  -3    0.46    0.55
   8   0   3    0.50    0.73
  -8   0  -3   -0.65    0.48
  -8   1   4    6.83    0.89
  -8   1   4    8.05    0.76
  -8  -1   4    8.52    0.86
  -8  -1   4    8.74    1.03
  -8   1   3   48.42    2.59
  -8   1   3   49.17    2.30
  -8   1   3   52.66    2.17
  -8   1   3   51.39    2.17
  -8  -1   3   50.20    2.66
  -8  -1   3   52.85    2.17
  -8  -1   3   52.04    2.17
  -8  -1   3   50.79    2.36
  -8   1   2    0.10    0.36
  -8   1   2    0.12    0.24
  -8   1   2   -0.11    0.24
  -8  -1   2    0.06    0.43
  -8  -1   2   -0.78    0.61
  -8  -1   2   -0.13    0.23
  -8  -1   2    0.04    0.25
  -8   1   1   46.13    2.05
  -8   1   1   46.54    2.05
   8   1  -1   47.27    2.35
  -8  -1   1   44.00    2.05
  -8  -1   1   46.99    2.05
   8  -1  -1   47.42    2.26
  -8   1   0    0.36    0.32
  -8   1   0   -0.23    0.37
   8   1   0   -0.48    0.58
  -8   1   0   -0.45    0.32
   8  -1   0   -0.08    0.50
  -8  -1   0   -0.26    0.31
  -8  -1   0    0.02    0.33
   8   1   1   15.63    1.45
  -8   1  -1   16.65    1.03
  -8   1  -1   16.88    1.03
  -8   1  -1   16.35    1.01
  -8  -1  -1   17.62    1.02
  -8  -1  -1   16.84    1.01
  -8  -1  -1   16.55    1.09
   8  -1   1   16.18    1.29
  -8   1  -2    0.04    0.46
  -8   1  -2    0.31    0.42
  -8   1  -2   -0.45    0.42
   8   1   2   -0.80    0.64
   8  -1   2    0.00    0.59
  -8  -1  -2   -0.59    0.41
  -8  -1  -2   -0.23    0.49
  -8  -1  -2    0.36    0.43
  -8   1  -3   69.20    3.15
  -8   1  -3   73.13    3.18
  -8   1  -3   72.00    3.14
   8   1   3   64.48    3.42
   8   1   3   70.44    3.02
   8  -1   3   66.67    3.35
  -8  -1  -3   69.68    3.16
  -8  -1  -3   69.69    3.17
  -8  -1  -3   67.72    3.16
   8  -1   3   70.74    3.02
  -8   2   4    1.85    0.68
  -8   2   4    1.62    0.41
  -8  -2   4    1.13    0.53
  -8  -2   4    1.77    0.78
  -8   2   3    3.93    0.39
  -8   2   3    4.36    0.40
  -8   2   3    5.44    0.76
  -8   2   3    4.84    0.48
  -8  -2   3    5.48    0.85
  -8  -2   3    3.91    0.41
  -8  -2   3    3.66    0.59
  -8  -2   3    4.24    0.40
  -8   2   2   59.53    2.60
  -8   2   2   59.90    2.64
  -8   2   2   64.01    2.61
  -8  -2   2   59.33    2.79
  -8  -2   2   60.30    2.60
  -8  -2   2   61.71    2.61
  -8  -2   2   59.71    3.05
  -8   2   1    0.12    0.30
   8   2  -1   -0.03    0.59
  -8   2   1   -0.57    0.28
  -8   2   1   -0.38    0.34
  -8   2   1    0.26    0.34
  -8  -2   1   -0.52    0.27
  -8  -2   1   -0.03    0.29
   8   2   0   21.45    1.59
  -8   2   0   20.36    1.13
  -8   2   0   20.85    1.12
  -8   2   0   22.37    1.13
  -8  -2   0   21.96    1.13
   8  -2   0   22.17    1.31
  -8  -2   0   20.23    1.13
  -8   2  -1    1.43    0.41
  -8   2  -1    2.56    0.44
   8   2   1    1.24    0.77
  -8   2  -1    2.07    0.43
  -8  -2  -1    1.55    0.42
  -8  -2  -1    1.36    0.40
   8  -2   1    1.27    0.55
  -8  -2  -1    2.06    0.57
  -8   2  -2   18.80    1.21
  -8   2  -2   21.45    1.22
  -8   2  -2   19.59    1.16
   8   2   2   17.84    1.64
  -8  -2  -2   20.73    1.20
  -8  -2  -2   18.04    1.28
   8  -2   2   21.13    1.42
  -8  -2  -2   19.18    1.19
   8   2   3    6.31    0.73
   8   2   3    7.48    1.07
  -8   2  -3    7.78    0.96
  -8   2  -3    7.79    0.88
  -8   2  -3    7.83    0.95
  -8  -2  -3    7.68    0.94
   8  -2   3    4.73    0.81
  -8  -2  -3    6.82    0.70
   8  -2   3    6.76    0.69
  -8  -2  -3    7.57    0.80
  -8   3   4    5.15    0.49
  -8   3   4    4.39    0.57
  -8   3   4    4.93    0.77
  -8  -3   4    4.61    0.59
  -8  -3   4    4.10    0.65
  -8  -3   4    4.25    0.93
  -8   3   3   40.32    2.13
  -8   3   3   43.26    1.81
  -8   3   3   39.74    1.76
  -8   3   3   39.41    1.75
  -8  -3   3   40.22    1.77
  -8  -3   3   39.04    1.76
  -8  -3   3   41.42    2.36
  -8  -3   3   38.57    2.03
  -8   3   2   -0.65    0.28
  -8   3   2    0.20    0.26
  -8   3   2    0.34    0.27
  -8  -3   2   -0.04    0.26
  -8  -3   2    0.61    0.53
  -8  -3   2    0.44    0.71
  -8  -3   2   -0.28    0.26
  -8   3   1   47.59    2.18
  -8   3   1   50.58    2.20
  -8   3   1   47.66    2.16
   8   3  -1   50.66    2.60
  -8   3   1   49.47    2.16
  -8  -3   1   50.66    2.20
  -8  -3   1   50.12    2.20
  -8   3   0   30.24    1.43
  -8   3   0   28.97    1.44
   8   3   0   29.51    1.92
  -8   3   0   29.62    1.38
   8  -3   0   28.88    1.52
  -8  -3   0   26.37    1.42
  -8  -3   0   30.48    1.44
   8   3   1    7.81    0.99
  -8   3  -1   10.41    0.83
  -8   3  -1    8.91    0.74
  -8   3  -1   10.03    0.83
   8  -3   1    9.79    0.95
  -8  -3  -1   10.07    0.81
  -8  -3  -1    8.61    0.82
  -8  -3  -1    8.48    1.03
  -8   3  -2   13.39    1.03
   8   3   2   13.79    1.29
  -8   3  -2   12.42    0.92
  -8   3  -2   14.04    1.04
  -8  -3  -2   14.03    1.04
   8  -3   2   14.19    1.17
  -8  -3  -2   14.39    1.16
  -8  -3  -2   11.76    1.01
   8   3   3   20.88    1.77
  -8   3  -3   16.52    1.26
   8   3   3   19.23    1.11
  -8   3  -3   18.12    1.27
  -8   3  -3   19.49    1.19
  -8  -3  -3   18.87    1.27
   8  -3   3   19.10    1.44
   8  -3   3   17.35    1.04
  -8  -3  -3   19.71    1.28
  -8  -3  -3   18.76    1.39
  -8   4   3    3.18    0.34
  -8   4   3    3.54    0.65
  -8   4   3    3.05    0.34
  -8   4   3    3.48    0.34
  -8  -4   3    3.87    0.84
  -8  -4   3    3.54    0.71
  -8  -4   3    2.74    0.35
  -8  -4   3    2.82    0.35
  -8   4   2   49.89    2.05
   8   4  -2   47.56    2.60
  -8   4   2   49.69    2.12
  -8   4   2   47.64    2.11
  -8   4   2   47.76    2.06
  -8  -4   2   46.63    2.11
  -8  -4   2   48.95    2.68
  -8  -4   2   47.53    2.12
  -8  -4   2   44.68    2.36
  -8   4   1    9.51    0.70
  -8   4   1   10.02    0.58
   8   4  -1   10.85    1.11
  -8   4   1    8.76    0.58
  -8   4   1    9.12    0.70
  -8  -4   1    8.53    0.71
  -8  -4   1    9.40    0.72
   8   4   0    2.41    0.80
  -8   4   0    2.63    0.41
  -8   4   0    2.79    0.42
  -8   4   0    2.87    0.35
   8  -4   0    2.65    0.47
  -8  -4   0    3.26    0.43
  -8  -4   0    2.59    0.43
  -8   4  -1   23.11    1.24
   8   4   1   21.25    1.82
  -8   4  -1   22.68    1.24
  -8   4  -1   21.30    1.11
  -8  -4  -1   21.47    1.24
  -8  -4  -1   21.79    1.23
   8  -4   1   21.34    1.27
  -8  -4  -1   23.18    1.47
   8   4   2   38.43    2.35
  -8   4  -2   34.95    1.87
  -8   4  -2   38.72    1.77
  -8   4  -2   37.52    1.87
  -8  -4  -2   34.65    1.88
   8  -4   2   38.80    1.93
  -8  -4  -2   39.07    1.89
  -8  -4  -2   38.22    2.00
  -8   5   3   18.25    0.95
  -8   5   3   16.98    0.94
  -8   5   3   17.49    1.26
  -8  -5   3   15.41    1.37
  -8  -5   3   18.06    0.96
  -8  -5   3   17.42    0.96
  -8  -5   3   16.17    1.69
   8   5  -2   -0.82    0.78
  -8   5   2   -0.53    0.30
  -8   5   2    0.37    0.33
  -8  -5   2    0.08    0.33
  -8  -5   2   -0.38    0.31
  -8   5   1   38.53    1.79
   8   5  -1   34.06    2.30
  -8   5   1   39.08    1.79
  -8  -5   1   40.78    1.80
  -8  -5   1   38.19    1.79
  -8   5   0   15.83    0.79
  -8   5   0   16.86    1.02
  -8   5   0   16.77    1.02
   8   5   0   13.46    1.66
  -8  -5   0   17.94    1.03
  -8  -5   0   16.31    1.04
  -8   5  -1    1.89    0.33
  -8   5  -1    1.29    0.44
   8   5   1    0.65    0.85
  -8   5  -1    2.06    0.45
  -8  -5  -1    1.18    0.46
  -8  -5  -1    1.27    0.44
   8  -5   1    1.61    0.42
  -8   5  -2   19.46    1.18
   8   5   2   17.47    1.79
  -8   5  -2   16.12    1.17
  -8   5  -2   16.90    0.99
  -8  -5  -2   16.74    1.42
  -8  -5  -2   17.57    1.19
  -8  -5  -2   17.64    1.18
   8  -5   2   17.54    1.15
  -8   6   2   21.63    1.16
  -8   6   2   22.07    1.15
   8   6  -2   21.42    1.83
  -8  -6   2   21.34    1.17
  -8  -6   2   21.13    1.16
   8   6  -1   10.47    1.19
  -8   6   1   14.06    0.91
  -8   6   1   13.99    0.93
  -8  -6   1   14.07    0.92
  -8  -6   1   14.03    0.93
  -8   6   0    1.64    0.42
  -8   6   0    1.37    0.43
   8   6   0   -1.09    0.79
  -8  -6   0    1.56    0.43
  -8  -6   0    1.53    0.45
  -8   6  -1   43.33    2.13
  -8   6  -1   46.10    2.15
   8   6   1   43.74    2.62
  -8  -6  -1   45.59    2.15
  -8  -6  -1   44.04    2.14
  -8   7   1    5.50    0.56
  -8   7   1    5.89    0.74
  -8  -7   1    4.44    0.56
  -8  -7   1    4.91    0.56
  -8   7   0   33.27    1.72
  -8   7   0   32.89    1.71
  -8  -7   0   36.27    1.74
  -8  -7   0   33.85    1.74
  -8   7  -1    0.72    0.49
  -8   7  -1    0.97    0.47
  -8  -7  -1    1.19    0.54
   0   0   0    0.00    0.00
;
_shelx_hkl_checksum              95305
_shelx_res_file
;
TITL UMD624A in P2(1)/c
CELL 0.71073 7.3655 13.6885 7.2866 90 93.378 90
ZERR 4 0.0011 0.0022 0.0012 0 0.005 0
LATT 1
SYMM -X,0.5+Y,0.5-Z
SFAC C H N O Br
UNIT 32 16 4 8 4
EQIV $1 2-X,1-Y,1-Z
DFIX 0.9 N1 H1
L.S. 10
PLAN  5
SIZE 0.1 0.2 0.2
TEMP -153
HTAB N1 O1_$1
HTAB 2
BOND $H
CONF
MORE -1
fmap 2
acta 50.5
OMIT -3 11 6
REM <olex2.extras>
REM <HklSrc "%.\\UMD624A.hkl">
REM </olex2.extras>
WGHT    0.027600    0.481800
FVAR       0.19388
BR1   5    0.772318    0.024803    0.591148    11.00000    0.01757    0.01081 =
         0.02316    0.00006    0.00398   -0.00138
O1    4    1.147097    0.392266    0.438699    11.00000    0.01661    0.01463 =
         0.03034    0.00222    0.00725   -0.00159
O2    4    1.083200    0.181272    0.457552    11.00000    0.01686    0.01391 =
         0.02776   -0.00078    0.00747    0.00282
N1    3    0.866535    0.397916    0.566344    11.00000    0.01519    0.00961 =
         0.02169   -0.00040    0.00385    0.00168
H1    2    0.833753    0.461606    0.575212    11.00000   -1.20000
C1    1    1.013191    0.354251    0.498802    11.00000    0.01675    0.01278 =
         0.01600    0.00058    0.00093    0.00036
C2    1    0.978429    0.241550    0.510348    11.00000    0.01357    0.01229 =
         0.01378    0.00004    0.00001    0.00087
C3    1    0.800621    0.233145    0.590170    11.00000    0.01229    0.01242 =
         0.01143   -0.00071   -0.00003    0.00098
C4    1    0.690843    0.153923    0.630072    11.00000    0.01604    0.01285 =
         0.01286   -0.00045   -0.00006    0.00012
C5    1    0.521270    0.170411    0.698831    11.00000    0.01479    0.01937 =
         0.01598    0.00075    0.00235   -0.00264
AFIX  43
H5    2    0.446315    0.116879    0.728484    11.00000   -1.20000
AFIX   0
C6    1    0.462026    0.265852    0.723946    11.00000    0.01208    0.02591 =
         0.01335   -0.00173    0.00255    0.00160
AFIX  43
H6    2    0.345735    0.276212    0.770398    11.00000   -1.20000
AFIX   0
C7    1    0.567705    0.346833    0.683186    11.00000    0.01645    0.01707 =
         0.01441   -0.00161    0.00032    0.00459
AFIX  43
H7    2    0.525273    0.411576    0.699947    11.00000   -1.20000
AFIX   0
C8    1    0.736657    0.328752    0.617422    11.00000    0.01465    0.01141 =
         0.01156   -0.00073    0.00017   -0.00044
HKLF 4
REM  UMD624A in P2(1)/c
REM R1 =  0.0185 for    1285 Fo > 4sig(Fo)  and  0.0209 for all    1381 data
REM    112 parameters refined using      1 restraints
END
WGHT      0.0276      0.4818
REM Instructions for potential hydrogen bonds
HTAB N1 O1_$1
REM Highest difference peak  0.462,  deepest hole -0.448,  1-sigma level  0.079
Q1    1   0.7735  0.4808  0.5897  11.00000  0.05    0.46
Q2    1   0.7697  0.2814  0.6102  11.00000  0.05    0.41
Q3    1   0.9969  0.2996  0.4945  11.00000  0.05    0.34
Q4    1   0.7533  0.1986  0.6016  11.00000  0.05    0.32
Q5    1   0.6414  0.3391  0.6277  11.00000  0.05    0.23
;
_shelx_res_checksum              3136
_shelxl_version_number           2014/6
loop_
_space_group_symop_operation_xyz
'x, y, z'
'-x, y+1/2, -z+1/2'
'-x, -y, -z'
'x, -y-1/2, z-1/2'
loop_
_atom_site_type_symbol
_atom_site_label
_atom_site_fract_x
_atom_site_fract_y
_atom_site_fract_z
_atom_site_U_iso_or_equiv
_atom_site_adp_type
_atom_site_calc_flag
_atom_site_occupancy
Br Br1 0.77232(2) 0.02480(2) 0.59115(3) 0.01707(9) Uani d 1
O O1 1.14710(19) 0.39227(10) 0.4387(2) 0.0203(3) Uani d 1
O O2 1.08320(19) 0.18127(10) 0.4576(2) 0.0193(3) Uani d 1
N N1 0.8665(2) 0.39792(12) 0.5663(2) 0.0154(3) Uani d 1
H H1 0.834(3) 0.4616(12) 0.575(3) 0.018 Uiso d 1
C C1 1.0132(3) 0.35425(13) 0.4988(2) 0.0152(4) Uani d 1
C C2 0.9784(3) 0.24155(13) 0.5103(2) 0.0132(4) Uani d 1
C C3 0.8006(2) 0.23315(14) 0.5902(2) 0.0121(4) Uani d 1
C C4 0.6908(3) 0.15392(14) 0.6301(2) 0.0140(4) Uani d 1
C C5 0.5213(3) 0.17041(15) 0.6988(3) 0.0167(4) Uani d 1
H H5 0.4463 0.1169 0.7285 0.020 Uiso calc 1
C C6 0.4620(3) 0.26585(15) 0.7239(2) 0.0170(4) Uani d 1
H H6 0.3457 0.2762 0.7704 0.020 Uiso calc 1
C C7 0.5677(3) 0.34683(15) 0.6832(3) 0.0160(4) Uani d 1
H H7 0.5253 0.4116 0.6999 0.019 Uiso calc 1
C C8 0.7367(3) 0.32875(14) 0.6174(2) 0.0126(4) Uani d 1
loop_
_atom_site_aniso_label
_atom_site_aniso_U_11
_atom_site_aniso_U_22
_atom_site_aniso_U_33
_atom_site_aniso_U_12
_atom_site_aniso_U_13
_atom_site_aniso_U_23
Br1 0.01757(13) 0.01081(13) 0.02316(13) -0.00138(7) 0.00398(8) 0.00006(7)
O1 0.0166(7) 0.0146(7) 0.0303(8) -0.0016(6) 0.0073(6) 0.0022(6)
O2 0.0169(7) 0.0139(7) 0.0278(8) 0.0028(6) 0.0075(6) -0.0008(6)
N1 0.0152(8) 0.0096(8) 0.0217(8) 0.0017(6) 0.0039(6) -0.0004(7)
C1 0.0167(10) 0.0128(9) 0.0160(9) 0.0004(8) 0.0009(7) 0.0006(8)
C2 0.0136(9) 0.0123(9) 0.0138(8) 0.0009(7) 0.0000(7) 0.0000(7)
C3 0.0123(9) 0.0124(9) 0.0114(8) 0.0010(7) 0.0000(7) -0.0007(7)
C4 0.0160(9) 0.0128(9) 0.0129(8) 0.0001(7) -0.0001(7) -0.0004(7)
C5 0.0148(9) 0.0194(10) 0.0160(9) -0.0026(8) 0.0023(7) 0.0008(8)
C6 0.0121(9) 0.0259(11) 0.0134(8) 0.0016(8) 0.0026(7) -0.0017(8)
C7 0.0165(10) 0.0171(10) 0.0144(9) 0.0046(8) 0.0003(7) -0.0016(7)
C8 0.0146(9) 0.0114(9) 0.0116(8) -0.0004(7) 0.0002(7) -0.0007(7)
loop_
_atom_type_symbol
_atom_type_description
_atom_type_scat_dispersion_real
_atom_type_scat_dispersion_imag
_atom_type_scat_source
C C 0.0033 0.0016 'International Tables Vol C Tables 4.2.6.8 and 6.1.1.4'
H H 0.0000 0.0000 'International Tables Vol C Tables 4.2.6.8 and 6.1.1.4'
N N 0.0061 0.0033 'International Tables Vol C Tables 4.2.6.8 and 6.1.1.4'
O O 0.0106 0.0060 'International Tables Vol C Tables 4.2.6.8 and 6.1.1.4'
Br Br -0.2901 2.4595 'International Tables Vol C Tables 4.2.6.8 and 6.1.1.4'
loop_
_geom_angle_atom_site_label_1
_geom_angle_atom_site_label_2
_geom_angle_atom_site_label_3
_geom_angle
C1 N1 H1 132.2(17)
C1 N1 C8 111.58(16)
C8 N1 H1 116.0(17)
O1 C1 N1 128.50(17)
O1 C1 C2 125.29(17)
N1 C1 C2 106.20(15)
O2 C2 C1 123.09(17)
O2 C2 C3 132.38(18)
C3 C2 C1 104.52(15)
C4 C3 C2 133.28(18)
C4 C3 C8 119.37(17)
C8 C3 C2 107.25(16)
C3 C4 Br1 120.15(14)
C5 C4 Br1 120.30(15)
C5 C4 C3 119.55(18)
C4 C5 H5 120.2
C4 C5 C6 119.62(18)
C6 C5 H5 120.2
C5 C6 H6 118.9
C5 C6 C7 122.26(18)
C7 C6 H6 118.9
C6 C7 H7 121.4
C8 C7 C6 117.14(18)
C8 C7 H7 121.4
C3 C8 N1 110.39(16)
C7 C8 N1 127.55(18)
C7 C8 C3 122.05(18)
loop_
_geom_bond_atom_site_label_1
_geom_bond_atom_site_label_2
_geom_bond_distance
Br1 C4 1.8933(19)
O1 C1 1.219(2)
O2 C2 1.208(2)
N1 H1 0.908(16)
N1 C1 1.352(3)
N1 C8 1.411(3)
C1 C2 1.567(3)
C2 C3 1.468(3)
C3 C4 1.394(3)
C3 C8 1.409(3)
C4 C5 1.391(3)
C5 H5 0.9500
C5 C6 1.393(3)
C6 H6 0.9500
C6 C7 1.396(3)
C7 H7 0.9500
C7 C8 1.382(3)
loop_
_geom_hbond_atom_site_label_D
_geom_hbond_atom_site_label_H
_geom_hbond_atom_site_label_A
_geom_hbond_site_symmetry_A
_geom_hbond_distance_DH
_geom_hbond_distance_HA
_geom_hbond_distance_DA
_geom_hbond_angle_DHA
N1 H1 O1 3_766 0.908(16) 2.008(18) 2.874(2) 159(2)
loop_
_geom_torsion_atom_site_label_1
_geom_torsion_atom_site_label_2
_geom_torsion_atom_site_label_3
_geom_torsion_atom_site_label_4
_geom_torsion
Br1 C4 C5 C6 -178.98(14)
O1 C1 C2 O2 -0.8(3)
O1 C1 C2 C3 -179.57(18)
O2 C2 C3 C4 -1.0(4)
O2 C2 C3 C8 -177.2(2)
N1 C1 C2 O2 178.72(18)
N1 C1 C2 C3 -0.04(19)
C1 N1 C8 C3 2.4(2)
C1 N1 C8 C7 -176.77(18)
C1 C2 C3 C4 177.55(18)
C1 C2 C3 C8 1.40(18)
C2 C3 C4 Br1 3.3(3)
C2 C3 C4 C5 -176.79(18)
C2 C3 C8 N1 -2.3(2)
C2 C3 C8 C7 176.91(16)
C3 C4 C5 C6 1.1(3)
C4 C3 C8 N1 -179.08(16)
C4 C3 C8 C7 0.1(3)
C4 C5 C6 C7 -0.3(3)
C5 C6 C7 C8 -0.5(3)
C6 C7 C8 N1 179.71(17)
C6 C7 C8 C3 0.6(3)
C8 N1 C1 O1 178.14(19)
C8 N1 C1 C2 -1.4(2)
C8 C3 C4 Br1 179.07(13)
C8 C3 C4 C5 -1.0(3)

_cod_database_fobs_code 1542532
