#------------------------------------------------------------------------------
#$Date: 2016-03-04 14:02:31 +0200 (Fri, 04 Mar 2016) $
#$Revision: 177525 $
#$URL: svn://www.crystallography.net/cod/cif/1/54/24/1542477.cif $
#------------------------------------------------------------------------------
#
# This file is available in the Crystallography Open Database (COD),
# http://www.crystallography.net/
#
# All data on this site have been placed in the public domain by the
# contributors.
#
data_1542477
loop_
_publ_author_name
'Klass, Michaela'
'N\"ather, Christian'
'Tuczek, Felix'
_publ_section_title
;
 6-Methyl-2-[(6-methylpyridin-2-yl)amino]pyridinium chloride chloroform
 monosolvate
;
_journal_coeditor_code           HB4005
_journal_issue                   1
_journal_name_full               IUCrData
_journal_page_first              x152467
_journal_paper_doi               10.1107/S2414314615024670
_journal_volume                  1
_journal_year                    2016
_chemical_formula_iupac          'C12 H12 N3 +, Cl -, C H3 Cl'
_chemical_formula_moiety         'C12 H12 N3 +, Cl -, C H3 Cl'
_chemical_formula_sum            'C13 H15 Cl4 N3'
_chemical_formula_weight         355.08
_chemical_name_systematic
;6-Methyl-2-[(6-methylpyridin-2-yl)amino]pyridinium chloride chloroform
monosolvate
;
_space_group_crystal_system      triclinic
_space_group_IT_number           2
_space_group_name_Hall           '-P 1'
_space_group_name_H-M_alt        'P -1'
_symmetry_space_group_name_Hall  '-P 1'
_symmetry_space_group_name_H-M   'P -1'
_atom_sites_solution_hydrogens   mixed
_audit_creation_method           SHELXL-2014
_cell_angle_alpha                71.744(3)
_cell_angle_beta                 89.177(4)
_cell_angle_gamma                72.582(4)
_cell_formula_units_Z            2
_cell_length_a                   7.0474(3)
_cell_length_b                   9.7775(5)
_cell_length_c                   12.8695(6)
_cell_measurement_reflns_used    11648
_cell_measurement_temperature    170(2)
_cell_measurement_theta_max      27.005
_cell_measurement_theta_min      1.673
_cell_volume                     800.44(7)
_computing_cell_refinement
;
X-AREA (Stoe, 2008)
;
_computing_data_collection
;
X-AREA (Stoe, 2008)
;
_computing_data_reduction
;
X-AREA (Stoe, 2008)
;
_computing_molecular_graphics
;
DIAMOND (Brandenburg, 1999)
;
_computing_publication_material
;
publCIF (Westrip, 2010)
;
_computing_structure_refinement
;
SHELXL2014 (Sheldrick, 2015)
;
_computing_structure_solution
;
SHELXS97 (Sheldrick, 2008)
;
_diffrn_ambient_temperature      170(2)
_diffrn_measured_fraction_theta_full 0.999
_diffrn_measured_fraction_theta_max 0.999
_diffrn_measurement_device_type  'Stoe IPDS-2'
_diffrn_measurement_method       'Omega scan'
_diffrn_radiation_type           MoK\a
_diffrn_radiation_wavelength     0.71073
_diffrn_reflns_av_R_equivalents  0.0288
_diffrn_reflns_limit_h_max       9
_diffrn_reflns_limit_h_min       -9
_diffrn_reflns_limit_k_max       12
_diffrn_reflns_limit_k_min       -12
_diffrn_reflns_limit_l_max       16
_diffrn_reflns_limit_l_min       -14
_diffrn_reflns_number            11648
_diffrn_reflns_theta_full        25.242
_diffrn_reflns_theta_max         27.005
_diffrn_reflns_theta_min         1.673
_exptl_absorpt_coefficient_mu    0.732
_exptl_absorpt_correction_T_max  0.9410
_exptl_absorpt_correction_T_min  0.8024
_exptl_absorpt_correction_type   numerical
_exptl_absorpt_process_details   '(X-RED and X-SHAPE; Stoe, 2008)'
_exptl_crystal_colour            colorless
_exptl_crystal_density_diffrn    1.473
_exptl_crystal_description       block
_exptl_crystal_F_000             364
_exptl_crystal_size_max          0.14
_exptl_crystal_size_mid          0.10
_exptl_crystal_size_min          0.06
_refine_diff_density_max         0.373
_refine_diff_density_min         -0.498
_refine_ls_extinction_coef       0.012(4)
_refine_ls_extinction_expression Fc^*^=kFc[1+0.001xFc^2^\l^3^/sin(2\q)]^-1/4^
_refine_ls_extinction_method
;
SHELXL2014 (Sheldrick, 2015)
;
_refine_ls_goodness_of_fit_ref   1.068
_refine_ls_hydrogen_treatment    constr
_refine_ls_matrix_type           full
_refine_ls_number_parameters     184
_refine_ls_number_reflns         3487
_refine_ls_number_restraints     0
_refine_ls_restrained_S_all      1.068
_refine_ls_R_factor_all          0.0464
_refine_ls_R_factor_gt           0.0366
_refine_ls_shift/su_max          0.001
_refine_ls_shift/su_mean         0.000
_refine_ls_structure_factor_coef Fsqd
_refine_ls_weighting_details
'w=1/[\s^2^(Fo^2^)+(0.0529P)^2^+0.1904P] where P=(Fo^2^+2Fc^2^)/3'
_refine_ls_weighting_scheme      calc
_refine_ls_wR_factor_gt          0.0956
_refine_ls_wR_factor_ref         0.0998
_reflns_number_gt                2885
_reflns_number_total             3487
_reflns_threshold_expression     'I > 2\s(I)'
_cod_data_source_file            hb4005sup1.cif
_cod_data_source_block           I
_cod_depositor_comments          'Adding full bibliography for 1542477.cif.'
_cod_database_code               1542477
_cod_database_fobs_code          1542477
_shelx_space_group_comment
;
The symmetry employed for this shelxl refinement is uniquely defined
by the following loop, which should always be used as a source of
symmetry information in preference to the above space-group names.
They are only intended as comments.
;
_shelx_hkl_file
;
   1   0   0    0.42    5.72   0
  -1   0   0    2.95    5.60   0
  -1   0   0    0.89    5.36   0
   2   0   0  100.23    4.19   0
  -2   0   0  104.70    5.29   0
  -2   0   0  111.76    5.95   0
  -3   0   0    3.40    3.63   0
   3   0   0    3.79    2.76   0
  -3   0   0    3.16    3.81   0
  -4   0   0 1656.08    8.98   0
   4   0   0 1702.30    9.10   0
  -4   0   0 1762.36   11.40   0
   5   0   0    6.09    3.53   0
  -5   0   0    3.67    4.48   0
  -5   0   0    4.99    3.50   0
  -6   0   0   -0.20    2.49   0
  -6   0   0    1.96    4.61   0
   6   0   0    6.28    3.44   0
   7   0   0   92.64    4.15   0
  -7   0   0   86.49    5.26   0
  -7   0   0   82.93    4.61   0
  -7   0   0   92.81    4.21   0
  -8   0   0    3.87    3.99   0
   8   0   0    4.22    4.14   0
  -8   0   0    4.34    5.24   0
  -8   0   0    0.19    4.02   0
  -8   1   0    1.17    4.44   0
  -8   1   0    0.91    4.41   0
  -8   1   0    4.28    4.18   0
   8  -1   0   -1.78    4.36   0
  -7   1   0    7.87    4.91   0
   7  -1   0    3.51    3.75   0
  -7   1   0   -1.27    3.97   0
  -6   1   0  170.95    4.49   0
  -6   1   0  164.71    5.48   0
   6  -1   0  173.85    4.49   0
  -5   1   0  120.75    4.55   0
   5  -1   0  113.91    4.13   0
  -5   1   0  114.20    4.06   0
  -4   1   0 2377.24   12.39   0
   4  -1   0 2282.91    9.78   0
  -4   1   0 2186.77    9.78   0
  -3   1   0  281.54    5.76   0
   3  -1   0  283.02    5.75   0
  -3   1   0  289.42    5.20   0
   3  -1   0  279.07    5.13   0
  -2   1   0 1323.69    9.58   0
   2  -1   0 1392.13   10.12   0
  -2   1   0 1481.63   12.33   0
   2  -1   0 1445.01   12.11   0
  -1   1   0   76.98    5.97   0
   1  -1   0   75.58    6.08   0
  -1   1   0   75.78    6.48   0
   1  -1   0   72.30    6.53   0
   0  -1   0 1358.82   17.58   0
   0   1   0 1322.69   16.64   0
   0  -1   0 1351.80   18.56   0
  -1  -1   0 1557.12   16.40   0
   1   1   0 1520.50   16.21   0
  -1  -1   0 1520.46   15.30   0
   1   1   0 1543.19   15.42   0
  -2  -1   0 9999.99   27.78   0
  -3  -1   0 2109.12   11.20   0
   3   1   0 2123.67   11.18   0
  -3  -1   0 2129.13   13.15   0
   4   1   0 1446.61    8.71   0
  -4  -1   0 1402.63    8.50   0
  -4  -1   0 1453.12   10.12   0
  -5  -1   0  129.48    3.26   0
  -5  -1   0  135.95    5.09   0
   5   1   0  143.89    4.33   0
  -5  -1   0  143.14    4.43   0
  -6  -1   0  163.76    4.09   0
   6   1   0  168.93    4.37   0
  -6  -1   0  157.50    5.45   0
  -6  -1   0  153.22    5.54   0
  -7  -1   0    4.89    3.64   0
   7   1   0    7.87    3.70   0
  -7  -1   0    1.39    4.63   0
  -7  -1   0    6.30    3.44   0
  -8  -1   0   46.79    4.59   0
   8   1   0   53.67    4.28   0
  -8  -1   0   58.76    5.32   0
  -8  -1   0   47.30    4.23   0
  -7   2   0   16.58    5.11   0
   7  -2   0   14.02    3.93   0
  -7   2   0   16.02    4.01   0
  -6   2   0   65.54    4.04   0
   6  -2   0   69.13    3.95   0
  -6   2   0   67.47    4.21   0
  -5   2   0   46.65    4.09   0
   5  -2   0   44.01    3.73   0
  -5   2   0   46.02    3.71   0
   4  -2   0  150.11    4.65   0
  -4   2   0  157.06    4.19   0
  -4   2   0  160.36    5.40   0
   4  -2   0  158.23    4.24   0
  -3   2   0    3.63    3.42   0
  -3   2   0    1.69    3.50   0
   3  -2   0    3.21    3.51   0
   3  -2   0    3.75    3.56   0
  -2   2   0  448.56    6.16   0
   2  -2   0  457.38    6.78   0
  -2   2   0  430.53    6.56   0
   2  -2   0  441.44    6.08   0
  -1   2   0  734.77    8.83   0
   1  -2   0  702.43    8.01   0
   1  -2   0  708.57    9.00   0
  -1   2   0  716.63    9.00   0
   0   2   0 6128.44   24.66   0
   0  -2   0 5821.96   26.14   0
   0  -2   0 5946.01   24.65   0
   0  -2   0 6317.52   26.98   0
  -1  -2   0   60.92    6.07   0
   1   2   0   65.90    5.83   0
   1   2   0   62.28    6.17   0
  -1  -2   0   62.73    5.72   0
  -3  -2   0  260.33    5.21   0
  -3  -2   0  269.20    5.45   0
   3   2   0  272.51    5.40   0
   4   2   0   32.25    2.80   0
  -4  -2   0   33.16    3.66   0
  -4  -2   0   33.87    3.64   0
   5   2   0  235.10    4.85   0
  -5  -2   0  240.13    4.48   0
  -5  -2   0  247.72    4.95   0
   6   2   0   38.52    2.72   0
  -6  -2   0   33.36    3.87   0
  -6  -2   0   33.49    3.77   0
  -6  -2   0   33.30    3.61   0
  -7  -2   0    8.52    3.67   0
  -7  -2   0    4.60    3.57   0
   7   2   0    4.77    3.78   0
  -7  -2   0    3.28    3.71   0
  -8  -2   0    3.45    3.81   0
   8   2   0    3.33    2.83   0
  -8  -2   0    2.80    5.15   0
  -8  -2   0    6.69    3.87   0
  -7   3   0  156.34    5.41   0
   7  -3   0  155.79    5.12   0
  -7   3   0  143.98    5.11   0
  -6   3   0    0.86    3.81   0
   6  -3   0    2.00    3.90   0
  -6   3   0    4.27    3.88   0
   5  -3   0   65.08    3.97   0
   5  -3   0   62.94    4.10   0
  -5   3   0   59.45    3.04   0
  -5   3   0   69.04    4.86   0
  -4   3   0  617.08    6.54   0
   4  -3   0  650.59    6.36   0
  -4   3   0  623.20    5.66   0
   4  -3   0  665.37    6.87   0
   3  -3   0  193.12    4.52   0
  -3   3   0  195.77    4.56   0
  -3   3   0  185.04    4.73   0
   3  -3   0  199.74    4.88   0
   2  -3   0 1288.85    9.47   0
  -2   3   0 1226.05    9.13   0
   2  -3   0 1237.95    8.52   0
  -2   3   0 1175.13    8.20   0
  -1   3   0 3486.15   14.85   0
   1  -3   0 3524.70   15.27   0
  -1   3   0 3470.62   15.19   0
   1  -3   0 3495.32   15.18   0
   0  -3   0  555.55    7.74   0
   0   3   0  583.23    7.21   0
   0  -3   0  597.04    7.92   0
   0  -3   0  597.11    7.62   0
   1   3   0   82.63    4.64   0
  -1  -3   0   80.88    4.91   0
   1   3   0   77.50    4.85   0
  -1  -3   0   80.79    4.72   0
   2   3   0  179.18    4.12   0
  -2  -3   0  176.66    5.18   0
   2   3   0  179.49    4.33   0
  -2  -3   0  185.04    4.81   0
  -3  -3   0  857.56    7.54   0
   3   3   0  850.88    7.46   0
   3   3   0  860.10    7.81   0
  -3  -3   0  849.11    7.71   0
  -4  -3   0 1628.36    9.83   0
   4   3   0 1638.13    8.92   0
  -4  -3   0 1613.58    8.96   0
  -5  -3   0  159.33    4.45   0
   5   3   0  159.60    4.50   0
  -5  -3   0  167.42    4.49   0
  -6  -3   0  463.74    5.46   0
  -6  -3   0  473.49    6.12   0
   6   3   0  448.61    4.66   0
  -7  -3   0   24.47    3.73   0
  -7  -3   0   17.76    3.70   0
   7   3   0   18.88    2.68   0
  -7  -3   0   18.60    3.88   0
  -8  -3   0    2.79    4.13   0
  -8  -3   0    7.56    3.87   0
   8   3   0    8.19    2.83   0
  -8  -3   0    3.17    4.03   0
  -7   4   0   76.78    6.14   0
  -7   4   0   53.98    4.86   0
   7  -4   0   61.43    4.91   0
   6  -4   0    6.49    4.00   0
  -6   4   0    4.50    4.06   0
  -6   4   0    5.35    4.05   0
   5  -4   0   23.08    2.80   0
  -5   4   0   23.91    4.03   0
   5  -4   0   21.35    4.02   0
  -5   4   0   17.91    2.86   0
   4  -4   0   37.59    3.85   0
  -4   4   0   32.59    3.78   0
  -4   4   0   38.38    3.96   0
   4  -4   0   36.33    3.74   0
  -3   4   0  228.10    4.87   0
   3  -4   0  253.37    5.11   0
  -3   4   0  234.06    4.78   0
   3  -4   0  249.79    4.80   0
   2  -4   0  687.26    6.66   0
  -2   4   0  661.25    6.78   0
   2  -4   0  674.79    6.93   0
  -2   4   0  652.86    6.65   0
   1  -4   0  422.28    5.86   0
   1  -4   0  427.42    6.06   0
  -1   4   0  437.68    5.84   0
  -1   4   0  407.38    6.01   0
   0  -4   0  507.95    5.69   0
   0   4   0  525.09    6.22   0
   0  -4   0  542.42    6.68   0
   0  -4   0  505.32    6.65   0
  -1  -4   0  188.09    4.92   0
   1   4   0  206.73    5.02   0
   1   4   0  192.23    5.05   0
  -1  -4   0  200.13    4.95   0
   2   4   0 1940.73   10.58   0
  -2  -4   0 1904.84   10.51   0
  -2  -4   0 1901.86   10.06   0
   2   4   0 1942.04   10.53   0
   3   4   0 1591.66    9.45   0
  -3  -4   0 1541.48    9.17   0
  -3  -4   0 1551.26    9.29   0
   3   4   0 1567.20    9.20   0
  -4  -4   0    3.89    3.50   0
  -4  -4   0    4.54    2.46   0
   4   4   0    5.08    2.50   0
   4   4   0    6.54    3.51   0
   5   4   0   16.21    2.75   0
  -5  -4   0   10.03    3.78   0
  -5  -4   0   18.90    3.54   0
   6   4   0  146.52    4.21   0
  -6  -4   0  135.47    4.18   0
  -6  -4   0  139.22    4.28   0
   7   4   0  267.42    4.64   0
  -7  -4   0  256.01    4.80   0
  -7  -4   0  242.20    5.24   0
  -8  -4   0   29.05    4.22   0
  -8  -4   0   18.89    5.19   0
  -8  -4   0   28.57    4.03   0
   8   4   0   25.19    4.03   0
  -9  -4   0    3.39    4.36   0
  -9  -4   0    4.89    5.38   0
   9   4   0    5.29    4.09   0
  -9  -4   0    2.78    2.95   0
   6  -5   0   33.45    4.59   0
  -6   5   0   39.87    4.46   0
   6  -5   0   36.54    4.52   0
  -6   5   0   28.91    4.45   0
   5  -5   0  280.58    6.52   0
  -5   5   0  263.65    5.26   0
   5  -5   0  271.38    5.22   0
  -5   5   0  289.96    5.58   0
   4  -5   0   -1.33    3.85   0
  -4   5   0    2.93    4.56   0
  -4   5   0    0.62    3.83   0
   4  -5   0    2.36    3.75   0
   3  -5   0  286.08    5.20   0
  -3   5   0  274.56    5.04   0
   3  -5   0  286.26    5.21   0
  -3   5   0  285.31    4.88   0
  -2   5   0  184.57    4.56   0
   2  -5   0  197.03    4.75   0
  -2   5   0  190.15    4.63   0
   2  -5   0  200.51    4.69   0
  -1   5   0  346.56    5.11   0
   1  -5   0  349.55    5.47   0
   1  -5   0  363.69    5.66   0
   1  -5   0  354.06    5.38   0
   0  -5   0   10.90    2.81   0
   0  -5   0    8.96    3.77   0
   0   5   0    6.81    3.41   0
   0  -5   0    8.85    3.67   0
   1   5   0 1804.14   10.10   0
  -1  -5   0 1794.02    9.38   0
  -1  -5   0 1879.89   10.25   0
   1   5   0 1840.50    9.74   0
  -2  -5   0  423.06    5.11   0
  -2  -5   0  415.29    5.49   0
   2   5   0  449.28    5.88   0
   2   5   0  450.21    5.55   0
   3   5   0  438.78    5.51   0
  -3  -5   0  434.44    5.44   0
  -3  -5   0  431.03    5.55   0
   3   5   0  430.72    5.47   0
   4   5   0   59.75    3.84   0
   4   5   0   66.06    3.85   0
  -4  -5   0   59.93    3.78   0
  -4  -5   0   54.97    3.96   0
  -5  -5   0  238.52    4.54   0
   5   5   0  234.28    4.67   0
  -5  -5   0  242.95    4.69   0
   5   5   0  249.75    4.70   0
  -6  -5   0   25.24    3.84   0
   6   5   0   34.65    3.78   0
  -6  -5   0   29.45    3.69   0
  -7  -5   0    3.60    3.71   0
  -7  -5   0    3.24    3.59   0
   7   5   0    2.30    3.77   0
   8   5   0   31.80    4.09   0
  -8  -5   0   32.17    4.11   0
  -8  -5   0   37.57    4.09   0
   5  -6   0   54.05    3.28   0
  -5   6   0   49.98    4.58   0
  -5   6   0   72.25    4.69   0
   5  -6   0   72.51    4.54   0
   4  -6   0   65.79    4.24   0
  -4   6   0   68.35    4.39   0
  -4   6   0   71.81    4.11   0
   4  -6   0   76.29    4.28   0
  -3   6   0  297.23    5.39   0
   3  -6   0  296.59    5.18   0
   3  -6   0  302.96    5.30   0
  -3   6   0  308.11    4.95   0
  -2   6   0   17.60    3.68   0
   2  -6   0   11.11    3.98   0
   2  -6   0   22.34    4.14   0
   1  -6   0  825.04    7.17   0
   1  -6   0  785.64    6.24   0
  -1   6   0  806.26    6.64   0
   1  -6   0  852.21    7.29   0
   0  -6   0  191.11    4.51   0
   0   6   0  186.03    3.56   0
   0  -6   0  171.05    4.66   0
   0  -6   0  190.71    4.61   0
   1   6   0  485.55    6.01   0
  -1  -6   0  504.74    6.06   0
   1   6   0  497.06    5.47   0
  -1  -6   0  490.50    5.69   0
   2   6   0   22.53    3.43   0
   2   6   0   18.43    3.80   0
  -2  -6   0   21.62    2.75   0
  -2  -6   0   18.77    3.45   0
  -3  -6   0  545.03    5.93   0
  -3  -6   0  526.85    5.13   0
   3   6   0  562.67    5.81   0
   3   6   0  565.93    5.84   0
  -4  -6   0   16.81    3.63   0
   4   6   0   20.55    3.43   0
  -4  -6   0   19.70    3.58   0
   4   6   0   21.47    2.58   0
  -5  -6   0  460.01    5.53   0
   5   6   0  465.23    5.65   0
  -5  -6   0  443.58    4.75   0
   5   6   0  496.37    5.51   0
   6   6   0   11.17    3.64   0
  -6  -6   0   13.39    3.43   0
  -6  -6   0    8.76    3.56   0
  -7  -6   0    1.21    3.73   0
   7   6   0    4.55    3.63   0
  -7  -6   0    0.76    3.69   0
  -8  -6   0   35.05    4.18   0
   8   6   0   42.64    4.12   0
  -8  -6   0   40.20    4.20   0
   5  -7   0    0.97    4.35   0
  -5   7   0    0.38    4.16   0
   5  -7   0    3.24    3.06   0
  -5   7   0    3.87    4.60   0
  -4   7   0    1.65    4.21   0
   4  -7   0    9.29    4.15   0
  -4   7   0    7.69    4.07   0
   4  -7   0    8.91    5.02   0
   3  -7   0    1.75    3.88   0
   3  -7   0    1.02    4.02   0
  -3   7   0   -3.07    3.68   0
   2  -7   0   38.87    4.03   0
  -2   7   0   38.32    3.91   0
   2  -7   0   41.48    4.21   0
   2  -7   0   39.41    3.09   0
  -1   7   0  257.00    4.66   0
   1  -7   0  270.61    5.24   0
   1  -7   0  267.52    4.95   0
   1  -7   0  265.46    5.12   0
   0   7   0  481.17    5.57   0
   0  -7   0  482.04    6.19   0
   0  -7   0  464.18    5.92   0
   0  -7   0  460.40    5.62   0
  -1  -7   0  327.32    5.39   0
   1   7   0  325.06    4.87   0
  -1  -7   0  325.67    5.07   0
  -1  -7   0  297.35    5.16   0
  -2  -7   0  150.22    4.53   0
   2   7   0  166.26    4.34   0
   2   7   0  154.46    4.63   0
  -2  -7   0  138.95    3.40   0
   3   7   0  406.69    5.19   0
  -3  -7   0  384.83    5.59   0
   3   7   0  402.76    5.59   0
  -3  -7   0  373.32    5.08   0
   4   7   0  755.57    6.62   0
   4   7   0  777.23    6.65   0
  -4  -7   0  717.86    5.81   0
  -4  -7   0  710.38    6.42   0
  -5  -7   0    2.32    3.70   0
  -5  -7   0    7.73    3.74   0
   5   7   0    8.77    3.70   0
   5   7   0    9.48    3.70   0
  -6  -7   0   11.20    3.65   0
   6   7   0   17.61    3.76   0
   6   7   0   10.32    3.80   0
  -6  -7   0   12.65    3.75   0
  -7  -7   0   47.81    3.95   0
  -7  -7   0   49.88    4.24   0
   7   7   0   53.91    4.19   0
  -8  -7   0   21.00    4.24   0
  -8  -7   0   25.79    4.29   0
   8   7   0   22.83    3.24   0
   4  -8   0   16.23    4.63   0
   4  -8   0   14.30    4.66   0
  -4   8   0   15.92    4.33   0
   3  -8   0    2.71    2.88   0
  -3   8   0    5.64    3.84   0
   3  -8   0   -0.40    4.18   0
   3  -8   0    1.85    2.86   0
  -2   8   0   14.89    3.87   0
   2  -8   0   17.86    4.14   0
   2  -8   0   15.35    4.12   0
   2  -8   0   15.86    4.15   0
   1  -8   0   33.08    3.14   0
  -1   8   0   33.94    3.81   0
   1  -8   0   28.04    4.15   0
   1  -8   0   38.28    4.14   0
   0   8   0   22.35    2.60   0
   0  -8   0   19.04    3.78   0
   0  -8   0   17.29    3.98   0
   0  -8   0   20.23    4.10   0
   1   8   0    9.66    3.26   0
  -1  -8   0    4.84    3.87   0
  -1  -8   0    7.35    2.63   0
  -1  -8   0    9.24    2.68   0
  -2  -8   0    0.53    2.60   0
   2   8   0    0.49    3.45   0
  -2  -8   0    1.50    3.64   0
   2   8   0   -0.89    3.68   0
   3   8   0   22.63    3.57   0
   3   8   0   25.07    3.82   0
  -3  -8   0   29.91    4.00   0
  -3  -8   0   22.88    2.67   0
  -4  -8   0   62.46    4.12   0
  -4  -8   0   59.89    2.92   0
   4   8   0   66.24    3.86   0
   4   8   0   73.09    3.94   0
  -5  -8   0   24.77    3.86   0
   5   8   0   24.92    3.90   0
  -5  -8   0   24.98    2.87   0
   5   8   0   25.23    3.86   0
  -6  -8   0    2.48    3.78   0
  -6  -8   0    6.20    2.75   0
   6   8   0    4.71    2.69   0
   6   8   0    4.22    3.83   0
   7   8   0   33.86    4.12   0
  -7  -8   0   34.70    4.24   0
  -7  -8   0   29.47    4.21   0
  -8  -8   0    8.29    4.38   0
  -8  -8   0   11.02    4.28   0
   8   8   0    4.60    4.13   0
   3  -9   0   46.56    4.78   0
   3  -9   0   40.60    4.82   0
  -3   9   0   49.55    4.49   0
   3  -9   0   31.93    4.81   0
   2  -9   0   98.24    4.97   0
   2  -9   0  102.49    4.97   0
   2  -9   0   92.43    4.89   0
  -2   9   0  103.45    4.48   0
   1  -9   0   24.62    4.27   0
   1  -9   0   23.92    4.38   0
   1  -9   0   26.27    4.06   0
  -1   9   0   24.46    2.72   0
   0   9   0    2.81    3.59   0
   0  -9   0    3.16    3.76   0
   0  -9   0    2.12    4.07   0
   0  -9   0    3.38    3.93   0
  -1  -9   0  325.55    5.07   0
  -1  -9   0  299.53    5.34   0
   1   9   0  321.90    4.17   0
  -1  -9   0  328.42    5.47   0
   2   9   0  154.31    4.18   0
  -2  -9   0  137.18    3.48   0
  -2  -9   0  160.84    4.68   0
  -3  -9   0   20.68    4.05   0
   3   9   0   26.95    3.80   0
  -3  -9   0   23.24    3.81   0
   3   9   0   24.13    3.99   0
  -4  -9   0   -1.45    3.71   0
   4   9   0    1.94    3.84   0
   4   9   0    0.04    3.62   0
  -4  -9   0    5.63    3.80   0
   5   9   0    3.02    3.85   0
   5   9   0   10.92    3.92   0
  -5  -9   0    7.27    2.79   0
  -5  -9   0   10.55    3.81   0
   6   9   0   32.81    4.17   0
   6   9   0   27.65    4.06   0
  -6  -9   0   29.98    4.26   0
  -6  -9   0   28.36    2.99   0
  -7  -9   0    7.87    4.25   0
   7   9   0   16.22    4.20   0
   7   9   0   11.07    4.19   0
  -7  -9   0    8.68    4.38   0
   2 -10   0   -0.95    4.86   0
   2 -10   0    5.33    4.60   0
  -2  10   0    6.77    4.37   0
   2 -10   0    2.47    4.57   0
   1 -10   0   22.89    4.70   0
   1 -10   0   21.41    4.61   0
   1 -10   0   26.34    4.36   0
  -1  10   0   19.61    4.14   0
   0 -10   0   80.32    4.78   0
   0 -10   0   78.78    4.75   0
   0 -10   0   79.50    4.60   0
   0  10   0   82.59    4.38   0
  -1 -10   0    4.10    4.15   0
  -1 -10   0    5.07    4.17   0
  -1 -10   0    1.56    3.93   0
   1  10   0    3.27    2.53   0
   2  10   0   91.95    4.10   0
  -2 -10   0   82.64    4.60   0
  -2 -10   0   86.43    4.23   0
  -2 -10   0   80.17    3.40   0
  -3 -10   0   75.65    4.42   0
   3  10   0   87.70    3.25   0
   3  10   0   92.03    3.56   0
  -3 -10   0   88.08    4.37   0
   4  10   0   -0.74    4.07   0
   4  10   0    5.18    2.73   0
  -4 -10   0   -1.33    4.02   0
  -4 -10   0    5.06    3.91   0
   5  10   0    4.80    4.00   0
   5  10   0    6.78    3.92   0
  -5 -10   0   -3.34    4.01   0
  -5 -10   0    0.93    4.22   0
  -6 -10   0   65.25    4.69   0
   6  10   0   57.83    4.56   0
  -6 -10   0   53.11    4.45   0
   6  10   0   71.41    4.64   0
   0 -11   0   18.50    4.66   0
   0 -11   0   18.50    3.35   0
   0  11   0   22.76    4.24   0
   0 -11   0   18.01    4.52   0
   1  11   0   55.38    3.31   0
  -1 -11   0   54.86    4.80   0
  -1 -11   0   53.17    4.58   0
  -1 -11   0   44.40    3.69   0
  -2 -11   0    8.41    4.33   0
  -2 -11   0    3.82    4.49   0
  -2 -11   0    5.44    2.95   0
   2  11   0    5.17    4.01   0
  -3 -11   0   10.79    4.39   0
   3  11   0   10.46    3.94   0
  -3 -11   0    7.45    2.87   0
   4  11   0   13.19    4.00   0
   4  11   0   12.00    4.46   0
  -4 -11   0   14.81    4.19   0
  -4 -11   0    9.74    3.19   0
   5  11   0   29.46    4.38   0
  -5 -11   0   30.39    4.59   0
  -5 -11   0   32.52    4.59   0
   5  11   0   35.76    4.70   0
   5  11  -1   20.70    4.33   0
  -5 -11   1   22.37    4.40   0
   5  11  -1   17.11    3.34   0
  -5 -11   1   11.97    3.34   0
  -4 -11   1   -0.81    4.45   0
   4  11  -1   -0.94    2.82   0
   4  11  -1    1.55    4.36   0
  -4 -11   1    3.25    2.92   0
  -3 -11   1    5.96    3.09   0
  -3 -11   1    0.67    4.44   0
  -3 -11   1    1.81    4.23   0
   3  11  -1    6.29    2.94   0
  -2 -11   1   11.40    4.15   0
  -2 -11   1    9.52    4.47   0
  -2 -11   1    7.67    4.63   0
   2  11  -1    7.93    4.12   0
  -1 -11   1    5.86    4.29   0
  -1 -11   1    2.92    4.49   0
  -1 -11   1    7.21    4.53   0
   1  11  -1    5.72    4.22   0
   0  11  -1    6.68    4.28   0
   0 -11   1    4.21    4.71   0
   0 -11   1    3.36    3.44   0
   0 -11   1    4.87    4.60   0
  -6 -10   1    5.65    4.37   0
   6  10  -1    0.53    4.37   0
  -6 -10   1    1.01    4.16   0
   6  10  -1    5.70    4.02   0
   5  10  -1    5.70    4.13   0
  -5 -10   1    7.66    4.19   0
   5  10  -1    9.85    4.08   0
  -5 -10   1    1.25    4.12   0
  -4 -10   1   80.75    4.50   0
   4  10  -1   76.57    3.33   0
   4  10  -1   84.57    4.56   0
  -4 -10   1   72.60    4.45   0
  -3 -10   1   28.47    4.04   0
   3  10  -1   28.58    3.88   0
   3  10  -1   25.79    4.33   0
  -3 -10   1   31.70    3.08   0
  -2 -10   1   11.26    2.96   0
  -2 -10   1   10.19    4.19   0
   2  10  -1   11.69    3.70   0
  -2 -10   1    4.38    3.94   0
  -1 -10   1   54.48    4.44   0
   1  10  -1   48.64    4.05   0
  -1 -10   1   49.58    3.31   0
  -1 -10   1   50.68    4.30   0
   0 -10   1   30.09    4.55   0
   0 -10   1   28.25    3.19   0
   0  10  -1   31.29    3.04   0
   0 -10   1   34.54    4.50   0
   1 -10   1    1.86    4.41   0
  -1  10  -1    1.68    3.95   0
   1 -10   1    4.67    4.39   0
   1 -10   1   -0.36    2.93   0
   7   9  -1    4.78    4.16   0
   7   9  -1   15.01    4.41   0
  -7  -9   1    5.96    4.36   0
  -7  -9   1    6.85    4.14   0
   6   9  -1   23.26    4.10   0
   6   9  -1   25.23    4.23   0
  -6  -9   1   25.73    3.95   0
  -6  -9   1   22.30    4.13   0
   5   9  -1   20.49    3.94   0
  -5  -9   1   19.83    3.85   0
  -5  -9   1   22.13    4.24   0
   5   9  -1   19.62    2.79   0
   4   9  -1    5.58    3.73   0
  -4  -9   1    5.19    3.64   0
  -4  -9   1    5.13    3.86   0
   4   9  -1    6.93    3.63   0
   3   9  -1   70.03    3.04   0
   3   9  -1   72.79    4.29   0
  -3  -9   1   71.20    3.10   0
  -3  -9   1   65.79    4.24   0
  -2  -9   1    1.83    3.96   0
  -2  -9   1    0.37    4.04   0
  -2  -9   1    0.04    3.62   0
   2   9  -1   -1.89    3.59   0
   1   9  -1   41.34    2.82   0
  -1  -9   1   40.85    4.31   0
  -1  -9   1   48.66    4.23   0
  -1  -9   1   42.25    2.99   0
   0  -9   1   87.46    3.51   0
   0  -9   1   83.97    4.29   0
   0  -9   1   80.16    3.41   0
   0   9  -1   92.53    4.20   0
   1  -9   1   82.72    3.54   0
   1  -9   1   91.79    4.55   0
   1  -9   1   72.95    4.68   0
  -1   9  -1   95.25    4.34   0
   2  -9   1    2.24    4.38   0
   2  -9   1    4.85    4.32   0
   2  -9   1    1.03    4.12   0
  -2   9  -1    4.71    4.06   0
  -3   9  -1    1.48    4.32   0
   3  -9   1    3.78    4.49   0
   3  -9   1    0.07    4.59   0
   3  -9   1   -0.32    4.46   0
  -8  -8   1   -0.36    4.30   0
  -8  -8   1    2.34    4.38   0
   8   8  -1    0.07    4.26   0
  -7  -8   1   19.76    4.04   0
   7   8  -1   25.87    4.09   0
  -7  -8   1   23.11    4.19   0
  -6  -8   1   38.97    4.00   0
   6   8  -1   46.79    4.10   0
   6   8  -1   42.86    3.97   0
  -6  -8   1   42.45    4.01   0
  -5  -8   1   28.67    3.89   0
  -5  -8   1   37.70    3.91   0
   5   8  -1   34.07    2.95   0
   5   8  -1   32.55    2.86   0
   4   8  -1  124.83    4.29   0
  -4  -8   1  136.25    4.46   0
   4   8  -1  153.66    4.39   0
  -4  -8   1  128.99    4.25   0
  -3  -8   1   42.33    3.79   0
   3   8  -1   47.05    3.92   0
  -3  -8   1   45.04    3.98   0
   3   8  -1   39.85    3.65   0
   2   8  -1  149.99    4.13   0
  -2  -8   1  153.34    4.57   0
   2   8  -1  147.53    4.48   0
  -2  -8   1  140.05    4.23   0
   1   8  -1  171.48    4.09   0
  -1  -8   1  168.55    4.56   0
  -1  -8   1  163.17    4.53   0
  -1  -8   1  154.05    4.24   0
   0  -8   1  159.32    4.53   0
   0  -8   1  176.79    4.72   0
   0  -8   1  157.62    4.70   0
   0   8  -1  169.88    4.35   0
   1  -8   1   16.07    4.06   0
  -1   8  -1   23.67    3.72   0
   1  -8   1   24.89    4.07   0
   1  -8   1   22.40    4.11   0
   2  -8   1   12.34    4.10   0
   2  -8   1   12.72    4.20   0
   2  -8   1    7.37    3.94   0
  -2   8  -1   10.00    3.87   0
   3  -8   1   62.38    4.75   0
   3  -8   1   60.04    4.74   0
   3  -8   1   73.63    4.85   0
  -3   8  -1   72.45    4.56   0
   4  -8   1    6.65    4.55   0
  -4   8  -1   -0.27    4.29   0
   4  -8   1   -0.18    3.15   0
   4  -8   1   -2.44    3.17   0
  -8  -7   1   47.77    3.40   0
   8   7  -1   61.42    4.45   0
  -8  -7   1   65.53    4.57   0
   7   7  -1   46.31    2.96   0
  -7  -7   1   46.43    4.04   0
  -7  -7   1   36.85    4.04   0
  -6  -7   1    6.31    3.70   0
   6   7  -1    7.85    3.43   0
   6   7  -1    2.46    3.58   0
  -6  -7   1    4.67    2.72   0
   5   7  -1    6.09    3.66   0
  -5  -7   1    5.80    3.67   0
   5   7  -1    5.21    3.66   0
  -5  -7   1   11.22    3.59   0
   4   7  -1  149.68    4.21   0
  -4  -7   1  147.57    4.34   0
   4   7  -1  145.82    4.17   0
  -4  -7   1  143.49    3.34   0
   3   7  -1  182.28    4.29   0
  -3  -7   1  188.29    4.35   0
  -3  -7   1  178.66    3.81   0
   3   7  -1  191.57    4.76   0
  -2  -7   1  373.69    5.22   0
   2   7  -1  398.58    5.50   0
   2   7  -1  391.12    5.11   0
  -2  -7   1  393.12    5.47   0
  -1  -7   1   36.20    2.80   0
   1   7  -1   40.60    3.47   0
  -1  -7   1   37.74    3.93   0
  -1  -7   1   36.11    3.12   0
   0  -7   1    7.71    2.90   0
   0  -7   1   11.70    2.87   0
   0  -7   1   12.74    3.88   0
   0   7  -1    9.29    3.53   0
   1  -7   1   13.40    3.82   0
   1  -7   1   18.58    3.82   0
  -1   7  -1   17.72    3.82   0
   1  -7   1   19.99    3.89   0
   2  -7   1  265.60    5.01   0
  -2   7  -1  254.47    4.67   0
   2  -7   1  255.04    5.07   0
   2  -7   1  251.09    5.07   0
   3  -7   1   31.32    4.16   0
   3  -7   1   31.04    3.17   0
  -3   7  -1   28.48    3.92   0
   4  -7   1   24.74    4.34   0
  -4   7  -1   31.38    4.16   0
  -4   7  -1   22.12    4.40   0
   4  -7   1   25.18    4.27   0
  -5   7  -1    7.20    4.38   0
   5  -7   1    7.27    4.66   0
  -5   7  -1    4.24    4.64   0
   5  -7   1    9.76    4.68   0
  -8  -6   1    4.48    4.17   0
   8   6  -1   14.54    4.12   0
  -8  -6   1    6.73    4.17   0
   7   6  -1   19.11    3.94   0
  -7  -6   1   21.76    3.71   0
  -7  -6   1   22.48    3.93   0
  -6  -6   1   63.71    4.01   0
   6   6  -1   58.35    2.94   0
  -6  -6   1   52.27    2.95   0
  -5  -6   1   62.38    2.98   0
   5   6  -1   60.07    3.92   0
   5   6  -1   61.55    3.79   0
  -5  -6   1   61.48    2.87   0
  -4  -6   1  147.65    3.47   0
  -4  -6   1  147.01    4.37   0
   4   6  -1  151.25    4.41   0
   4   6  -1  147.28    4.31   0
   3   6  -1  602.05    6.01   0
  -3  -6   1  587.98    5.77   0
   3   6  -1  625.39    6.02   0
  -3  -6   1  623.52    6.14   0
  -2  -6   1  401.70    5.51   0
   2   6  -1  414.04    4.79   0
  -2  -6   1  394.82    5.26   0
   2   6  -1  406.47    5.31   0
   1   6  -1  942.56    6.92   0
  -1  -6   1  878.22    6.88   0
  -1  -6   1  901.84    7.20   0
   0  -6   1  253.65    4.95   0
   0  -6   1  212.93    4.75   0
   0   6  -1  228.22    4.52   0
   0  -6   1  228.45    3.99   0
   1  -6   1  804.35    7.14   0
  -1   6  -1  759.86    6.48   0
   1  -6   1  739.68    6.77   0
   1  -6   1  739.98    6.86   0
  -2   6  -1   24.05    3.64   0
   2  -6   1   23.90    3.90   0
   2  -6   1   16.92    4.20   0
   3  -6   1   11.61    3.83   0
   3  -6   1   10.88    3.83   0
  -3   6  -1    8.33    2.81   0
  -3   6  -1   10.68    3.58   0
   4  -6   1   -0.29    3.98   0
   4  -6   1    0.90    4.95   0
  -4   6  -1   -0.84    3.84   0
  -4   6  -1   -1.34    4.01   0
   5  -6   1  119.11    5.23   0
   5  -6   1  116.04    4.91   0
  -5   6  -1  125.86    4.91   0
  -5   6  -1  104.55    5.04   0
  -8  -5   1   22.30    4.03   0
   8   5  -1   27.38    4.08   0
  -8  -5   1   22.00    3.04   0
   7   5  -1    2.46    3.72   0
  -7  -5   1    8.67    3.64   0
  -7  -5   1    7.02    3.78   0
  -6  -5   1   10.20    3.68   0
   6   5  -1    7.22    2.69   0
  -6  -5   1    5.33    2.44   0
  -5  -5   1   18.00    3.72   0
   5   5  -1   16.70    3.68   0
  -5  -5   1   13.95    2.69   0
   5   5  -1   20.16    3.69   0
  -4  -5   1    1.34    2.35   0
   4   5  -1    1.71    3.31   0
   4   5  -1    3.71    3.65   0
  -4  -5   1   -0.17    3.64   0
  -3  -5   1    3.60    3.28   0
  -3  -5   1    1.25    3.54   0
   3   5  -1    1.66    3.34   0
   3   5  -1    2.52    3.44   0
   2   5  -1 1016.50    7.47   0
   2   5  -1 1035.29    7.56   0
  -2  -5   1 1012.25    7.34   0
  -2  -5   1  990.70    6.98   0
   1   5  -1    5.18    3.40   0
  -1  -5   1    7.73    2.60   0
  -1  -5   1   10.14    3.48   0
   1   5  -1   10.08    3.71   0
   0  -5   1   21.01    3.91   0
   0  -5   1   21.60    3.78   0
   0  -5   1   21.60    3.65   0
   0   5  -1   17.21    3.46   0
   1  -5   1  622.80    6.41   0
   1  -5   1  577.80    6.37   0
   1  -5   1  567.08    6.24   0
  -1   5  -1  578.40    6.01   0
   2  -5   1  623.78    6.51   0
  -2   5  -1  617.03    6.43   0
   2  -5   1  634.76    6.48   0
  -2   5  -1  639.44    6.26   0
   3  -5   1    8.18    3.73   0
  -3   5  -1    3.34    3.75   0
   3  -5   1    8.59    3.99   0
  -3   5  -1    7.10    3.59   0
   4  -5   1   35.73    3.99   0
  -4   5  -1   35.37    4.10   0
   4  -5   1   30.14    4.02   0
  -4   5  -1   26.06    3.81   0
  -5   5  -1    9.59    3.89   0
   5  -5   1    8.35    3.92   0
   5  -5   1   10.01    4.01   0
  -5   5  -1   10.96    3.96   0
   6  -5   1   12.89    4.37   0
  -6   5  -1    5.58    4.57   0
   6  -5   1    8.59    4.61   0
  -6   5  -1   15.06    4.51   0
  -8  -4   1   21.09    3.98   0
  -8  -4   1   20.04    4.16   0
   8   4  -1   25.87    3.97   0
  -7  -4   1   -2.39    3.68   0
   7   4  -1    1.71    3.66   0
  -7  -4   1   -5.21    3.65   0
  -6  -4   1  348.68    5.28   0
   6   4  -1  352.00    4.26   0
  -6  -4   1  365.63    5.05   0
  -5  -4   1   74.04    3.15   0
  -5  -4   1   74.59    3.80   0
   5   4  -1   78.29    4.17   0
  -4  -4   1  423.77    5.35   0
   4   4  -1  435.04    5.34   0
   4   4  -1  448.90    5.58   0
  -4  -4   1  439.29    5.59   0
  -3  -4   1   36.19    3.63   0
   3   4  -1   38.11    3.90   0
   3   4  -1   32.53    3.58   0
  -3  -4   1   31.66    2.93   0
  -2  -4   1  876.53    7.57   0
   2   4  -1  881.25    7.40   0
  -2  -4   1  842.61    6.75   0
   2   4  -1  860.04    6.95   0
   1   4  -1   48.80    4.29   0
   1   4  -1   48.42    3.92   0
  -1  -4   1   49.44    3.16   0
  -1  -4   1   49.02    3.94   0
   0  -4   1  552.39    6.69   0
   0   4  -1  536.74    6.15   0
   0  -4   1  540.90    6.42   0
   0  -4   1  519.95    6.52   0
   1  -4   1  275.95    5.38   0
   1  -4   1  262.54    4.42   0
  -1   4  -1  279.92    5.11   0
  -2   4  -1    3.59    3.54   0
  -2   4  -1    5.52    3.61   0
   2  -4   1    2.97    3.83   0
   2  -4   1    4.88    3.50   0
   3  -4   1  116.85    4.57   0
  -3   4  -1  106.56    4.24   0
  -3   4  -1  116.37    4.34   0
   3  -4   1  111.43    4.33   0
   4  -4   1   96.67    4.04   0
  -4   4  -1   89.89    4.00   0
  -4   4  -1   89.05    4.43   0
   4  -4   1   93.80    5.15   0
  -5   4  -1   11.46    3.77   0
   5  -4   1   11.22    4.75   0
  -5   4  -1   16.62    3.80   0
   5  -4   1   11.95    3.75   0
  -6   4  -1   40.37    4.36   0
   6  -4   1   39.32    4.10   0
  -6   4  -1   35.73    3.36   0
   8   3  -1   20.50    4.11   0
  -8  -3   1   10.71    4.01   0
  -8  -3   1   11.94    4.02   0
  -8  -3   1   17.39    4.05   0
   7   3  -1    6.88    3.68   0
  -7  -3   1    1.00    3.53   0
  -7  -3   1    4.04    3.44   0
   6   3  -1  115.32    3.19   0
  -6  -3   1  117.15    4.01   0
  -6  -3   1  119.35    4.11   0
  -5  -3   1  193.38    4.48   0
   5   3  -1  191.86    4.67   0
  -5  -3   1  184.60    4.47   0
  -4  -3   1  177.34    4.54   0
  -4  -3   1  182.41    4.52   0
   4   3  -1  155.71    3.56   0
  -3  -3   1   88.52    4.33   0
   3   3  -1   87.00    3.96   0
   3   3  -1   82.46    4.29   0
  -3  -3   1   80.78    4.00   0
   2   3  -1  165.67    3.85   0
  -2  -3   1  169.36    4.26   0
  -2  -3   1  166.89    3.84   0
   2   3  -1  173.99    5.12   0
  -1  -3   1 1224.78    9.56   0
   1   3  -1 1264.61    9.56   0
   1   3  -1 1213.99    9.30   0
  -1  -3   1 1243.70    9.77   0
   0  -3   1 7360.55   22.46   0
   0  -3   1 7139.86   21.47   0
   0  -3   1 6901.94   21.82   0
   0   3  -1 7275.32   21.34   0
   1  -3   1   27.05    4.09   0
  -1   3  -1   23.47    4.10   0
  -1   3  -1   26.84    3.68   0
   1  -3   1   24.78    3.90   0
  -2   3  -1   58.15    3.95   0
   2  -3   1   57.66    3.92   0
  -2   3  -1   59.18    4.10   0
   2  -3   1   63.95    4.13   0
  -3   3  -1  704.29    7.63   0
   3  -3   1  717.36    6.34   0
   3  -3   1  729.54    7.27   0
  -3   3  -1  702.60    6.43   0
   4  -3   1  435.44    6.86   0
  -4   3  -1  416.58    6.69   0
   4  -3   1  412.25    5.31   0
  -4   3  -1  401.86    4.63   0
  -5   3  -1   64.42    4.03   0
   5  -3   1   63.65    4.80   0
  -5   3  -1   61.47    3.95   0
   5  -3   1   66.06    3.88   0
   6  -3   1    2.41    3.94   0
  -6   3  -1    2.06    4.75   0
  -6   3  -1    4.85    3.90   0
   7  -3   1   20.79    4.24   0
  -7   3  -1   15.16    4.73   0
  -7   3  -1   18.19    4.20   0
  -8  -2   1    4.38    3.92   0
  -8  -2   1    2.54    3.96   0
  -8  -2   1    0.08    3.96   0
   8   2  -1    4.14    3.95   0
  -7  -2   1   16.19    3.75   0
  -7  -2   1   12.84    3.73   0
  -7  -2   1   13.55    3.69   0
   7   2  -1   16.83    3.75   0
  -6  -2   1  341.26    4.95   0
   6   2  -1  351.24    4.30   0
  -6  -2   1  355.51    5.62   0
  -6  -2   1  340.69    5.32   0
  -5  -2   1   31.85    3.57   0
  -5  -2   1   29.20    3.72   0
   5   2  -1   33.23    3.96   0
  -4  -2   1 1437.40    9.18   0
   4   2  -1 1418.14    8.42   0
  -4  -2   1 1330.18    8.24   0
  -3  -2   1    9.74    2.34   0
   3   2  -1   10.02    3.91   0
  -3  -2   1    9.81    2.83   0
  -2  -2   1 2205.77   12.54   0
   2   2  -1 2318.73   12.86   0
  -2  -2   1 2268.15   12.81   0
   2   2  -1 2246.89   12.75   0
   1   2  -1 1611.64   11.74   0
  -1  -2   1 1564.08   12.17   0
  -1  -2   1 1598.97   12.69   0
   1   2  -1 1573.59   11.92   0
   0  -2   1  371.53    7.75   0
   0  -2   1  379.50    8.22   0
   0  -2   1  357.79    7.81   0
   0   2  -1  366.13    7.52   0
  -1   2  -1  678.94    8.70   0
   1  -2   1  675.16    8.93   0
  -1   2  -1  650.08    7.29   0
   1  -2   1  660.57    7.33   0
   2  -2   1 1902.41   12.64   0
  -2   2  -1 1957.24   12.67   0
  -2   2  -1 1929.65   10.53   0
   2  -2   1 2012.96   10.84   0
  -3   2  -1  336.07    5.18   0
  -3   2  -1  329.06    5.85   0
   3  -2   1  331.66    5.14   0
   3  -2   1  337.67    5.94   0
  -4   2  -1  778.41    6.47   0
   4  -2   1  769.30    5.83   0
  -4   2  -1  785.40    7.83   0
   4  -2   1  803.16    7.84   0
   5  -2   1   -2.22    3.48   0
  -5   2  -1    0.50    3.64   0
  -5   2  -1    0.48    3.44   0
  -6   2  -1   12.39    4.77   0
  -6   2  -1   12.71    3.68   0
   6  -2   1    7.98    3.65   0
  -7   2  -1   17.69    4.19   0
   7  -2   1   17.31    4.06   0
  -7   2  -1   18.64    4.31   0
  -8  -1   1   71.48    4.49   0
   8   1  -1   61.93    4.45   0
  -8  -1   1   62.38    4.82   0
  -8  -1   1   67.27    4.54   0
  -7  -1   1   49.04    3.01   0
  -7  -1   1   64.18    4.25   0
   7   1  -1   61.00    2.87   0
  -7  -1   1   69.28    4.15   0
  -6  -1   1    7.56    3.45   0
  -6  -1   1   12.73    3.72   0
   6   1  -1   19.47    3.62   0
  -6  -1   1    8.59    3.43   0
   5   1  -1   -0.64    3.61   0
  -5  -1   1    2.39    2.51   0
  -5  -1   1    1.45    3.38   0
  -5  -1   1    0.46    3.51   0
   4   1  -1   50.02    3.85   0
  -4  -1   1   43.50    3.69   0
  -4  -1   1   51.39    3.70   0
   3   1  -1  850.25    7.65   0
  -3  -1   1  843.95    7.57   0
  -3  -1   1  844.12    7.93   0
   2   1  -1  415.09    7.31   0
  -2  -1   1  402.51    7.22   0
  -2  -1   1  417.70    7.06   0
  -1  -1   1 1145.73   12.40   0
   1   1  -1 1153.41   11.94   0
  -1  -1   1 1095.73   11.85   0
   1   1  -1 1150.11   12.73   0
   0   1  -1   14.37    5.57   0
   0  -1   1   13.05    4.54   0
   0  -1   1   15.25    5.71   0
   1  -1   1  820.63   10.20   0
  -1   1  -1  815.72   10.14   0
   1  -1   1  805.08   12.34   0
  -1   1  -1  813.39   12.83   0
   2  -1   1 1633.15   10.72   0
  -2   1  -1 1656.83   14.10   0
   2  -1   1 1582.90   13.57   0
  -2   1  -1 1586.49   10.24   0
   3  -1   1   10.81    3.69   0
  -3   1  -1   10.67    3.74   0
   3  -1   1   10.84    2.63   0
  -3   1  -1   12.28    4.51   0
   4  -1   1   97.34    3.94   0
  -4   1  -1  101.36    3.85   0
  -4   1  -1   92.59    4.19   0
   5  -1   1   79.21    4.03   0
  -5   1  -1   77.51    4.41   0
  -5   1  -1   73.99    2.89   0
  -6   1  -1    5.09    4.63   0
   6  -1   1    4.48    3.64   0
  -6   1  -1    2.90    3.60   0
  -7   1  -1    7.49    4.18   0
  -7   1  -1   10.92    3.73   0
   7  -1   1    4.38    3.80   0
  -8   1  -1    1.20    2.92   0
  -8   1  -1    4.78    4.40   0
   8  -1   1   -0.91    4.12   0
  -8   1  -1    4.88    5.49   0
  -8   0   1   11.92    4.21   0
  -8   0   1   14.16    5.27   0
   8   0  -1   10.02    4.08   0
  -8   0   1   16.09    4.10   0
  -7   0   1    9.28    3.60   0
   7   0  -1    2.65    3.76   0
  -7   0   1    6.80    4.75   0
  -7   0   1    1.97    3.73   0
  -6   0   1   20.47    3.90   0
   6   0  -1   25.47    3.71   0
  -6   0   1   22.07    3.56   0
   5   0  -1   99.04    4.16   0
  -5   0   1   94.96    4.19   0
  -5   0   1   91.69    3.19   0
   4   0  -1 1881.83    9.61   0
  -4   0   1 1847.01   10.63   0
  -4   0   1 1822.80    9.43   0
  -3   0   1    3.57    3.35   0
   3   0  -1    3.17    3.57   0
  -3   0   1    3.96    3.57   0
  -2   0   1  156.35    5.64   0
   2   0  -1  155.12    5.65   0
  -2   0   1  154.13    5.58   0
   1   0  -1  106.78    6.77   0
  -1   0   1  104.55    6.63   0
   0   0   1  148.76   10.65   0
   0   0   1  158.87   11.61   0
   1   0   1 1035.34   11.95   0
  -1   0  -1  974.39   21.43   0
  -1   0  -1 1119.60   12.97   0
   1   0   1 1138.70   22.82   0
   3   0   1    3.41    3.71   0
  -3   0  -1   -1.08    4.72   0
  -3   0  -1   -0.32    3.59   0
   4   0   1  320.31    4.98   0
  -4   0  -1  325.56    6.44   0
  -4   0  -1  308.67    4.98   0
  -5   0  -1   16.40    3.59   0
  -5   0  -1   16.12    4.64   0
   5   0   1   16.43    3.71   0
   6   0   1  869.17    6.77   0
  -6   0  -1  865.00    6.69   0
  -6   0  -1  861.22    8.35   0
  -7   0  -1    2.21    3.88   0
  -7   0  -1   -0.28    3.76   0
   7   0   1   -1.28    2.67   0
  -7   0  -1    1.71    4.48   0
  -8   0  -1   16.09    5.20   0
  -8   0  -1   16.81    5.27   0
   8   0   1   16.10    4.42   0
  -8   0  -1   21.02    4.45   0
   8  -1  -1    6.24    3.05   0
  -8   1   1   11.44    4.47   0
  -8   1   1   10.31    4.58   0
  -8   1   1    6.90    4.24   0
   7  -1  -1   21.61    3.85   0
  -7   1   1   20.80    4.07   0
  -7   1   1   23.68    3.90   0
  -6   1   1    9.41    3.53   0
   6  -1  -1    9.57    3.61   0
  -6   1   1    7.02    3.64   0
   5  -1  -1   92.84    4.29   0
  -5   1   1   97.34    4.32   0
  -5   1   1   87.19    4.08   0
   4  -1  -1  182.02    4.42   0
  -4   1   1  190.11    4.44   0
  -4   1   1  199.96    4.86   0
  -3   1   1 2116.20   10.99   0
  -3   1   1 2220.73   12.06   0
   3  -1  -1 2221.39   11.24   0
  -2   1   1 1192.19    9.81   0
   2  -1  -1 1254.82   10.52   0
  -2   1   1 1249.11   10.48   0
   2  -1  -1 1230.39    9.93   0
   1  -1  -1 2122.15   17.19   0
  -1   1   1 2080.74   17.18   0
  -1   1   1 2202.08   16.46   0
   1  -1  -1 2178.70   16.38   0
   0  -1  -1  873.47   21.30   0
   0   1   1  894.61   14.50   0
   0  -1  -1  905.42   14.67   0
  -1  -1  -1  763.65   11.85   0
  -1  -1  -1  774.53   15.17   0
   1   1   1  769.72   14.66   0
   1   1   1  775.80   11.92   0
  -2  -1  -1 1432.21   11.32   0
   2   1   1 1464.90   11.39   0
  -2  -1  -1 1460.60   15.30   0
  -3  -1  -1 1008.31    8.14   0
   3   1   1  940.09    7.40   0
  -3  -1  -1 1047.43   10.90   0
  -4  -1  -1 1260.48    8.05   0
   4   1   1 1285.79    8.14   0
  -4  -1  -1 1285.99   10.35   0
  -4  -1  -1 1187.24   10.10   0
  -5  -1  -1   25.10    3.77   0
  -5  -1  -1   19.86    3.80   0
  -5  -1  -1   27.60    4.41   0
   5   1   1   22.36    3.79   0
  -6  -1  -1  385.80    5.19   0
   6   1   1  384.33    4.45   0
  -6  -1  -1  400.02    6.74   0
  -6  -1  -1  397.30    6.33   0
  -7  -1  -1  198.22    4.59   0
   7   1   1  224.51    4.84   0
  -7  -1  -1  205.75    6.09   0
  -7  -1  -1  194.28    5.47   0
  -8  -1  -1    3.88    4.97   0
  -8  -1  -1    4.95    3.92   0
   8   1   1    6.10    3.93   0
  -8  -1  -1    4.25    5.14   0
  -8   2   1    2.87    4.55   0
   8  -2  -1   -3.25    4.33   0
  -8   2   1    1.56    4.44   0
  -7   2   1   19.46    4.02   0
   7  -2  -1   14.97    4.12   0
  -7   2   1   12.88    4.14   0
  -6   2   1   86.77    4.28   0
   6  -2  -1   81.89    3.18   0
  -6   2   1   92.03    5.37   0
  -5   2   1   47.54    3.88   0
   5  -2  -1   44.58    4.02   0
  -5   2   1   49.53    4.01   0
  -4   2   1   32.69    3.58   0
   4  -2  -1   32.30    3.79   0
   4  -2  -1   33.77    3.56   0
  -4   2   1   32.38    3.88   0
   3  -2  -1  208.51    4.97   0
   3  -2  -1  204.27    4.63   0
  -3   2   1  211.47    4.98   0
  -3   2   1  213.40    4.74   0
  -2   2   1  431.68    6.25   0
   2  -2  -1  428.65    6.12   0
  -2   2   1  430.28    6.20   0
   2  -2  -1  443.57    6.37   0
   1  -2  -1  802.72    9.86   0
  -1   2   1  788.21    9.86   0
   1  -2  -1  807.08    9.35   0
  -1   2   1  796.30    9.18   0
   0  -2  -1    2.92    5.65   0
   0   2   1    4.80    5.64   0
   0  -2  -1    5.19    6.08   0
   0  -2  -1    5.73    7.19   0
   1   2   1 1810.74   15.06   0
  -1  -2  -1 1815.55   15.36   0
   1   2   1 1826.15   15.47   0
  -1  -2  -1 1792.89   15.01   0
   3   2   1  593.25    6.72   0
  -3  -2  -1  596.57    8.25   0
  -3  -2  -1  548.37    5.92   0
   4   2   1 1282.75    8.19   0
  -4  -2  -1 1238.27    8.19   0
  -4  -2  -1 1274.47    9.86   0
  -5  -2  -1   42.19    4.34   0
  -5  -2  -1   34.91    3.57   0
   5   2   1   42.41    3.79   0
  -6  -2  -1  126.48    4.71   0
   6   2   1  129.49    4.27   0
  -6  -2  -1  127.25    5.39   0
  -6  -2  -1  107.38    3.15   0
  -7  -2  -1   32.40    3.79   0
  -7  -2  -1   24.75    4.02   0
  -7  -2  -1   32.95    3.67   0
   7   2   1   33.64    3.78   0
  -8  -2  -1  195.69    4.96   0
  -8  -2  -1  198.38    6.47   0
  -8  -2  -1  190.75    6.04   0
   8   2   1  224.34    5.11   0
  -7   3   1    2.67    4.19   0
   7  -3  -1    3.14    4.12   0
  -7   3   1    3.55    4.27   0
  -6   3   1    1.88    3.77   0
   6  -3  -1    1.50    2.76   0
  -6   3   1    3.40    2.65   0
   5  -3  -1  591.04    6.01   0
  -5   3   1  605.88    6.36   0
  -5   3   1  574.39    6.22   0
   4  -3  -1   10.36    3.69   0
  -4   3   1   12.20    2.48   0
  -4   3   1    8.69    3.64   0
   4  -3  -1   10.62    2.65   0
   3  -3  -1   98.43    4.37   0
   3  -3  -1   99.33    4.13   0
  -3   3   1   92.92    4.12   0
  -3   3   1   97.99    4.33   0
  -2   3   1 3828.28   14.82   0
   2  -3  -1 3702.49   14.30   0
  -2   3   1 3837.98   15.11   0
   2  -3  -1 4002.71   15.23   0
  -1   3   1 3097.60   14.16   0
   1  -3  -1 3191.72   14.39   0
  -1   3   1 2913.68   14.79   0
   1  -3  -1 3126.76   15.30   0
   0   3   1 1274.56    9.75   0
   0  -3  -1 1262.17   11.80   0
   0  -3  -1 1299.58   11.74   0
   0  -3  -1 1280.24   10.35   0
   1   3   1 1839.96   12.17   0
  -1  -3  -1 1825.76   12.24   0
  -1  -3  -1 1879.93   13.26   0
   1   3   1 1869.27   13.33   0
   2   3   1 1074.51    9.11   0
  -2  -3  -1 1059.24    8.98   0
  -2  -3  -1 1066.72    9.41   0
   2   3   1 1065.15    9.36   0
   3   3   1   77.19    4.21   0
   3   3   1   77.13    4.16   0
  -3  -3  -1   81.95    4.31   0
  -3  -3  -1   77.04    4.05   0
  -4  -3  -1 3765.56   13.06   0
  -4  -3  -1 3805.08   15.50   0
   4   3   1 3842.24   13.15   0
  -5  -3  -1  133.32    5.03   0
   5   3   1  130.90    3.29   0
  -5  -3  -1  137.96    4.42   0
  -6  -3  -1  217.36    5.12   0
  -6  -3  -1  197.59    3.62   0
   6   3   1  229.61    4.55   0
  -7  -3  -1    0.93    3.72   0
  -7  -3  -1   -1.21    4.69   0
  -7  -3  -1    0.35    3.60   0
   7   3   1    2.99    2.63   0
  -8  -3  -1   35.96    4.41   0
  -8  -3  -1   42.10    3.90   0
   8   3   1   47.21    3.98   0
  -8  -3  -1   44.35    4.40   0
   7  -4  -1    0.64    4.39   0
  -7   4   1    3.72    4.25   0
  -7   4   1    5.05    4.44   0
  -6   4   1    5.69    3.99   0
   6  -4  -1    3.79    4.03   0
  -6   4   1    0.30    3.97   0
  -5   4   1   43.61    4.09   0
  -5   4   1   45.91    4.04   0
   5  -4  -1   47.72    4.06   0
   5  -4  -1   44.51    4.00   0
  -4   4   1    3.44    3.82   0
   4  -4  -1   -0.97    3.75   0
  -4   4   1    2.98    3.57   0
   4  -4  -1   -0.61    3.50   0
  -3   4   1    1.43    3.53   0
  -3   4   1    0.52    3.62   0
   3  -4  -1    4.38    3.79   0
   3  -4  -1    1.59    3.57   0
   2  -4  -1   35.08    2.86   0
  -2   4   1   36.34    2.93   0
   2  -4  -1   38.96    4.01   0
  -2   4   1   29.35    2.84   0
  -1   4   1 1178.60    8.29   0
   1  -4  -1 1220.91    9.22   0
  -1   4   1 1137.92    9.12   0
   1  -4  -1 1219.99    8.54   0
   0  -4  -1   48.45    4.17   0
   0  -4  -1   45.43    3.10   0
   0   4   1   50.31    4.00   0
   0  -4  -1   46.68    4.17   0
  -1  -4  -1   78.93    4.25   0
   1   4   1   81.87    4.27   0
   1   4   1   87.58    4.31   0
  -1  -4  -1   88.61    4.56   0
  -2  -4  -1   81.45    4.14   0
   2   4   1   81.64    3.90   0
   2   4   1   81.45    4.19   0
  -2  -4  -1   79.21    3.95   0
   3   4   1 1319.43    9.21   0
  -3  -4  -1 1246.19    8.09   0
  -3  -4  -1 1326.42    9.12   0
   3   4   1 1337.81    8.76   0
   4   4   1 4115.04   13.41   0
  -4  -4  -1 3756.70   12.68   0
   4   4   1 4135.33   15.33   0
  -4  -4  -1 4130.74   15.14   0
  -5  -4  -1  119.29    3.38   0
  -5  -4  -1  128.94    4.30   0
   5   4   1  132.70    4.21   0
   6   4   1   80.45    3.94   0
  -6  -4  -1   74.35    4.70   0
  -6  -4  -1   70.27    3.90   0
  -7  -4  -1    3.57    3.68   0
   7   4   1    0.01    3.68   0
  -7  -4  -1    4.07    3.62   0
  -8  -4  -1   38.33    4.38   0
   8   4   1   39.36    4.16   0
  -8  -4  -1   37.37    4.14   0
  -8  -4  -1   41.72    5.11   0
  -6   5   1    0.65    5.12   0
   6  -5  -1    2.75    4.15   0
  -6   5   1    1.35    2.90   0
  -5   5   1  142.08    4.77   0
   5  -5  -1  147.37    4.70   0
   5  -5  -1  132.32    3.74   0
  -5   5   1  163.69    5.41   0
   4  -5  -1   15.76    3.82   0
  -4   5   1   19.92    3.85   0
  -4   5   1   21.09    3.77   0
   4  -5  -1   17.36    3.72   0
  -3   5   1  574.13    6.14   0
   3  -5  -1  584.64    6.27   0
  -3   5   1  569.09    6.16   0
   3  -5  -1  564.50    6.29   0
   2  -5  -1   18.15    3.72   0
   2  -5  -1   12.33    3.74   0
  -2   5   1   12.45    3.71   0
  -2   5   1   14.47    3.89   0
   1  -5  -1  102.87    4.50   0
  -1   5   1  101.83    3.99   0
   1  -5  -1  103.29    4.52   0
   1  -5  -1   95.51    4.02   0
   0  -5  -1 2325.82   12.19   0
   0  -5  -1 2456.71   12.16   0
   0  -5  -1 2371.60   11.01   0
   0   5   1 2344.96   10.78   0
  -1  -5  -1   88.15    4.39   0
  -1  -5  -1   88.09    4.32   0
   1   5   1   79.58    4.03   0
   1   5   1   79.16    4.37   0
   2   5   1   62.60    4.08   0
  -2  -5  -1   61.65    3.88   0
  -2  -5  -1   58.99    3.98   0
   2   5   1   60.39    3.73   0
   3   5   1  462.00    5.76   0
  -3  -5  -1  447.17    5.66   0
  -3  -5  -1  466.77    5.80   0
   3   5   1  475.95    5.82   0
  -4  -5  -1  128.61    4.29   0
   4   5   1  136.66    4.20   0
  -4  -5  -1  127.55    4.20   0
   4   5   1  131.04    4.28   0
   5   5   1  344.04    5.12   0
   5   5   1  343.55    5.31   0
  -5  -5  -1  344.56    5.11   0
  -5  -5  -1  342.00    5.33   0
  -6  -5  -1 1208.06    7.67   0
   6   5   1 1245.08    7.35   0
  -6  -5  -1 1208.06    8.54   0
   7   5   1   44.71    3.85   0
  -7  -5  -1   42.73    3.97   0
  -7  -5  -1   40.29    3.74   0
  -8  -5  -1   12.39    3.86   0
  -8  -5  -1   18.60    4.08   0
   8   5   1   14.39    3.82   0
  -6   6   1   18.28    4.73   0
  -6   6   1   24.33    4.61   0
   6  -6  -1   25.65    4.64   0
   6  -6  -1   23.25    4.84   0
  -5   6   1    7.41    4.03   0
   5  -6  -1    7.93    4.15   0
   5  -6  -1    1.49    2.93   0
  -5   6   1    7.03    2.91   0
   4  -6  -1   16.44    3.97   0
   4  -6  -1   13.04    3.98   0
  -4   6   1   16.54    4.15   0
  -4   6   1   13.43    3.77   0
  -3   6   1  193.49    4.41   0
   3  -6  -1  166.82    3.79   0
  -3   6   1  180.76    4.72   0
   3  -6  -1  188.96    4.70   0
   2  -6  -1   59.40    4.13   0
   2  -6  -1   54.90    4.21   0
  -2   6   1   55.32    4.14   0
  -2   6   1   53.41    4.28   0
   1  -6  -1   65.91    4.29   0
   1  -6  -1   68.73    4.31   0
   1  -6  -1   67.96    3.07   0
  -1   6   1   65.78    2.92   0
   0  -6  -1    9.85    3.92   0
   0  -6  -1    5.11    2.81   0
   0  -6  -1    3.04    3.47   0
   0   6   1    7.62    3.46   0
  -1  -6  -1 1707.68    9.67   0
   1   6   1 1639.55    8.84   0
  -1  -6  -1 1669.86    9.04   0
   1   6   1 1628.36    9.77   0
  -2  -6  -1  540.63    5.74   0
   2   6   1  557.35    5.74   0
   2   6   1  541.12    5.61   0
  -2  -6  -1  530.98    5.48   0
   3   6   1    7.70    3.56   0
  -3  -6  -1    8.94    3.44   0
   3   6   1    9.50    3.36   0
  -3  -6  -1    8.42    3.72   0
  -4  -6  -1   82.06    3.14   0
   4   6   1   91.60    4.18   0
  -4  -6  -1   88.06    4.15   0
   4   6   1   98.04    4.03   0
   5   6   1  153.91    4.17   0
  -5  -6  -1  153.15    4.28   0
   5   6   1  154.54    4.36   0
  -5  -6  -1  140.37    4.43   0
  -6  -6  -1   35.34    3.77   0
   6   6   1   35.85    3.69   0
  -6  -6  -1   27.51    2.72   0
   6   6   1   30.27    3.81   0
  -7  -6  -1   45.94    4.18   0
   7   6   1   46.33    3.04   0
  -7  -6  -1   51.04    4.00   0
  -8  -6  -1   84.95    5.51   0
   8   6   1   84.75    4.52   0
  -8  -6  -1   75.25    4.49   0
  -5   7   1   31.75    4.35   0
  -5   7   1   29.36    4.64   0
   5  -7  -1   34.20    4.63   0
   5  -7  -1   25.53    4.50   0
  -4   7   1  103.98    4.75   0
   4  -7  -1  110.44    4.61   0
   4  -7  -1  119.95    4.69   0
  -4   7   1  127.78    4.56   0
   3  -7  -1  509.67    6.15   0
  -3   7   1  503.36    5.67   0
  -3   7   1  446.87    5.74   0
   3  -7  -1  443.68    5.37   0
   2  -7  -1  147.42    4.68   0
  -2   7   1  153.73    4.36   0
   2  -7  -1  162.40    4.59   0
   2  -7  -1  163.55    4.59   0
   1  -7  -1   21.95    3.74   0
   1  -7  -1   24.25    3.96   0
   1  -7  -1   23.50    4.09   0
  -1   7   1   30.12    3.69   0
   0  -7  -1  500.14    6.16   0
   0  -7  -1  471.90    6.05   0
   0  -7  -1  479.27    5.56   0
   0   7   1  492.46    5.41   0
  -1  -7  -1  126.72    4.41   0
  -1  -7  -1  130.41    4.46   0
  -1  -7  -1  137.51    4.48   0
   1   7   1  136.25    3.36   0
  -2  -7  -1  110.79    4.13   0
  -2  -7  -1  111.39    4.33   0
   2   7   1  108.19    3.39   0
   2   7   1  119.83    4.21   0
   3   7   1  198.32    4.83   0
  -3  -7  -1  194.61    3.90   0
   3   7   1  206.67    4.68   0
  -3  -7  -1  188.29    3.76   0
   4   7   1   17.89    3.95   0
  -4  -7  -1   14.12    3.83   0
   4   7   1   12.45    3.74   0
  -4  -7  -1    9.72    2.71   0
  -5  -7  -1  503.99    5.78   0
   5   7   1  512.07    6.19   0
  -5  -7  -1  523.93    5.82   0
   5   7   1  556.61    5.79   0
   6   7   1   14.70    3.74   0
  -6  -7  -1    8.50    3.60   0
   6   7   1   11.44    3.85   0
  -6  -7  -1   18.84    3.72   0
  -7  -7  -1  119.31    4.53   0
  -7  -7  -1  125.03    4.46   0
   7   7   1  128.79    4.64   0
  -8  -7  -1   43.96    5.35   0
  -8  -7  -1   48.08    4.56   0
   8   7   1   62.54    4.55   0
   4  -8  -1   28.58    4.37   0
  -4   8   1   31.40    4.43   0
   4  -8  -1   28.03    4.71   0
   3  -8  -1    2.58    4.26   0
   3  -8  -1    4.25    4.14   0
  -3   8   1    3.82    2.83   0
   3  -8  -1    4.78    4.30   0
   2  -8  -1   11.81    3.87   0
   2  -8  -1    7.41    4.06   0
  -2   8   1   10.00    2.60   0
   2  -8  -1    8.61    4.12   0
   1  -8  -1   42.61    4.04   0
   1  -8  -1   39.87    3.97   0
  -1   8   1   41.62    3.81   0
   1  -8  -1   40.66    3.84   0
   0  -8  -1   53.94    4.14   0
   0  -8  -1   58.19    3.86   0
   0  -8  -1   59.56    4.17   0
   0   8   1   55.97    3.70   0
  -1  -8  -1  306.19    5.31   0
  -1  -8  -1  318.43    5.10   0
  -1  -8  -1  352.77    5.40   0
   1   8   1  331.41    4.21   0
  -2  -8  -1    5.11    3.54   0
   2   8   1   -1.87    4.01   0
  -2  -8  -1    1.08    3.94   0
   2   8   1    0.06    3.38   0
   3   8   1  101.36    4.30   0
   3   8   1   97.82    3.97   0
  -3  -8  -1  100.96    4.28   0
  -3  -8  -1   95.79    3.95   0
  -4  -8  -1   13.42    4.00   0
  -4  -8  -1   13.70    3.63   0
   4   8   1   11.99    3.90   0
   4   8   1   12.25    3.51   0
  -5  -8  -1  213.45    3.92   0
  -5  -8  -1  239.13    4.92   0
   5   8   1  230.99    3.97   0
   5   8   1  231.38    4.87   0
  -6  -8  -1    2.24    3.75   0
   6   8   1    6.75    3.77   0
   6   8   1    4.60    3.84   0
  -6  -8  -1    0.24    3.82   0
   7   8   1   -4.08    3.99   0
  -7  -8  -1    0.38    3.91   0
   7   8   1   -2.06    3.97   0
  -7  -8  -1    6.25    4.04   0
  -8  -8  -1    5.68    4.29   0
   8   8   1    1.28    4.16   0
  -8  -8  -1    3.32    4.29   0
   3  -9  -1   14.09    3.31   0
   3  -9  -1   15.54    4.46   0
   3  -9  -1   14.03    4.54   0
  -3   9   1   13.33    4.19   0
   2  -9  -1   70.00    4.47   0
   2  -9  -1   69.05    4.59   0
   2  -9  -1   68.30    4.66   0
  -2   9   1   72.75    4.17   0
   1  -9  -1   19.07    4.06   0
   1  -9  -1   13.23    4.02   0
   1  -9  -1   12.10    4.09   0
  -1   9   1   16.34    3.91   0
   0  -9  -1  114.68    4.40   0
   0   9   1  125.95    4.13   0
   0  -9  -1  114.60    3.58   0
   0  -9  -1  117.47    4.34   0
  -1  -9  -1   20.16    3.93   0
  -1  -9  -1   27.08    3.92   0
   1   9   1   22.50    2.64   0
  -1  -9  -1   21.57    2.69   0
  -2  -9  -1    2.07    3.64   0
  -2  -9  -1    3.91    3.78   0
   2   9   1    2.99    3.51   0
  -3  -9  -1  167.42    4.49   0
   3   9   1  153.71    4.24   0
   3   9   1  170.05    4.69   0
  -3  -9  -1  156.26    4.35   0
  -4  -9  -1   45.56    3.86   0
   4   9   1   46.82    4.15   0
   4   9   1   48.47    3.84   0
  -4  -9  -1   47.50    4.12   0
  -5  -9  -1   60.87    4.18   0
  -5  -9  -1   65.39    4.17   0
   5   9   1   61.77    4.13   0
   5   9   1   57.89    4.22   0
   6   9   1   11.82    3.97   0
  -6  -9  -1   13.13    4.00   0
  -6  -9  -1   14.21    4.06   0
   6   9   1   14.03    4.02   0
  -7  -9  -1   11.17    4.29   0
   7   9   1   14.77    3.17   0
   7   9   1   22.48    3.11   0
  -7  -9  -1   18.89    4.35   0
   2 -10  -1   98.58    5.28   0
   2 -10  -1  110.13    4.08   0
  -2  10   1  122.80    3.85   0
   2 -10  -1  100.54    5.21   0
   1 -10  -1   36.95    4.57   0
   1 -10  -1   31.86    3.48   0
  -1  10   1   39.73    4.18   0
   1 -10  -1   39.18    4.23   0
   0 -10  -1   -1.66    2.82   0
   0  10   1    5.36    3.88   0
   0 -10  -1    0.94    4.19   0
   0 -10  -1    3.44    4.15   0
  -1 -10  -1   76.39    3.48   0
  -1 -10  -1   62.81    4.56   0
   1  10   1   71.02    4.06   0
  -1 -10  -1   65.79    4.17   0
   2  10   1  124.29    4.34   0
  -2 -10  -1  113.24    4.46   0
  -2 -10  -1  125.52    4.60   0
  -2 -10  -1  123.94    4.83   0
   3  10   1  167.55    4.70   0
   3  10   1  137.36    4.44   0
  -3 -10  -1  148.44    4.65   0
  -3 -10  -1  146.47    4.62   0
   4  10   1   42.01    4.25   0
  -4 -10  -1   47.77    4.25   0
  -4 -10  -1   34.09    4.13   0
   4  10   1   47.75    4.05   0
   5  10   1   12.01    3.97   0
  -5 -10  -1    9.37    3.93   0
   5  10   1    6.51    4.04   0
  -5 -10  -1   13.08    4.02   0
   6  10   1    1.18    4.21   0
  -6 -10  -1    5.80    4.19   0
   6  10   1    2.17    4.21   0
  -6 -10  -1   -2.52    3.97   0
   7  10   1   18.87    3.29   0
  -7 -10  -1   17.04    3.27   0
   7  10   1   19.51    4.58   0
  -7 -10  -1   16.58    4.43   0
   1 -11  -1    6.29    4.51   0
   1 -11  -1    9.28    4.87   0
  -1  11   1    9.42    4.44   0
   1 -11  -1    5.67    4.80   0
   0 -11  -1    3.29    4.38   0
   0  11   1    2.63    4.22   0
   0 -11  -1    4.57    4.44   0
   0 -11  -1   10.76    4.45   0
  -1 -11  -1    9.32    4.31   0
   1  11   1   13.13    4.02   0
  -1 -11  -1    8.53    3.19   0
  -1 -11  -1   12.16    4.11   0
  -2 -11  -1   13.53    2.98   0
  -2 -11  -1   13.51    4.29   0
   2  11   1   20.19    3.86   0
  -2 -11  -1   13.08    4.46   0
  -3 -11  -1  124.95    4.68   0
  -3 -11  -1  131.17    5.06   0
   3  11   1  136.11    4.58   0
   4  11   1   40.53    4.21   0
   4  11   1   27.92    4.65   0
  -4 -11  -1   35.27    4.58   0
  -4 -11  -1   28.99    3.08   0
   5  11   1    3.58    4.13   0
   5  11   1    5.45    4.33   0
  -5 -11  -1    6.10    4.24   0
  -5 -11  -1    2.38    4.36   0
  -6 -11  -1    4.11    4.45   0
   6  11   1    5.72    4.43   0
   6  11   1    3.75    4.41   0
  -6 -11  -1    1.92    4.24   0
  -2 -12  -1    3.02    4.73   0
  -2 -12  -1   -0.56    3.14   0
   2  12   1   -2.53    4.34   0
  -2 -12  -1    4.87    4.57   0
  -3 -12  -1   -0.22    4.66   0
  -3 -12  -1    0.94    4.35   0
  -3 -12  -1   -0.72    4.57   0
   3  12   1    1.41    4.26   0
   4  11  -2    9.23    4.63   0
   4  11  -2   13.41    4.11   0
  -4 -11   2    1.08    4.54   0
  -4 -11   2    2.97    4.38   0
  -3 -11   2    4.31    4.15   0
   3  11  -2   -1.91    2.79   0
  -3 -11   2    6.31    4.71   0
  -3 -11   2    4.08    4.51   0
   2  11  -2   42.22    4.58   0
  -2 -11   2   37.73    4.83   0
  -2 -11   2   52.93    4.95   0
  -2 -11   2   40.71    3.67   0
  -1 -11   2   47.95    4.77   0
  -1 -11   2   42.18    4.92   0
   1  11  -2   43.13    4.55   0
  -1 -11   2   48.79    4.97   0
   6  10  -2   11.54    4.31   0
  -6 -10   2   15.97    3.33   0
   6  10  -2    7.15    4.35   0
  -6 -10   2    6.07    4.35   0
  -5 -10   2  175.89    5.23   0
   5  10  -2  171.18    5.14   0
   5  10  -2  188.38    5.25   0
  -5 -10   2  156.32    5.16   0
  -4 -10   2   83.77    4.66   0
  -4 -10   2   61.80    3.43   0
   4  10  -2   80.88    3.52   0
   4  10  -2   84.50    4.42   0
   3  10  -2    4.11    3.84   0
  -3 -10   2    5.21    2.87   0
  -3 -10   2    3.06    4.06   0
  -2 -10   2   52.84    4.24   0
   2  10  -2   56.93    4.09   0
  -2 -10   2   58.51    4.59   0
  -2 -10   2   51.94    4.55   0
  -1 -10   2   10.71    4.33   0
  -1 -10   2   11.04    4.01   0
   1  10  -2   13.34    3.87   0
  -1 -10   2    6.35    4.44   0
   0 -10   2    4.79    2.99   0
   0 -10   2    4.27    4.32   0
   0  10  -2    5.36    2.91   0
   0 -10   2    2.34    4.34   0
  -1  10  -2    2.41    4.28   0
   1 -10   2    2.26    4.53   0
   1 -10   2    2.02    4.54   0
   1 -10   2    2.07    4.57   0
  -7  -9   2    7.76    4.23   0
  -7  -9   2   12.60    4.31   0
   7   9  -2    9.94    3.00   0
   6   9  -2   12.43    4.12   0
  -6  -9   2    6.73    2.88   0
  -6  -9   2    6.50    4.19   0
   6   9  -2    9.94    4.11   0
   5   9  -2   85.19    4.45   0
   5   9  -2   66.82    4.17   0
  -5  -9   2   67.98    4.16   0
  -5  -9   2   76.09    4.52   0
  -4  -9   2  127.60    4.40   0
   4   9  -2  131.24    4.32   0
  -4  -9   2  116.68    4.34   0
   4   9  -2  134.50    4.62   0
  -3  -9   2   30.52    4.12   0
  -3  -9   2   28.92    2.87   0
   3   9  -2   32.15    4.06   0
   3   9  -2   38.07    3.88   0
  -2  -9   2    2.66    3.66   0
  -2  -9   2    3.36    3.93   0
  -2  -9   2    7.11    3.86   0
   2   9  -2    1.63    2.51   0
  -1  -9   2   33.55    4.11   0
  -1  -9   2   31.17    2.91   0
   1   9  -2   33.49    3.67   0
  -1  -9   2   37.52    4.21   0
   0  -9   2  167.11    5.04   0
   0   9  -2  178.36    3.70   0
   0  -9   2  179.08    4.99   0
   0  -9   2  165.51    3.98   0
   1  -9   2   72.86    4.66   0
   1  -9   2   77.77    4.75   0
   1  -9   2   95.32    4.68   0
  -1   9  -2   86.41    4.33   0
   2  -9   2    7.34    4.60   0
   2  -9   2    8.01    4.43   0
   2  -9   2   11.58    4.58   0
  -2   9  -2   13.36    4.16   0
  -7  -8   2   59.50    4.59   0
   7   8  -2   73.63    4.25   0
  -7  -8   2   59.02    4.62   0
  -6  -8   2   57.66    4.20   0
   6   8  -2   78.72    4.17   0
   6   8  -2   57.46    4.14   0
  -6  -8   2   61.24    4.13   0
   5   8  -2    6.54    3.78   0
  -5  -8   2    7.26    3.63   0
   5   8  -2    7.08    3.55   0
  -5  -8   2    7.97    3.86   0
   4   8  -2    5.41    3.51   0
  -4  -8   2    6.19    3.40   0
  -4  -8   2    2.96    3.78   0
   4   8  -2    7.17    3.70   0
   3   8  -2   10.03    3.54   0
  -3  -8   2    5.87    3.77   0
  -3  -8   2    6.73    3.62   0
   3   8  -2   11.24    3.80   0
  -2  -8   2   46.38    3.75   0
  -2  -8   2   55.35    4.07   0
   2   8  -2   44.59    3.70   0
  -1  -8   2   42.37    3.01   0
   1   8  -2   48.93    2.80   0
  -1  -8   2   47.16    3.02   0
  -1  -8   2   45.67    2.99   0
   0  -8   2   90.14    4.30   0
   0  -8   2   91.63    4.41   0
   0   8  -2   97.35    4.14   0
   0  -8   2  100.62    4.52   0
   1  -8   2   87.10    3.38   0
   1  -8   2   79.50    4.46   0
  -1   8  -2   87.58    4.16   0
   1  -8   2   87.81    4.56   0
   2  -8   2   53.24    4.49   0
   2  -8   2   51.19    4.50   0
   2  -8   2   49.15    4.50   0
  -2   8  -2   51.50    4.08   0
   3  -8   2   27.42    4.63   0
  -3   8  -2   37.98    4.20   0
   3  -8   2   31.93    4.49   0
   3  -8   2   32.90    4.60   0
  -8  -7   2    0.10    4.31   0
   8   7  -2    0.55    4.27   0
  -8  -7   2   -0.01    3.03   0
  -7  -7   2   16.07    2.93   0
   7   7  -2   16.33    4.01   0
  -7  -7   2   11.42    3.98   0
  -6  -7   2  261.07    5.01   0
   6   7  -2  291.08    4.85   0
  -6  -7   2  250.23    4.92   0
   6   7  -2  247.54    4.19   0
  -5  -7   2  147.61    3.56   0
  -5  -7   2  142.31    3.40   0
   5   7  -2  175.09    4.43   0
   5   7  -2  150.85    4.36   0
   4   7  -2   15.84    3.70   0
   4   7  -2   10.67    3.40   0
  -4  -7   2   10.52    3.34   0
  -4  -7   2    8.22    3.69   0
   3   7  -2   44.16    3.89   0
  -3  -7   2   47.84    3.71   0
  -3  -7   2   40.84    3.93   0
   3   7  -2   41.25    2.74   0
  -2  -7   2  704.44    6.31   0
   2   7  -2  705.06    5.68   0
  -2  -7   2  709.78    6.35   0
   2   7  -2  753.18    6.34   0
  -1  -7   2   33.57    4.00   0
  -1  -7   2   27.47    3.69   0
  -1  -7   2   25.07    3.83   0
   1   7  -2   34.94    3.56   0
   0   7  -2    9.60    3.47   0
   0  -7   2   13.58    3.98   0
   0  -7   2   14.69    3.88   0
   0  -7   2   14.68    3.84   0
   1  -7   2   -5.43    3.74   0
   1  -7   2    0.53    3.77   0
  -1   7  -2    1.57    3.48   0
   1  -7   2   -1.14    4.02   0
   2  -7   2   55.77    4.14   0
  -2   7  -2   66.15    3.90   0
   2  -7   2   71.18    4.30   0
   2  -7   2   67.45    4.20   0
   3  -7   2   -1.79    3.91   0
   3  -7   2    2.41    3.98   0
  -3   7  -2    0.73    3.64   0
   3  -7   2   -1.45    4.17   0
  -4   7  -2   22.65    5.11   0
   4  -7   2   16.14    3.15   0
   4  -7   2   21.54    4.62   0
  -8  -6   2    5.84    4.02   0
  -8  -6   2    1.74    4.05   0
   8   6  -2    3.68    3.02   0
   7   6  -2    2.01    2.80   0
  -7  -6   2    1.13    3.82   0
  -7  -6   2    1.51    3.79   0
  -6  -6   2   92.27    4.21   0
  -6  -6   2   93.46    4.02   0
   6   6  -2   97.73    4.23   0
   5   6  -2  770.12    6.32   0
  -5  -6   2  713.30    6.24   0
   5   6  -2  713.66    6.48   0
  -5  -6   2  748.47    6.37   0
   4   6  -2    2.57    3.41   0
  -4  -6   2    3.44    3.37   0
   4   6  -2    6.30    2.60   0
  -4  -6   2    9.44    3.71   0
   3   6  -2  140.97    4.31   0
  -3  -6   2  127.54    4.43   0
   3   6  -2  129.16    4.13   0
  -3  -6   2  124.56    4.13   0
  -2  -6   2  157.44    4.72   0
  -2  -6   2  154.07    4.29   0
   2   6  -2  173.15    4.67   0
   2   6  -2  153.96    3.30   0
  -1  -6   2 1146.10    7.83   0
  -1  -6   2 1098.02    6.92   0
   1   6  -2 1164.76    7.44   0
   0  -6   2  176.89    4.62   0
   0   6  -2  188.75    4.41   0
   0  -6   2  173.24    4.48   0
   0  -6   2  180.82    4.75   0
  -1   6  -2   42.27    3.02   0
   1  -6   2   55.00    4.03   0
   1  -6   2   42.93    4.26   0
   1  -6   2   43.28    3.91   0
   2  -6   2  566.76    6.07   0
   2  -6   2  586.99    6.39   0
  -2   6  -2  579.56    5.96   0
   2  -6   2  587.68    6.02   0
  -3   6  -2  250.66    4.83   0
   3  -6   2  231.04    4.92   0
  -3   6  -2  223.60    4.87   0
   3  -6   2  232.58    5.16   0
  -4   6  -2   12.87    4.29   0
   4  -6   2    9.32    4.26   0
   4  -6   2   12.69    3.92   0
  -4   6  -2   11.00    3.72   0
  -5   6  -2    5.56    4.29   0
  -5   6  -2    9.94    4.08   0
   5  -6   2    9.10    5.35   0
   5  -6   2    6.13    2.89   0
  -8  -5   2   13.85    4.01   0
   8   5  -2   15.00    4.10   0
  -8  -5   2   12.90    4.07   0
  -7  -5   2   38.48    4.01   0
   7   5  -2   29.93    2.93   0
  -7  -5   2   41.58    3.95   0
   6   5  -2  311.08    4.86   0
  -6  -5   2  253.85    4.12   0
  -6  -5   2  284.75    4.25   0
  -5  -5   2   33.23    2.78   0
  -5  -5   2   37.06    2.69   0
   5   5  -2   40.91    2.76   0
   5   5  -2   38.37    3.76   0
   4   5  -2  112.40    4.23   0
   4   5  -2  110.74    3.27   0
  -4  -5   2  118.53    3.95   0
  -4  -5   2  113.73    4.26   0
  -3  -5   2  206.19    4.32   0
   3   5  -2  228.40    4.47   0
  -3  -5   2  222.40    4.70   0
   3   5  -2  224.77    4.59   0
  -2  -5   2 1302.84    8.07   0
  -2  -5   2 1291.61    7.71   0
   2   5  -2 1400.40    8.33   0
   2   5  -2 1397.57    8.23   0
  -1  -5   2   22.13    3.71   0
   1   5  -2   16.04    3.75   0
   1   5  -2   17.00    3.28   0
  -1  -5   2   15.71    3.47   0
   0  -5   2   15.68    3.49   0
   0  -5   2   15.38    3.62   0
   0  -5   2   15.57    3.97   0
   0   5  -2   15.52    3.36   0
   1  -5   2    3.77    3.78   0
   1  -5   2    0.71    3.62   0
   1  -5   2    4.33    3.81   0
  -1   5  -2    0.06    2.46   0
   2  -5   2  202.17    3.78   0
  -2   5  -2  210.20    4.51   0
   2  -5   2  221.34    4.92   0
  -2   5  -2  211.43    4.55   0
   3  -5   2   96.49    3.23   0
  -3   5  -2   99.29    4.07   0
   3  -5   2  110.15    4.53   0
  -3   5  -2  109.53    4.23   0
  -4   5  -2   50.81    4.05   0
  -4   5  -2   49.28    4.04   0
   4  -5   2   54.76    4.40   0
   4  -5   2   49.59    3.92   0
  -5   5  -2    3.27    4.17   0
   5  -5   2   13.05    5.08   0
  -5   5  -2   12.99    3.96   0
   5  -5   2    8.56    2.81   0
   6  -5   2   10.29    5.68   0
  -6   5  -2   14.33    4.44   0
  -6   5  -2   12.86    4.36   0
   6  -5   2   10.48    4.39   0
  -8  -4   2    6.66    3.90   0
   8   4  -2    3.59    3.95   0
  -8  -4   2    1.35    4.05   0
  -7  -4   2   77.61    4.14   0
   7   4  -2   86.28    3.12   0
  -7  -4   2   79.47    3.06   0
  -6  -4   2   35.79    3.63   0
  -6  -4   2   30.75    3.74   0
   6   4  -2   32.04    3.70   0
   5   4  -2    8.02    3.57   0
  -5  -4   2    7.66    3.42   0
  -5  -4   2   10.15    3.72   0
  -4  -4   2   99.71    4.04   0
   4   4  -2   90.85    3.97   0
   4   4  -2   97.54    3.10   0
  -4  -4   2   96.66    3.69   0
  -3  -4   2  868.71    7.01   0
   3   4  -2  881.59    6.98   0
   3   4  -2  873.06    6.49   0
  -3  -4   2  855.39    6.74   0
  -2  -4   2   64.01    3.95   0
   2   4  -2   65.50    3.96   0
   2   4  -2   68.19    4.20   0
  -2  -4   2   71.95    4.34   0
  -1  -4   2    7.05    3.88   0
   1   4  -2    4.98    3.40   0
  -1  -4   2    6.72    3.41   0
   1   4  -2    4.12    3.88   0
   0  -4   2  532.67    6.25   0
   0   4  -2  555.63    6.25   0
   0  -4   2  569.83    6.68   0
   0  -4   2  510.93    5.73   0
  -1   4  -2   14.20    3.55   0
   1  -4   2   15.20    3.82   0
   1  -4   2   16.16    3.78   0
  -2   4  -2  466.10    5.68   0
  -2   4  -2  454.16    5.94   0
   2  -4   2  480.23    6.31   0
   2  -4   2  473.26    5.71   0
   3  -4   2   14.87    4.07   0
  -3   4  -2   16.90    3.63   0
   3  -4   2   20.19    3.79   0
  -3   4  -2   10.20    3.74   0
  -4   4  -2  120.45    4.35   0
   4  -4   2  126.46    4.58   0
  -4   4  -2  130.12    4.11   0
   4  -4   2  140.49    4.29   0
  -5   4  -2   20.24    4.75   0
  -5   4  -2   16.81    3.78   0
   5  -4   2   21.05    4.06   0
   5  -4   2   12.01    3.81   0
   6  -4   2    9.72    4.26   0
  -6   4  -2   11.53    4.37   0
  -6   4  -2   12.80    4.31   0
  -8  -3   2   65.10    4.39   0
  -8  -3   2   52.48    4.42   0
   8   3  -2   61.64    3.09   0
  -8  -3   2   61.65    4.30   0
  -7  -3   2    3.34    3.54   0
  -7  -3   2   -1.11    3.61   0
   7   3  -2    1.52    2.56   0
  -6  -3   2   24.56    3.76   0
   6   3  -2   25.59    2.71   0
  -6  -3   2   23.43    3.63   0
   5   3  -2  265.87    4.82   0
  -5  -3   2  271.56    4.76   0
  -5  -3   2  274.33    4.78   0
  -4  -3   2 1449.82    8.53   0
   4   3  -2 1474.37    8.36   0
  -4  -3   2 1457.70    8.38   0
  -3  -3   2  350.10    5.08   0
   3   3  -2  357.54    5.27   0
   3   3  -2  339.64    4.76   0
  -3  -3   2  358.16    5.50   0
   2   3  -2  252.47    5.19   0
  -2  -3   2  246.87    5.26   0
   2   3  -2  249.03    5.03   0
  -2  -3   2  239.49    4.30   0
   1   3  -2   65.75    3.89   0
  -1  -3   2   71.09    4.61   0
   1   3  -2   66.36    4.57   0
  -1  -3   2   66.93    4.15   0
   0  -3   2 2429.60   12.50   0
   0  -3   2 2526.94   12.81   0
   0   3  -2 2423.81   12.37   0
   0  -3   2 2289.38   12.27   0
   1  -3   2 1349.83   10.01   0
   1  -3   2 1354.65    9.38   0
  -1   3  -2 1348.72    9.30   0
  -1   3  -2 1383.53    9.74   0
   2  -3   2  194.29    5.05   0
  -2   3  -2  196.31    4.62   0
   2  -3   2  194.02    4.66   0
  -2   3  -2  185.21    4.76   0
  -3   3  -2   82.68    4.19   0
  -3   3  -2   71.04    3.93   0
   3  -3   2   72.95    4.40   0
   3  -3   2   81.80    4.03   0
  -4   3  -2   43.39    3.70   0
   4  -3   2   44.58    3.69   0
   4  -3   2   43.44    4.04   0
  -4   3  -2   43.07    4.99   0
   5  -3   2  145.03    4.25   0
  -5   3  -2  137.72    4.82   0
  -5   3  -2  136.46    4.22   0
   5  -3   2  132.41    4.78   0
   6  -3   2  103.47    4.70   0
  -6   3  -2  113.07    4.49   0
  -6   3  -2  118.67    5.75   0
  -7   3  -2   30.69    3.39   0
  -7   3  -2   31.82    4.72   0
   7  -3   2   35.16    4.50   0
  -8  -2   2    5.33    5.03   0
  -8  -2   2   -1.22    4.09   0
   8   2  -2    4.55    2.78   0
  -8  -2   2    8.08    4.03   0
   7   2  -2   18.95    2.72   0
  -7  -2   2   13.05    3.80   0
  -7  -2   2   18.36    3.81   0
  -7  -2   2   25.56    3.71   0
  -6  -2   2   37.68    3.69   0
  -6  -2   2   44.06    3.63   0
   6   2  -2   38.56    2.78   0
   5   2  -2  367.01    5.17   0
  -5  -2   2  356.51    5.27   0
  -5  -2   2  348.77    5.11   0
  -4  -2   2  123.93    4.16   0
  -4  -2   2  121.96    4.13   0
   4   2  -2  121.19    4.11   0
   3   2  -2 1095.57    8.07   0
  -3  -2   2 1061.71    7.94   0
  -3  -2   2 1074.77    8.10   0
  -2  -2   2   40.89    4.26   0
  -2  -2   2   41.88    4.02   0
   2   2  -2   40.53    3.92   0
   2   2  -2   38.67    4.25   0
  -1  -2   2  369.87    6.87   0
   1   2  -2  377.42    6.81   0
  -1  -2   2  372.34    6.54   0
   1   2  -2  384.41    6.45   0
   0  -2   2 3861.63   17.61   0
   0   2  -2 3772.73   17.50   0
   0  -2   2 3378.10   16.31   0
   0  -2   2 3726.30   17.47   0
   1  -2   2  735.80    9.08   0
   1  -2   2  730.65    8.01   0
  -1   2  -2  709.73    7.85   0
  -1   2  -2  731.00    8.72   0
  -2   2  -2  136.39    4.58   0
   2  -2   2  143.82    5.87   0
  -2   2  -2  130.86    4.85   0
   2  -2   2  138.72    4.64   0
  -3   2  -2  560.62    7.15   0
  -3   2  -2  581.18    5.96   0
   3  -2   2  590.35    6.03   0
   3  -2   2  563.70    7.32   0
   4  -2   2 1113.51    7.49   0
  -4   2  -2 1121.19    7.47   0
  -4   2  -2 1143.31    9.90   0
   4  -2   2 1170.29   10.10   0
   5  -2   2    2.47    2.55   0
  -5   2  -2    1.81    2.51   0
  -5   2  -2    0.63    3.63   0
  -6   2  -2   19.49    3.86   0
   6  -2   2   14.13    2.89   0
  -6   2  -2   21.92    3.88   0
   7  -2   2    4.02    4.05   0
  -7   2  -2    1.24    3.93   0
  -7   2  -2    1.24    5.11   0
  -8  -1   2   -1.38    2.88   0
  -8  -1   2    1.55    3.88   0
  -8  -1   2    1.36    4.03   0
   8   1  -2    4.40    3.98   0
  -7  -1   2   90.37    4.37   0
   7   1  -2  104.92    4.14   0
  -7  -1   2   92.04    4.29   0
  -7  -1   2   94.23    4.12   0
  -6  -1   2  346.21    4.32   0
   6   1  -2  380.82    5.13   0
  -6  -1   2  367.37    5.54   0
  -6  -1   2  347.84    5.41   0
  -5  -1   2    5.12    3.56   0
  -5  -1   2    6.29    2.58   0
   5   1  -2    1.92    3.54   0
  -5  -1   2    4.99    3.50   0
  -4  -1   2   98.36    4.09   0
   4   1  -2   96.00    4.17   0
  -4  -1   2   96.68    4.06   0
  -3  -1   2  271.00    4.42   0
  -3  -1   2  300.64    4.56   0
   3   1  -2  304.93    5.18   0
  -2  -1   2 1743.17   11.20   0
  -2  -1   2 1715.24   11.56   0
   2   1  -2 1721.15   11.50   0
  -1  -1   2 5720.97   23.99   0
   1   1  -2 5730.50   22.42   0
  -1  -1   2 5667.60   22.57   0
   1   1  -2 5811.10   24.16   0
   0   1  -2  647.96    9.98   0
   0  -1   2  649.25   10.02   0
   0  -1   2  647.85   10.34   0
   0  -1   2  608.85    9.94   0
   1  -1   2  862.53    9.39   0
  -1   1  -2  851.00   12.05   0
   1  -1   2  847.74   12.45   0
  -1   1  -2  850.74    9.34   0
  -2   1  -2   20.56    4.95   0
   2  -1   2   19.91    5.13   0
  -2   1  -2   19.01    3.99   0
   2  -1   2   16.61    4.06   0
   3  -1   2 1116.48   10.82   0
   3  -1   2 1117.18    7.41   0
  -3   1  -2 1113.44   11.14   0
  -3   1  -2 1187.85    8.17   0
  -4   1  -2   10.63    4.49   0
  -4   1  -2   10.21    3.57   0
   4  -1   2    9.58    3.62   0
  -5   1  -2  450.20    7.29   0
  -5   1  -2  446.34    5.31   0
   5  -1   2  440.46    5.45   0
  -6   1  -2    8.38    3.62   0
  -6   1  -2    4.23    4.68   0
   6  -1   2    9.68    3.60   0
  -7   1  -2    9.87    5.11   0
  -7   1  -2   10.65    3.92   0
   7  -1   2   10.39    3.94   0
  -8   1  -2   28.21    4.60   0
  -8   1  -2   32.44    5.88   0
  -8   1  -2   30.36    6.04   0
   8  -1   2   34.33    4.66   0
  -8   0   2  143.23    4.01   0
  -8   0   2  136.09    5.32   0
   8   0  -2  166.95    5.23   0
  -8   0   2  159.32    5.34   0
  -7   0   2    3.34    3.93   0
  -7   0   2    3.76    2.66   0
   7   0  -2    8.47    3.80   0
  -7   0   2    4.82    3.85   0
  -6   0   2   41.17    3.79   0
  -6   0   2   41.48    3.88   0
   6   0  -2   40.09    3.76   0
  -5   0   2  582.33    6.05   0
  -5   0   2  559.50    6.22   0
   5   0  -2  616.35    6.14   0
  -4   0   2  666.82    6.75   0
  -4   0   2  614.09    5.76   0
   4   0  -2  682.74    6.56   0
  -3   0   2  790.21    7.44   0
  -3   0   2  780.57    7.29   0
   3   0  -2  817.62    7.38   0
  -2   0   2 6334.57   22.22   0
   2   0  -2 6407.56   22.34   0
  -1   0   2 1861.42   16.87   0
   1   0  -2 1841.41   16.76   0
   0   0   2 1481.28   18.54   0
   0   0   2 1494.18   19.10   0
  -1   0  -2 4271.10   21.93   0
   1   0   2 4307.21   21.75   0
  -2   0  -2 3645.25   15.81   0
  -2   0  -2 3409.95   28.41   0
   2   0   2 3737.04   15.78   0
  -3   0  -2  227.82    4.87   0
  -3   0  -2  216.38    6.92   0
   3   0   2  224.60    4.93   0
  -4   0  -2  163.31    4.23   0
  -4   0  -2  156.79    5.86   0
   4   0   2  160.41    4.27   0
   5   0   2    5.45    3.76   0
  -5   0  -2    1.84    2.63   0
  -5   0  -2    4.82    4.55   0
  -6   0  -2  149.22    5.67   0
  -6   0  -2  141.29    4.26   0
   6   0   2  147.03    4.30   0
  -7   0  -2    8.35    4.74   0
  -7   0  -2    1.52    4.14   0
  -7   0  -2    8.91    3.86   0
   7   0   2    9.34    3.90   0
  -8   0  -2    5.35    5.18   0
  -8   0  -2    2.10    5.38   0
  -8   0  -2    8.10    4.15   0
   8   0   2    3.58    4.23   0
  -8   1   2    3.65    4.31   0
   8  -1  -2    3.61    4.29   0
  -8   1   2    3.55    4.37   0
  -7   1   2  146.95    4.86   0
  -7   1   2  157.67    4.68   0
   7  -1  -2  166.40    4.71   0
   6  -1  -2   -0.28    3.76   0
  -6   1   2    2.81    3.71   0
  -6   1   2   -1.59    3.77   0
  -5   1   2   77.44    3.97   0
  -5   1   2   83.04    3.98   0
   5  -1  -2   84.78    4.08   0
  -4   1   2   60.27    3.97   0
   4  -1  -2   53.18    3.87   0
  -4   1   2   56.09    3.80   0
  -3   1   2  394.62    5.83   0
   3  -1  -2  385.18    5.64   0
  -3   1   2  375.57    5.19   0
   2  -1  -2  133.98    4.66   0
   2  -1  -2  128.48    5.13   0
  -2   1   2  130.12    4.73   0
  -2   1   2  123.82    4.81   0
   1  -1  -2 5696.51   23.21   0
   1  -1  -2 5643.86   29.66   0
  -1   1   2 5671.36   23.09   0
   0  -1  -2 7201.40   33.19   0
   0   1   2 7205.62   33.32   0
   1   1   2   66.59    6.22   0
  -1  -1  -2   68.67    6.22   0
   1   1   2   63.72    8.35   0
  -1  -1  -2   61.21    9.37   0
  -2  -1  -2  248.65    5.05   0
   2   1   2  276.35    6.03   0
  -2  -1  -2  284.08   10.22   0
  -3  -1  -2 2912.00   20.35   0
  -3  -1  -2 2827.23   20.09   0
   3   1   2 2739.28   11.96   0
  -3  -1  -2 2803.97   12.59   0
  -4  -1  -2  113.10    5.18   0
  -4  -1  -2  101.81    5.22   0
  -4  -1  -2   85.18    3.12   0
   4   1   2  105.59    4.07   0
  -5  -1  -2   64.26    3.92   0
  -5  -1  -2   58.26    4.29   0
   5   1   2   71.88    4.00   0
  -5  -1  -2   64.56    4.79   0
  -6  -1  -2   13.30    2.64   0
  -6  -1  -2   15.65    4.30   0
   6   1   2   15.88    2.72   0
  -6  -1  -2   13.93    4.63   0
  -7  -1  -2   18.26    2.85   0
  -7  -1  -2   21.01    4.97   0
  -7  -1  -2   22.22    4.73   0
   7   1   2   18.69    3.95   0
   8   1   2    1.97    4.12   0
  -8  -1  -2    1.05    4.09   0
  -8  -1  -2    1.83    4.18   0
  -8  -1  -2    3.21    4.92   0
   8  -2  -2    1.14    4.39   0
  -8   2   2    1.37    4.45   0
  -8   2   2   -0.64    4.44   0
  -7   2   2  191.45    4.99   0
   7  -2  -2  205.20    4.95   0
  -7   2   2  197.09    5.15   0
   6  -2  -2   64.30    4.13   0
  -6   2   2   57.54    4.24   0
  -6   2   2   60.58    4.30   0
  -5   2   2   63.85    4.10   0
   5  -2  -2   78.30    4.21   0
  -5   2   2   73.01    4.15   0
  -4   2   2    2.47    3.67   0
  -4   2   2    1.07    3.28   0
   4  -2  -2    1.21    3.46   0
  -3   2   2  829.23    7.51   0
   3  -2  -2  876.67    7.62   0
   3  -2  -2  850.22    7.51   0
  -3   2   2  861.44    7.60   0
   2  -2  -2   38.41    3.81   0
  -2   2   2   37.64    4.06   0
   2  -2  -2   33.04    3.97   0
  -2   2   2   38.62    3.88   0
  -1   2   2  439.18    7.25   0
  -1   2   2  433.17    8.42   0
   1  -2  -2  450.73    7.35   0
   1  -2  -2  434.73    8.42   0
   0  -2  -2  156.24    9.56   0
   0   2   2  152.11    5.50   0
   0  -2  -2  159.10    5.58   0
   0  -2  -2  157.00    9.60   0
   1   2   2 1223.58   13.97   0
  -1  -2  -2 1221.72   13.99   0
  -1  -2  -2 1232.77   14.11   0
   1   2   2 1206.57   13.45   0
   2   2   2 1792.13   12.26   0
  -2  -2  -2 1749.32   15.45   0
   2   2   2 1771.73   15.87   0
  -2  -2  -2 1789.74   12.21   0
  -3  -2  -2  299.25    5.31   0
  -3  -2  -2  303.52    7.25   0
   3   2   2  314.62    5.26   0
  -4  -2  -2  413.98    5.39   0
   4   2   2  437.72    5.56   0
  -4  -2  -2  433.85    7.27   0
  -5  -2  -2   83.45    3.87   0
  -5  -2  -2   86.70    4.85   0
   5   2   2   86.81    3.91   0
  -5  -2  -2   84.16    5.00   0
  -6  -2  -2   65.50    4.80   0
   6   2   2   65.68    3.93   0
  -6  -2  -2   61.11    4.19   0
  -6  -2  -2   58.98    3.76   0
  -7  -2  -2   26.72    3.82   0
  -7  -2  -2   29.76    4.61   0
   7   2   2   31.29    3.77   0
  -7  -2  -2   26.41    4.12   0
  -8  -2  -2   20.28    4.24   0
   8   2   2   22.38    4.03   0
  -8  -2  -2   13.93    4.09   0
  -8  -2  -2   21.25    5.28   0
  -7   3   2   13.06    4.28   0
  -7   3   2    9.22    4.14   0
   7  -3  -2   12.81    4.28   0
   6  -3  -2   14.54    3.84   0
  -6   3   2   12.96    3.82   0
  -6   3   2   12.90    3.81   0
  -5   3   2  367.15    5.42   0
  -5   3   2  344.71    5.21   0
   5  -3  -2  351.14    5.25   0
  -4   3   2   49.18    3.86   0
  -4   3   2   47.36    2.85   0
   4  -3  -2   45.42    3.88   0
   4  -3  -2   51.15    3.89   0
   3  -3  -2 1306.50    8.70   0
  -3   3   2 1268.81    8.62   0
  -3   3   2 1258.94    8.39   0
   3  -3  -2 1254.78    8.59   0
   2  -3  -2    3.07    3.59   0
   2  -3  -2    5.86    3.72   0
  -2   3   2    4.16    3.65   0
  -2   3   2    2.14    3.67   0
  -1   3   2    7.42    3.97   0
   1  -3  -2    4.21    4.03   0
  -1   3   2    5.78    4.10   0
   1  -3  -2    7.40    4.11   0
   0  -3  -2  803.39    8.57   0
   0   3   2  821.09    8.63   0
   0  -3  -2  798.28   11.35   0
   0  -3  -2  820.30   11.26   0
  -1  -3  -2 6189.34   22.09   0
   1   3   2 6372.62   22.20   0
   1   3   2 6311.60   25.48   0
  -1  -3  -2 6369.94   25.33   0
  -2  -3  -2 2872.81   15.67   0
   2   3   2 2900.69   15.82   0
  -2  -3  -2 2902.85   14.62   0
   2   3   2 2871.55   14.56   0
  -3  -3  -2    5.37    3.60   0
   3   3   2    5.23    3.52   0
  -3  -3  -2    8.40    3.51   0
   3   3   2    3.34    3.60   0
  -4  -3  -2  435.74    5.62   0
  -4  -3  -2  455.47    6.51   0
   4   3   2  436.34    5.65   0
  -5  -3  -2  725.16    7.76   0
   5   3   2  673.68    5.51   0
  -5  -3  -2  718.70    6.33   0
  -6  -3  -2   32.71    3.55   0
  -6  -3  -2   46.91    4.51   0
   6   3   2   34.79    3.69   0
  -7  -3  -2   -1.26    3.58   0
  -7  -3  -2    2.77    4.49   0
  -7  -3  -2    1.93    3.82   0
   7   3   2    5.78    3.66   0
  -8  -3  -2   19.65    5.09   0
  -8  -3  -2   19.72    3.97   0
  -8  -3  -2   21.82    5.02   0
   8   3   2   18.90    4.03   0
  -7   4   2    2.75    4.42   0
  -7   4   2    0.91    4.46   0
   7  -4  -2    2.28    3.10   0
   6  -4  -2    3.57    4.08   0
  -6   4   2   -1.79    3.99   0
  -6   4   2    0.14    3.93   0
   5  -4  -2  474.21    5.29   0
   5  -4  -2  526.43    6.38   0
  -5   4   2  499.18    5.83   0
  -5   4   2  534.01    6.03   0
  -4   4   2   48.13    3.93   0
  -4   4   2   50.13    3.94   0
   4  -4  -2   60.11    4.06   0
   4  -4  -2   55.65    3.80   0
   3  -4  -2    1.74    3.57   0
  -3   4   2   -1.62    3.69   0
   3  -4  -2    2.15    3.60   0
  -3   4   2    1.28    3.67   0
   2  -4  -2  450.32    6.16   0
  -2   4   2  450.93    5.70   0
  -2   4   2  442.04    6.06   0
   2  -4  -2  468.23    5.89   0
   1  -4  -2 1629.00   10.99   0
  -1   4   2 1575.04    9.49   0
  -1   4   2 1504.34   10.77   0
   1  -4  -2 1611.81    9.58   0
   0  -4  -2  975.77    9.55   0
   0   4   2  943.18    7.55   0
   0  -4  -2  927.73    9.66   0
   0  -4  -2  965.04    8.08   0
  -1  -4  -2  254.92    5.27   0
   1   4   2  253.89    4.51   0
   1   4   2  261.32    5.84   0
  -1  -4  -2  263.30    5.98   0
   2   4   2  565.70    6.79   0
   2   4   2  548.06    6.85   0
  -2  -4  -2  538.42    6.79   0
  -2  -4  -2  557.97    6.68   0
   3   4   2  422.64    6.11   0
  -3  -4  -2  415.25    6.10   0
  -3  -4  -2  420.59    5.72   0
   3   4   2  422.51    5.81   0
  -4  -4  -2 1699.01    9.17   0
  -4  -4  -2 1687.83   10.37   0
   4   4   2 1690.58    9.13   0
   4   4   2 1694.91   10.52   0
  -5  -4  -2 1084.06    7.43   0
   5   4   2 1031.23    6.71   0
  -5  -4  -2 1067.98    9.05   0
  -6  -4  -2  317.99    6.35   0
  -6  -4  -2  334.13    4.99   0
   6   4   2  356.17    5.01   0
  -7  -4  -2    2.87    3.77   0
   7   4   2    0.33    3.63   0
  -7  -4  -2    3.01    2.52   0
  -8  -4  -2    8.80    4.11   0
  -8  -4  -2    6.19    5.03   0
   8   4   2    6.98    2.94   0
  -8  -4  -2    6.59    3.90   0
   6  -5  -2   -0.86    4.17   0
  -6   5   2    3.40    4.23   0
  -6   5   2    5.07    4.00   0
   5  -5  -2   18.55    4.02   0
  -5   5   2   23.30    3.98   0
  -5   5   2   18.66    4.07   0
   5  -5  -2   23.89    3.96   0
   4  -5  -2    0.91    3.64   0
  -4   5   2    2.31    3.61   0
  -4   5   2    2.14    3.69   0
   4  -5  -2    2.20    3.75   0
  -3   5   2    2.47    3.52   0
   3  -5  -2    4.52    3.66   0
  -3   5   2    8.51    3.81   0
   3  -5  -2    6.85    3.89   0
  -2   5   2   56.13    2.94   0
  -2   5   2   55.07    4.07   0
   2  -5  -2   63.62    3.85   0
   2  -5  -2   55.91    4.02   0
   1  -5  -2  933.38    7.25   0
  -1   5   2  930.65    7.17   0
   1  -5  -2  933.91    8.17   0
   1  -5  -2  936.12    8.26   0
   0   5   2 1038.47    7.75   0
   0  -5  -2 1016.42    8.95   0
   0  -5  -2 1062.77    8.97   0
   0  -5  -2 1050.26    7.81   0
  -1  -5  -2 1962.86   11.49   0
   1   5   2 1920.27   11.58   0
   1   5   2 1953.34   10.16   0
  -1  -5  -2 1884.15    9.79   0
   2   5   2  139.09    4.35   0
  -2  -5  -2  136.27    4.40   0
   2   5   2  138.42    3.84   0
  -2  -5  -2  145.52    4.57   0
   3   5   2  236.82    4.99   0
   3   5   2  224.21    4.90   0
  -3  -5  -2  227.84    4.94   0
  -3  -5  -2  231.63    4.88   0
  -4  -5  -2   26.79    3.66   0
   4   5   2   25.40    3.52   0
   4   5   2   28.90    3.60   0
  -4  -5  -2   31.88    3.59   0
   5   5   2  123.78    4.37   0
  -5  -5  -2  124.72    5.00   0
   5   5   2  119.27    3.51   0
  -5  -5  -2  129.53    4.29   0
  -6  -5  -2  520.08    5.07   0
   6   5   2  573.70    5.09   0
  -6  -5  -2  570.86    7.16   0
  -7  -5  -2   71.73    4.31   0
  -7  -5  -2   64.54    3.85   0
   7   5   2   69.22    3.97   0
  -8  -5  -2   95.57    4.46   0
  -8  -5  -2  104.67    5.68   0
   8   5   2  116.14    4.52   0
   6  -6  -2   18.79    4.39   0
   6  -6  -2   27.90    4.59   0
  -6   6   2   17.23    4.77   0
  -6   6   2   29.12    4.62   0
   5  -6  -2    4.11    3.99   0
   5  -6  -2    2.81    4.02   0
  -5   6   2    3.07    3.95   0
  -5   6   2   -1.55    4.12   0
  -4   6   2   52.54    3.93   0
   4  -6  -2   56.39    4.06   0
   4  -6  -2   43.16    4.16   0
  -4   6   2   48.99    4.12   0
   3  -6  -2  585.97    6.28   0
  -3   6   2  592.43    6.05   0
  -3   6   2  550.19    6.06   0
   3  -6  -2  609.66    6.47   0
   2  -6  -2   41.36    4.00   0
  -2   6   2   41.59    3.96   0
   2  -6  -2   47.70    3.66   0
  -2   6   2   44.96    3.88   0
   1  -6  -2  126.51    4.15   0
   1  -6  -2  120.41    4.61   0
  -1   6   2  124.06    4.09   0
   1  -6  -2  124.28    4.60   0
   0  -6  -2  106.37    4.59   0
   0  -6  -2  114.32    4.60   0
   0  -6  -2  105.11    3.19   0
   0   6   2  112.54    3.94   0
  -1  -6  -2  794.70    6.68   0
   1   6   2  793.64    7.59   0
  -1  -6  -2  790.91    7.46   0
   1   6   2  787.10    6.56   0
   2   6   2   77.86    3.85   0
   2   6   2   80.93    4.20   0
  -2  -6  -2   85.92    3.12   0
  -2  -6  -2   78.23    4.19   0
   3   6   2   74.58    3.92   0
   3   6   2   71.41    3.13   0
  -3  -6  -2   70.35    3.97   0
  -3  -6  -2   72.21    3.90   0
   4   6   2    0.73    3.47   0
  -4  -6  -2   -2.30    3.53   0
  -4  -6  -2    4.01    3.68   0
   4   6   2    1.07    3.71   0
   5   6   2    2.34    3.45   0
  -5  -6  -2    3.38    3.77   0
   5   6   2    2.07    3.71   0
  -5  -6  -2    1.65    4.12   0
  -6  -6  -2  461.67    5.88   0
  -6  -6  -2  489.77    5.49   0
   6   6   2  461.69    5.95   0
   6   6   2  492.98    5.63   0
   7   6   2   59.93    3.98   0
  -7  -6  -2   53.51    4.24   0
  -7  -6  -2   54.76    3.97   0
  -8  -6  -2   27.27    4.41   0
   8   6   2   25.77    4.26   0
  -8  -6  -2   30.17    4.29   0
  -5   7   2   10.24    4.34   0
   5  -7  -2    5.67    4.27   0
  -5   7   2    9.75    4.39   0
   5  -7  -2    7.49    4.36   0
   4  -7  -2   35.08    4.21   0
  -4   7   2   35.64    4.04   0
  -4   7   2   26.97    3.21   0
   4  -7  -2   30.37    4.26   0
   3  -7  -2  132.25    4.58   0
   3  -7  -2  128.74    4.75   0
  -3   7   2  148.23    4.64   0
  -3   7   2  126.46    4.52   0
   2  -7  -2  533.75    5.87   0
   2  -7  -2  497.73    6.04   0
  -2   7   2  522.81    5.74   0
   2  -7  -2  520.29    6.29   0
   1  -7  -2  296.76    5.13   0
   1  -7  -2  283.26    4.95   0
  -1   7   2  281.52    4.89   0
   1  -7  -2  282.93    5.03   0
   0  -7  -2  216.14    4.68   0
   0  -7  -2  225.30    5.03   0
   0   7   2  225.11    4.65   0
   0  -7  -2  236.28    4.95   0
  -1  -7  -2  503.96    6.12   0
  -1  -7  -2  479.32    5.81   0
   1   7   2  489.77    5.70   0
  -2  -7  -2 1848.38    8.69   0
   2   7   2 1936.12    9.12   0
  -2  -7  -2 1921.42   10.01   0
   2   7   2 1876.15   10.00   0
  -3  -7  -2   28.30    3.90   0
   3   7   2   25.31    3.96   0
  -3  -7  -2   31.47    3.81   0
   3   7   2   23.12    3.67   0
  -4  -7  -2  201.43    4.85   0
   4   7   2  206.49    3.93   0
  -4  -7  -2  206.96    4.96   0
   4   7   2  214.20    4.94   0
  -5  -7  -2    5.42    3.76   0
   5   7   2   10.28    3.59   0
  -5  -7  -2    4.54    3.94   0
   5   7   2    0.89    3.82   0
   6   7   2   78.30    4.15   0
  -6  -7  -2   71.28    4.16   0
   6   7   2   80.85    3.10   0
  -6  -7  -2   72.28    4.87   0
  -7  -7  -2   25.02    2.90   0
   7   7   2   31.02    4.07   0
  -7  -7  -2   29.00    4.12   0
  -8  -7  -2  145.44    5.17   0
  -8  -7  -2  129.72    5.07   0
   8   7   2  152.28    4.97   0
   4  -8  -2   -1.05    4.21   0
  -4   8   2    3.86    4.03   0
   4  -8  -2   -0.54    4.32   0
  -3   8   2   26.51    4.08   0
   3  -8  -2   29.97    4.21   0
   3  -8  -2   32.58    4.17   0
   3  -8  -2   27.50    4.25   0
   2  -8  -2   36.87    4.17   0
   2  -8  -2   33.75    4.27   0
   2  -8  -2   30.02    4.08   0
  -2   8   2   34.89    4.12   0
   1  -8  -2   16.26    3.93   0
   1  -8  -2   15.62    3.76   0
  -1   8   2   13.45    3.61   0
   1  -8  -2   11.37    3.75   0
   0   8   2   -3.55    2.50   0
   0  -8  -2   -3.91    3.68   0
   0  -8  -2    0.56    3.75   0
   0  -8  -2    1.72    3.75   0
   1   8   2  126.81    4.07   0
  -1  -8  -2  107.27    4.38   0
  -1  -8  -2  117.84    4.25   0
  -1  -8  -2  118.73    4.32   0
   2   8   2  179.66    4.47   0
   2   8   2  200.21    4.40   0
  -2  -8  -2  192.31    4.63   0
  -2  -8  -2  176.11    3.54   0
  -3  -8  -2  150.52    4.35   0
   3   8   2  159.96    4.27   0
   3   8   2  149.73    4.39   0
  -3  -8  -2  147.24    4.36   0
   4   8   2  208.77    4.81   0
  -4  -8  -2  206.73    4.51   0
  -4  -8  -2  192.89    3.92   0
   4   8   2  207.32    4.65   0
  -5  -8  -2    3.79    3.61   0
   5   8   2    1.71    3.52   0
   5   8   2    0.44    3.69   0
  -5  -8  -2    0.23    3.70   0
   6   8   2   27.94    3.88   0
  -6  -8  -2   38.98    4.00   0
  -6  -8  -2   36.43    3.95   0
   6   8   2   38.22    4.03   0
   7   8   2   41.17    4.24   0
  -7  -8  -2   43.38    3.06   0
   7   8   2   37.95    4.19   0
  -7  -8  -2   47.89    4.18   0
  -8  -8  -2   -1.22    4.20   0
  -8  -8  -2    5.22    5.31   0
   8   8   2    2.12    4.26   0
   3  -9  -2   17.84    4.40   0
   3  -9  -2    9.76    4.48   0
   3  -9  -2   14.42    4.56   0
  -3   9   2   14.87    4.19   0
   2  -9  -2    3.21    2.82   0
   2  -9  -2    3.11    4.10   0
   2  -9  -2   -0.92    4.27   0
  -2   9   2    1.08    2.80   0
   1  -9  -2  389.56    5.79   0
   1  -9  -2  374.90    5.74   0
   1  -9  -2  392.85    5.53   0
  -1   9   2  388.80    5.25   0
   0  -9  -2  159.96    4.92   0
   0  -9  -2  177.65    4.38   0
   0  -9  -2  166.01    4.65   0
   0   9   2  170.01    4.22   0
   1   9   2   46.64    3.73   0
  -1  -9  -2   48.18    2.90   0
  -1  -9  -2   54.70    4.00   0
  -1  -9  -2   43.60    4.28   0
   2   9   2    2.14    2.52   0
  -2  -9  -2    6.17    3.59   0
  -2  -9  -2    9.31    3.80   0
  -3  -9  -2   11.80    3.72   0
  -3  -9  -2   11.73    3.77   0
   3   9   2   13.00    3.82   0
   3   9   2   13.41    3.65   0
   4   9   2   76.77    4.25   0
  -4  -9  -2   81.09    4.24   0
  -4  -9  -2   86.70    4.13   0
   4   9   2   86.19    4.14   0
   5   9   2    8.58    3.83   0
   5   9   2    6.10    3.83   0
  -5  -9  -2   15.10    3.92   0
  -5  -9  -2   13.69    3.87   0
   6   9   2   89.96    4.48   0
   6   9   2  107.59    4.39   0
  -6  -9  -2   93.20    4.45   0
  -6  -9  -2   97.08    4.40   0
  -7  -9  -2   25.22    4.26   0
   7   9   2   29.68    4.32   0
  -7  -9  -2   21.32    4.24   0
   7   9   2   21.94    4.33   0
   2 -10  -2   -1.47    4.44   0
  -2  10   2    2.11    4.27   0
   2 -10  -2    2.17    4.43   0
   2 -10  -2    1.96    3.19   0
   1 -10  -2   60.83    4.38   0
   1 -10  -2   68.64    4.54   0
   1 -10  -2   56.98    4.70   0
  -1  10   2   74.48    4.36   0
   0  10   2  107.58    4.20   0
   0 -10  -2  108.56    4.43   0
   0 -10  -2   98.44    4.63   0
   0 -10  -2  105.27    4.61   0
  -1 -10  -2    2.08    4.00   0
  -1 -10  -2    6.08    4.13   0
   1  10   2    6.67    3.77   0
  -1 -10  -2   10.42    4.04   0
  -2 -10  -2    6.05    2.81   0
   2  10   2   -0.48    3.76   0
  -2 -10  -2    6.80    4.07   0
  -2 -10  -2    4.01    3.90   0
  -3 -10  -2   12.38    3.87   0
  -3 -10  -2   12.12    3.76   0
   3  10   2   14.16    3.97   0
   3  10   2   13.95    3.76   0
  -4 -10  -2  113.38    3.53   0
  -4 -10  -2  131.36    4.49   0
   4  10   2  118.54    4.58   0
   4  10   2  117.73    4.48   0
   5  10   2  164.74    4.83   0
  -5 -10  -2  149.07    3.97   0
   5  10   2  154.91    4.93   0
  -5 -10  -2  164.49    4.81   0
  -6 -10  -2   43.75    4.52   0
   6  10   2   45.06    4.33   0
  -6 -10  -2   45.05    4.51   0
   6  10   2   44.41    4.54   0
   7  10   2   14.97    3.30   0
  -7 -10  -2   18.82    4.57   0
   7  10   2   14.68    4.62   0
  -7 -10  -2   18.27    4.35   0
   1 -11  -2    4.93    4.42   0
   1 -11  -2    8.10    4.50   0
  -1  11   2    4.99    3.06   0
   1 -11  -2    1.72    3.17   0
   0 -11  -2   37.04    4.46   0
   0 -11  -2   39.22    4.73   0
   0 -11  -2   30.25    4.83   0
   0  11   2   40.65    4.38   0
  -1 -11  -2    7.23    4.22   0
   1  11   2   15.16    4.07   0
  -1 -11  -2   17.48    4.41   0
  -1 -11  -2    9.73    4.29   0
  -2 -11  -2    3.65    3.98   0
   2  11   2    5.41    3.80   0
  -2 -11  -2    3.14    4.34   0
  -2 -11  -2    7.96    4.18   0
  -3 -11  -2    2.55    3.94   0
  -3 -11  -2    0.72    4.08   0
   3  11   2    3.58    2.64   0
   4  11   2   -0.22    4.38   0
   4  11   2    3.80    2.87   0
  -4 -11  -2   -1.72    4.14   0
  -4 -11  -2    0.57    4.15   0
  -5 -11  -2   41.04    4.49   0
   5  11   2   35.08    4.38   0
  -5 -11  -2   30.39    3.24   0
   5  11   2   36.18    4.48   0
   6  11   2    4.77    4.40   0
  -6 -11  -2    6.13    4.51   0
   6  11   2    7.83    4.28   0
  -6 -11  -2    4.79    3.32   0
  -1 -12  -2    1.71    4.61   0
   1  12   2    1.41    3.08   0
  -1 -12  -2    1.51    4.78   0
  -1 -12  -2    3.34    4.40   0
  -2 -12  -2   38.61    4.94   0
  -2 -12  -2   40.98    4.65   0
   2  12   2   43.12    4.45   0
  -2 -12  -2   36.37    3.54   0
  -3 -12  -2   15.60    4.33   0
  -3 -12  -2   12.27    4.75   0
   3  12   2   18.55    4.25   0
  -3 -12  -2   18.33    4.63   0
  -4 -12  -2   10.83    4.63   0
  -4 -12  -2    8.74    4.30   0
   4  12   2   10.94    4.77   0
   4  12   2    7.83    4.23   0
   5  10  -3  248.85    5.77   0
   5  10  -3  287.57    5.11   0
  -5 -10   3  300.26    5.95   0
  -5 -10   3  219.08    4.92   0
   4  10  -3   23.68    4.53   0
  -4 -10   3   15.63    3.33   0
  -4 -10   3    8.65    4.22   0
   4  10  -3   16.41    4.15   0
  -3 -10   3   24.87    3.20   0
  -3 -10   3   30.03    4.52   0
   3  10  -3   34.66    4.15   0
  -2 -10   3   42.28    4.41   0
  -2 -10   3   49.59    3.36   0
  -2 -10   3   59.54    4.68   0
   2  10  -3   55.02    4.12   0
   1  10  -3   13.95    4.14   0
  -1 -10   3   16.60    4.38   0
  -1 -10   3    7.36    4.42   0
  -1 -10   3    5.33    4.54   0
   0 -10   3    6.85    4.48   0
   0 -10   3    5.09    4.43   0
   0 -10   3    2.59    4.47   0
   0  10  -3    4.17    4.08   0
  -6  -9   3   22.05    4.25   0
  -6  -9   3   19.23    4.44   0
   6   9  -3   21.65    4.20   0
   6   9  -3   17.70    4.06   0
   5   9  -3   49.93    4.12   0
   5   9  -3   52.34    4.13   0
  -5  -9   3   47.16    4.13   0
  -5  -9   3   50.69    4.24   0
   4   9  -3    4.28    2.71   0
  -4  -9   3    1.10    3.89   0
  -4  -9   3    6.82    3.83   0
   4   9  -3    6.03    3.77   0
   3   9  -3  559.22    6.38   0
   3   9  -3  521.84    5.88   0
  -3  -9   3  536.90    6.29   0
  -3  -9   3  487.23    6.02   0
  -2  -9   3   47.62    4.41   0
  -2  -9   3   50.23    4.21   0
   2   9  -3   53.54    4.11   0
  -2  -9   3   43.04    4.13   0
  -1  -9   3   67.94    4.45   0
  -1  -9   3   74.94    4.47   0
   1   9  -3   68.57    4.13   0
  -1  -9   3   67.78    4.45   0
   0  -9   3    4.11    4.01   0
   0  -9   3    4.37    2.98   0
   0  -9   3    1.93    2.98   0
   0   9  -3    3.98    3.77   0
   1  -9   3    0.40    4.30   0
   1  -9   3    2.11    4.39   0
  -1   9  -3    3.60    4.14   0
   1  -9   3    0.38    4.33   0
   2  -9   3  123.38    5.36   0
   2  -9   3  111.61    5.37   0
   2  -9   3  123.88    5.25   0
  -2   9  -3  137.11    5.02   0
  -7  -8   3    7.72    4.14   0
  -7  -8   3    0.81    2.96   0
   7   8  -3    4.85    4.26   0
  -6  -8   3   33.21    4.02   0
   6   8  -3   30.22    4.00   0
   6   8  -3   36.68    4.06   0
  -6  -8   3   32.07    4.10   0
   5   8  -3   38.61    4.09   0
  -5  -8   3   31.23    2.86   0
  -5  -8   3   34.21    3.01   0
   5   8  -3   37.39    2.95   0
  -4  -8   3  141.13    4.45   0
   4   8  -3  146.44    4.36   0
  -4  -8   3  152.59    4.57   0
   4   8  -3  158.12    3.53   0
   3   8  -3  552.34    5.93   0
   3   8  -3  627.82    6.22   0
  -3  -8   3  581.36    6.21   0
  -3  -8   3  531.56    5.84   0
  -2  -8   3  406.69    5.37   0
   2   8  -3  427.01    5.49   0
  -2  -8   3  445.87    5.63   0
  -1  -8   3   89.71    3.32   0
  -1  -8   3  100.13    4.37   0
  -1  -8   3  102.13    3.40   0
   1   8  -3   94.36    4.20   0
   0  -8   3    7.05    3.78   0
   0  -8   3    8.11    3.78   0
   0  -8   3    5.02    3.93   0
   0   8  -3    3.34    2.58   0
   1  -8   3   76.41    3.54   0
   1  -8   3   79.43    4.48   0
  -1   8  -3   80.89    4.29   0
   1  -8   3   78.52    4.54   0
   2  -8   3   22.95    4.54   0
   2  -8   3   34.48    4.42   0
  -2   8  -3   27.85    4.11   0
   2  -8   3   22.26    3.19   0
   3  -8   3    4.34    3.28   0
  -3   8  -3    5.43    4.13   0
   3  -8   3   11.84    5.55   0
   3  -8   3    6.90    4.43   0
  -8  -7   3    6.57    4.42   0
   8   7  -3   13.10    4.29   0
  -8  -7   3    7.22    4.33   0
  -7  -7   3   30.05    4.22   0
   7   7  -3   38.24    4.18   0
  -7  -7   3   27.63    3.15   0
  -6  -7   3   37.72    4.07   0
  -6  -7   3   39.90    3.08   0
   6   7  -3   47.88    4.15   0
   5   7  -3    0.43    3.68   0
  -5  -7   3    1.97    3.48   0
  -5  -7   3    2.97    3.78   0
   5   7  -3    2.84    3.45   0
  -4  -7   3   76.91    3.03   0
   4   7  -3   83.45    4.00   0
   4   7  -3   84.33    4.03   0
  -4  -7   3   94.44    4.24   0
  -3  -7   3    2.99    3.47   0
   3   7  -3    1.20    3.39   0
  -3  -7   3    0.67    2.75   0
   3   7  -3    3.96    3.72   0
   2   7  -3    6.27    3.61   0
  -2  -7   3    4.61    2.61   0
  -2  -7   3    7.92    2.54   0
   2   7  -3    4.19    3.31   0
  -1  -7   3  354.47    5.23   0
  -1  -7   3  375.55    5.28   0
  -1  -7   3  390.19    5.51   0
   1   7  -3  391.25    5.14   0
   0  -7   3   25.56    2.82   0
   0  -7   3   26.52    2.93   0
   0   7  -3   27.97    2.74   0
   0  -7   3   28.89    4.03   0
   1  -7   3    5.82    3.63   0
   1  -7   3    7.07    3.73   0
  -1   7  -3    1.25    3.55   0
   1  -7   3    2.55    3.93   0
  -2   7  -3   86.86    4.13   0
   2  -7   3   85.54    4.46   0
   2  -7   3   81.03    3.30   0
   2  -7   3   90.26    4.30   0
   3  -7   3   -0.83    4.18   0
   3  -7   3    4.21    3.95   0
   3  -7   3    0.59    4.06   0
  -3   7  -3    4.90    3.69   0
  -4   7  -3   11.42    5.14   0
   4  -7   3   12.28    4.70   0
   4  -7   3   12.35    4.54   0
   8   6  -3    6.29    3.09   0
  -8  -6   3    4.94    4.17   0
  -8  -6   3   -0.89    4.20   0
  -7  -6   3    0.33    3.85   0
   7   6  -3    6.65    3.83   0
  -7  -6   3    0.42    3.85   0
   6   6  -3    1.36    3.66   0
  -6  -6   3    2.76    2.71   0
  -6  -6   3    3.87    3.69   0
   5   6  -3    3.52    3.48   0
   5   6  -3    7.10    3.78   0
  -5  -6   3    1.83    3.38   0
  -5  -6   3    7.35    3.79   0
  -4  -6   3  251.04    4.56   0
   4   6  -3  241.52    4.62   0
  -4  -6   3  264.91    4.83   0
   4   6  -3  272.42    4.75   0
  -3  -6   3  224.11    4.63   0
   3   6  -3  235.17    3.87   0
   3   6  -3  222.38    4.76   0
  -3  -6   3  233.12    4.95   0
   2   6  -3  220.36    3.92   0
  -2  -6   3  223.23    4.93   0
   2   6  -3  228.96    4.33   0
  -2  -6   3  208.93    4.60   0
  -1  -6   3  208.26    4.73   0
  -1  -6   3  228.43    4.90   0
  -1  -6   3  210.50    4.57   0
   1   6  -3  241.74    4.70   0
   0   6  -3   85.02    3.91   0
   0  -6   3   81.95    4.30   0
   0  -6   3   81.40    4.18   0
   0  -6   3   92.13    4.32   0
   1  -6   3 1397.83    7.91   0
   1  -6   3 1333.64    8.52   0
   1  -6   3 1397.16    8.24   0
  -1   6  -3 1438.00    8.28   0
   2  -6   3   15.86    3.86   0
   2  -6   3   12.72    3.94   0
  -2   6  -3   14.10    3.42   0
   2  -6   3   15.81    3.88   0
   3  -6   3    2.91    4.04   0
  -3   6  -3    4.09    3.67   0
   3  -6   3    1.18    3.92   0
  -4   6  -3    1.78    3.84   0
   4  -6   3    5.77    4.00   0
  -4   6  -3    6.18    4.18   0
   4  -6   3    1.39    4.18   0
  -5   6  -3   15.08    4.37   0
   5  -6   3   13.41    3.34   0
  -5   6  -3   12.98    3.34   0
   5  -6   3   19.30    6.04   0
  -8  -5   3    2.51    4.04   0
  -8  -5   3   -6.52    4.09   0
   8   5  -3    6.00    4.03   0
  -7  -5   3    3.39    3.80   0
   7   5  -3    4.45    3.83   0
  -7  -5   3   -1.34    2.59   0
   6   5  -3  100.03    4.13   0
  -6  -5   3  109.40    4.24   0
  -6  -5   3  105.18    4.06   0
  -5  -5   3   27.55    3.76   0
   5   5  -3   34.27    2.71   0
  -5  -5   3   32.65    3.50   0
   4   5  -3  254.74    4.71   0
  -4  -5   3  247.91    4.57   0
   4   5  -3  264.03    4.69   0
  -4  -5   3  252.33    4.75   0
  -3  -5   3  645.98    6.20   0
  -3  -5   3  627.81    6.07   0
   3   5  -3  650.89    6.23   0
   3   5  -3  651.03    6.23   0
  -2  -5   3   75.84    3.79   0
   2   5  -3   82.23    3.70   0
  -2  -5   3   78.25    4.14   0
   2   5  -3   81.97    4.07   0
  -1  -5   3  244.51    5.02   0
   1   5  -3  252.25    4.62   0
  -1  -5   3  239.31    4.55   0
   0  -5   3 1008.92    7.60   0
   0  -5   3 1022.00    7.06   0
   0   5  -3 1050.17    7.52   0
   0  -5   3 1016.41    7.49   0
   1  -5   3  107.64    4.39   0
   1  -5   3  102.99    4.32   0
   1  -5   3  104.00    4.52   0
  -1   5  -3  104.15    4.05   0
  -2   5  -3   16.12    3.62   0
   2  -5   3   19.22    3.85   0
   2  -5   3   20.08    4.94   0
   3  -5   3   83.36    5.14   0
  -3   5  -3   74.74    4.72   0
   3  -5   3   72.03    3.10   0
  -3   5  -3   80.58    4.18   0
  -4   5  -3  332.93    5.55   0
   4  -5   3  314.62    5.21   0
   4  -5   3  316.72    5.93   0
  -4   5  -3  283.53    4.44   0
  -5   5  -3   30.35    5.00   0
   5  -5   3   26.79    5.38   0
  -5   5  -3   20.37    4.21   0
   5  -5   3   23.89    4.16   0
  -6   5  -3    0.65    3.26   0
   6  -5   3    4.18    5.51   0
  -6   5  -3    3.33    5.58   0
   6  -5   3    3.64    4.61   0
  -8  -4   3   69.42    4.61   0
  -8  -4   3   67.71    4.36   0
   8   4  -3   83.31    4.58   0
  -7  -4   3  145.08    4.44   0
  -7  -4   3  144.73    4.55   0
   7   4  -3  157.31    4.42   0
  -6  -4   3   26.03    3.53   0
   6   4  -3   28.25    3.82   0
  -6  -4   3   24.43    3.72   0
  -5  -4   3    3.96    3.54   0
  -5  -4   3    3.58    2.44   0
   5   4  -3    3.14    3.42   0
   4   4  -3  115.32    3.94   0
  -4  -4   3  105.24    4.08   0
  -4  -4   3  106.61    3.87   0
   4   4  -3  103.06    4.03   0
  -3  -4   3  176.79    4.17   0
   3   4  -3  188.34    4.45   0
  -3  -4   3  176.50    4.46   0
   3   4  -3  190.98    4.27   0
   2   4  -3  702.74    6.40   0
   2   4  -3  695.07    6.53   0
  -2  -4   3  681.38    6.26   0
  -2  -4   3  678.87    6.56   0
  -1  -4   3  368.10    5.36   0
   1   4  -3  362.87    4.80   0
   1   4  -3  384.56    4.66   0
  -1  -4   3  347.07    4.85   0
   0  -4   3   40.94    3.94   0
   0  -4   3   39.65    3.74   0
   0   4  -3   39.74    3.70   0
   0  -4   3   40.80    4.10   0
   1  -4   3  487.54    5.98   0
   1  -4   3  446.79    5.77   0
   1  -4   3  464.81    6.21   0
  -1   4  -3  462.74    5.99   0
  -2   4  -3   77.29    4.03   0
   2  -4   3   73.08    4.34   0
   2  -4   3   72.79    4.32   0
  -2   4  -3   76.88    4.33   0
  -3   4  -3  624.54    7.27   0
   3  -4   3  625.45    7.76   0
  -3   4  -3  549.40    5.26   0
   3  -4   3  611.21    6.08   0
   4  -4   3  117.39    3.35   0
  -4   4  -3  119.42    4.30   0
   4  -4   3  135.75    5.85   0
  -4   4  -3  136.66    4.67   0
  -5   4  -3   78.25    4.53   0
   5  -4   3   80.28    4.93   0
  -5   4  -3   70.17    4.20   0
   5  -4   3   71.89    4.36   0
   6  -4   3    1.09    4.13   0
  -6   4  -3    3.60    4.31   0
  -6   4  -3    2.43    4.98   0
  -8  -3   3   33.81    4.34   0
   8   3  -3   58.48    4.26   0
  -8  -3   3   46.97    3.41   0
  -8  -3   3   52.11    4.22   0
  -7  -3   3   15.65    3.75   0
   7   3  -3   14.64    3.73   0
  -7  -3   3   16.93    3.67   0
   6   3  -3  203.72    4.40   0
  -6  -3   3  194.05    4.57   0
  -6  -3   3  193.69    4.43   0
  -5  -3   3  108.82    4.15   0
  -5  -3   3  112.91    4.24   0
   5   3  -3  113.20    4.20   0
  -4  -3   3  239.06    4.52   0
  -4  -3   3  209.68    3.76   0
   4   3  -3  230.94    4.52   0
  -3  -3   3 1981.40    9.76   0
   3   3  -3 1995.82    9.87   0
   3   3  -3 2037.03    9.96   0
  -3  -3   3 1982.98   10.00   0
   2   3  -3 1321.02    8.67   0
   2   3  -3 1261.85    8.16   0
  -2  -3   3 1308.52    8.52   0
  -2  -3   3 1308.17    8.81   0
   1   3  -3 1638.33    9.68   0
   1   3  -3 1595.68    9.42   0
  -1  -3   3 1632.67    9.62   0
  -1  -3   3 1618.15    9.98   0
   0  -3   3  424.65    6.32   0
   0  -3   3  385.06    5.88   0
   0   3  -3  402.97    5.25   0
   0  -3   3  383.61    5.96   0
  -1   3  -3 1408.36    9.72   0
  -1   3  -3 1354.94    8.95   0
   1  -3   3 1319.43    9.82   0
   1  -3   3 1367.12    9.03   0
  -2   3  -3 1586.48   10.29   0
   2  -3   3 1566.38    8.53   0
  -2   3  -3 1687.49    9.33   0
   2  -3   3 1595.32   10.78   0
   3  -3   3   79.54    4.43   0
   3  -3   3   87.78    4.25   0
  -3   3  -3   85.23    4.18   0
  -3   3  -3   80.16    4.20   0
   4  -3   3   -0.69    3.62   0
  -4   3  -3    0.31    3.63   0
   4  -3   3    2.16    3.77   0
  -4   3  -3    4.45    4.16   0
   5  -3   3    9.86    3.71   0
   5  -3   3    8.14    4.95   0
  -5   3  -3    9.85    3.83   0
  -5   3  -3   11.70    4.74   0
  -6   3  -3  152.06    5.28   0
  -6   3  -3  129.28    3.68   0
   6  -3   3  158.27    4.73   0
  -7   3  -3   13.02    5.60   0
  -7   3  -3   14.79    4.55   0
   7  -3   3    8.10    4.42   0
  -8  -2   3   -0.75    4.02   0
  -8  -2   3    5.10    4.02   0
   8   2  -3    6.61    4.02   0
  -8  -2   3    1.88    3.91   0
  -7  -2   3   87.35    4.17   0
   7   2  -3   86.01    4.13   0
  -7  -2   3   79.03    4.17   0
  -7  -2   3   78.82    4.09   0
  -6  -2   3  233.70    4.64   0
  -6  -2   3  241.13    4.93   0
   6   2  -3  250.43    4.76   0
  -5  -2   3    8.94    2.49   0
   5   2  -3   13.45    3.81   0
  -5  -2   3    9.56    2.65   0
  -4  -2   3  284.20    4.92   0
  -4  -2   3  296.34    4.73   0
   4   2  -3  294.33    4.79   0
  -3  -2   3  185.46    4.71   0
  -3  -2   3  191.50    4.57   0
   3   2  -3  190.39    4.62   0
   2   2  -3   75.12    4.18   0
  -2  -2   3   68.70    3.15   0
  -2  -2   3   69.71    4.12   0
   2   2  -3   72.98    4.16   0
   1   2  -3 2958.48   14.10   0
   1   2  -3 2963.23   13.40   0
  -1  -2   3 2908.13   13.97   0
  -1  -2   3 2898.58   13.54   0
   0   2  -3 2715.51   14.08   0
   0  -2   3 2651.84   14.08   0
   0  -2   3 2799.29   14.10   0
   0  -2   3 2589.62   13.59   0
   1  -2   3    9.01    3.91   0
  -1   2  -3   10.90    3.77   0
   1  -2   3    7.59    3.99   0
  -1   2  -3    8.24    3.89   0
  -2   2  -3  426.48    7.27   0
   2  -2   3  444.32    5.89   0
  -2   2  -3  382.17    5.07   0
   2  -2   3  427.37    7.56   0
   3  -2   3 1033.73    7.36   0
  -3   2  -3 1032.83   10.04   0
  -3   2  -3 1014.52    7.39   0
   3  -2   3  984.52    9.77   0
   4  -2   3  432.09    5.45   0
   4  -2   3  420.71    6.73   0
  -4   2  -3  449.93    5.54   0
  -4   2  -3  443.04    7.29   0
   5  -2   3   30.19    2.76   0
  -5   2  -3   26.75    3.84   0
  -5   2  -3   30.86    4.73   0
   6  -2   3  141.14    3.71   0
  -6   2  -3  121.84    3.59   0
  -6   2  -3  151.13    6.01   0
   7  -2   3   28.30    4.31   0
  -7   2  -3   21.36    4.29   0
  -7   2  -3   29.37    5.60   0
  -8  -1   3   31.02    4.39   0
  -8  -1   3   20.58    3.11   0
   8   1  -3   27.99    4.23   0
  -8  -1   3   23.29    4.05   0
   7   1  -3    4.49    3.74   0
  -7  -1   3   -2.55    3.78   0
  -7  -1   3    8.86    3.66   0
  -7  -1   3    5.70    3.58   0
   6   1  -3    2.72    3.70   0
  -6  -1   3    3.29    3.72   0
  -6  -1   3    1.60    2.38   0
  -6  -1   3    1.60    3.55   0
  -5  -1   3  375.21    4.73   0
  -5  -1   3  355.20    5.49   0
   5   1  -3  389.61    5.39   0
  -5  -1   3  366.75    5.34   0
   4   1  -3  491.14    5.19   0
  -4  -1   3  502.46    5.20   0
  -4  -1   3  509.87    5.93   0
   3   1  -3 1237.75    8.34   0
  -3  -1   3 1378.40    8.79   0
  -3  -1   3 1296.67    9.02   0
   2   1  -3   11.55    3.77   0
  -2  -1   3   10.51    3.78   0
  -2  -1   3    9.72    3.79   0
  -1  -1   3 3911.06   16.93   0
  -1  -1   3 3916.26   18.35   0
   1   1  -3 4032.17   18.56   0
   0  -1   3  934.65   10.28   0
   0  -1   3  828.00    9.09   0
   0   1  -3  984.18   10.55   0
   0  -1   3  947.42   10.37   0
  -1   1  -3 1565.47   10.98   0
   1  -1   3 1556.48   10.91   0
  -1   1  -3 1545.29   13.97   0
   1  -1   3 1441.05   13.94   0
  -2   1  -3   76.37    5.34   0
   2  -1   3   78.47    5.71   0
  -2   1  -3   82.07    4.15   0
   2  -1   3   81.35    4.24   0
  -3   1  -3   86.49    3.88   0
   3  -1   3   86.77    5.55   0
   3  -1   3   91.70    3.97   0
  -3   1  -3   88.30    5.91   0
   4  -1   3  102.26    4.23   0
  -4   1  -3   97.98    3.18   0
  -4   1  -3   95.73    5.41   0
   5  -1   3   32.26    3.72   0
  -5   1  -3   41.52    3.83   0
  -5   1  -3   32.82    4.81   0
  -6   1  -3    5.22    2.60   0
  -6   1  -3    6.01    4.59   0
   6  -1   3   11.28    3.84   0
  -7   1  -3  106.62    6.01   0
  -7   1  -3  100.38    4.59   0
   7  -1   3  113.51    4.58   0
  -7   1  -3   94.95    6.10   0
  -8   0   3   46.53    3.33   0
  -8   0   3   44.61    4.62   0
  -8   0   3   53.95    4.56   0
   8   0  -3   57.22    4.53   0
  -7   0   3   -0.72    3.75   0
  -7   0   3   -0.20    3.85   0
  -7   0   3   -1.73    3.62   0
   7   0  -3   -0.99    2.78   0
  -6   0   3   69.03    3.86   0
  -6   0   3   70.68    3.95   0
   6   0  -3   68.93    4.04   0
  -5   0   3  390.68    5.30   0
  -5   0   3  386.67    5.54   0
   5   0  -3  408.07    5.53   0
  -4   0   3  833.91    7.08   0
  -4   0   3  822.63    7.08   0
   4   0  -3  873.38    7.20   0
  -3   0   3  203.27    4.89   0
  -3   0   3  195.47    3.99   0
   3   0  -3  206.93    4.93   0
   2   0  -3 1445.72   11.02   0
  -2   0   3 1471.26   11.18   0
   1   0  -3  252.28    7.54   0
  -1   0   3  246.73    7.60   0
   0   0   3 1134.22   12.59   0
   0   0   3 1078.13   13.54   0
   0   0   3 1117.97   13.87   0
   1   0   3 2479.60   24.85   0
   1   0   3 2361.01   15.20   0
  -1   0  -3 2534.96   15.89   0
  -2   0  -3  545.43    6.76   0
   2   0   3  544.59    6.74   0
  -2   0  -3  542.19   15.09   0
   2   0   3  526.54   15.17   0
   3   0   3 1143.24    8.13   0
  -3   0  -3 1139.46    8.15   0
  -3   0  -3 1004.69   14.67   0
  -4   0  -3  180.97    4.38   0
   4   0   3  173.96    3.47   0
  -4   0  -3  172.61    7.09   0
   5   0   3  138.98    4.30   0
  -5   0  -3  139.54    4.18   0
  -5   0  -3  137.11    6.37   0
  -6   0  -3   13.67    5.15   0
  -6   0  -3   13.73    3.73   0
  -6   0  -3   11.28    4.53   0
   6   0   3   11.44    2.72   0
  -7   0  -3   23.58    3.87   0
  -7   0  -3   18.47    4.88   0
  -7   0  -3   15.26    5.73   0
   7   0   3   21.62    3.94   0
  -8   0  -3   -2.73    4.29   0
  -8   0  -3    3.08    5.57   0
  -8   0  -3    2.89    5.93   0
   8   0   3   12.76    4.00   0
  -8   1   3  106.14    4.91   0
  -8   1   3   95.83    5.12   0
   8  -1  -3   89.27    3.82   0
  -7   1   3   27.15    4.05   0
  -7   1   3   29.87    4.97   0
   7  -1  -3   29.01    4.09   0
  -6   1   3   -0.15    3.54   0
  -6   1   3   -0.57    3.66   0
   6  -1  -3    3.05    3.58   0
  -5   1   3 1005.24    7.33   0
  -5   1   3 1064.70    7.56   0
   5  -1  -3 1076.80    7.67   0
  -4   1   3  144.08    4.34   0
  -4   1   3  135.49    3.50   0
   4  -1  -3  154.08    4.43   0
  -3   1   3    2.86    3.62   0
  -3   1   3    0.61    3.52   0
   3  -1  -3    5.20    3.64   0
  -2   1   3  208.60    5.68   0
   2  -1  -3  210.47    5.73   0
  -2   1   3  218.26    5.28   0
   0  -1  -3   60.20    6.26   0
   0   1   3   57.33    9.55   0
   0   1   3   60.14    5.87   0
   0   1   3   54.12    9.90   0
  -1  -1  -3  920.42   11.87   0
  -1  -1  -3  924.11   16.29   0
   1   1   3  918.89   11.58   0
   1   1   3  945.88   17.19   0
   2   1   3   14.08    4.13   0
  -2  -1  -3   12.82    3.76   0
  -3  -1  -3  917.48   16.12   0
  -3  -1  -3  909.11    7.60   0
  -3  -1  -3  864.31   16.52   0
   3   1   3  920.13    7.53   0
   4   1   3   46.77    3.73   0
  -4  -1  -3   44.10    5.78   0
  -4  -1  -3   41.88    3.51   0
  -4  -1  -3   45.36    5.54   0
  -5  -1  -3  810.70    6.73   0
  -5  -1  -3  772.84   10.33   0
  -5  -1  -3  832.11   10.91   0
   5   1   3  823.78    6.49   0
  -6  -1  -3   94.20    4.08   0
  -6  -1  -3   87.93    5.41   0
   6   1   3  102.61    4.07   0
  -6  -1  -3   87.44    5.30   0
  -7  -1  -3   63.64    5.58   0
  -7  -1  -3   68.60    4.26   0
  -7  -1  -3   67.31    5.48   0
   7   1   3   66.12    4.17   0
  -8  -1  -3    5.59    5.15   0
   8   1   3    9.73    4.25   0
  -8  -1  -3    2.75    5.28   0
  -8  -1  -3    6.37    4.10   0
  -8   2   3   34.38    4.76   0
  -8   2   3   42.24    4.60   0
   8  -2  -3   42.86    4.54   0
  -7   2   3   20.55    4.05   0
  -7   2   3   24.89    4.15   0
   7  -2  -3   23.06    4.20   0
  -6   2   3  166.66    4.58   0
  -6   2   3  167.57    4.46   0
   6  -2  -3  180.80    4.50   0
   5  -2  -3    2.25    3.90   0
  -5   2   3    0.44    3.71   0
  -5   2   3    1.79    3.71   0
  -4   2   3   26.86    3.72   0
  -4   2   3   22.35    2.75   0
   4  -2  -3   28.49    3.73   0
   3  -2  -3  135.05    4.45   0
  -3   2   3  130.05    4.46   0
   3  -2  -3  135.77    4.25   0
  -3   2   3  140.46    4.35   0
   2  -2  -3    6.29    3.79   0
  -2   2   3    3.60    4.56   0
   2  -2  -3    6.23    3.49   0
  -2   2   3    9.02    2.87   0
   1  -2  -3 1707.45   16.13   0
  -1   2   3 1728.33   11.40   0
  -1   2   3 1676.66   16.28   0
   1  -2  -3 1738.88   11.44   0
   0  -2  -3 1233.02   11.50   0
   0  -2  -3 1220.40   28.54   0
   0  -2  -3 1161.80   27.57   0
   0   2   3 1217.63   11.47   0
  -1  -2  -3  267.77    8.51   0
  -1  -2  -3  275.59    8.63   0
   1   2   3  263.05    7.76   0
   1   2   3  267.00    7.96   0
   2   2   3  279.85    8.33   0
  -2  -2  -3  277.50    5.98   0
   2   2   3  287.72    6.27   0
  -2  -2  -3  258.64    8.27   0
  -3  -2  -3 3935.83   14.90   0
   3   2   3 3770.08   14.40   0
  -4  -2  -3   16.47    4.43   0
   4   2   3   14.52    3.48   0
  -4  -2  -3   11.13    2.54   0
  -5  -2  -3   97.03    5.39   0
  -5  -2  -3  106.82    4.00   0
  -5  -2  -3  100.82    5.90   0
   5   2   3  107.09    4.12   0
  -6  -2  -3    2.33    4.41   0
  -6  -2  -3    1.86    3.45   0
  -6  -2  -3    2.76    4.46   0
   6   2   3   -2.87    3.58   0
  -7  -2  -3  135.92    4.52   0
  -7  -2  -3  144.48    5.99   0
   7   2   3  132.24    3.39   0
  -7  -2  -3  143.49    6.13   0
  -8  -2  -3    1.62    5.10   0
   8   2   3    0.59    4.11   0
  -8  -2  -3    0.84    3.94   0
  -8  -2  -3    0.15    5.78   0
  -7   3   3   -1.45    4.26   0
  -7   3   3    5.36    4.32   0
   7  -3  -3    6.74    4.09   0
  -6   3   3    9.81    3.93   0
  -6   3   3   13.17    3.86   0
   6  -3  -3    8.82    3.89   0
  -5   3   3    3.85    3.76   0
  -5   3   3    5.85    3.79   0
   5  -3  -3    8.94    3.71   0
   4  -3  -3    3.90    3.51   0
  -4   3   3   -0.16    3.49   0
  -4   3   3    4.41    3.61   0
   4  -3  -3   -0.17    3.66   0
  -3   3   3 1508.82    8.86   0
   3  -3  -3 1465.27    9.46   0
  -3   3   3 1462.90    9.48   0
   3  -3  -3 1497.17    8.83   0
  -2   3   3   56.72    3.93   0
   2  -3  -3   50.62    4.01   0
   2  -3  -3   53.91    3.90   0
  -2   3   3   52.75    4.00   0
   1  -3  -3   58.39    5.38   0
  -1   3   3   62.47    4.33   0
  -1   3   3   61.87    5.51   0
   1  -3  -3   59.55    4.42   0
   0  -3  -3    0.18    4.12   0
   0  -3  -3    0.95    5.49   0
   0   3   3    0.17    4.00   0
   0  -3  -3   -0.72    5.44   0
  -1  -3  -3 4089.44   18.42   0
  -1  -3  -3 4111.86   22.68   0
   1   3   3 4073.11   22.41   0
   1   3   3 4023.45   18.42   0
  -2  -3  -3    7.62    4.93   0
   2   3   3    6.60    3.98   0
   2   3   3    4.98    4.07   0
  -2  -3  -3    7.66    3.85   0
  -3  -3  -3  316.62    5.48   0
   3   3   3  312.98    6.43   0
   3   3   3  311.40    5.50   0
  -3  -3  -3  311.76    6.85   0
  -4  -3  -3   72.11    2.97   0
  -4  -3  -3   81.50    4.95   0
   4   3   3   77.05    3.15   0
  -5  -3  -3   46.80    4.01   0
   5   3   3   43.39    3.90   0
  -5  -3  -3   44.17    4.55   0
  -6  -3  -3   -2.57    3.32   0
  -6  -3  -3   -0.69    4.26   0
  -6  -3  -3   -0.76    4.31   0
   6   3   3    1.19    3.53   0
  -7  -3  -3  261.24    4.88   0
  -7  -3  -3  280.41    6.88   0
   7   3   3  291.36    4.95   0
  -7  -3  -3  250.25    7.04   0
  -8  -3  -3   58.25    4.31   0
  -8  -3  -3   56.37    5.60   0
   8   3   3   67.79    4.37   0
  -8  -3  -3   51.17    5.75   0
  -7   4   3    0.24    4.29   0
  -7   4   3   -0.75    3.11   0
   7  -4  -3   -3.71    3.06   0
  -6   4   3    1.14    4.04   0
  -6   4   3    6.29    3.97   0
   6  -4  -3    4.00    3.98   0
   5  -4  -3   20.41    3.70   0
   5  -4  -3   18.82    3.84   0
  -5   4   3   23.08    3.70   0
  -5   4   3   20.87    3.88   0
   4  -4  -3   68.58    4.03   0
  -4   4   3   65.87    3.86   0
  -4   4   3   66.81    4.24   0
   4  -4  -3   68.60    4.17   0
  -3   4   3  132.69    4.30   0
  -3   4   3  123.88    4.29   0
   3  -4  -3  131.75    4.19   0
   3  -4  -3  129.10    4.24   0
   2  -4  -3 1065.12    9.06   0
  -2   4   3 1078.64    7.63   0
  -2   4   3 1070.66    8.84   0
   2  -4  -3 1100.52    7.80   0
  -1   4   3   38.13    4.04   0
   1  -4  -3   37.70    4.06   0
  -1   4   3   37.10    4.16   0
   1  -4  -3   38.21    4.02   0
   0  -4  -3  180.34    4.97   0
   0  -4  -3  181.62    5.76   0
   0   4   3  176.80    4.94   0
   0  -4  -3  180.51    6.64   0
   1   4   3 3083.86   17.10   0
  -1  -4  -3 3041.66   13.43   0
   1   4   3 3107.30   13.94   0
  -1  -4  -3 3139.83   16.98   0
  -2  -4  -3 1321.47    9.95   0
   2   4   3 1322.06   10.14   0
  -2  -4  -3 1306.01   10.10   0
   2   4   3 1330.09    9.94   0
   3   4   3    6.94    4.23   0
  -3  -4  -3    7.50    3.55   0
   3   4   3    9.06    3.63   0
  -3  -4  -3    5.19    3.73   0
  -4  -4  -3 1977.81   10.00   0
   4   4   3 1979.70   12.11   0
   4   4   3 1987.49    9.93   0
  -4  -4  -3 1945.82   11.80   0
   5   4   3  931.79    7.17   0
  -5  -4  -3  905.88    8.66   0
  -5  -4  -3  925.10    7.15   0
  -6  -4  -3  119.48    3.90   0
  -6  -4  -3  126.63    5.26   0
   6   4   3  136.68    4.17   0
  -7  -4  -3   26.90    3.77   0
  -7  -4  -3   24.52    4.82   0
   7   4   3   27.50    3.94   0
  -8  -4  -3   34.38    4.15   0
  -8  -4  -3   31.22    5.25   0
  -8  -4  -3   30.41    5.30   0
   8   4   3   41.74    4.16   0
   6  -5  -3    2.14    4.06   0
  -6   5   3    4.43    2.72   0
  -6   5   3    5.46    4.12   0
   5  -5  -3   29.07    4.06   0
  -5   5   3   33.55    3.99   0
  -5   5   3   27.31    4.05   0
   5  -5  -3   27.98    3.95   0
   4  -5  -3   12.04    3.71   0
  -4   5   3   22.01    3.84   0
  -4   5   3   18.50    3.73   0
   4  -5  -3   24.20    3.84   0
   3  -5  -3  401.51    5.51   0
  -3   5   3  426.26    5.68   0
  -3   5   3  416.31    5.63   0
   3  -5  -3  427.74    5.66   0
   2  -5  -3   63.60    3.73   0
   2  -5  -3   58.97    4.00   0
  -2   5   3   54.06    3.88   0
  -2   5   3   55.15    4.11   0
   1  -5  -3    2.93    3.54   0
   1  -5  -3    4.45    4.38   0
  -1   5   3    7.65    3.55   0
   1  -5  -3    6.33    3.80   0
   0  -5  -3   99.91    5.54   0
   0   5   3   92.62    4.23   0
   0  -5  -3   95.34    3.38   0
   0  -5  -3  100.10    4.78   0
  -1  -5  -3  222.50    4.05   0
  -1  -5  -3  224.83    5.42   0
   1   5   3  226.09    4.73   0
   1   5   3  227.05    5.47   0
   2   5   3 1396.34    9.25   0
  -2  -5  -3 1401.71    9.30   0
   2   5   3 1411.71    9.88   0
  -2  -5  -3 1419.57    9.82   0
   3   5   3  233.89    4.93   0
  -3  -5  -3  243.94    5.04   0
  -3  -5  -3  229.81    5.03   0
   3   5   3  234.71    4.94   0
   4   5   3  252.43    5.03   0
   4   5   3  245.84    4.93   0
  -4  -5  -3  251.80    5.00   0
  -4  -5  -3  237.92    4.89   0
   5   5   3    2.28    3.59   0
   5   5   3    0.41    3.79   0
  -5  -5  -3    2.50    3.83   0
  -5  -5  -3    3.00    3.63   0
  -6  -5  -3  407.90    6.66   0
   6   5   3  410.52    4.61   0
  -6  -5  -3  401.36    5.37   0
  -7  -5  -3   47.90    2.92   0
  -7  -5  -3   53.25    4.32   0
   7   5   3   56.66    3.94   0
  -8  -5  -3    1.50    3.91   0
  -8  -5  -3    1.06    4.06   0
  -8  -5  -3    1.19    4.99   0
   8   5   3    2.27    4.04   0
   6  -6  -3    3.97    4.36   0
  -6   6   3    3.50    4.34   0
  -6   6   3    2.17    4.50   0
  -5   6   3   32.87    4.01   0
  -5   6   3   27.21    4.35   0
   5  -6  -3   28.57    4.18   0
   5  -6  -3   24.62    4.08   0
   4  -6  -3  179.90    4.69   0
  -4   6   3  188.23    4.70   0
  -4   6   3  173.59    4.84   0
   4  -6  -3  181.77    4.80   0
   3  -6  -3   26.51    3.70   0
   3  -6  -3   29.47    3.87   0
  -3   6   3   30.34    3.94   0
  -3   6   3   27.42    3.88   0
   2  -6  -3   30.50    3.63   0
  -2   6   3   23.56    3.87   0
  -2   6   3   31.08    4.00   0
   2  -6  -3   27.55    4.00   0
   1  -6  -3  357.09    5.21   0
   1  -6  -3  354.62    5.81   0
  -1   6   3  376.41    5.11   0
   1  -6  -3  361.63    5.74   0
   0   6   3  148.72    4.31   0
   0  -6  -3  150.86    4.68   0
   0  -6  -3  156.70    4.81   0
   0  -6  -3  151.05    3.51   0
  -1  -6  -3   46.90    3.70   0
   1   6   3   52.60    4.90   0
  -1  -6  -3   52.76    4.81   0
   1   6   3   52.67    3.64   0
  -2  -6  -3  146.84    4.63   0
   2   6   3  147.71    4.15   0
  -2  -6  -3  150.48    4.48   0
   2   6   3  141.22    4.65   0
   3   6   3  536.56    6.24   0
   3   6   3  527.47    5.57   0
  -3  -6  -3  538.02    6.26   0
  -3  -6  -3  528.28    6.19   0
   4   6   3    5.50    3.76   0
  -4  -6  -3    0.18    3.67   0
  -4  -6  -3    4.14    3.63   0
   4   6   3    3.16    3.49   0
   5   6   3  161.80    4.51   0
  -5  -6  -3  152.88    4.58   0
   5   6   3  145.47    5.32   0
  -5  -6  -3  128.44    3.59   0
  -6  -6  -3  773.39    6.47   0
  -6  -6  -3  729.00    7.13   0
   6   6   3  789.76    6.56   0
   6   6   3  732.73    7.40   0
   7   6   3    2.24    3.93   0
  -7  -6  -3    2.54    2.68   0
  -7  -6  -3    4.27    3.88   0
  -8  -6  -3   50.89    4.33   0
  -8  -6  -3   60.90    4.86   0
   8   6   3   64.66    4.51   0
   5  -7  -3   47.82    4.62   0
  -5   7   3   65.08    4.63   0
  -5   7   3   53.08    4.91   0
   5  -7  -3   55.01    4.77   0
   4  -7  -3   35.29    4.22   0
  -4   7   3   38.28    4.28   0
  -4   7   3   38.23    4.28   0
   4  -7  -3   47.90    4.31   0
   3  -7  -3    3.64    3.70   0
  -3   7   3    4.35    3.91   0
   3  -7  -3    0.85    3.93   0
  -3   7   3    1.72    3.83   0
  -2   7   3  337.18    5.10   0
   2  -7  -3  317.65    5.49   0
   2  -7  -3  338.71    5.56   0
   2  -7  -3  330.84    4.41   0
   1  -7  -3  101.44    3.28   0
   1  -7  -3   95.33    4.10   0
   1  -7  -3  104.49    4.68   0
  -1   7   3  105.41    3.97   0
   0  -7  -3  975.06    7.99   0
   0  -7  -3  909.95    6.47   0
   0   7   3  921.19    6.94   0
   0  -7  -3  933.97    8.00   0
  -1  -7  -3   49.58    3.79   0
   1   7   3   45.32    3.68   0
  -1  -7  -3   49.96    4.10   0
   2   7   3   11.27    3.85   0
   2   7   3   15.90    3.45   0
  -2  -7  -3   13.39    3.54   0
  -2  -7  -3   15.70    4.56   0
  -3  -7  -3  120.36    4.16   0
   3   7   3  126.67    4.32   0
   3   7   3  126.55    4.35   0
  -3  -7  -3  115.46    4.34   0
  -4  -7  -3  954.16    7.52   0
  -4  -7  -3  966.72    7.33   0
   4   7   3  951.84    7.18   0
   4   7   3  970.33    7.38   0
  -5  -7  -3   13.75    3.68   0
  -5  -7  -3   18.29    3.68   0
   5   7   3   16.23    3.70   0
   5   7   3   19.00    3.78   0
   6   7   3    6.56    3.99   0
  -6  -7  -3    9.07    3.64   0
   6   7   3    6.70    3.63   0
  -6  -7  -3    9.74    3.71   0
  -7  -7  -3    0.67    4.94   0
  -7  -7  -3    0.93    3.84   0
   7   7   3    5.85    3.83   0
  -8  -7  -3  299.51    5.86   0
  -8  -7  -3  332.48    6.59   0
   8   7   3  302.62    4.94   0
   4  -8  -3    9.71    4.34   0
  -4   8   3   19.19    4.33   0
   4  -8  -3    9.51    4.26   0
   3  -8  -3    4.96    4.01   0
   3  -8  -3    1.75    4.19   0
  -3   8   3    2.81    3.91   0
   3  -8  -3    8.75    4.10   0
   2  -8  -3   66.12    4.21   0
   2  -8  -3   68.00    4.18   0
   2  -8  -3   63.57    4.48   0
  -2   8   3   68.80    4.06   0
   1  -8  -3  361.59    4.37   0
   1  -8  -3  372.41    5.72   0
   1  -8  -3  367.39    5.78   0
  -1   8   3  361.57    4.96   0
   0  -8  -3   14.39    3.63   0
   0  -8  -3   12.67    3.75   0
   0  -8  -3   13.10    3.88   0
   0   8   3   11.79    3.62   0
  -1  -8  -3   25.52    3.68   0
  -1  -8  -3   27.01    3.90   0
  -1  -8  -3   26.36    3.60   0
   1   8   3   26.50    3.72   0
   2   8   3   75.01    3.90   0
  -2  -8  -3   84.96    4.05   0
   2   8   3   81.65    4.13   0
  -2  -8  -3   68.15    3.13   0
  -3  -8  -3  443.21    4.95   0
   3   8   3  461.75    5.65   0
   3   8   3  460.14    4.97   0
  -3  -8  -3  444.39    5.62   0
  -4  -8  -3   12.75    3.77   0
  -4  -8  -3   14.27    3.98   0
   4   8   3   13.33    3.94   0
   4   8   3   14.77    3.72   0
  -5  -8  -3    4.87    3.44   0
   5   8   3    0.13    3.61   0
   5   8   3   -0.44    3.67   0
  -5  -8  -3    2.20    3.77   0
   6   8   3   13.25    3.71   0
   6   8   3   11.79    3.77   0
  -6  -8  -3   13.22    3.75   0
  -6  -8  -3   10.67    3.81   0
   7   8   3   48.50    5.23   0
  -7  -8  -3   47.32    4.29   0
   7   8   3   54.57    4.21   0
  -7  -8  -3   48.19    5.23   0
  -8  -8  -3  115.27    4.94   0
   8   8   3  115.58    4.07   0
  -8  -8  -3  123.48    5.33   0
   3  -9  -3    2.27    4.15   0
  -3   9   3   -0.48    4.06   0
   3  -9  -3    3.58    4.24   0
   3  -9  -3    1.42    4.19   0
   2  -9  -3   28.26    4.26   0
   2  -9  -3   30.21    4.37   0
  -2   9   3   28.57    4.08   0
   2  -9  -3   34.53    4.16   0
  -1   9   3   48.17    3.83   0
   1  -9  -3   47.06    4.23   0
   1  -9  -3   44.56    3.95   0
   1  -9  -3   44.72    4.16   0
   0  -9  -3   10.33    3.87   0
   0  -9  -3   10.53    4.06   0
   0  -9  -3    8.58    3.74   0
   0   9   3    9.18    3.65   0
   1   9   3   46.94    3.74   0
  -1  -9  -3   52.36    3.87   0
  -1  -9  -3   49.78    4.22   0
  -1  -9  -3   48.48    3.91   0
   2   9   3  143.18    4.52   0
   2   9   3  155.01    4.31   0
  -2  -9  -3  155.76    4.36   0
  -2  -9  -3  151.23    4.47   0
   3   9   3   60.81    3.89   0
  -3  -9  -3   54.54    4.05   0
   3   9   3   56.51    4.14   0
  -3  -9  -3   60.11    4.07   0
   4   9   3  176.33    4.56   0
   4   9   3  173.08    4.53   0
  -4  -9  -3  170.54    4.59   0
  -4  -9  -3  184.58    4.62   0
   5   9   3    4.80    3.64   0
  -5  -9  -3    3.20    3.68   0
   5   9   3    6.65    3.79   0
  -5  -9  -3    1.62    3.82   0
   6   9   3   21.90    4.14   0
   6   9   3   31.30    4.17   0
  -6  -9  -3   29.41    4.17   0
  -6  -9  -3   28.68    4.16   0
  -7  -9  -3    5.97    4.01   0
   7   9   3    9.93    4.05   0
  -7  -9  -3    1.83    4.04   0
   7   9   3    7.91    3.86   0
   2 -10  -3    6.78    4.36   0
   2 -10  -3    6.82    4.41   0
  -2  10   3    4.96    3.89   0
   2 -10  -3    7.01    4.38   0
   1 -10  -3    3.44    4.23   0
   1 -10  -3    1.24    4.19   0
  -1  10   3    5.70    3.95   0
   1 -10  -3    2.92    4.04   0
   0 -10  -3   41.05    4.09   0
   0 -10  -3   41.73    4.37   0
   0 -10  -3   40.14    4.28   0
   0  10   3   42.03    2.94   0
   1  10   3  303.32    4.98   0
  -1 -10  -3  284.35    5.56   0
  -1 -10  -3  299.94    5.45   0
  -1 -10  -3  276.44    5.12   0
   2  10   3   18.97    3.74   0
  -2 -10  -3   17.82    3.77   0
  -2 -10  -3   16.08    3.91   0
  -2 -10  -3   11.55    4.07   0
  -3 -10  -3    8.79    3.73   0
  -3 -10  -3    1.88    3.72   0
   3  10   3    0.09    3.62   0
   3  10   3    0.89    3.75   0
  -4 -10  -3   15.95    3.92   0
   4  10   3   16.26    3.87   0
   4  10   3   15.09    3.94   0
  -4 -10  -3   18.77    3.99   0
   5  10   3   27.49    4.15   0
  -5 -10  -3   18.39    4.09   0
   5  10   3   21.20    4.19   0
  -5 -10  -3   22.13    4.10   0
   6  10   3    0.29    4.18   0
  -6 -10  -3    2.77    3.02   0
  -6 -10  -3    2.71    4.23   0
   6  10   3    6.81    4.13   0
   7  10   3   13.81    4.36   0
  -7 -10  -3    9.44    4.37   0
   7  10   3    5.50    4.45   0
  -7 -10  -3   12.22    4.43   0
   1 -11  -3   -2.18    4.40   0
   1 -11  -3    2.75    4.52   0
  -1  11   3    3.30    4.14   0
   1 -11  -3    4.22    4.44   0
   0  11   3    4.78    4.01   0
   0 -11  -3    0.29    4.21   0
   0 -11  -3   -1.21    4.33   0
   0 -11  -3    1.74    4.08   0
  -1 -11  -3  199.16    4.80   0
  -1 -11  -3  199.13    5.78   0
  -1 -11  -3  207.73    5.34   0
   1  11   3  209.27    4.70   0
  -2 -11  -3  124.96    5.35   0
  -2 -11  -3  136.81    3.71   0
   2  11   3  135.14    4.55   0
  -2 -11  -3  144.10    5.02   0
  -3 -11  -3   -3.67    3.91   0
  -3 -11  -3   -2.79    4.02   0
   3  11   3   -0.65    3.92   0
  -4 -11  -3    7.23    3.98   0
   4  11   3   -1.74    4.20   0
   4  11   3    2.63    4.05   0
  -4 -11  -3   -0.77    4.19   0
   5  11   3   24.65    4.17   0
   5  11   3   29.22    4.52   0
  -5 -11  -3   28.38    4.52   0
  -5 -11  -3   18.12    4.38   0
  -6 -11  -3   39.84    4.70   0
   6  11   3   36.68    4.68   0
   6  11   3   35.00    4.67   0
  -6 -11  -3   42.68    4.60   0
  -1 -12  -3    4.55    4.38   0
   1  12   3    8.14    3.00   0
  -1 -12  -3   10.63    4.49   0
  -1 -12  -3    9.35    4.60   0
  -2 -12  -3    4.80    4.58   0
  -2 -12  -3    4.93    4.29   0
   2  12   3    6.43    2.98   0
  -2 -12  -3    8.55    4.36   0
  -3 -12  -3   48.63    5.04   0
  -3 -12  -3   39.02    4.36   0
  -3 -12  -3   50.99    4.71   0
   3  12   3   44.80    4.46   0
  -4 -12  -3    1.73    4.32   0
   4  12   3   -4.22    4.40   0
   4  12   3   -0.38    4.31   0
  -4 -12  -3    0.40    4.37   0
  -5 -10   4   36.51    4.80   0
   5  10  -4   36.48    4.60   0
   5  10  -4   43.59    4.77   0
  -5 -10   4   29.51    3.42   0
  -4 -10   4   -0.82    4.31   0
   4  10  -4    3.94    2.98   0
  -4 -10   4    3.75    4.08   0
   4  10  -4    3.93    4.00   0
  -3 -10   4   44.33    4.89   0
  -3 -10   4   50.42    4.89   0
  -3 -10   4   36.30    4.57   0
   3  10  -4   43.73    4.39   0
  -2 -10   4   18.06    4.75   0
   2  10  -4   12.51    3.00   0
  -2 -10   4   17.53    4.72   0
  -2 -10   4   11.60    3.18   0
   1  10  -4    3.93    4.13   0
  -1 -10   4    1.22    3.12   0
  -1 -10   4    2.38    4.53   0
  -1 -10   4    0.38    3.06   0
   0 -10   4    6.93    4.30   0
   0 -10   4    2.03    4.64   0
   0 -10   4   -1.18    4.71   0
   0  10  -4    0.19    4.29   0
  -6  -9   4    1.35    4.02   0
   6   9  -4    6.53    4.10   0
   6   9  -4    5.81    3.99   0
  -6  -9   4    4.62    4.17   0
  -5  -9   4   11.15    4.11   0
   5   9  -4   -1.21    4.21   0
   5   9  -4    3.40    2.78   0
  -5  -9   4    2.70    2.72   0
   4   9  -4   59.91    4.31   0
   4   9  -4   49.60    4.02   0
  -4  -9   4   53.71    4.41   0
  -4  -9   4   44.59    4.19   0
   3   9  -4    9.10    3.89   0
  -3  -9   4   16.09    4.10   0
  -3  -9   4    4.77    3.83   0
  -2  -9   4   14.08    3.96   0
   2   9  -4   17.05    3.90   0
  -2  -9   4   13.06    4.16   0
  -2  -9   4   12.37    4.15   0
   1   9  -4  151.11    4.64   0
  -1  -9   4  131.43    4.83   0
  -1  -9   4  138.19    5.00   0
  -1  -9   4  151.43    3.99   0
   0  -9   4   10.09    3.09   0
   0  -9   4   10.34    4.30   0
   0  -9   4    9.74    4.30   0
   0   9  -4   10.48    4.07   0
   1  -9   4   99.99    5.07   0
   1  -9   4  126.46    5.38   0
   1  -9   4  112.50    5.24   0
  -1   9  -4  118.32    4.86   0
   7   8  -4    1.94    4.22   0
  -7  -8   4    3.65    4.20   0
  -7  -8   4    5.92    4.16   0
   6   8  -4   11.84    3.92   0
  -6  -8   4    6.56    4.09   0
   6   8  -4   11.94    4.06   0
  -6  -8   4    0.74    2.95   0
   5   8  -4   24.61    3.82   0
   5   8  -4   18.20    4.08   0
  -5  -8   4   19.76    4.07   0
  -5  -8   4   23.97    3.85   0
  -4  -8   4    7.68    3.74   0
  -4  -8   4   14.55    4.00   0
   4   8  -4    7.27    3.67   0
   4   8  -4   12.91    3.91   0
   3   8  -4  570.32    6.09   0
   3   8  -4  510.44    5.35   0
  -3  -8   4  524.82    6.08   0
  -3  -8   4  475.48    5.22   0
  -2  -8   4   10.70    2.84   0
  -2  -8   4   13.55    3.75   0
  -2  -8   4   12.42    4.12   0
   2   8  -4   12.45    3.63   0
  -1  -8   4  415.44    5.73   0
  -1  -8   4  374.90    5.48   0
  -1  -8   4  359.55    5.57   0
   1   8  -4  381.17    4.71   0
   0   8  -4   90.94    4.17   0
   0  -8   4   86.16    4.49   0
   0  -8   4   91.70    4.44   0
   0  -8   4   90.99    4.57   0
   1  -8   4    5.03    3.90   0
   1  -8   4    5.23    2.93   0
  -1   8  -4    1.25    3.81   0
   1  -8   4    2.56    2.86   0
   2  -8   4    6.28    5.27   0
   2  -8   4    1.94    4.28   0
   2  -8   4    4.42    3.15   0
  -2   8  -4    3.74    4.01   0
   3  -8   4  159.49    5.78   0
   3  -8   4  137.56    4.61   0
   3  -8   4  128.39    5.69   0
  -3   8  -4  186.94    5.39   0
  -7  -7   4  213.92    5.20   0
   7   7  -4  206.39    4.28   0
  -7  -7   4  212.82    5.29   0
  -6  -7   4    3.33    3.82   0
   6   7  -4    5.16    3.85   0
  -6  -7   4    8.34    3.84   0
  -5  -7   4   64.80    3.02   0
   5   7  -4   59.14    2.99   0
  -5  -7   4   64.82    4.22   0
   5   7  -4   77.13    4.02   0
  -4  -7   4    8.63    3.58   0
   4   7  -4    7.20    3.49   0
  -4  -7   4   13.48    3.81   0
   4   7  -4   11.56    3.69   0
   3   7  -4   14.66    3.81   0
  -3  -7   4   12.26    3.70   0
   3   7  -4   15.71    3.63   0
  -3  -7   4   26.35    3.87   0
   2   7  -4   32.70    2.93   0
   2   7  -4   28.69    3.49   0
  -2  -7   4   25.06    3.64   0
  -2  -7   4   33.03    4.10   0
   1   7  -4  753.70    5.90   0
  -1  -7   4  741.86    6.65   0
  -1  -7   4  712.72    6.49   0
  -1  -7   4  762.68    6.95   0
   0  -7   4   22.99    2.90   0
   0  -7   4   23.23    2.64   0
   0  -7   4   20.54    4.01   0
   0   7  -4   26.11    3.60   0
   1  -7   4    9.75    3.96   0
   1  -7   4    9.20    3.90   0
  -1   7  -4    8.95    3.66   0
   1  -7   4   14.57    3.88   0
   2  -7   4    6.88    4.07   0
   2  -7   4    0.76    4.05   0
   2  -7   4    7.49    4.09   0
  -2   7  -4    5.00    3.83   0
   3  -7   4   48.62    4.59   0
   3  -7   4   50.29    4.48   0
  -3   7  -4   48.55    4.43   0
   3  -7   4   47.15    3.35   0
   4  -7   4   19.38    3.52   0
  -4   7  -4   35.08    4.67   0
   4  -7   4   27.35    4.62   0
   4  -7   4   35.56    5.13   0
   8   6  -4    3.70    4.28   0
  -8  -6   4    9.88    4.21   0
  -8  -6   4   11.13    4.34   0
  -7  -6   4  113.99    4.54   0
   7   6  -4  134.52    4.53   0
  -7  -6   4  114.73    4.55   0
  -6  -6   4   13.89    3.76   0
   6   6  -4   13.34    3.78   0
  -6  -6   4   19.75    3.81   0
  -5  -6   4  189.15    4.61   0
  -5  -6   4  171.82    3.47   0
   5   6  -4  193.12    4.41   0
   5   6  -4  180.59    4.37   0
  -4  -6   4   15.54    3.58   0
   4   6  -4   16.12    3.77   0
   4   6  -4   17.90    3.52   0
  -4  -6   4   13.24    2.79   0
  -3  -6   4  739.84    6.60   0
  -3  -6   4  690.62    5.63   0
   3   6  -4  721.91    6.45   0
   3   6  -4  750.32    5.75   0
  -2  -6   4  147.83    4.20   0
   2   6  -4  148.66    3.35   0
   2   6  -4  166.71    4.52   0
  -2  -6   4  134.26    3.60   0
   1   6  -4  401.13    5.39   0
  -1  -6   4  364.02    5.46   0
  -1  -6   4  349.63    4.63   0
  -1  -6   4  396.67    5.72   0
   0  -6   4  229.05    5.06   0
   0  -6   4  239.48    4.89   0
   0  -6   4  252.86    5.06   0
   0   6  -4  243.23    4.79   0
   1  -6   4  111.60    3.44   0
   1  -6   4  110.55    4.47   0
   1  -6   4  125.86    4.55   0
  -1   6  -4  130.54    4.11   0
   2  -6   4    8.59    3.82   0
  -2   6  -4    0.47    3.80   0
   2  -6   4    6.70    3.77   0
   2  -6   4    8.41    3.97   0
   3  -6   4    3.65    4.02   0
   3  -6   4    2.25    4.23   0
  -3   6  -4    2.86    3.83   0
   4  -6   4    3.90    3.09   0
  -4   6  -4    6.09    3.99   0
   4  -6   4    5.15    4.59   0
  -4   6  -4    2.84    4.15   0
   5  -6   4   29.74    4.77   0
  -5   6  -4   36.98    4.77   0
  -5   6  -4   28.29    4.72   0
   5  -6   4   30.59    5.10   0
  -8  -5   4   35.34    4.42   0
   8   5  -4   29.99    3.24   0
  -8  -5   4   27.63    4.19   0
   7   5  -4   58.79    3.19   0
  -7  -5   4   50.90    3.16   0
  -7  -5   4   63.44    4.20   0
   6   5  -4    7.44    3.75   0
  -6  -5   4    6.08    3.58   0
  -6  -5   4    8.81    3.78   0
   5   5  -4  756.06    5.72   0
  -5  -5   4  741.95    6.33   0
  -5  -5   4  778.18    6.40   0
  -4  -5   4  356.05    5.02   0
   4   5  -4  389.27    5.05   0
  -4  -5   4  350.98    4.93   0
   4   5  -4  350.53    5.15   0
  -3  -5   4    5.61    2.57   0
   3   5  -4    7.33    2.55   0
  -3  -5   4    5.48    2.56   0
   3   5  -4    9.98    3.60   0
   2   5  -4  471.94    5.30   0
  -2  -5   4  460.30    5.91   0
   2   5  -4  484.60    5.83   0
  -2  -5   4  441.01    5.37   0
   1   5  -4  109.22    3.97   0
  -1  -5   4  100.48    3.49   0
  -1  -5   4  103.98    3.18   0
   0  -5   4  402.59    5.59   0
   0  -5   4  396.41    4.92   0
   0   5  -4  418.56    5.34   0
   0  -5   4  391.15    5.47   0
  -1   5  -4  347.76    5.10   0
   1  -5   4  349.41    4.67   0
   1  -5   4  312.80    4.42   0
   1  -5   4  333.06    5.39   0
   2  -5   4   13.01    4.14   0
   2  -5   4   17.02    3.82   0
  -2   5  -4   16.96    3.63   0
   2  -5   4   11.62    2.85   0
   3  -5   4    3.14    3.95   0
  -3   5  -4    4.34    3.69   0
   3  -5   4    1.50    3.82   0
  -3   5  -4    6.40    3.82   0
   4  -5   4   35.18    4.23   0
   4  -5   4   44.30    5.46   0
  -4   5  -4   39.32    4.08   0
  -4   5  -4   34.21    4.14   0
  -5   5  -4   28.89    4.40   0
  -5   5  -4   37.14    5.31   0
   5  -5   4   33.95    4.66   0
   5  -5   4   30.73    3.18   0
  -8  -4   4    7.08    3.88   0
  -8  -4   4   10.77    4.12   0
   8   4  -4    3.03    4.10   0
  -7  -4   4   25.60    3.79   0
   7   4  -4   25.08    3.78   0
  -7  -4   4   20.14    3.97   0
  -6  -4   4   16.28    3.69   0
   6   4  -4   14.97    2.62   0
  -6  -4   4   16.30    3.76   0
   5   4  -4  198.52    4.41   0
  -5  -4   4  189.06    4.55   0
  -5  -4   4  173.43    3.59   0
   4   4  -4   55.67    3.87   0
  -4  -4   4   57.26    3.94   0
  -4  -4   4   55.19    3.59   0
   3   4  -4  160.72    3.47   0
  -3  -4   4  154.04    3.39   0
   3   4  -4  152.05    4.38   0
  -3  -4   4  157.22    4.30   0
  -2  -4   4   27.31    2.69   0
  -2  -4   4   23.49    3.32   0
   2   4  -4   24.60    2.43   0
   2   4  -4   28.58    3.53   0
   1   4  -4  517.40    5.90   0
   1   4  -4  524.30    5.90   0
  -1  -4   4  498.85    5.92   0
  -1  -4   4  498.64    5.86   0
   0  -4   4  214.34    4.85   0
   0  -4   4  212.57    4.61   0
   0  -4   4  201.28    4.73   0
   0   4  -4  216.77    4.62   0
   1  -4   4  210.79    4.81   0
   1  -4   4  220.64    5.19   0
  -1   4  -4  220.07    4.77   0
   1  -4   4  207.76    4.98   0
   2  -4   4    1.93    4.04   0
   2  -4   4    0.14    3.77   0
  -2   4  -4    2.27    3.62   0
  -2   4  -4    3.30    3.73   0
   3  -4   4  378.12    6.70   0
   3  -4   4  372.38    5.32   0
  -3   4  -4  385.88    6.43   0
  -3   4  -4  372.68    5.29   0
   4  -4   4    4.76    4.95   0
  -4   4  -4    7.31    4.55   0
   4  -4   4    5.48    2.62   0
  -4   4  -4    7.57    2.73   0
   5  -4   4   14.20    4.02   0
  -5   4  -4   11.34    4.93   0
  -5   4  -4   10.19    2.84   0
   5  -4   4   14.85    4.16   0
   6  -4   4    3.38    2.90   0
  -6   4  -4    1.57    5.21   0
  -6   4  -4    2.62    3.08   0
  -8  -3   4   13.43    4.28   0
  -8  -3   4   18.55    4.24   0
  -8  -3   4   16.61    4.18   0
   8   3  -4   22.05    4.24   0
  -7  -3   4  205.38    4.81   0
  -7  -3   4  181.05    3.85   0
   7   3  -4  228.93    4.80   0
  -6  -3   4   41.44    3.66   0
   6   3  -4   44.37    3.83   0
  -6  -3   4   35.81    3.76   0
  -5  -3   4  190.75    4.32   0
   5   3  -4  196.99    4.81   0
  -5  -3   4  189.79    4.65   0
  -4  -3   4  339.52    4.49   0
  -4  -3   4  373.31    4.38   0
   4   3  -4  375.73    5.15   0
  -3  -3   4  534.60    5.65   0
  -3  -3   4  491.02    5.26   0
   3   3  -4  538.11    5.92   0
   2   3  -4  349.44    4.64   0
  -2  -3   4  365.57    5.27   0
  -2  -3   4  363.61    5.47   0
   2   3  -4  371.83    5.29   0
   1   3  -4 2035.53   10.57   0
  -1  -3   4 1944.04   10.21   0
   1   3  -4 2068.10   10.53   0
  -1  -3   4 1971.98   10.43   0
   0  -3   4 1299.36    9.16   0
   0  -3   4 1253.85    8.35   0
   0  -3   4 1233.59    8.14   0
   0   3  -4 1317.86    8.60   0
   1  -3   4   11.00    3.59   0
  -1   3  -4    6.67    3.39   0
   1  -3   4    5.56    4.44   0
   2  -3   4  183.98    4.68   0
   2  -3   4  170.00    4.94   0
  -2   3  -4  187.15    4.76   0
  -2   3  -4  173.88    3.76   0
   3  -3   4  190.35    6.10   0
  -3   3  -4  172.47    4.79   0
   3  -3   4  190.71    4.48   0
  -3   3  -4  163.76    3.61   0
   4  -3   4   28.32    2.76   0
  -4   3  -4   31.53    4.46   0
  -4   3  -4   27.38    3.93   0
   4  -3   4   28.21    4.86   0
  -5   3  -4  129.33    5.50   0
   5  -3   4  123.75    4.34   0
  -5   3  -4  115.65    4.39   0
   5  -3   4  123.46    5.85   0
  -6   3  -4    2.27    4.88   0
   6  -3   4    0.87    2.94   0
  -6   3  -4    2.39    4.09   0
  -8  -2   4    0.49    4.10   0
   8   2  -4    2.66    2.94   0
  -8  -2   4    2.80    4.21   0
  -8  -2   4    3.49    4.00   0
  -7  -2   4    5.50    2.74   0
  -7  -2   4    4.00    3.67   0
  -7  -2   4    5.98    3.67   0
   7   2  -4    5.34    2.61   0
  -6  -2   4   45.77    3.87   0
   6   2  -4   50.14    2.97   0
  -6  -2   4   55.63    3.89   0
  -5  -2   4  522.75    5.14   0
   5   2  -4  545.36    5.88   0
  -5  -2   4  505.73    5.89   0
  -4  -2   4   36.69    3.40   0
   4   2  -4   31.76    3.53   0
  -4  -2   4   33.27    3.59   0
   3   2  -4   14.24    3.59   0
  -3  -2   4   22.41    2.53   0
  -3  -2   4   11.99    3.66   0
  -2  -2   4  648.86    6.95   0
  -2  -2   4  663.80    6.59   0
   2   2  -4  679.30    7.07   0
  -1  -2   4  997.18    8.45   0
   1   2  -4 1037.12    8.53   0
   1   2  -4 1054.46    8.18   0
  -1  -2   4  984.19    7.99   0
   0  -2   4  480.59    6.61   0
   0  -2   4  468.62    6.36   0
   0  -2   4  491.25    6.49   0
   0   2  -4  488.87    6.53   0
   1  -2   4    1.39    3.65   0
  -1   2  -4    5.11    3.63   0
   1  -2   4    2.02    4.45   0
  -1   2  -4    3.53    4.21   0
   2  -2   4  646.98    5.93   0
   2  -2   4  710.36    8.99   0
  -2   2  -4  727.90    8.67   0
  -2   2  -4  656.71    5.98   0
   3  -2   4  131.27    5.77   0
  -3   2  -4  132.64    5.41   0
   3  -2   4  133.36    4.45   0
  -3   2  -4  135.15    4.30   0
   4  -2   4  240.24    4.57   0
  -4   2  -4  224.37    4.69   0
   4  -2   4  244.59    6.66   0
  -4   2  -4  243.28    6.40   0
   5  -2   4  380.58    5.23   0
  -5   2  -4  380.21    5.40   0
  -5   2  -4  377.22    7.22   0
   6  -2   4   10.59    3.94   0
  -6   2  -4   14.66    2.80   0
  -6   2  -4   13.15    5.49   0
   7  -2   4    7.69    4.42   0
  -7   2  -4   17.39    4.34   0
  -7   2  -4   14.86    5.59   0
  -8  -1   4    2.27    3.85   0
  -8  -1   4   -0.39    3.94   0
  -8  -1   4   -1.85    2.85   0
   8   1  -4    7.23    4.07   0
  -7  -1   4  251.87    4.96   0
  -7  -1   4  241.30    5.13   0
  -7  -1   4  240.80    5.05   0
   7   1  -4  269.26    5.00   0
  -6  -1   4    6.39    3.54   0
  -6  -1   4    5.43    3.58   0
   6   1  -4   -1.58    3.69   0
  -6  -1   4    7.34    3.45   0
  -5  -1   4  318.89    5.10   0
  -5  -1   4  337.27    5.17   0
   5   1  -4  310.53    4.32   0
  -4  -1   4  613.79    5.92   0
   4   1  -4  615.52    6.28   0
  -4  -1   4  602.22    6.28   0
   3   1  -4   97.11    4.32   0
  -3  -1   4  100.74    4.06   0
  -3  -1   4   87.04    4.24   0
  -2  -1   4  109.18    4.26   0
   2   1  -4  107.57    4.42   0
  -2  -1   4   93.63    4.38   0
  -1  -1   4 1067.69    8.58   0
   1   1  -4 1037.58    9.41   0
  -1  -1   4 1021.41    9.38   0
   0  -1   4  667.28    8.05   0
   0   1  -4  694.43    8.23   0
   0  -1   4  655.68    7.96   0
   0  -1   4  647.10    8.13   0
   1  -1   4 1982.70   15.01   0
  -1   1  -4 2087.52   15.09   0
  -1   1  -4 2044.31   11.75   0
   1  -1   4 1982.19   11.48   0
   2  -1   4   22.14    3.67   0
   2  -1   4   19.23    4.79   0
  -2   1  -4   20.49    3.69   0
  -2   1  -4   21.78    4.83   0
   3  -1   4 1800.76    9.25   0
  -3   1  -4 1767.01   15.64   0
  -3   1  -4 1810.51    9.42   0
   3  -1   4 1714.33   15.71   0
   4  -1   4   25.52    3.76   0
  -4   1  -4   30.63    3.69   0
  -4   1  -4   29.60    5.31   0
   5  -1   4   40.59    3.73   0
  -5   1  -4   40.85    3.75   0
  -5   1  -4   41.99    5.56   0
   6  -1   4    2.64    3.80   0
  -6   1  -4    0.55    3.65   0
  -6   1  -4    1.13    5.41   0
   7  -1   4  151.77    3.90   0
  -7   1  -4  149.10    5.09   0
  -7   1  -4  183.15    8.72   0
  -7   1  -4  162.23    8.21   0
  -8   0   4  159.58    5.25   0
  -8   0   4  173.70    5.32   0
   8   0  -4  184.51    5.34   0
  -8   0   4  154.85    5.40   0
  -7   0   4   80.92    4.27   0
  -7   0   4   69.38    4.24   0
  -7   0   4   73.76    4.24   0
   7   0  -4   76.01    4.32   0
  -6   0   4   25.29    3.85   0
  -6   0   4   21.52    3.77   0
   6   0  -4   22.11    3.64   0
  -5   0   4    4.33    3.71   0
   5   0  -4    4.42    3.54   0
  -5   0   4    1.69    3.74   0
  -4   0   4   14.37    3.75   0
   4   0  -4   13.33    3.73   0
  -4   0   4   13.83    3.46   0
   3   0  -4 1301.34    9.14   0
  -3   0   4 1240.41    9.03   0
   2   0  -4  505.08    7.66   0
  -2   0   4  485.97    7.62   0
   1   0  -4 1050.12   11.14   0
  -1   0   4 1096.64   11.26   0
   0   0   4  833.45   10.01   0
   0   0   4  816.58   10.93   0
   0   0   4  815.35   10.59   0
   1   0   4  638.40    7.98   0
  -1   0  -4  643.59    8.03   0
   1   0   4  618.71   10.76   0
   2   0   4  175.44   10.60   0
   2   0   4  192.85    4.74   0
  -2   0  -4  188.26    4.73   0
   3   0   4  275.15    4.97   0
  -3   0  -4  274.60    4.95   0
  -3   0  -4  277.68   12.74   0
   4   0   4    5.93    3.44   0
  -4   0  -4    4.22    3.38   0
  -4   0  -4    3.14    6.10   0
  -5   0  -4    0.36    5.73   0
  -5   0  -4    2.88    3.46   0
   5   0   4    1.14    2.52   0
  -5   0  -4    1.27    5.36   0
  -6   0  -4    1.87    5.29   0
   6   0   4    1.42    2.56   0
  -6   0  -4    3.94    5.40   0
  -6   0  -4    2.10    2.45   0
  -7   0  -4   56.53    4.32   0
  -7   0  -4   56.47    7.03   0
  -7   0  -4   59.46    6.59   0
   7   0   4   62.34    4.11   0
  -8   0  -4   -1.76    4.45   0
  -8   0  -4    0.32    7.65   0
   8   0   4    1.56    2.97   0
  -8   0  -4    2.30    7.57   0
  -8   1   4  215.48    5.66   0
   8  -1  -4  214.88    5.57   0
  -8   1   4  189.42    5.91   0
  -7   1   4    2.30    3.79   0
   7  -1  -4   -4.85    3.87   0
  -7   1   4    0.08    4.02   0
  -6   1   4   50.18    3.88   0
  -6   1   4   51.23    3.98   0
   6  -1  -4   52.09    3.85   0
  -5   1   4  865.51    7.14   0
  -5   1   4  842.20    6.86   0
   5  -1  -4  868.23    7.11   0
  -4   1   4  466.64    5.85   0
  -4   1   4  478.11    5.41   0
   4  -1  -4  485.04    6.00   0
  -3   1   4  704.02    7.24   0
  -3   1   4  723.68    6.10   0
   3  -1  -4  722.84    7.39   0
  -2   1   4 3853.14   18.25   0
  -2   1   4 3969.25   14.63   0
   2  -1  -4 3961.98   18.36   0
  -1   1   4 1048.50   13.41   0
  -1   1   4 1065.85    8.95   0
   1  -1  -4 1068.27   13.50   0
   0   1   4 1116.96   11.00   0
   0   1   4 1082.34   16.50   0
   0   1   4 1039.28   15.94   0
  -1  -1  -4 7625.19   29.10   0
   2   1   4  270.25    5.41   0
  -2  -1  -4  268.63    5.52   0
   3   1   4   90.95    4.12   0
  -3  -1  -4   91.01    4.04   0
   4   1   4   28.19    3.62   0
  -4  -1  -4   34.48    3.44   0
  -5  -1  -4  668.00   12.96   0
   5   1   4  659.75    6.36   0
  -5  -1  -4  593.05    5.43   0
  -5  -1  -4  577.77   12.41   0
  -6  -1  -4   12.60    5.25   0
  -6  -1  -4   17.66    3.67   0
  -6  -1  -4   13.02    5.97   0
   6   1   4   12.69    2.61   0
  -7  -1  -4    2.30    3.67   0
  -7  -1  -4    4.13    5.61   0
  -7  -1  -4    3.31    6.10   0
   7   1   4    2.55    3.86   0
  -8  -1  -4   14.02    7.98   0
  -8  -1  -4   12.24    4.31   0
  -8  -1  -4   12.80    7.76   0
   8   1   4   10.68    4.35   0
  -7   2   4   -0.01    4.03   0
  -7   2   4    8.99    4.06   0
   7  -2  -4    6.11    3.91   0
   6  -2  -4  808.49    7.14   0
  -6   2   4  805.23    6.90   0
  -6   2   4  762.67    7.23   0
  -5   2   4  157.02    4.21   0
   5  -2  -4  155.01    4.59   0
  -5   2   4  153.90    4.37   0
  -4   2   4  272.23    4.95   0
  -4   2   4  292.79    4.83   0
   4  -2  -4  274.47    5.11   0
  -3   2   4   97.18    4.12   0
  -3   2   4  101.47    4.10   0
   3  -2  -4  103.02    4.32   0
   2  -2  -4  202.82    6.17   0
  -2   2   4  198.10    5.42   0
   2  -2  -4  199.26    4.06   0
  -2   2   4  207.67    4.92   0
  -1   2   4 2298.01   20.39   0
   1  -2  -4 2381.55   12.47   0
  -1   2   4 2387.49   12.36   0
   1  -2  -4 2344.60   20.62   0
   0  -2  -4  143.40    5.29   0
   0   2   4  146.95    5.25   0
   1   2   4  282.22    7.11   0
  -1  -2  -4  270.48    8.08   0
  -1  -2  -4  292.18    7.81   0
   1   2   4  276.08    8.04   0
   2   2   4 1087.15    9.77   0
   2   2   4 1068.76   15.56   0
  -2  -2  -4 1069.54    9.77   0
  -2  -2  -4 1030.98   15.32   0
  -3  -2  -4  245.92    5.01   0
  -3  -2  -4  223.23   10.56   0
   3   2   4  229.49    5.05   0
  -4  -2  -4   66.78    3.73   0
  -4  -2  -4   62.23    7.29   0
   4   2   4   65.63    3.95   0
  -4  -2  -4   60.67    6.96   0
  -5  -2  -4   54.52    3.81   0
  -5  -2  -4   49.04    5.71   0
  -5  -2  -4   45.29    6.46   0
   5   2   4   47.58    3.04   0
  -6  -2  -4  183.56    7.57   0
  -6  -2  -4  173.27    3.66   0
  -6  -2  -4  206.83    8.00   0
   6   2   4  200.82    4.56   0
  -7  -2  -4    1.65    5.57   0
  -7  -2  -4    3.91    2.63   0
  -7  -2  -4    1.99    5.43   0
   7   2   4    2.28    3.78   0
  -8  -2  -4    8.43    3.13   0
  -8  -2  -4    7.99    6.76   0
  -8  -2  -4    7.42    6.76   0
   8   2   4    5.01    4.19   0
  -7   3   4   36.61    4.37   0
  -7   3   4   45.46    4.42   0
   7  -3  -4   42.46    4.21   0
  -6   3   4  229.45    5.02   0
   6  -3  -4  203.34    4.12   0
  -6   3   4  207.58    5.02   0
  -5   3   4    5.00    3.67   0
  -5   3   4    4.38    3.86   0
   5  -3  -4    5.92    3.63   0
  -4   3   4   36.82    3.75   0
   4  -3  -4   43.31    3.84   0
  -4   3   4   39.39    2.89   0
  -3   3   4  313.22    5.51   0
   3  -3  -4  331.11    5.03   0
   3  -3  -4  306.58    5.54   0
  -3   3   4  317.51    4.94   0
  -2   3   4 1690.15    9.44   0
  -2   3   4 1593.76   11.51   0
   2  -3  -4 1655.80   11.97   0
   2  -3  -4 1698.30    9.53   0
  -1   3   4  795.43    6.91   0
   1  -3  -4  776.20   10.83   0
  -1   3   4  759.67   11.11   0
   1  -3  -4  788.02    7.41   0
   0   3   4 1789.34   11.04   0
   0  -3  -4 1823.61   23.71   0
   0  -3  -4 1744.37   22.75   0
   0  -3  -4 1852.35   11.23   0
  -1  -3  -4   90.68    4.86   0
   1   3   4   90.79    4.96   0
   1   3   4   86.72    6.12   0
  -1  -3  -4   88.53    6.10   0
  -2  -3  -4  547.36    8.24   0
   2   3   4  568.57    7.73   0
  -2  -3  -4  571.60    8.15   0
   2   3   4  571.87    8.46   0
  -3  -3  -4  984.05    8.30   0
   3   3   4 1018.20   11.56   0
  -3  -3  -4 1006.93   11.59   0
   3   3   4 1028.56    8.33   0
  -4  -3  -4   67.69    3.94   0
  -4  -3  -4   67.27    5.29   0
   4   3   4   72.23    3.94   0
  -5  -3  -4   98.99    6.12   0
  -5  -3  -4   97.64    4.10   0
   5   3   4   95.71    4.07   0
  -6  -3  -4   22.63    3.50   0
  -6  -3  -4   21.12    5.29   0
  -6  -3  -4   17.99    4.79   0
   6   3   4   22.99    3.51   0
  -7  -3  -4   22.07    3.88   0
  -7  -3  -4   24.23    5.68   0
   7   3   4   22.50    4.02   0
  -7  -3  -4   23.07    5.16   0
  -8  -3  -4    3.82    5.80   0
  -8  -3  -4    5.12    4.13   0
  -8  -3  -4    2.14    6.06   0
   8   3   4    1.11    4.12   0
  -7   4   4   14.19    4.47   0
  -7   4   4   15.84    4.65   0
   7  -4  -4   16.88    4.50   0
  -6   4   4  458.64    6.04   0
  -6   4   4  434.40    6.27   0
   6  -4  -4  418.34    6.21   0
   5  -4  -4    1.96    3.61   0
  -5   4   4    3.05    3.66   0
  -5   4   4    2.11    3.96   0
   4  -4  -4  403.28    5.61   0
  -4   4   4  444.10    5.55   0
  -4   4   4  429.69    5.86   0
   4  -4  -4  421.90    5.68   0
   3  -4  -4  150.41    4.58   0
  -3   4   4  164.99    4.28   0
  -3   4   4  149.60    4.50   0
   3  -4  -4  153.27    4.41   0
   2  -4  -4  691.33    7.44   0
  -2   4   4  701.91    6.35   0
  -2   4   4  699.01    7.64   0
   2  -4  -4  707.31    6.35   0
  -1   4   4   -0.15    3.83   0
   1  -4  -4    4.41    4.59   0
  -1   4   4    2.40    4.65   0
   1  -4  -4    0.74    3.78   0
   0  -4  -4 1486.58    9.47   0
   0  -4  -4 1498.98   14.35   0
   0   4   4 1449.90    9.31   0
   0  -4  -4 1497.43   14.72   0
  -1  -4  -4 1161.79    9.00   0
   1   4   4 1163.28    9.08   0
  -1  -4  -4 1182.56   12.16   0
   1   4   4 1131.64   12.23   0
   2   4   4   77.89    4.48   0
  -2  -4  -4   81.45    5.08   0
  -2  -4  -4   75.84    4.33   0
   2   4   4   76.99    4.30   0
  -3  -4  -4  121.14    5.30   0
   3   4   4  122.00    5.16   0
   3   4   4  126.23    4.50   0
  -3  -4  -4  119.54    4.29   0
  -4  -4  -4  789.36    9.27   0
   4   4   4  787.87    6.99   0
   4   4   4  794.97    9.18   0
  -4  -4  -4  785.61    7.08   0
  -5  -4  -4   15.93    2.74   0
   5   4   4   20.72    2.90   0
  -5  -4  -4   21.73    4.70   0
  -6  -4  -4    4.65    2.58   0
   6   4   4   12.54    3.64   0
  -6  -4  -4    9.15    4.44   0
  -7  -4  -4   83.30    5.42   0
  -7  -4  -4   71.28    4.05   0
  -7  -4  -4   75.77    6.11   0
   7   4   4   79.46    4.27   0
  -8  -4  -4   23.53    5.30   0
  -8  -4  -4   26.94    4.16   0
  -8  -4  -4   14.28    5.36   0
   8   4   4   25.70    4.15   0
  -6   5   4   34.64    4.49   0
  -6   5   4   40.40    4.45   0
   6  -5  -4   34.39    4.52   0
   5  -5  -4   32.84    3.93   0
  -5   5   4   32.10    4.05   0
  -5   5   4   38.83    4.03   0
   5  -5  -4   38.40    4.04   0
   4  -5  -4   20.20    4.53   0
  -4   5   4   14.04    3.72   0
  -4   5   4   11.64    3.80   0
   4  -5  -4   14.34    3.71   0
  -3   5   4    7.23    3.97   0
  -3   5   4    5.76    3.70   0
   3  -5  -4   11.09    3.59   0
   3  -5  -4   11.72    3.82   0
   2  -5  -4  173.40    4.76   0
  -2   5   4  161.61    3.60   0
  -2   5   4  161.75    4.70   0
   2  -5  -4  167.53    4.40   0
   1  -5  -4  354.76    6.57   0
  -1   5   4  336.18    5.16   0
   1  -5  -4  353.36    6.23   0
   1  -5  -4  345.87    5.20   0
   0  -5  -4   72.33    5.13   0
   0  -5  -4   64.64    3.97   0
   0   5   4   63.77    4.00   0
   0  -5  -4   70.10    5.23   0
  -1  -5  -4  207.99    4.80   0
   1   5   4  211.83    4.82   0
   1   5   4  203.50    5.67   0
  -1  -5  -4  216.78    5.50   0
  -2  -5  -4 1059.72    9.12   0
  -2  -5  -4 1055.98    8.31   0
   2   5   4 1064.76    8.37   0
   2   5   4 1053.89    9.08   0
   3   5   4  733.51    7.39   0
  -3  -5  -4  712.17    7.30   0
   3   5   4  682.56    7.09   0
  -3  -5  -4  697.84    7.16   0
   4   5   4   83.01    4.92   0
  -4  -5  -4   79.25    4.95   0
   4   5   4   74.80    4.13   0
  -4  -5  -4   70.91    4.11   0
   5   5   4    3.02    3.99   0
  -5  -5  -4   -2.34    3.66   0
   5   5   4   -1.89    3.49   0
  -5  -5  -4   -2.55    4.41   0
  -6  -5  -4   35.89    3.87   0
  -6  -5  -4   39.43    4.69   0
   6   5   4   35.03    3.87   0
  -7  -5  -4   74.36    4.24   0
   7   5   4   83.98    4.19   0
  -7  -5  -4   75.90    4.58   0
  -8  -5  -4   47.09    4.28   0
  -8  -5  -4   41.84    6.16   0
   8   5   4   45.50    4.43   0
  -8  -5  -4   46.08    5.50   0
   6  -6  -4    2.28    4.38   0
  -6   6   4    6.11    4.44   0
  -6   6   4    4.94    4.50   0
   5  -6  -4   29.95    4.12   0
  -5   6   4   38.91    4.21   0
  -5   6   4   35.58    4.40   0
   5  -6  -4   33.98    4.23   0
   4  -6  -4  321.07    5.44   0
  -4   6   4  345.61    5.24   0
   4  -6  -4  321.50    5.42   0
  -4   6   4  318.84    5.55   0
  -3   6   4  325.85    5.67   0
   3  -6  -4  337.47    5.54   0
  -3   6   4  346.87    5.12   0
   3  -6  -4  358.45    5.33   0
   2  -6  -4    8.77    3.89   0
  -2   6   4   11.03    2.76   0
  -2   6   4    9.80    3.97   0
   2  -6  -4    9.48    3.79   0
   1  -6  -4   34.41    3.95   0
   1  -6  -4   36.99    3.90   0
  -1   6   4   33.41    3.97   0
   1  -6  -4   34.48    4.85   0
   0  -6  -4  146.93    4.79   0
   0   6   4  140.58    4.12   0
   0  -6  -4  139.32    5.20   0
   0  -6  -4  138.49    4.17   0
   1   6   4   21.32    3.72   0
  -1  -6  -4   24.83    3.69   0
   1   6   4   20.06    3.62   0
  -1  -6  -4   20.33    4.41   0
  -2  -6  -4  199.26    4.68   0
  -2  -6  -4  200.36    5.56   0
   2   6   4  198.66    4.64   0
   2   6   4  198.89    4.95   0
   3   6   4   35.67    3.85   0
  -3  -6  -4   39.41    3.99   0
  -3  -6  -4   32.65    3.80   0
   3   6   4   36.90    3.85   0
  -4  -6  -4  281.99    5.02   0
  -4  -6  -4  288.72    5.33   0
   4   6   4  282.16    5.01   0
   4   6   4  286.72    5.40   0
   5   6   4    3.83    3.76   0
   5   6   4    1.11    3.74   0
  -5  -6  -4    3.19    3.83   0
  -5  -6  -4    0.10    2.71   0
  -6  -6  -4    6.43    3.64   0
   6   6   4    0.62    3.70   0
  -6  -6  -4    7.22    4.32   0
   6   6   4    3.83    3.65   0
  -7  -6  -4   29.39    3.87   0
   7   6   4   34.02    3.92   0
  -7  -6  -4   26.55    4.93   0
  -8  -6  -4   14.60    4.22   0
   8   6   4   17.19    3.09   0
  -8  -6  -4   22.87    5.41   0
   5  -7  -4   28.26    4.42   0
  -5   7   4   26.00    4.39   0
  -5   7   4   22.53    4.47   0
   5  -7  -4   25.02    4.49   0
   4  -7  -4  236.60    5.38   0
  -4   7   4  253.66    5.64   0
   4  -7  -4  289.30    5.37   0
  -4   7   4  298.31    5.31   0
   3  -7  -4   34.50    3.95   0
  -3   7   4   39.55    3.92   0
  -3   7   4   29.22    4.12   0
   3  -7  -4   34.90    4.13   0
  -2   7   4   74.30    3.98   0
   2  -7  -4   68.45    4.22   0
   2  -7  -4   78.33    4.35   0
   2  -7  -4   80.30    4.05   0
   1  -7  -4  195.13    3.60   0
   1  -7  -4  204.90    5.18   0
   1  -7  -4  200.55    5.34   0
  -1   7   4  204.29    4.54   0
   0  -7  -4  871.51    6.87   0
   0  -7  -4  866.22    7.98   0
   0  -7  -4  855.52    8.17   0
   0   7   4  863.06    6.73   0
  -1  -7  -4    3.88    3.61   0
  -1  -7  -4    1.87    4.55   0
   1   7   4    1.51    3.52   0
  -2  -7  -4  174.53    4.77   0
  -2  -7  -4  163.83    4.44   0
   2   7   4  167.36    4.95   0
   2   7   4  165.31    3.61   0
   3   7   4    4.14    3.59   0
  -3  -7  -4    4.11    3.69   0
   3   7   4    6.15    3.80   0
  -3  -7  -4    6.80    3.72   0
  -4  -7  -4   44.70    3.67   0
  -4  -7  -4   44.07    3.88   0
   4   7   4   41.24    3.80   0
   4   7   4   45.13    3.64   0
  -5  -7  -4    1.96    3.64   0
   5   7   4    0.25    3.55   0
   5   7   4    2.95    3.71   0
  -5  -7  -4    0.75    3.68   0
  -6  -7  -4   33.48    3.88   0
   6   7   4   26.79    4.54   0
  -6  -7  -4   29.01    4.16   0
   6   7   4   30.95    2.80   0
  -7  -7  -4   -1.32    2.82   0
  -7  -7  -4    1.70    3.97   0
   7   7   4    0.82    4.04   0
  -8  -7  -4   29.75    4.33   0
   8   7   4   30.64    3.19   0
  -8  -7  -4   29.38    4.53   0
   4  -8  -4    1.38    4.23   0
  -4   8   4    2.02    4.13   0
   4  -8  -4    5.08    4.38   0
  -4   8   4    8.05    4.38   0
   3  -8  -4   27.54    4.09   0
   3  -8  -4   24.23    4.20   0
  -3   8   4   28.38    4.09   0
   3  -8  -4   31.24    4.04   0
   2  -8  -4    8.40    3.87   0
   2  -8  -4   11.64    3.94   0
  -2   8   4   12.36    3.69   0
   2  -8  -4   12.17    3.84   0
   1  -8  -4   11.17    3.88   0
   1  -8  -4   16.51    3.79   0
   1  -8  -4   14.43    4.66   0
  -1   8   4   17.01    3.72   0
   0  -8  -4  126.25    4.26   0
   0  -8  -4  120.31    5.52   0
   0  -8  -4  139.57    4.62   0
   0   8   4  121.13    3.35   0
  -1  -8  -4  211.85    3.86   0
  -1  -8  -4  217.53    5.31   0
  -1  -8  -4  220.84    5.02   0
   1   8   4  219.93    4.53   0
   2   8   4   60.26    4.30   0
   2   8   4   59.49    3.18   0
  -2  -8  -4   64.52    4.31   0
  -2  -8  -4   64.41    4.31   0
   3   8   4    2.23    3.86   0
  -3  -8  -4    5.90    3.90   0
   3   8   4    7.27    3.78   0
  -3  -8  -4    9.09    3.61   0
  -4  -8  -4  295.29    5.13   0
   4   8   4  303.51    4.94   0
   4   8   4  292.15    4.97   0
  -4  -8  -4  306.65    5.12   0
  -5  -8  -4  167.36    4.69   0
   5   8   4  168.84    4.70   0
   5   8   4  167.13    4.55   0
  -5  -8  -4  171.92    4.58   0
   6   8   4   48.53    4.84   0
  -6  -8  -4   54.40    4.12   0
   6   8   4   51.97    4.12   0
  -6  -8  -4   39.70    3.03   0
  -7  -8  -4   -1.02    3.90   0
  -7  -8  -4    0.20    4.93   0
   7   8   4    1.87    4.26   0
   7   8   4    4.12    3.98   0
  -8  -8  -4   24.40    4.61   0
  -8  -8  -4   30.79    4.88   0
   8   8   4   31.16    4.59   0
   4  -9  -4    3.96    4.50   0
   4  -9  -4   -1.26    4.56   0
  -4   9   4    0.35    4.45   0
   4  -9  -4    0.61    4.47   0
   3  -9  -4   33.82    4.32   0
   3  -9  -4   30.83    3.22   0
   3  -9  -4   35.65    4.63   0
  -3   9   4   40.24    3.06   0
   2  -9  -4   92.96    4.62   0
   2  -9  -4   88.91    4.56   0
  -2   9   4  100.50    4.35   0
   2  -9  -4   86.14    4.60   0
   1  -9  -4   40.48    4.04   0
   1  -9  -4   35.05    4.17   0
   1  -9  -4   36.82    4.12   0
  -1   9   4   41.50    3.85   0
   0  -9  -4   19.60    3.87   0
   0  -9  -4   23.83    4.16   0
   0   9   4   18.98    2.72   0
   0  -9  -4   24.06    3.91   0
  -1  -9  -4  101.13    3.20   0
  -1  -9  -4  111.54    4.42   0
  -1  -9  -4  112.87    4.37   0
   1   9   4  110.37    3.17   0
   2   9   4   22.15    3.66   0
  -2  -9  -4   18.63    3.75   0
  -2  -9  -4   19.54    3.72   0
   2   9   4   18.82    3.89   0
   3   9   4   15.19    3.87   0
  -3  -9  -4   15.00    3.70   0
   3   9   4   17.40    3.81   0
  -3  -9  -4   18.77    3.50   0
  -4  -9  -4   23.69    3.68   0
   4   9   4   25.21    3.92   0
   4   9   4   21.05    3.74   0
  -4  -9  -4   24.17    3.85   0
   5   9   4   11.12    3.70   0
   5   9   4   13.79    3.80   0
  -5  -9  -4    8.58    3.73   0
  -5  -9  -4    6.33    3.72   0
   6   9   4   33.02    4.15   0
   6   9   4   36.80    4.05   0
  -6  -9  -4   36.05    4.22   0
  -6  -9  -4   35.95    4.08   0
  -7  -9  -4   -0.93    4.15   0
   7   9   4    2.05    4.18   0
  -7  -9  -4   -0.35    5.17   0
   7   9   4    0.14    4.16   0
   2 -10  -4   12.82    5.30   0
   2 -10  -4   15.60    4.34   0
  -2  10   4   27.64    4.12   0
   2 -10  -4   17.21    4.43   0
   1 -10  -4   70.92    4.38   0
   1 -10  -4   64.94    4.57   0
   1 -10  -4   63.97    4.59   0
  -1  10   4   71.79    4.21   0
   0 -10  -4   -1.91    3.93   0
   0 -10  -4    2.53    4.17   0
   0 -10  -4    4.78    4.01   0
   0  10   4    2.24    3.87   0
  -1 -10  -4    5.26    3.94   0
  -1 -10  -4    5.48    3.79   0
  -1 -10  -4    3.83    4.27   0
   1  10   4    4.18    2.71   0
   2  10   4  117.37    4.23   0
  -2 -10  -4  120.74    3.45   0
  -2 -10  -4  115.76    4.80   0
  -2 -10  -4  131.18    4.65   0
   3  10   4   63.06    4.13   0
   3  10   4   65.18    4.01   0
  -3 -10  -4   67.74    4.17   0
  -3 -10  -4   70.15    4.23   0
  -4 -10  -4    1.79    3.90   0
   4  10   4    0.75    3.76   0
  -4 -10  -4    5.74    3.81   0
   4  10   4    1.56    3.92   0
  -5 -10  -4    3.68    3.98   0
   5  10   4    6.32    2.85   0
  -5 -10  -4    6.55    3.99   0
   5  10   4    5.00    4.11   0
   6  10   4  105.02    4.98   0
  -6 -10  -4   97.58    4.69   0
   6  10   4  107.46    3.76   0
  -6 -10  -4  116.98    4.81   0
   7  10   4   10.68    4.52   0
  -7 -10  -4    9.93    4.49   0
   7  10   4   13.58    4.23   0
  -7 -10  -4   12.75    3.23   0
   1 -11  -4    4.74    4.13   0
   1 -11  -4    5.83    5.53   0
   1 -11  -4    4.68    4.38   0
  -1  11   4    4.28    4.03   0
   0 -11  -4   10.80    4.00   0
   0 -11  -4    9.88    4.23   0
   0 -11  -4    9.44    4.39   0
   0  11   4    9.66    3.88   0
   1  11   4   10.33    2.78   0
  -1 -11  -4    8.37    2.89   0
  -1 -11  -4    3.61    4.44   0
  -1 -11  -4    7.61    4.12   0
  -2 -11  -4   14.31    4.27   0
   2  11   4   14.95    3.99   0
  -2 -11  -4   14.93    2.94   0
  -2 -11  -4   13.98    4.16   0
  -3 -11  -4   59.93    4.34   0
   3  11   4   46.98    4.18   0
  -3 -11  -4   49.69    4.40   0
   4  11   4   36.80    4.09   0
  -4 -11  -4   33.05    4.18   0
   4  11   4   33.93    4.36   0
  -4 -11  -4   42.82    4.41   0
  -5 -11  -4    0.25    4.18   0
   5  11   4    1.55    4.29   0
  -5 -11  -4   -0.15    4.22   0
   5  11   4    0.06    4.23   0
   6  11   4    8.23    4.40   0
  -6 -11  -4    5.98    4.35   0
   6  11   4   13.27    4.50   0
  -6 -11  -4    4.07    4.47   0
   1  12   4   11.85    3.06   0
  -1 -12  -4   11.27    4.70   0
  -1 -12  -4    8.49    4.48   0
  -1 -12  -4    9.79    4.40   0
  -2 -12  -4   17.22    3.01   0
   2  12   4   16.16    4.21   0
  -2 -12  -4   16.20    4.77   0
  -2 -12  -4   19.05    4.48   0
   3  12   4   53.48    4.67   0
  -3 -12  -4   54.34    4.96   0
  -3 -12  -4   69.06    4.77   0
  -3 -12  -4   66.85    4.75   0
  -4 -12  -4    4.57    4.39   0
   4  12   4    3.22    4.36   0
  -4 -12  -4    0.01    4.38   0
   4  12   4    3.14    3.05   0
  -3 -10   5    8.46    4.69   0
  -3 -10   5   12.88    4.73   0
  -3 -10   5    1.94    3.07   0
   3  10  -5    8.43    4.19   0
   2  10  -5    2.38    4.22   0
  -2 -10   5    5.71    3.20   0
  -2 -10   5    3.34    4.43   0
  -2 -10   5    2.26    4.63   0
   5   9  -5   56.93    4.37   0
   5   9  -5   50.56    4.56   0
  -5  -9   5   56.77    4.58   0
  -5  -9   5   48.49    4.44   0
   4   9  -5    4.05    3.98   0
   4   9  -5    2.01    4.20   0
  -4  -9   5    5.49    4.35   0
  -4  -9   5    0.69    4.06   0
  -3  -9   5   71.58    4.58   0
  -3  -9   5   94.17    4.82   0
   3   9  -5   99.86    4.59   0
   2   9  -5   36.95    4.11   0
  -2  -9   5   39.79    4.45   0
  -2  -9   5   34.50    4.44   0
  -2  -9   5   32.85    4.29   0
  -1  -9   5    0.96    4.22   0
   1   9  -5    0.31    3.84   0
  -1  -9   5    1.57    4.19   0
  -1  -9   5    0.70    4.41   0
   0   9  -5   69.81    4.42   0
   0  -9   5   56.83    4.68   0
   0  -9   5   50.00    4.74   0
   0  -9   5   63.08    4.92   0
   1  -9   5   17.19    4.80   0
   1  -9   5   19.16    4.82   0
   1  -9   5   15.79    4.83   0
  -1   9  -5   18.70    4.28   0
  -6  -8   5    3.71    4.14   0
   6   8  -5   -0.84    2.95   0
  -6  -8   5    2.61    3.04   0
   5   8  -5  120.49    4.59   0
  -5  -8   5   95.70    3.51   0
   5   8  -5  116.09    4.44   0
  -5  -8   5  111.04    3.55   0
   4   8  -5  131.62    4.56   0
  -4  -8   5  116.29    4.52   0
   4   8  -5  152.64    4.63   0
  -4  -8   5  140.98    4.76   0
  -3  -8   5   63.82    4.14   0
  -3  -8   5   76.46    4.47   0
   3   8  -5   73.10    4.11   0
   3   8  -5   74.90    4.27   0
  -2  -8   5    3.36    2.83   0
  -2  -8   5    8.64    4.12   0
  -2  -8   5    4.45    3.83   0
   2   8  -5    3.88    3.70   0
   1   8  -5    9.69    3.80   0
  -1  -8   5    8.60    4.11   0
  -1  -8   5   10.73    3.99   0
  -1  -8   5   13.38    4.17   0
   0   8  -5   54.02    4.07   0
   0  -8   5   45.28    4.33   0
   0  -8   5   52.26    4.50   0
   0  -8   5   51.69    3.39   0
   1  -8   5   62.58    4.80   0
   1  -8   5   69.00    4.63   0
   1  -8   5   60.28    4.76   0
  -1   8  -5   69.33    4.46   0
   2  -8   5    7.19    4.53   0
   2  -8   5   13.95    4.49   0
  -2   8  -5   14.61    4.35   0
   2  -8   5    5.32    4.54   0
   7   7  -5    4.05    2.95   0
  -7  -7   5    3.16    4.15   0
  -7  -7   5    4.56    4.29   0
  -6  -7   5    6.08    2.72   0
   6   7  -5   -3.17    2.76   0
  -6  -7   5   10.28    4.04   0
  -5  -7   5   48.29    3.90   0
   5   7  -5   57.39    3.06   0
  -5  -7   5   57.50    4.27   0
   5   7  -5   56.87    3.92   0
  -4  -7   5    7.48    3.54   0
   4   7  -5    7.53    3.74   0
  -4  -7   5    5.85    2.71   0
   4   7  -5    6.88    3.59   0
  -3  -7   5    1.96    3.47   0
   3   7  -5    1.19    3.81   0
   3   7  -5    2.02    2.38   0
  -3  -7   5   -0.22    2.67   0
   2   7  -5  100.94    4.14   0
  -2  -7   5  102.86    4.36   0
  -2  -7   5   87.70    3.25   0
  -1  -7   5  255.97    5.04   0
  -1  -7   5  289.56    5.13   0
   1   7  -5  281.08    4.95   0
  -1  -7   5  296.02    5.22   0
   0   7  -5    1.51    3.60   0
   0  -7   5    8.03    4.05   0
   0  -7   5    0.67    3.87   0
   0  -7   5    6.03    3.95   0
   1  -7   5  180.13    3.97   0
   1  -7   5  185.71    5.07   0
   1  -7   5  201.61    5.05   0
  -1   7  -5  208.72    4.83   0
   2  -7   5   26.87    4.19   0
   2  -7   5   30.97    4.34   0
   2  -7   5   24.78    4.23   0
  -2   7  -5   28.24    4.77   0
   3  -7   5    0.93    4.72   0
   3  -7   5    3.53    4.38   0
  -3   7  -5    3.70    4.02   0
   3  -7   5    8.75    4.33   0
  -7  -6   5   51.69    4.26   0
   7   6  -5   67.11    4.47   0
  -7  -6   5   57.22    4.40   0
  -6  -6   5   31.96    3.85   0
   6   6  -5   37.26    3.98   0
  -6  -6   5   27.90    4.16   0
  -5  -6   5    6.11    3.43   0
   5   6  -5    4.41    3.67   0
  -5  -6   5   -1.42    3.67   0
  -4  -6   5   30.63    3.80   0
  -4  -6   5   26.48    2.84   0
   4   6  -5   33.81    3.89   0
   4   6  -5   28.53    3.71   0
  -3  -6   5  392.95    4.65   0
  -3  -6   5  396.11    4.78   0
   3   6  -5  403.67    5.49   0
   3   6  -5  449.66    5.57   0
  -2  -6   5   10.70    2.55   0
   2   6  -5   12.63    3.72   0
  -2  -6   5   15.29    3.89   0
   2   6  -5    9.29    3.44   0
  -1  -6   5  991.02    7.42   0
   1   6  -5 1077.67    7.57   0
  -1  -6   5  917.57    6.55   0
  -1  -6   5 1042.97    7.48   0
   0   6  -5  225.68    4.73   0
   0  -6   5  211.41    4.85   0
   0  -6   5  230.64    3.98   0
   0  -6   5  242.25    5.03   0
   1  -6   5   19.34    3.87   0
   1  -6   5   15.75    3.85   0
   1  -6   5   14.75    2.83   0
  -1   6  -5   19.34    3.54   0
  -2   6  -5    4.79    4.46   0
   2  -6   5    8.52    3.98   0
   2  -6   5    5.42    2.90   0
   2  -6   5    4.66    3.94   0
   3  -6   5   93.48    5.04   0
   3  -6   5   82.39    3.66   0
   3  -6   5   90.11    4.61   0
  -3   6  -5   97.12    4.42   0
   4  -6   5   -0.86    4.44   0
   4  -6   5    1.73    4.55   0
  -4   6  -5    1.36    3.98   0
  -8  -5   5    2.40    4.18   0
   8   5  -5    5.58    4.30   0
  -8  -5   5    0.85    4.34   0
   7   5  -5    5.48    3.88   0
  -7  -5   5    1.26    3.93   0
  -7  -5   5   -1.76    4.02   0
   6   5  -5  260.19    4.03   0
  -6  -5   5  226.62    4.84   0
  -6  -5   5  236.04    4.03   0
   5   5  -5  203.07    3.68   0
  -5  -5   5  184.00    4.42   0
  -5  -5   5  168.27    3.68   0
   4   5  -5   14.69    3.40   0
   4   5  -5   14.91    3.69   0
  -4  -5   5   11.26    2.68   0
  -4  -5   5   12.29    3.41   0
  -3  -5   5  470.10    4.97   0
  -3  -5   5  486.51    4.87   0
   3   5  -5  500.73    5.58   0
   3   5  -5  493.49    4.90   0
   2   5  -5  405.12    5.30   0
  -2  -5   5  411.45    5.24   0
   2   5  -5  404.25    4.52   0
  -2  -5   5  395.75    5.53   0
  -1  -5   5  147.87    4.48   0
   1   5  -5  152.81    4.18   0
  -1  -5   5  138.96    4.52   0
  -1  -5   5  158.21    4.63   0
   0   5  -5  758.35    6.07   0
   0  -5   5  685.94    5.81   0
   0  -5   5  793.58    6.73   0
   0  -5   5  699.35    6.52   0
   1  -5   5 2095.92    9.77   0
   1  -5   5 2178.68   10.12   0
   1  -5   5 1909.21   10.74   0
  -1   5  -5 2145.76   10.55   0
   2  -5   5  213.02    4.86   0
   2  -5   5  192.96    5.07   0
   2  -5   5  202.72    3.94   0
  -2   5  -5  219.39    4.82   0
   3  -5   5  215.65    5.71   0
   3  -5   5  227.20    4.72   0
  -3   5  -5  242.19    5.23   0
  -4   5  -5   84.46    5.50   0
   4  -5   5   75.70    4.38   0
  -4   5  -5   72.20    4.37   0
   4  -5   5   88.62    6.04   0
   5  -5   5    1.99    4.31   0
  -5   5  -5   -0.03    5.03   0
   5  -5   5   -1.87    5.28   0
  -5   5  -5    0.93    4.36   0
  -8  -4   5   32.23    3.37   0
  -8  -4   5   39.95    4.39   0
   8   4  -5   42.14    4.46   0
  -7  -4   5   15.65    3.91   0
   7   4  -5   23.46    4.05   0
  -7  -4   5   16.33    4.04   0
  -6  -4   5    5.04    3.48   0
   6   4  -5   10.43    3.66   0
  -6  -4   5    6.29    3.77   0
  -5  -4   5   21.20    3.39   0
  -5  -4   5   19.72    3.62   0
   5   4  -5   23.02    3.63   0
  -4  -4   5    1.53    2.66   0
   4   4  -5    0.10    3.63   0
  -4  -4   5   -0.23    2.43   0
   3   4  -5  625.92    6.08   0
   3   4  -5  657.70    6.10   0
  -3  -4   5  617.69    6.31   0
  -3  -4   5  617.67    5.97   0
  -2  -4   5  136.91    4.08   0
   2   4  -5  134.80    4.06   0
  -2  -4   5  135.46    4.32   0
   2   4  -5  141.76    4.30   0
  -1  -4   5   33.41    3.55   0
  -1  -4   5   32.97    3.93   0
   1   4  -5   33.42    3.42   0
   0   4  -5   76.53    3.94   0
   0  -4   5   74.45    4.04   0
   0  -4   5   79.06    3.92   0
   0  -4   5   77.53    4.29   0
   1  -4   5  402.00    5.43   0
   1  -4   5  414.06    5.59   0
   1  -4   5  392.36    6.45   0
  -1   4  -5  408.70    5.79   0
   2  -4   5  532.61    5.77   0
   2  -4   5  544.75    6.94   0
  -2   4  -5  562.47    7.16   0
   3  -4   5   11.37    4.16   0
  -3   4  -5   10.56    3.91   0
   3  -4   5   13.10    3.87   0
  -3   4  -5   12.13    4.46   0
   4  -4   5   40.05    4.02   0
  -4   4  -5   32.81    3.98   0
  -4   4  -5   39.36    4.00   0
   4  -4   5   34.53    4.40   0
   5  -4   5    2.46    4.05   0
  -5   4  -5    1.05    4.76   0
  -5   4  -5    2.04    3.98   0
   5  -4   5    2.37    5.15   0
  -6   4  -5    2.08    5.43   0
  -6   4  -5    3.80    4.45   0
   6  -4   5   -1.14    4.46   0
  -8  -3   5   62.62    4.65   0
  -8  -3   5   75.28    3.60   0
  -8  -3   5   76.61    3.50   0
   8   3  -5  100.97    4.80   0
  -7  -3   5    6.57    3.90   0
   7   3  -5    3.68    3.88   0
  -7  -3   5    9.19    3.77   0
   6   3  -5    5.95    2.78   0
  -6  -3   5    6.14    3.58   0
  -6  -3   5    9.68    3.72   0
   5   3  -5   35.85    3.81   0
  -5  -3   5   35.98    3.90   0
  -5  -3   5   35.39    3.46   0
  -4  -3   5  824.47    6.62   0
   4   3  -5  860.19    6.89   0
  -4  -3   5  827.57    6.94   0
  -3  -3   5 1174.89    7.46   0
   3   3  -5 1245.10    7.92   0
  -3  -3   5 1076.46    7.17   0
   2   3  -5   48.42    3.88   0
  -2  -3   5   45.99    4.06   0
   2   3  -5   45.65    3.47   0
  -2  -3   5   48.65    3.43   0
   1   3  -5  685.20    6.51   0
   1   3  -5  635.78    5.96   0
  -1  -3   5  649.51    6.45   0
  -1  -3   5  598.83    5.91   0
   0  -3   5   74.06    4.06   0
   0   3  -5   76.77    3.89   0
   0  -3   5   78.54    4.15   0
   0  -3   5   81.65    4.39   0
  -1   3  -5  203.17    4.54   0
   1  -3   5  185.10    4.55   0
   1  -3   5  206.90    4.80   0
   1  -3   5  191.34    4.74   0
  -2   3  -5  452.67    4.90   0
   2  -3   5  460.87    4.87   0
   2  -3   5  454.85    6.79   0
  -2   3  -5  497.39    7.00   0
   3  -3   5 1980.55   13.25   0
   3  -3   5 2020.56    9.34   0
  -3   3  -5 1967.54    9.54   0
  -3   3  -5 2040.84   12.13   0
   4  -3   5   49.30    3.93   0
  -4   3  -5   51.25    4.81   0
  -4   3  -5   50.63    3.88   0
   4  -3   5   52.05    5.13   0
   5  -3   5   22.09    3.87   0
  -5   3  -5   17.43    4.82   0
  -5   3  -5   14.67    3.94   0
   5  -3   5   17.19    5.16   0
   6  -3   5   23.94    3.07   0
  -6   3  -5   27.51    5.40   0
  -6   3  -5   29.86    4.47   0
  -8  -2   5    2.95    4.12   0
  -8  -2   5    5.21    4.02   0
   8   2  -5    2.70    4.12   0
  -8  -2   5    5.96    4.05   0
  -7  -2   5   23.39    2.82   0
   7   2  -5   32.79    4.00   0
  -7  -2   5   29.86    3.85   0
  -7  -2   5   21.55    2.83   0
  -6  -2   5  115.44    4.27   0
  -6  -2   5  115.71    4.23   0
   6   2  -5  130.15    4.29   0
  -5  -2   5  233.80    4.70   0
  -5  -2   5  235.65    4.89   0
   5   2  -5  249.38    4.92   0
  -4  -2   5  155.44    3.46   0
  -4  -2   5  163.77    4.50   0
   4   2  -5  159.51    4.43   0
   3   2  -5  300.16    4.46   0
  -3  -2   5  325.51    5.30   0
  -3  -2   5  340.73    4.91   0
   2   2  -5   26.27    3.89   0
  -2  -2   5   22.48    3.86   0
  -2  -2   5   24.70    2.51   0
  -1  -2   5 5417.67   16.81   0
   1   2  -5 5677.08   17.81   0
  -1  -2   5 5066.87   17.05   0
   1   2  -5 5635.75   17.29   0
   0   2  -5 1489.10    9.90   0
   0  -2   5 1343.19    9.22   0
   0  -2   5 1420.23    9.66   0
   0  -2   5 1402.44    9.75   0
   1  -2   5  583.70    6.49   0
  -1   2  -5  601.43    7.21   0
   1  -2   5  572.40    7.16   0
  -2   2  -5   17.73    4.27   0
   2  -2   5   22.71    3.71   0
   2  -2   5   16.12    4.81   0
  -2   2  -5   18.83    3.74   0
   3  -2   5    6.35    4.87   0
   3  -2   5    4.70    3.54   0
  -3   2  -5    6.89    3.61   0
  -3   2  -5    5.45    4.25   0
   4  -2   5  363.26    5.05   0
   4  -2   5  381.08    7.94   0
  -4   2  -5  377.99    5.18   0
  -4   2  -5  401.79    8.26   0
   5  -2   5   43.00    2.92   0
  -5   2  -5   48.44    5.97   0
  -5   2  -5   43.29    3.99   0
   6  -2   5  207.46    5.06   0
  -6   2  -5  239.99    9.02   0
  -6   2  -5  189.05    5.18   0
   7  -2   5    4.61    3.15   0
  -7   2  -5    2.70    4.36   0
  -7   2  -5    1.53    8.89   0
  -7   2  -5    1.21    8.29   0
  -8  -1   5    2.09    4.12   0
  -8  -1   5   -0.21    4.18   0
   8   1  -5    2.60    2.94   0
  -8  -1   5    3.21    4.20   0
  -7  -1   5    8.27    3.77   0
  -7  -1   5    4.45    3.80   0
  -7  -1   5    6.75    3.79   0
   7   1  -5   12.83    3.85   0
  -6  -1   5  494.93    5.25   0
  -6  -1   5  492.73    5.23   0
  -6  -1   5  475.18    6.02   0
   6   1  -5  578.47    6.00   0
  -5  -1   5  377.60    5.24   0
  -5  -1   5  398.97    5.14   0
   5   1  -5  391.79    5.62   0
  -4  -1   5  178.81    3.82   0
   4   1  -5  195.11    4.54   0
  -4  -1   5  202.89    4.31   0
  -3  -1   5  128.63    3.98   0
   3   1  -5  116.66    4.35   0
  -3  -1   5  129.50    4.45   0
  -2  -1   5   11.83    3.53   0
  -2  -1   5   11.08    3.86   0
   2   1  -5   11.89    3.69   0
  -1  -1   5 3205.72   13.52   0
   1   1  -5 3301.05   15.20   0
  -1  -1   5 3132.95   14.81   0
   0  -1   5  125.77    4.51   0
   0  -1   5  133.88    4.79   0
   0  -1   5  135.57    5.06   0
   1  -1   5 1374.85   11.54   0
   1  -1   5 1424.47    9.77   0
  -1   1  -5 1349.26    9.63   0
  -1   1  -5 1462.77   11.89   0
   2  -1   5 1287.51   13.51   0
   2  -1   5 1389.33    8.84   0
  -2   1  -5 1409.78    8.96   0
  -2   1  -5 1419.99   13.51   0
  -3   1  -5  823.14   11.98   0
   3  -1   5  808.99    6.76   0
  -3   1  -5  746.05    6.05   0
   3  -1   5  764.95   12.10   0
   4  -1   5  174.67    4.53   0
  -4   1  -5  167.79    4.50   0
  -4   1  -5  166.26    7.86   0
   5  -1   5    4.56    3.66   0
  -5   1  -5   -5.07    3.68   0
  -5   1  -5    0.82    6.15   0
   6  -1   5   21.85    4.01   0
  -6   1  -5   19.61    7.67   0
  -6   1  -5   13.41    3.99   0
  -6   1  -5   17.75    7.96   0
   7  -1   5    0.70    4.32   0
  -7   1  -5    5.98    4.29   0
  -8   0   5   29.69    4.50   0
  -8   0   5   35.97    4.61   0
   8   0  -5   28.57    4.38   0
  -8   0   5   31.12    4.50   0
  -7   0   5   54.80    4.24   0
  -7   0   5   44.75    4.19   0
  -7   0   5   55.62    4.14   0
   7   0  -5   64.81    4.23   0
  -6   0   5   86.43    3.11   0
  -6   0   5  102.41    3.92   0
   6   0  -5  105.11    4.23   0
  -5   0   5   42.64    3.74   0
  -5   0   5   50.06    3.86   0
   5   0  -5   47.40    3.89   0
  -4   0   5  714.97    6.84   0
  -4   0   5  715.78    6.16   0
   4   0  -5  754.35    6.89   0
   3   0  -5  219.79    5.00   0
  -3   0   5  203.79    4.87   0
   2   0  -5 1596.28   11.08   0
  -2   0   5 1562.13   11.43   0
   1   0  -5  127.21    5.89   0
  -1   0   5  123.59    5.71   0
   0   0   5  893.46    8.98   0
   0   0   5  846.17    9.61   0
   0   0   5  888.81   10.33   0
   1   0   5  835.10   10.63   0
   1   0   5  863.07    8.57   0
  -1   0  -5  844.74    8.69   0
   2   0   5  659.71   13.92   0
   2   0   5  696.80    7.09   0
  -2   0  -5  682.96    7.15   0
   3   0   5  361.00    5.38   0
  -3   0  -5  357.90    5.29   0
   4   0   5  165.34    3.63   0
  -4   0  -5  174.26    4.47   0
   5   0   5    0.92    2.51   0
  -5   0  -5    4.30    3.40   0
   6   0   5    2.92    3.65   0
  -6   0  -5    7.88    3.66   0
  -7   0  -5    5.59    4.01   0
   7   0   5    4.30    4.00   0
  -8   1   5   49.31    4.81   0
   8  -1  -5   45.83    4.72   0
  -8   1   5   47.41    4.69   0
  -8   1   5   38.73    4.67   0
  -7   1   5   74.09    4.36   0
   7  -1  -5   75.42    4.44   0
  -7   1   5   59.56    4.47   0
  -6   1   5   53.09    4.04   0
  -6   1   5   54.01    4.15   0
   6  -1  -5   57.63    4.14   0
  -5   1   5    0.93    3.61   0
  -5   1   5    4.63    2.63   0
   5  -1  -5    3.68    3.61   0
  -4   1   5  392.35    5.56   0
   4  -1  -5  396.33    5.57   0
  -4   1   5  401.51    5.21   0
  -3   1   5 2756.21   13.15   0
  -3   1   5 2779.15   11.15   0
   3  -1  -5 2834.49   13.28   0
  -2   1   5  589.26    6.35   0
   2  -1  -5  583.02    7.79   0
  -2   1   5  567.09    8.29   0
   1  -1  -5  556.45    9.73   0
  -1   1   5  549.49    6.45   0
  -1   1   5  553.54    9.54   0
   0   1   5  118.22    6.45   0
   0   1   5  114.66    4.74   0
   0   1   5  112.57    6.52   0
   1   1   5 2119.23   14.30   0
  -1  -1  -5 2190.08   15.29   0
   1   1   5 2092.36   16.20   0
   2   1   5  308.35    5.59   0
  -2  -1  -5  325.07    5.73   0
   3   1   5 1521.01    8.75   0
  -3  -1  -5 1661.11    9.72   0
   4   1   5  382.95    5.29   0
  -4  -1  -5  394.96    5.30   0
   5   1   5  138.50    4.34   0
  -5  -1  -5  133.53    4.23   0
  -6  -1  -5   93.72    4.05   0
   6   1   5   87.86    3.21   0
  -7  -1  -5   50.85    4.25   0
   7   1   5   58.79    4.28   0
  -8  -1  -5   10.49    4.30   0
   8   1   5   11.82    4.37   0
  -7   2   5    4.57    3.96   0
  -7   2   5    7.30    4.03   0
   7  -2  -5   -2.01    4.15   0
  -6   2   5  319.58    5.34   0
   6  -2  -5  338.86    5.36   0
  -6   2   5  335.12    5.50   0
  -5   2   5    6.34    3.63   0
  -5   2   5   10.12    3.75   0
   5  -2  -5    9.15    3.61   0
  -4   2   5   38.84    3.82   0
  -4   2   5   45.03    3.99   0
   4  -2  -5   39.03    3.88   0
  -3   2   5    4.07    3.45   0
  -3   2   5    1.52    2.41   0
   3  -2  -5    3.18    4.17   0
  -2   2   5  107.60    4.63   0
  -2   2   5  114.63    4.35   0
   2  -2  -5  114.80    5.46   0
  -1   2   5  110.28    7.02   0
   1  -2  -5  115.52    4.36   0
   1  -2  -5  115.14    6.98   0
  -1   2   5  112.62    4.24   0
   0  -2  -5  686.16    7.88   0
   0   2   5  682.05    7.73   0
   1   2   5  384.03    7.84   0
   1   2   5  367.48    8.15   0
  -1  -2  -5  373.97    8.47   0
  -1  -2  -5  379.65    7.23   0
   2   2   5 2874.74   14.96   0
  -2  -2  -5 2744.89   14.66   0
   2   2   5 2709.91   23.65   0
  -2  -2  -5 2796.80   23.63   0
   3   2   5   28.01    3.69   0
  -3  -2  -5   29.61    3.61   0
   4   2   5    0.06    3.39   0
  -4  -2  -5    6.95    3.50   0
  -5  -2  -5  363.33    5.23   0
   5   2   5  372.80    5.42   0
  -6  -2  -5   46.61    4.03   0
   6   2   5   52.95    3.82   0
  -7  -2  -5    3.28    3.69   0
   7   2   5    4.64    3.84   0
  -8  -2  -5    8.66    4.35   0
   8   2   5   11.99    4.42   0
  -7   3   5    9.69    4.27   0
  -7   3   5    7.79    4.28   0
   7  -3  -5   10.67    4.33   0
  -6   3   5  317.98    5.50   0
  -6   3   5  345.77    5.57   0
   6  -3  -5  343.71    5.56   0
  -5   3   5   71.43    3.97   0
   5  -3  -5   77.33    4.08   0
  -5   3   5   77.60    4.14   0
  -4   3   5  181.16    4.91   0
   4  -3  -5  170.53    4.41   0
  -4   3   5  167.84    3.85   0
  -3   3   5   16.99    4.34   0
   3  -3  -5   24.21    3.45   0
  -3   3   5   18.18    3.60   0
   3  -3  -5   18.01    3.63   0
  -2   3   5   43.32    4.61   0
   2  -3  -5   39.87    3.78   0
  -2   3   5   39.22    3.84   0
   2  -3  -5   38.96    4.41   0
  -1   3   5  453.17   10.41   0
   1  -3  -5  475.44    5.45   0
   1  -3  -5  470.66   10.18   0
  -1   3   5  480.88    6.09   0
   0   3   5 4317.01   16.20   0
   0  -3  -5 4266.44   15.97   0
  -1  -3  -5  204.40    5.60   0
  -1  -3  -5  191.87    7.23   0
   1   3   5  201.01    5.61   0
   1   3   5  192.86    7.72   0
   2   3   5  404.49    7.50   0
  -2  -3  -5  400.37    6.77   0
   2   3   5  426.12    7.41   0
  -2  -3  -5  417.67    7.55   0
  -3  -3  -5   -0.96    5.24   0
  -3  -3  -5    1.85    3.46   0
   3   3   5    0.83    5.09   0
   3   3   5    1.15    3.42   0
  -4  -3  -5  113.80    3.96   0
  -4  -3  -5  110.79    7.54   0
   4   3   5  120.53    4.32   0
  -5  -3  -5   50.25    7.34   0
  -5  -3  -5   48.86    4.09   0
  -5  -3  -5   52.95    7.28   0
   5   3   5   58.69    4.23   0
  -6  -3  -5   29.12    7.43   0
  -6  -3  -5   29.09    2.74   0
  -6  -3  -5   31.50    7.77   0
   6   3   5   30.06    2.79   0
  -7  -3  -5    5.62    2.61   0
  -7  -3  -5    2.74    8.83   0
  -7  -3  -5    4.11    8.71   0
   7   3   5    8.76    3.90   0
  -8  -3  -5    4.80    4.15   0
   8   3   5    3.44    4.09   0
  -7   4   5    5.66    3.09   0
  -7   4   5    3.65    4.41   0
   7  -4  -5    7.79    4.28   0
  -6   4   5    5.55    4.04   0
  -6   4   5    2.73    3.96   0
   6  -4  -5    2.19    3.90   0
  -5   4   5   53.93    4.11   0
  -5   4   5   50.41    4.91   0
   5  -4  -5   50.65    4.23   0
   4  -4  -5 3348.55   13.39   0
  -4   4   5 3680.93   12.25   0
  -4   4   5 3532.18   14.10   0
   4  -4  -5 3644.06   12.63   0
   3  -4  -5    7.50    4.54   0
  -3   4   5    8.08    3.66   0
  -3   4   5   11.05    3.80   0
   3  -4  -5   10.72    2.64   0
   2  -4  -5   51.13    4.56   0
  -2   4   5   51.11    3.71   0
  -2   4   5   48.61    4.62   0
   2  -4  -5   54.50    3.64   0
  -1   4   5  170.24    4.54   0
   1  -4  -5  166.01    5.99   0
  -1   4   5  167.14    6.29   0
   1  -4  -5  173.29    4.56   0
   0   4   5 3491.59   13.70   0
   0  -4  -5 3547.94   27.39   0
   0  -4  -5 3468.58   26.71   0
   0  -4  -5 3607.65   14.03   0
  -1  -4  -5  172.92    4.89   0
   1   4   5  170.49    4.88   0
   1   4   5  157.09    6.55   0
  -1  -4  -5  170.98    7.01   0
  -2  -4  -5  182.52    5.81   0
  -2  -4  -5  183.83    5.16   0
   2   4   5  173.16    5.15   0
   2   4   5  182.15    5.27   0
  -3  -4  -5  668.15    7.14   0
  -3  -4  -5  610.97    8.10   0
   3   4   5  664.25    8.34   0
   3   4   5  686.49    7.60   0
  -4  -4  -5  460.66    5.94   0
  -4  -4  -5  466.20    8.19   0
   4   4   5  481.45    8.70   0
   4   4   5  482.51    5.99   0
  -5  -4  -5   51.53    4.15   0
  -5  -4  -5   47.89    5.13   0
   5   4   5   49.39    2.89   0
  -6  -4  -5  108.01    4.19   0
  -6  -4  -5  109.07    6.33   0
   6   4   5  115.40    4.18   0
  -7  -4  -5   48.76    4.10   0
  -7  -4  -5   58.72    6.98   0
  -7  -4  -5   47.98    6.34   0
   7   4   5   53.59    4.20   0
  -8  -4  -5   12.50    6.97   0
  -8  -4  -5   10.36    4.25   0
  -8  -4  -5   16.61    8.13   0
   8   4   5   11.49    4.32   0
  -6   5   5   29.00    4.58   0
  -6   5   5   34.28    4.50   0
   6  -5  -5   33.75    4.34   0
   5  -5  -5   12.94    3.95   0
  -5   5   5   14.51    3.98   0
  -5   5   5   18.12    4.01   0
   4  -5  -5  189.59    4.57   0
  -4   5   5  188.69    4.59   0
  -4   5   5  171.60    4.63   0
   4  -5  -5  177.57    4.50   0
   3  -5  -5    6.27    4.55   0
  -3   5   5    6.67    3.77   0
  -3   5   5    2.49    3.89   0
   3  -5  -5    0.27    3.49   0
   2  -5  -5  847.20    8.78   0
  -2   5   5  842.51    6.77   0
  -2   5   5  825.89    8.76   0
   2  -5  -5  855.63    6.78   0
   1  -5  -5  553.00    8.14   0
  -1   5   5  540.51    5.78   0
   1  -5  -5  548.34    7.94   0
   1  -5  -5  566.55    5.87   0
   0   5   5 1416.04    8.60   0
   0  -5  -5 1434.93   13.65   0
   0  -5  -5 1409.60   13.14   0
   0  -5  -5 1429.90    8.69   0
   1   5   5  441.40    8.12   0
  -1  -5  -5  479.22    6.07   0
   1   5   5  469.12    6.05   0
  -1  -5  -5  469.70    8.00   0
  -2  -5  -5  103.71    4.38   0
  -2  -5  -5  102.70    4.28   0
   2   5   5  103.26    4.28   0
   2   5   5   99.49    5.10   0
   3   5   5   28.89    4.38   0
  -3  -5  -5   25.38    3.64   0
   3   5   5   22.25    3.74   0
  -3  -5  -5   27.20    3.63   0
  -4  -5  -5 1177.80    8.37   0
  -4  -5  -5 1188.29    9.80   0
   4   5   5 1158.90    8.14   0
   4   5   5 1199.03    9.94   0
  -5  -5  -5   59.49    3.81   0
  -5  -5  -5   55.18    4.76   0
   5   5   5   59.19    4.69   0
   5   5   5   57.13    3.75   0
  -6  -5  -5    5.35    3.77   0
   6   5   5   12.14    3.84   0
  -6  -5  -5   11.39    4.52   0
  -7  -5  -5   -3.53    2.68   0
  -7  -5  -5    0.44    5.58   0
   7   5   5   -3.51    3.78   0
  -8  -5  -5   38.95    4.46   0
  -8  -5  -5   46.42    6.83   0
  -8  -5  -5   36.08    6.73   0
   8   5   5   46.18    4.38   0
  -6   6   5   21.78    4.46   0
  -6   6   5   20.89    4.55   0
   6  -6  -5   14.78    4.57   0
   5  -6  -5    0.61    4.14   0
   5  -6  -5    3.48    3.93   0
  -5   6   5   -1.43    3.91   0
  -5   6   5   -0.69    4.16   0
   4  -6  -5  208.94    5.04   0
  -4   6   5  227.32    4.76   0
  -4   6   5  216.91    5.08   0
   4  -6  -5  219.64    4.94   0
   3  -6  -5   46.71    3.88   0
  -3   6   5   45.88    3.90   0
  -3   6   5   47.00    4.09   0
   3  -6  -5   49.90    2.86   0
   2  -6  -5 2568.89   13.67   0
  -2   6   5 2591.24    9.80   0
  -2   6   5 2505.60   12.96   0
   2  -6  -5 2686.88   10.56   0
   1  -6  -5    4.29    3.61   0
  -1   6   5    1.58    3.90   0
   1  -6  -5    5.41    3.79   0
   1  -6  -5    2.19    3.84   0
   0  -6  -5  426.31    5.34   0
   0  -6  -5  419.73    7.48   0
   0   6   5  412.78    4.77   0
   0  -6  -5  410.57    6.72   0
   1   6   5    3.92    4.56   0
  -1  -6  -5    5.17    3.61   0
   1   6   5    1.49    3.63   0
  -1  -6  -5    2.30    3.58   0
   2   6   5  282.08    5.61   0
  -2  -6  -5  307.15    5.27   0
   2   6   5  295.42    5.27   0
  -2  -6  -5  297.15    6.06   0
   3   6   5   10.76    3.72   0
  -3  -6  -5   13.17    3.72   0
   3   6   5   15.17    3.80   0
  -3  -6  -5   18.55    3.74   0
   4   6   5   99.68    4.17   0
  -4  -6  -5  105.93    4.42   0
   4   6   5  103.28    4.33   0
  -4  -6  -5  102.44    4.15   0
  -5  -6  -5    7.24    3.51   0
   5   6   5    2.03    4.47   0
  -5  -6  -5    6.18    4.65   0
   5   6   5    5.71    3.68   0
  -6  -6  -5   -1.60    3.65   0
  -6  -6  -5    1.00    3.90   0
   6   6   5    0.07    4.70   0
   6   6   5    3.36    3.58   0
  -7  -6  -5   -0.73    3.87   0
   7   6   5    3.15    3.86   0
  -7  -6  -5    3.00    4.92   0
  -8  -6  -5   24.02    4.31   0
  -8  -6  -5   26.49    6.48   0
   8   6   5   22.29    4.34   0
   5  -7  -5   10.20    4.35   0
  -5   7   5   11.87    4.40   0
  -5   7   5   13.40    4.60   0
   5  -7  -5    9.43    4.50   0
   4  -7  -5  101.03    4.85   0
  -4   7   5  127.04    3.50   0
  -4   7   5  115.10    5.76   0
   4  -7  -5  114.42    4.53   0
   3  -7  -5   22.03    4.04   0
  -3   7   5   30.34    3.83   0
  -3   7   5   26.05    4.20   0
   3  -7  -5   30.44    3.84   0
   2  -7  -5  116.04    4.51   0
  -2   7   5  121.57    4.25   0
   2  -7  -5  124.20    4.64   0
   2  -7  -5  124.42    3.42   0
   1  -7  -5   25.93    4.68   0
  -1   7   5   29.83    3.95   0
   1  -7  -5   27.48    4.93   0
   1  -7  -5   30.31    3.88   0
   0  -7  -5  874.42    6.81   0
   0  -7  -5  885.19    8.68   0
   0   7   5  890.36    6.64   0
   0  -7  -5  892.72    8.45   0
  -1  -7  -5   31.35    3.68   0
  -1  -7  -5   31.37    4.03   0
  -1  -7  -5   36.56    4.78   0
   1   7   5   29.80    3.88   0
  -2  -7  -5  706.36    6.59   0
   2   7   5  675.62    7.96   0
  -2  -7  -5  723.94    7.45   0
   2   7   5  709.39    6.68   0
   3   7   5    5.76    3.56   0
  -3  -7  -5    1.13    3.68   0
   3   7   5    4.13    3.84   0
  -3  -7  -5    5.44    3.76   0
  -4  -7  -5   10.79    3.79   0
   4   7   5   13.67    3.61   0
   4   7   5   10.70    3.46   0
  -4  -7  -5    4.84    3.46   0
   5   7   5    9.25    3.57   0
  -5  -7  -5    7.54    3.74   0
   5   7   5    8.41    3.70   0
  -5  -7  -5    9.57    3.60   0
  -6  -7  -5  151.12    4.69   0
   6   7   5  165.90    5.13   0
  -6  -7  -5  168.24    5.11   0
   6   7   5  180.42    4.73   0
  -7  -7  -5   -0.07    2.70   0
  -7  -7  -5    1.30    4.98   0
   7   7   5    3.28    3.95   0
  -8  -7  -5   -2.04    4.16   0
  -8  -7  -5   -0.74    5.16   0
   8   7   5   -4.84    4.08   0
   4  -8  -5    2.71    4.08   0
  -4   8   5    4.42    4.17   0
  -4   8   5    5.19    4.40   0
   4  -8  -5    6.61    4.15   0
   3  -8  -5  100.18    5.34   0
   3  -8  -5  117.03    4.67   0
  -3   8   5  130.11    4.35   0
   3  -8  -5  116.23    4.47   0
   2  -8  -5  224.20    5.29   0
  -2   8   5  234.06    4.62   0
   2  -8  -5  237.82    4.72   0
   2  -8  -5  239.09    5.40   0
  -1   8   5  415.27    4.54   0
   1  -8  -5  400.90    6.80   0
   1  -8  -5  417.00    6.73   0
   1  -8  -5  409.51    5.41   0
   0  -8  -5  393.12    5.35   0
   0  -8  -5  397.38    6.42   0
   0  -8  -5  406.50    6.27   0
   0   8   5  392.38    5.28   0
  -1  -8  -5   69.74    3.81   0
  -1  -8  -5   60.87    4.27   0
   1   8   5   58.06    2.81   0
  -1  -8  -5   60.63    4.23   0
   2   8   5   14.98    3.85   0
  -2  -8  -5   11.57    3.89   0
   2   8   5    7.99    4.02   0
  -2  -8  -5    9.46    3.96   0
   3   8   5  297.79    5.00   0
  -3  -8  -5  296.75    4.28   0
   3   8   5  276.02    5.48   0
  -3  -8  -5  305.22    5.30   0
  -4  -8  -5   21.41    3.66   0
   4   8   5   16.46    3.64   0
   4   8   5   19.95    3.66   0
  -4  -8  -5   22.11    3.62   0
   5   8   5    4.54    3.65   0
  -5  -8  -5    4.61    3.60   0
   5   8   5    5.64    3.65   0
  -5  -8  -5    1.72    3.57   0
  -6  -8  -5   17.78    3.92   0
  -6  -8  -5   18.66    4.10   0
   6   8   5   14.54    3.96   0
   6   8   5   18.60    4.97   0
  -7  -8  -5   13.04    4.18   0
   7   8   5   26.72    4.24   0
  -7  -8  -5   20.78    5.22   0
   7   8   5   21.77    4.20   0
   8   8   5    6.62    4.40   0
  -8  -8  -5    5.47    4.26   0
  -8  -8  -5    5.61    5.74   0
   4  -9  -5    7.41    4.61   0
   4  -9  -5    9.33    4.69   0
  -4   9   5   16.21    4.53   0
   4  -9  -5   16.79    4.83   0
   3  -9  -5   94.55    5.87   0
  -3   9   5  133.39    4.82   0
   3  -9  -5  105.76    5.14   0
   3  -9  -5  128.00    4.90   0
   2  -9  -5   11.11    4.04   0
   2  -9  -5   12.61    4.20   0
  -2   9   5   11.67    3.97   0
   2  -9  -5   13.15    2.85   0
  -1   9   5   27.60    3.85   0
   1  -9  -5   20.46    4.99   0
   1  -9  -5   25.36    4.08   0
   1  -9  -5   26.20    3.86   0
   0  -9  -5   -1.35    3.72   0
   0  -9  -5    5.13    3.95   0
   0  -9  -5    0.49    4.56   0
   0   9   5    3.38    3.54   0
  -1  -9  -5  349.60    5.70   0
   1   9   5  343.09    4.91   0
  -1  -9  -5  332.63    5.10   0
  -1  -9  -5  314.17    5.77   0
  -2  -9  -5   20.65    3.85   0
   2   9   5   25.12    3.87   0
  -2  -9  -5   18.42    3.75   0
   2   9   5   15.74    2.59   0
   3   9   5   40.46    3.70   0
  -3  -9  -5   39.68    3.79   0
  -3  -9  -5   34.64    3.99   0
   3   9   5   38.90    4.68   0
  -4  -9  -5   23.12    3.59   0
   4   9   5   21.80    3.78   0
   4   9   5   24.15    4.07   0
  -4  -9  -5   20.62    3.97   0
  -5  -9  -5    2.69    3.80   0
  -5  -9  -5    1.34    3.73   0
   5   9   5    1.93    3.76   0
   5   9   5    0.93    3.73   0
  -6  -9  -5   11.28    4.12   0
   6   9   5    8.18    4.14   0
   6   9   5   10.12    4.06   0
  -6  -9  -5   11.02    3.93   0
  -7  -9  -5    2.73    4.18   0
  -7  -9  -5    3.14    4.20   0
   7   9   5   -1.43    4.37   0
   7   9   5   -1.64    4.14   0
   2 -10  -5    1.66    3.03   0
   2 -10  -5    3.75    5.18   0
   2 -10  -5    2.76    5.30   0
  -2  10   5   -0.16    2.98   0
   1 -10  -5  120.93    5.91   0
  -1  10   5  139.11    4.34   0
   1 -10  -5  137.56    5.03   0
   1 -10  -5  140.69    3.65   0
   0 -10  -5   11.58    3.92   0
   0 -10  -5   16.44    4.24   0
   0 -10  -5   13.20    5.03   0
   0  10   5   22.07    3.97   0
  -1 -10  -5  247.27    4.83   0
  -1 -10  -5  229.81    5.62   0
  -1 -10  -5  240.57    5.25   0
   1  10   5  235.30    3.89   0
   2  10   5   13.34    3.90   0
  -2 -10  -5   13.54    4.22   0
  -2 -10  -5   16.45    3.71   0
  -2 -10  -5   15.84    3.90   0
   3  10   5   13.27    3.75   0
  -3 -10  -5    7.10    2.83   0
   3  10   5   10.11    3.99   0
  -3 -10  -5   11.24    4.73   0
   4  10   5   47.67    4.20   0
  -4 -10  -5   49.75    4.18   0
   4  10   5   47.49    4.13   0
  -4 -10  -5   51.96    4.11   0
  -5 -10  -5   79.16    4.43   0
   5  10   5   81.75    4.37   0
   5  10   5   74.68    4.45   0
  -5 -10  -5   76.40    4.40   0
   6  10   5    5.25    4.32   0
  -6 -10  -5    4.66    4.19   0
   6  10   5    5.62    4.24   0
  -6 -10  -5    0.21    4.12   0
   7  10   5    6.61    4.37   0
   7  10   5   10.52    5.41   0
  -7 -10  -5   10.19    4.46   0
  -7 -10  -5   13.64    4.25   0
   1 -11  -5  117.16    5.37   0
   1 -11  -5  127.88    5.34   0
  -1  11   5  131.10    4.64   0
   1 -11  -5  134.75    5.06   0
   0 -11  -5  111.21    4.78   0
   0 -11  -5  102.98    5.16   0
   0 -11  -5  120.17    5.11   0
   0  11   5  127.22    4.69   0
   1  11   5    4.06    3.94   0
  -1 -11  -5    1.85    2.87   0
  -1 -11  -5    2.05    4.11   0
  -1 -11  -5    1.39    4.31   0
  -2 -11  -5    5.75    4.43   0
  -2 -11  -5   11.08    4.06   0
   2  11   5   10.80    2.69   0
  -2 -11  -5    8.05    4.18   0
  -3 -11  -5  327.47    5.57   0
   3  11   5  323.99    5.60   0
  -3 -11  -5  378.66    6.04   0
  -4 -11  -5   47.03    3.41   0
   4  11   5   61.21    4.43   0
  -4 -11  -5   54.86    5.30   0
   4  11   5   61.40    4.48   0
  -5 -11  -5   18.89    4.02   0
   5  11   5   14.87    4.39   0
   5  11   5   17.99    4.27   0
  -5 -11  -5   13.29    4.33   0
   6  11   5    4.85    4.37   0
  -6 -11  -5    5.19    4.44   0
   6  11   5    5.42    4.30   0
  -6 -11  -5    5.77    4.24   0
   1  12   5    6.58    4.21   0
  -1 -12  -5    0.37    4.19   0
  -1 -12  -5   -0.23    4.62   0
  -1 -12  -5    1.39    5.39   0
  -2 -12  -5   12.15    4.36   0
   2  12   5   12.47    4.13   0
  -2 -12  -5    7.40    4.70   0
  -2 -12  -5    9.73    4.34   0
  -3 -12  -5   14.67    4.32   0
   3  12   5   11.79    4.29   0
  -3 -12  -5    8.61    4.70   0
  -3 -12  -5    3.57    4.40   0
  -4 -12  -5   18.15    4.53   0
   4  12   5   24.15    4.73   0
  -4 -12  -5   29.06    4.58   0
   4  12   5   28.45    4.60   0
  -5  -9   6    5.07    4.21   0
   5   9  -6    5.84    4.25   0
   5   9  -6    3.16    4.45   0
  -5  -9   6    0.48    4.57   0
   4   9  -6    4.95    4.29   0
  -4  -9   6    4.77    4.39   0
   4   9  -6    5.61    4.00   0
  -4  -9   6    2.31    4.19   0
   3   9  -6   52.63    4.54   0
  -3  -9   6   47.06    4.76   0
  -3  -9   6   57.46    4.77   0
  -3  -9   6   47.01    4.57   0
  -2  -9   6   -1.65    4.40   0
  -2  -9   6    2.13    4.52   0
  -2  -9   6    7.23    4.29   0
   2   9  -6    3.12    3.98   0
  -1  -9   6    5.19    4.34   0
   1   9  -6   19.50    4.20   0
  -1  -9   6    6.58    4.49   0
  -1  -9   6   19.51    4.55   0
   0   9  -6    4.76    4.19   0
   0  -9   6    1.26    3.25   0
   0  -9   6    2.79    4.49   0
   0  -9   6    0.91    4.65   0
  -6  -8   6   30.36    3.17   0
   6   8  -6   33.52    3.21   0
  -6  -8   6   38.86    4.62   0
   5   8  -6    4.71    2.95   0
  -5  -8   6   -3.86    4.03   0
  -5  -8   6    6.04    4.12   0
   5   8  -6    3.66    3.94   0
   4   8  -6    9.67    3.86   0
  -4  -8   6   14.53    3.98   0
   4   8  -6   11.49    4.22   0
  -4  -8   6   15.11    4.39   0
   3   8  -6   66.57    3.20   0
  -3  -8   6   62.98    4.52   0
  -3  -8   6   69.32    4.42   0
  -2  -8   6  267.45    5.48   0
  -2  -8   6  272.18    4.68   0
  -2  -8   6  306.15    5.80   0
   2   8  -6  307.44    5.40   0
  -1  -8   6    5.83    4.03   0
  -1  -8   6   -1.88    4.18   0
   1   8  -6    1.59    3.78   0
  -1  -8   6   -0.09    4.32   0
   0   8  -6    9.68    4.01   0
   0  -8   6    4.26    4.37   0
   0  -8   6   11.78    4.44   0
   0  -8   6    9.43    4.32   0
  -1   8  -6  137.08    4.90   0
   1  -8   6  112.67    5.24   0
   1  -8   6  119.34    5.21   0
   1  -8   6  130.90    5.39   0
  -7  -7   6   14.23    4.22   0
   7   7  -6   11.03    4.39   0
  -7  -7   6   12.23    4.53   0
  -6  -7   6    5.44    4.06   0
   6   7  -6    9.02    4.18   0
  -6  -7   6    8.69    4.23   0
  -5  -7   6   43.02    4.10   0
   5   7  -6   53.88    4.26   0
  -5  -7   6   47.70    4.25   0
  -4  -7   6   13.61    2.61   0
   4   7  -6   13.62    3.60   0
   4   7  -6   15.17    3.89   0
  -4  -7   6    9.03    3.94   0
  -3  -7   6  112.49    4.27   0
   3   7  -6  112.97    4.27   0
   3   7  -6  135.84    4.40   0
  -3  -7   6  115.20    4.45   0
  -2  -7   6   75.19    4.30   0
  -2  -7   6   66.38    4.35   0
   2   7  -6   68.45    3.91   0
  -2  -7   6   56.33    4.13   0
  -1  -7   6    3.90    2.65   0
  -1  -7   6   -5.66    3.95   0
  -1  -7   6   -0.70    3.90   0
   1   7  -6    2.12    3.67   0
   0   7  -6   98.05    4.18   0
   0  -7   6   96.43    4.44   0
   0  -7   6   91.76    4.53   0
   0  -7   6   86.94    4.50   0
  -1   7  -6    3.18    3.78   0
   1  -7   6    9.74    4.15   0
   1  -7   6    0.80    2.96   0
   1  -7   6    4.51    4.04   0
  -2   7  -6  110.21    5.54   0
   2  -7   6   98.93    6.03   0
   2  -7   6   97.74    3.82   0
   2  -7   6   98.42    4.84   0
   3  -7   6    2.29    4.62   0
   3  -7   6   -0.79    4.56   0
   3  -7   6    3.77    4.55   0
  -3   7  -6   -1.22    4.23   0
   7   6  -6   10.73    4.33   0
  -7  -6   6   15.19    4.18   0
  -7  -6   6   11.68    4.18   0
   6   6  -6   24.98    4.19   0
  -6  -6   6   16.10    3.96   0
  -6  -6   6   19.63    4.23   0
  -5  -6   6   41.17    3.88   0
   5   6  -6   41.43    3.93   0
  -5  -6   6   38.84    4.03   0
   4   6  -6  116.77    4.14   0
   4   6  -6  132.06    4.15   0
  -4  -6   6  107.50    4.26   0
  -4  -6   6  117.93    4.42   0
  -3  -6   6    1.36    3.44   0
   3   6  -6    4.79    3.83   0
  -3  -6   6    4.02    3.94   0
   3   6  -6    6.01    3.45   0
  -2  -6   6   34.35    2.83   0
   2   6  -6   36.97    3.73   0
  -2  -6   6   37.15    3.97   0
  -1  -6   6   42.34    3.19   0
  -1  -6   6   44.79    4.07   0
   1   6  -6   43.06    3.77   0
  -1  -6   6   43.17    3.82   0
   0   6  -6  116.04    4.17   0
   0  -6   6  113.02    4.35   0
   0  -6   6  114.74    4.29   0
   0  -6   6  103.61    4.26   0
  -1   6  -6   -0.08    3.62   0
   1  -6   6    5.23    3.98   0
   1  -6   6    3.05    3.87   0
   1  -6   6    0.34    3.91   0
  -2   6  -6   35.71    3.94   0
   2  -6   6   36.44    4.16   0
   2  -6   6   35.31    5.09   0
   2  -6   6   38.90    3.01   0
   3  -6   6   27.07    4.71   0
   3  -6   6   25.86    4.34   0
   3  -6   6   23.16    4.51   0
  -3   6  -6   24.58    4.40   0
   4  -6   6   25.29    4.55   0
   4  -6   6   28.47    4.66   0
  -4   6  -6   33.71    5.47   0
   4  -6   6   23.88    5.24   0
   7   5  -6   10.40    4.09   0
  -7  -5   6    3.81    3.88   0
  -7  -5   6    2.86    3.00   0
   6   5  -6   48.47    4.13   0
  -6  -5   6   39.75    3.97   0
  -6  -5   6   48.84    4.30   0
   5   5  -6   29.90    3.71   0
  -5  -5   6   22.60    3.74   0
  -5  -5   6   23.05    3.94   0
  -4  -5   6  171.83    3.64   0
   4   5  -6  201.08    4.59   0
  -4  -5   6  180.75    4.53   0
   3   5  -6    7.35    3.61   0
  -3  -5   6    6.22    3.41   0
   3   5  -6    8.94    2.39   0
  -3  -5   6   13.44    3.66   0
  -2  -5   6   18.62    3.55   0
   2   5  -6   18.59    2.64   0
  -2  -5   6   22.04    3.86   0
   2   5  -6   20.59    3.63   0
  -1  -5   6   91.92    4.22   0
  -1  -5   6   98.30    4.16   0
  -1  -5   6   97.20    4.37   0
   1   5  -6   98.74    4.10   0
   0   5  -6  295.57    4.90   0
   0  -5   6  289.78    5.06   0
   0  -5   6  312.19    5.34   0
   0  -5   6  265.53    4.95   0
  -1   5  -6   84.40    3.93   0
   1  -5   6   75.13    4.30   0
   1  -5   6   83.13    4.17   0
   1  -5   6   81.81    4.95   0
  -2   5  -6  166.80    4.72   0
   2  -5   6  145.47    4.48   0
   2  -5   6  164.67    5.66   0
   2  -5   6  167.52    4.64   0
   3  -5   6  105.90    6.07   0
   3  -5   6  113.43    4.47   0
  -3   5  -6  109.27    4.76   0
  -4   5  -6   72.37    5.43   0
   4  -5   6   61.77    3.28   0
  -4   5  -6   52.67    4.43   0
   4  -5   6   78.21    6.02   0
   5  -5   6   -1.73    4.72   0
   5  -5   6    2.46    5.72   0
  -5   5  -6    3.30    5.34   0
  -5   5  -6   -2.54    4.69   0
  -8  -4   6   18.92    4.35   0
  -8  -4   6   14.32    4.36   0
   8   4  -6   25.48    4.55   0
  -7  -4   6   -1.85    4.04   0
   7   4  -6   -2.01    4.11   0
  -7  -4   6    6.06    4.18   0
  -6  -4   6  141.58    4.33   0
   6   4  -6  177.87    4.62   0
  -6  -4   6  148.65    4.82   0
  -5  -4   6   23.67    3.56   0
   5   4  -6   28.04    3.87   0
  -5  -4   6   22.24    2.83   0
  -4  -4   6  130.07    3.99   0
   4   4  -6  147.63    4.31   0
  -4  -4   6  142.55    4.38   0
   3   4  -6    7.85    3.37   0
  -3  -4   6   11.42    3.97   0
  -3  -4   6    7.16    3.34   0
   2   4  -6  171.28    4.66   0
   2   4  -6  165.75    4.28   0
  -2  -4   6  169.08    4.33   0
  -2  -4   6  149.19    3.80   0
   1   4  -6  462.08    5.69   0
  -1  -4   6  446.46    5.64   0
  -1  -4   6  430.54    5.71   0
  -1  -4   6  429.22    5.03   0
   0  -4   6    5.97    3.49   0
   0  -4   6    7.00    2.63   0
   0   4  -6    8.38    3.39   0
   0  -4   6    9.25    4.19   0
   1  -4   6  332.45    5.54   0
  -1   4  -6  325.19    5.55   0
   1  -4   6  317.56    5.22   0
   1  -4   6  277.45    5.32   0
  -2   4  -6  112.41    4.45   0
   2  -4   6  125.82    4.35   0
   2  -4   6  121.18    4.27   0
   2  -4   6  103.26    4.66   0
  -3   4  -6   62.29    4.06   0
   3  -4   6   68.77    5.55   0
   3  -4   6   61.34    3.01   0
  -3   4  -6   71.40    4.87   0
   4  -4   6  164.83    3.78   0
  -4   4  -6  165.95    4.92   0
  -4   4  -6  200.59    6.02   0
   4  -4   6  180.24    6.71   0
   5  -4   6    7.80    4.17   0
   5  -4   6    1.73    5.38   0
  -5   4  -6    4.09    4.28   0
  -5   4  -6    6.25    5.85   0
  -8  -3   6   31.06    4.44   0
  -8  -3   6   38.63    4.66   0
  -8  -3   6   38.07    3.37   0
   8   3  -6   46.33    4.64   0
  -7  -3   6   34.33    4.15   0
  -7  -3   6   32.78    3.96   0
   7   3  -6   37.13    4.18   0
  -6  -3   6    3.92    2.56   0
   6   3  -6    6.49    3.78   0
  -6  -3   6    5.53    3.72   0
  -5  -3   6    2.48    3.48   0
   5   3  -6   -0.72    2.63   0
  -5  -3   6    3.88    3.81   0
  -4  -3   6    2.40    2.40   0
   4   3  -6    5.89    3.79   0
  -4  -3   6   -0.72    3.80   0
  -3  -3   6   16.33    3.30   0
   3   3  -6   17.56    3.77   0
  -3  -3   6   15.18    3.76   0
   2   3  -6 1305.10    8.19   0
   2   3  -6 1336.77    8.46   0
  -2  -3   6 1259.45    8.40   0
  -2  -3   6 1279.07    7.92   0
   1   3  -6   24.77    3.39   0
  -1  -3   6   25.82    3.58   0
  -1  -3   6   31.09    3.90   0
   0   3  -6  161.35    4.42   0
   0  -3   6  153.48    4.55   0
   0  -3   6  159.80    4.32   0
   0  -3   6  175.06    4.59   0
   1  -3   6    8.61    3.73   0
   1  -3   6   10.70    3.89   0
  -1   3  -6    6.25    3.42   0
   1  -3   6    5.58    3.51   0
   2  -3   6   74.00    5.18   0
  -2   3  -6   72.12    3.90   0
   2  -3   6   65.53    3.23   0
  -2   3  -6   68.61    4.24   0
  -3   3  -6  764.98    8.76   0
   3  -3   6  706.23    9.17   0
   3  -3   6  718.18    6.30   0
  -3   3  -6  724.95    6.45   0
   4  -3   6   38.14    3.95   0
   4  -3   6   34.34    5.21   0
  -4   3  -6   36.43    4.92   0
  -4   3  -6   37.69    3.93   0
   5  -3   6  197.64    5.01   0
  -5   3  -6  188.04    5.23   0
   5  -3   6  208.70    7.95   0
  -5   3  -6  220.64    7.72   0
   6  -3   6    1.14    4.14   0
  -6   3  -6    1.83    6.72   0
  -6   3  -6    2.41    4.16   0
  -8  -2   6    8.14    4.41   0
  -8  -2   6   16.60    4.25   0
  -8  -2   6    9.94    4.31   0
   8   2  -6   20.98    4.41   0
  -7  -2   6   31.67    4.10   0
  -7  -2   6   25.29    3.88   0
  -7  -2   6   21.76    4.08   0
   7   2  -6   30.93    3.99   0
   6   2  -6  164.65    4.47   0
  -6  -2   6  155.04    4.43   0
  -6  -2   6  156.00    4.53   0
  -5  -2   6  185.08    3.55   0
   5   2  -6  192.72    4.72   0
  -5  -2   6  161.10    4.47   0
  -4  -2   6  688.35    6.05   0
   4   2  -6  677.58    6.42   0
  -4  -2   6  673.76    6.38   0
   3   2  -6  583.97    6.28   0
  -3  -2   6  547.96    6.30   0
  -3  -2   6  568.55    5.21   0
   2   2  -6   16.64    3.77   0
  -2  -2   6   11.92    3.36   0
  -2  -2   6   13.44    3.86   0
  -1  -2   6   14.86    3.56   0
   1   2  -6   16.91    3.96   0
  -1  -2   6   16.33    4.05   0
   0   2  -6  800.19    7.58   0
   0  -2   6  700.94    6.48   0
   0  -2   6  789.01    7.47   0
   0  -2   6  801.58    7.59   0
   1  -2   6 1745.86   11.58   0
  -1   2  -6 1825.64   11.33   0
   1  -2   6 1777.24    9.77   0
   1  -2   6 1758.62    9.44   0
   2  -2   6  640.29    6.22   0
   2  -2   6  613.55    8.70   0
  -2   2  -6  657.48    6.35   0
  -2   2  -6  655.15    8.42   0
   3  -2   6  213.50    6.94   0
   3  -2   6  235.27    4.86   0
  -3   2  -6  232.07    6.50   0
  -3   2  -6  221.95    4.66   0
   4  -2   6  166.27    3.64   0
  -4   2  -6  189.82    6.93   0
  -4   2  -6  166.22    4.61   0
   4  -2   6  181.44    7.16   0
   5  -2   6  319.03    5.13   0
  -5   2  -6  328.95    9.98   0
  -5   2  -6  281.17    5.32   0
   6  -2   6   72.41    4.60   0
  -6   2  -6   54.41    4.58   0
  -8  -1   6    4.67    4.34   0
  -8  -1   6    6.33    4.16   0
   8   1  -6    6.22    2.94   0
  -8  -1   6    3.43    4.29   0
  -7  -1   6   -0.11    3.92   0
  -7  -1   6    2.04    2.79   0
   7   1  -6    7.10    3.93   0
  -7  -1   6    4.75    3.78   0
  -6  -1   6   10.51    3.76   0
  -6  -1   6    7.64    3.71   0
  -6  -1   6    8.07    3.74   0
   6   1  -6    9.56    3.88   0
  -5  -1   6   15.73    3.37   0
   5   1  -6   14.94    3.75   0
  -5  -1   6   15.08    3.78   0
  -4  -1   6   17.69    3.48   0
   4   1  -6    9.48    3.70   0
  -4  -1   6   16.22    3.80   0
  -3  -1   6  147.13    3.99   0
   3   1  -6  140.61    4.61   0
  -3  -1   6  133.83    4.58   0
  -2  -1   6 1531.64    8.70   0
  -2  -1   6 1446.80    9.74   0
   2   1  -6 1503.90    9.84   0
   1   1  -6   17.79    4.04   0
  -1  -1   6   17.86    3.85   0
  -1  -1   6   19.36    3.54   0
   0  -1   6  556.94    6.71   0
   0  -1   6  557.62    6.80   0
   0  -1   6  593.72    7.08   0
   1  -1   6  492.43    6.28   0
   1  -1   6  495.39    7.51   0
  -2   1  -6  673.03   10.13   0
  -2   1  -6  655.71    6.65   0
   2  -1   6  676.07    6.66   0
   2  -1   6  628.78    9.74   0
   3  -1   6  318.99    9.10   0
   3  -1   6  348.45    5.33   0
  -3   1  -6  364.90    5.37   0
  -3   1  -6  350.17    8.97   0
   4  -1   6    9.30    3.64   0
  -4   1  -6    7.42    7.19   0
  -4   1  -6    4.86    3.62   0
   5  -1   6 1266.20    7.83   0
  -5   1  -6 1221.79    7.79   0
   6  -1   6   37.22    4.23   0
  -6   1  -6   29.93    3.06   0
   7  -1   6    6.43    4.26   0
  -7   1  -6   -0.29    4.10   0
  -8   0   6    6.47    4.37   0
  -8   0   6    2.76    4.38   0
   8   0  -6   10.14    4.54   0
  -8   0   6    8.52    4.35   0
  -7   0   6    0.12    3.86   0
  -7   0   6    3.15    3.93   0
  -7   0   6    0.75    4.00   0
   7   0  -6    2.73    3.83   0
  -6   0   6  206.26    4.74   0
  -6   0   6  173.20    3.99   0
   6   0  -6  211.01    4.61   0
  -5   0   6    1.00    3.44   0
  -5   0   6    1.90    3.52   0
   5   0  -6    1.97    3.58   0
  -4   0   6  443.46    5.51   0
   4   0  -6  456.39    5.84   0
  -4   0   6  451.44    5.90   0
   3   0  -6  136.97    4.43   0
  -3   0   6  118.95    4.30   0
   2   0  -6 1152.63    9.71   0
  -2   0   6 1076.63    9.17   0
   1   0  -6   12.30    4.76   0
  -1   0   6   10.34    3.80   0
   0   0   6    6.81    4.72   0
   0   0   6    8.16    4.00   0
   0   0   6   12.71    3.43   0
   1   0   6 1087.49   10.84   0
   1   0   6 1059.70    8.92   0
  -1   0  -6 1136.88    9.79   0
   2   0   6  104.54    4.28   0
  -2   0  -6   91.48    4.30   0
   2   0   6   99.95    7.21   0
   3   0   6  332.42    5.26   0
  -3   0  -6  351.57    5.31   0
   4   0   6  237.79    4.86   0
  -4   0  -6  232.53    4.90   0
   5   0   6    8.34    3.65   0
  -5   0  -6    4.20    3.51   0
   6   0   6  305.04    4.52   0
  -6   0  -6  314.15    5.26   0
  -7   0  -6  291.86    6.01   0
   7   0   6  316.96    5.11   0
  -8   1   6    9.44    4.60   0
  -8   1   6    6.00    4.53   0
   8  -1  -6    5.70    4.33   0
  -8   1   6    2.98    4.48   0
  -7   1   6    8.16    3.94   0
   7  -1  -6   10.88    2.90   0
  -7   1   6    8.32    4.09   0
  -6   1   6   22.29    3.84   0
  -6   1   6   18.45    3.95   0
   6  -1  -6   25.10    3.84   0
  -5   1   6  394.81    5.51   0
  -5   1   6  395.93    5.21   0
   5  -1  -6  412.70    5.58   0
  -4   1   6  698.69    6.88   0
  -4   1   6  671.79    5.50   0
   4  -1  -6  734.62    7.43   0
  -3   1   6    1.05    3.37   0
  -3   1   6    2.71    2.41   0
   3  -1  -6    3.27    3.45   0
  -2   1   6  344.61    5.19   0
   2  -1  -6  357.71    6.82   0
  -2   1   6  341.60    6.44   0
   1  -1  -6 1613.27   14.04   0
  -1   1   6 1709.11    9.96   0
  -1   1   6 1631.76   14.16   0
   0   1   6  995.29   11.33   0
   0   1   6 1079.58    9.06   0
   0   1   6 1044.98   12.03   0
   1   1   6  236.83    5.61   0
  -1  -1  -6  236.71    5.88   0
   1   1   6  234.85    5.87   0
   2   1   6  846.42    7.79   0
  -2  -1  -6  858.05    8.16   0
   2   1   6  830.56   15.22   0
   2   1   6  802.10   15.21   0
   3   1   6   89.85    4.18   0
  -3  -1  -6   91.87    4.23   0
   4   1   6   13.96    3.63   0
  -4  -1  -6   10.97    3.79   0
   5   1   6  190.07    4.44   0
  -5  -1  -6  176.26    4.42   0
   6   1   6   26.52    3.84   0
  -6  -1  -6   25.33    3.83   0
  -7  -1  -6   85.86    4.71   0
   7   1   6   96.94    4.72   0
  -7   2   6   81.43    4.68   0
   7  -2  -6   82.56    4.63   0
  -7   2   6   62.27    4.60   0
  -6   2   6  324.31    5.40   0
   6  -2  -6  325.81    5.44   0
  -6   2   6  336.56    5.41   0
  -5   2   6   -1.05    3.55   0
   5  -2  -6   -3.51    3.74   0
  -5   2   6   -2.75    3.59   0
  -4   2   6    4.37    3.50   0
   4  -2  -6    1.10    4.64   0
  -4   2   6   -0.37    2.47   0
  -3   2   6   11.83    3.38   0
  -3   2   6    9.06    2.56   0
   3  -2  -6    9.00    3.48   0
  -2   2   6 3993.73   19.72   0
   2  -2  -6 3907.83   19.19   0
  -2   2   6 4080.26   13.18   0
  -1   2   6    6.38    5.71   0
   1  -2  -6    6.17    5.27   0
  -1   2   6    7.92    3.60   0
   0   2   6  127.27    7.99   0
   0   2   6  130.45    8.62   0
   0   2   6  131.42    4.62   0
   1   2   6   59.66    5.01   0
  -1  -2  -6   59.94    5.31   0
   1   2   6   60.64    4.38   0
   2   2   6    2.79    4.35   0
  -2  -2  -6    2.05    3.59   0
   2   2   6    0.15    5.22   0
   3   2   6  227.95    4.95   0
  -3  -2  -6  231.03    5.05   0
   4   2   6 1151.47    7.95   0
  -4  -2  -6 1152.04    8.03   0
  -5  -2  -6    5.20    3.67   0
   5   2   6    2.07    3.82   0
  -6  -2  -6  122.06    4.33   0
   6   2   6  130.77    4.54   0
  -7  -2  -6   16.61    3.97   0
   7   2   6   16.58    4.02   0
  -8  -2  -6  116.68    5.18   0
   8   2   6  110.91    5.36   0
  -7   3   6    7.36    3.10   0
  -7   3   6   10.10    4.27   0
   7  -3  -6   11.24    4.21   0
  -6   3   6   57.60    4.19   0
   6  -3  -6   56.27    4.18   0
  -6   3   6   56.23    4.21   0
  -5   3   6    1.94    3.70   0
   5  -3  -6   -2.65    3.90   0
  -5   3   6    3.19    3.71   0
  -4   3   6   40.65    4.02   0
   4  -3  -6   45.58    4.05   0
  -4   3   6   45.85    3.73   0
  -3   3   6  538.71    5.97   0
  -3   3   6  533.39    7.24   0
   3  -3  -6  543.17    7.44   0
  -2   3   6 1151.71   11.53   0
   2  -3  -6 1206.90    7.81   0
   2  -3  -6 1183.10   11.60   0
  -2   3   6 1192.16    7.67   0
  -1   3   6  588.75   14.28   0
   1  -3  -6  626.08    6.45   0
   1  -3  -6  613.12   14.30   0
  -1   3   6  640.53    6.40   0
   0   3   6   36.80    4.07   0
   0  -3  -6   36.69    3.99   0
   1   3   6    1.43    3.76   0
  -1  -3  -6    0.63    5.06   0
  -1  -3  -6    2.48    4.49   0
   1   3   6    2.28    5.12   0
  -2  -3  -6  239.95    6.23   0
   2   3   6  244.54    6.71   0
  -2  -3  -6  240.37    6.44   0
   2   3   6  241.60    5.68   0
  -3  -3  -6   28.79    3.73   0
   3   3   6   28.47    6.23   0
  -3  -3  -6   29.61    5.61   0
   3   3   6   31.41    3.92   0
  -4  -3  -6  247.75    4.93   0
   4   3   6  238.81    4.88   0
  -5  -3  -6  598.55    6.16   0
   5   3   6  613.12    6.27   0
  -6  -3  -6    2.23    3.74   0
   6   3   6   -0.60    2.81   0
  -7  -3  -6    1.18    2.71   0
   7   3   6   -0.88    3.91   0
  -8  -3  -6    2.75    4.31   0
   8   3   6    4.98    4.36   0
  -7   4   6   31.54    4.68   0
  -7   4   6   27.71    4.76   0
   7  -4  -6   25.45    4.62   0
  -6   4   6   77.23    4.52   0
  -6   4   6   67.14    4.49   0
   6  -4  -6   74.36    4.54   0
  -5   4   6   34.43    3.92   0
  -5   4   6   35.31    3.89   0
   5  -4  -6   38.41    4.77   0
  -4   4   6  102.05    4.17   0
  -4   4   6  107.94    4.40   0
   4  -4  -6  102.95    5.28   0
  -3   4   6  124.99    4.11   0
  -3   4   6  120.81    4.42   0
   3  -4  -6  110.52    4.15   0
   3  -4  -6  113.09    5.12   0
  -2   4   6  795.66    6.59   0
  -2   4   6  769.95    9.54   0
   2  -4  -6  812.38    6.71   0
   2  -4  -6  790.88    9.54   0
  -1   4   6    6.00    2.57   0
   1  -4  -6    9.35    3.52   0
   1  -4  -6    9.72    5.91   0
   0   4   6 2934.23   12.34   0
   0  -4  -6 2994.35   12.70   0
  -1  -4  -6  340.18    9.43   0
   1   4   6  358.32    5.85   0
   1   4   6  336.54    9.88   0
  -1  -4  -6  359.10    5.89   0
   2   4   6 1528.07   11.16   0
  -2  -4  -6 1524.59   12.29   0
   2   4   6 1457.21   11.61   0
  -2  -4  -6 1579.95   11.57   0
  -3  -4  -6   15.28    4.67   0
  -3  -4  -6   14.73    4.14   0
   3   4   6   13.68    4.59   0
   3   4   6   14.13    3.53   0
  -4  -4  -6  135.82    4.31   0
  -4  -4  -6  139.19    6.64   0
   4   4   6  141.79    6.01   0
   4   4   6  129.24    4.34   0
  -5  -4  -6   21.66    3.66   0
  -5  -4  -6   21.99    6.28   0
   5   4   6   25.56    3.64   0
  -6  -4  -6  251.54    4.98   0
  -6  -4  -6  232.78   14.27   0
   6   4   6  256.13    4.72   0
  -7  -4  -6    2.74    3.91   0
   7   4   6    3.60    3.88   0
  -8  -4  -6   25.84    4.37   0
   8   4   6   24.90    4.54   0
  -6   5   6    1.24    4.10   0
  -6   5   6    2.74    4.12   0
   6  -5  -6    0.86    4.05   0
  -5   5   6    0.80    3.77   0
  -5   5   6    3.47    4.03   0
   5  -5  -6    6.31    4.85   0
  -4   5   6  161.00    4.28   0
  -4   5   6  147.98    4.73   0
   4  -5  -6  160.13    4.50   0
   4  -5  -6  154.95    4.59   0
   3  -5  -6  240.62    5.42   0
  -3   5   6  244.90    3.96   0
  -3   5   6  243.31    5.14   0
   3  -5  -6  238.74    4.02   0
   2  -5  -6    0.17    3.55   0
  -2   5   6    5.16    3.82   0
  -2   5   6    1.10    4.59   0
   2  -5  -6    4.25    3.64   0
   1  -5  -6    0.28    4.61   0
  -1   5   6    2.83    3.44   0
   1  -5  -6    0.18    5.75   0
   1  -5  -6   -0.80    3.39   0
   0   5   6 1333.00    7.98   0
   0  -5  -6 1381.96   16.66   0
   0  -5  -6 1340.90   15.74   0
   0  -5  -6 1366.29    8.52   0
   1   5   6  682.84    6.95   0
   1   5   6  651.64   11.20   0
  -1  -5  -6  677.91   10.87   0
  -1  -5  -6  696.80    6.92   0
  -2  -5  -6 1835.68   13.33   0
  -2  -5  -6 1931.30   10.91   0
   2   5   6 1888.60   10.98   0
   2   5   6 1796.65   13.22   0
  -3  -5  -6  626.63    7.12   0
   3   5   6  661.94    7.63   0
  -3  -5  -6  661.68    8.08   0
   3   5   6  618.74    7.02   0
  -4  -5  -6  431.98    6.00   0
  -4  -5  -6  433.01    7.42   0
   4   5   6  434.57    6.03   0
   4   5   6  431.66    7.51   0
   5   5   6   23.23    4.57   0
  -5  -5  -6   25.77    3.68   0
  -5  -5  -6   21.62    5.46   0
   5   5   6   24.15    3.67   0
  -6  -5  -6    6.21    3.56   0
  -6  -5  -6    8.34    5.30   0
   6   5   6   12.19    3.72   0
  -7  -5  -6  103.73    4.53   0
  -7  -5  -6  102.04    7.87   0
  -7  -5  -6  114.07    7.83   0
   7   5   6  117.85    4.67   0
  -8  -5  -6   15.16    3.12   0
   8   5   6   19.23    4.40   0
  -6   6   6   19.57    4.59   0
  -6   6   6   12.53    4.56   0
   6  -6  -6   15.34    4.50   0
  -5   6   6   -1.72    4.13   0
  -5   6   6    0.45    4.20   0
   5  -6  -6    7.00    4.05   0
   5  -6  -6    1.83    4.09   0
   4  -6  -6    3.44    3.76   0
  -4   6   6   -0.06    3.67   0
  -4   6   6    3.33    3.86   0
   4  -6  -6    0.36    3.78   0
   3  -6  -6   20.30    3.85   0
  -3   6   6   21.71    3.83   0
   3  -6  -6   23.64    3.68   0
  -3   6   6   17.44    3.83   0
   2  -6  -6 1415.05   11.21   0
  -2   6   6 1504.56    8.11   0
   2  -6  -6 1500.70    8.09   0
   1  -6  -6  238.28    5.73   0
  -1   6   6  243.46    4.88   0
   1  -6  -6  256.74    6.56   0
   1  -6  -6  241.99    4.77   0
   0  -6  -6  272.72    7.66   0
   0   6   6  265.24    4.83   0
   0  -6  -6  278.93    7.07   0
   0  -6  -6  256.40    4.06   0
  -1  -6  -6  283.94    5.11   0
   1   6   6  286.75    5.14   0
  -1  -6  -6  283.84    6.93   0
  -2  -6  -6  153.58    4.50   0
   2   6   6  146.07    5.66   0
   2   6   6  146.38    5.23   0
  -2  -6  -6  154.67    5.54   0
   3   6   6    1.83    3.66   0
  -3  -6  -6    3.03    3.67   0
   3   6   6    1.55    3.69   0
  -3  -6  -6   -1.44    4.51   0
  -4  -6  -6  520.92    6.10   0
  -4  -6  -6  527.79    7.22   0
   4   6   6  539.80    7.09   0
   4   6   6  527.78    6.45   0
  -5  -6  -6  209.30    4.61   0
  -5  -6  -6  220.29    6.00   0
   5   6   6  204.29    4.68   0
   5   6   6  211.72    6.00   0
  -6  -6  -6   81.44    4.42   0
  -6  -6  -6   72.91    5.52   0
   6   6   6   75.05    4.13   0
  -7  -6  -6    4.91    3.85   0
  -7  -6  -6    6.32    5.72   0
   7   6   6    5.21    3.92   0
  -8  -6  -6    7.54    4.19   0
  -8  -6  -6    6.43    6.39   0
  -8  -6  -6    5.19    6.14   0
   8   6   6    9.60    4.31   0
   5  -7  -6   75.21    5.09   0
  -5   7   6   97.65    4.67   0
  -5   7   6   82.43    6.12   0
   5  -7  -6   83.06    3.89   0
   4  -7  -6   -0.45    4.93   0
  -4   7   6    0.89    2.82   0
  -4   7   6    5.16    4.99   0
   4  -7  -6    6.78    3.91   0
   3  -7  -6   17.20    4.52   0
  -3   7   6   18.01    3.89   0
  -3   7   6   16.35    3.98   0
   3  -7  -6   18.95    3.71   0
   2  -7  -6   31.72    3.84   0
  -2   7   6   35.15    3.93   0
   2  -7  -6   38.92    4.90   0
   2  -7  -6   37.66    3.81   0
   1  -7  -6  160.65    5.43   0
  -1   7   6  164.61    4.36   0
   1  -7  -6  164.06    5.12   0
   1  -7  -6  170.59    4.44   0
   0  -7  -6  277.01    6.58   0
   0  -7  -6  279.08    6.54   0
   0   7   6  271.39    4.80   0
   0  -7  -6  266.71    4.89   0
  -1  -7  -6  119.93    4.37   0
  -1  -7  -6  114.65    5.57   0
   1   7   6  118.05    4.45   0
  -1  -7  -6  112.54    4.68   0
  -2  -7  -6  222.30    4.77   0
   2   7   6  208.37    6.08   0
   2   7   6  211.87    4.79   0
  -2  -7  -6  222.05    5.95   0
   3   7   6    2.58    3.48   0
  -3  -7  -6   -1.36    4.13   0
   3   7   6    4.38    3.74   0
  -3  -7  -6    5.88    4.61   0
   4   7   6  178.88    4.79   0
  -4  -7  -6  182.87    4.81   0
   4   7   6  181.60    4.87   0
  -4  -7  -6  181.84    5.36   0
  -5  -7  -6   91.82    3.91   0
   5   7   6  104.76    4.46   0
  -5  -7  -6  102.51    4.39   0
   5   7   6  108.74    4.35   0
  -6  -7  -6    9.15    3.73   0
   6   7   6    8.95    3.95   0
  -6  -7  -6   10.60    3.88   0
   6   7   6   12.75    3.81   0
  -7  -7  -6    0.77    4.00   0
  -7  -7  -6    7.68    4.11   0
   7   7   6    8.35    3.98   0
  -8  -7  -6    2.04    4.34   0
  -8  -7  -6    1.14    6.18   0
   8   7   6    4.73    4.18   0
   4  -8  -6    8.64    4.19   0
  -4   8   6    3.27    4.26   0
   4  -8  -6    8.23    4.16   0
   3  -8  -6   42.74    5.13   0
  -3   8   6   54.40    4.06   0
   3  -8  -6   52.70    4.42   0
   3  -8  -6   55.86    3.23   0
   2  -8  -6  108.34    4.61   0
  -2   8   6  102.89    3.21   0
   2  -8  -6  105.56    5.76   0
   2  -8  -6  109.14    3.39   0
   1  -8  -6  284.14    6.50   0
  -1   8   6  306.97    4.90   0
   1  -8  -6  312.54    6.60   0
   1  -8  -6  276.84    4.09   0
   0  -8  -6 1359.66    7.61   0
   0  -8  -6 1376.75   11.22   0
   0   8   6 1398.41    7.90   0
   0  -8  -6 1424.11   10.36   0
  -1  -8  -6   43.17    3.91   0
  -1  -8  -6   39.95    4.84   0
   1   8   6   41.83    3.72   0
  -1  -8  -6   43.00    4.70   0
  -2  -8  -6   81.72    4.30   0
   2   8   6   75.88    4.35   0
   2   8   6   82.82    3.13   0
  -2  -8  -6   86.51    4.09   0
   3   8   6  241.14    4.88   0
  -3  -8  -6  243.63    4.92   0
   3   8   6  223.37    5.90   0
  -3  -8  -6  238.02    5.19   0
  -4  -8  -6   97.68    4.13   0
   4   8   6   90.71    4.16   0
   4   8   6   88.47    4.22   0
  -4  -8  -6   92.79    4.10   0
  -5  -8  -6   26.03    4.14   0
   5   8   6   28.94    4.94   0
   5   8   6   33.09    4.04   0
  -5  -8  -6   35.85    3.86   0
  -6  -8  -6   72.73    4.19   0
  -6  -8  -6   85.33    4.56   0
   6   8   6   73.38    5.37   0
   6   8   6   89.48    4.30   0
  -7  -8  -6   38.02    4.13   0
  -7  -8  -6   44.55    5.52   0
   7   8   6   40.58    4.59   0
   7   8   6   45.52    4.27   0
  -8  -8  -6    7.37    4.45   0
  -8  -8  -6    4.52    5.80   0
   8   8   6    6.84    4.41   0
  -3   9   6   47.41    4.36   0
   3  -9  -6   29.28    4.53   0
   3  -9  -6   33.63    4.81   0
   3  -9  -6   29.92    3.12   0
   2  -9  -6   35.70    4.52   0
   2  -9  -6   46.63    4.47   0
  -2   9   6   46.82    4.07   0
   2  -9  -6   41.28    3.06   0
   1  -9  -6    1.73    3.83   0
   1  -9  -6    0.87    3.97   0
  -1   9   6    2.54    3.82   0
   1  -9  -6    2.49    3.72   0
   0  -9  -6   16.56    3.73   0
   0  -9  -6   12.85    5.02   0
   0  -9  -6   14.59    4.90   0
   0   9   6   11.28    3.70   0
  -1  -9  -6    4.51    2.66   0
  -1  -9  -6    5.54    4.89   0
   1   9   6    7.58    3.63   0
  -1  -9  -6    8.90    4.58   0
  -2  -9  -6  681.27    6.51   0
  -2  -9  -6  695.02    7.42   0
   2   9   6  688.50    6.46   0
   3   9   6    8.14    3.69   0
  -3  -9  -6    8.84    3.52   0
   3   9   6    7.66    3.91   0
  -3  -9  -6   10.11    3.76   0
  -4  -9  -6   35.33    4.14   0
   4   9   6   42.70    4.00   0
   4   9   6   39.81    4.16   0
  -4  -9  -6   37.12    3.95   0
  -5  -9  -6    9.18    3.95   0
   5   9   6    4.88    3.92   0
   5   9   6    2.47    4.04   0
  -5  -9  -6    5.96    3.86   0
  -6  -9  -6    3.11    3.89   0
   6   9   6    4.71    3.97   0
  -6  -9  -6    3.90    4.08   0
   6   9   6    5.71    4.09   0
  -7  -9  -6   11.02    4.35   0
  -7  -9  -6   13.87    5.36   0
   7   9   6   19.41    4.39   0
   7   9   6   14.77    4.38   0
   2 -10  -6    6.62    4.60   0
   2 -10  -6   12.62    4.56   0
  -2  10   6    6.67    3.94   0
   2 -10  -6    7.53    4.37   0
   1 -10  -6    9.51    4.08   0
   1 -10  -6    8.52    4.20   0
  -1  10   6   10.42    4.03   0
   1 -10  -6    7.72    2.96   0
   0 -10  -6  182.64    4.57   0
   0 -10  -6  159.74    6.23   0
   0 -10  -6  174.91    5.32   0
   0  10   6  177.92    4.47   0
  -1 -10  -6   25.48    3.95   0
  -1 -10  -6   18.80    5.19   0
  -1 -10  -6   20.79    5.08   0
   1  10   6   23.55    2.80   0
  -2 -10  -6  110.49    4.20   0
  -2 -10  -6  103.67    4.79   0
  -2 -10  -6  105.10    5.30   0
   2  10   6  105.72    4.32   0
   3  10   6   24.44    3.85   0
  -3 -10  -6   19.10    4.13   0
   3  10   6   23.04    4.97   0
  -3 -10  -6   21.15    4.80   0
  -4 -10  -6    3.68    3.74   0
   4  10   6    3.52    3.84   0
   4  10   6   -2.20    3.95   0
  -4 -10  -6    2.49    4.71   0
  -5 -10  -6   -0.34    3.89   0
   5  10   6    4.49    3.84   0
   5  10   6    2.42    3.99   0
  -5 -10  -6    2.33    3.94   0
   6  10   6    4.90    4.18   0
  -6 -10  -6    2.67    4.30   0
   6  10   6    2.09    4.22   0
  -6 -10  -6    1.46    4.13   0
  -7 -10  -6    5.51    4.51   0
   7  10   6    6.43    4.44   0
  -7 -10  -6    5.25    4.49   0
   7  10   6    8.39    4.43   0
   1 -11  -6    3.56    4.60   0
   1 -11  -6    4.64    5.49   0
  -1  11   6    7.48    4.08   0
   1 -11  -6    1.19    4.19   0
   0 -11  -6   16.15    4.25   0
   0 -11  -6   14.95    5.56   0
   0 -11  -6   16.79    4.42   0
   0  11   6   18.19    4.23   0
  -1 -11  -6  110.70    4.59   0
  -1 -11  -6  116.54    5.26   0
  -1 -11  -6  121.88    4.96   0
   1  11   6  117.07    4.47   0
   2  11   6    9.26    4.12   0
  -2 -11  -6    8.25    4.04   0
  -2 -11  -6    6.80    4.43   0
  -2 -11  -6    4.81    4.08   0
  -3 -11  -6   21.34    4.15   0
   3  11   6   18.40    4.12   0
  -3 -11  -6   13.85    4.27   0
  -4 -11  -6   56.88    4.51   0
   4  11   6   54.96    4.51   0
  -4 -11  -6   54.55    4.52   0
   4  11   6   53.24    4.49   0
  -5 -11  -6   97.32    5.00   0
   5  11   6   84.30    5.94   0
   5  11   6   99.02    5.08   0
  -5 -11  -6   95.60    4.75   0
   6  11   6   20.53    4.71   0
  -6 -11  -6   28.81    4.61   0
   6  11   6   27.72    4.61   0
  -6 -11  -6   29.93    4.65   0
   1  12   6   67.54    4.48   0
  -1 -12  -6   54.98    4.62   0
  -1 -12  -6   58.33    6.31   0
  -1 -12  -6   68.27    4.97   0
  -2 -12  -6   12.50    3.10   0
   2  12   6    6.55    4.37   0
  -2 -12  -6    6.10    4.61   0
  -2 -12  -6    9.52    4.38   0
  -3 -12  -6   10.61    3.11   0
   3  12   6    7.93    4.37   0
  -3 -12  -6    7.63    4.72   0
  -3 -12  -6    2.65    4.48   0
  -4 -12  -6   17.86    4.52   0
   4  12   6   17.22    4.48   0
   4  12   6   16.98    4.68   0
  -4 -12  -6   19.32    4.53   0
  -3  -9   7    5.17    4.68   0
  -3  -9   7    4.31    4.73   0
  -3  -9   7    4.27    4.45   0
   3   9  -7    2.68    4.21   0
   2   9  -7   38.29    3.53   0
  -2  -9   7   32.18    4.87   0
  -2  -9   7   31.81    4.88   0
  -2  -9   7   23.76    4.73   0
  -5  -8   7    6.20    4.18   0
   5   8  -7    6.48    4.31   0
  -5  -8   7    5.26    4.49   0
  -4  -8   7    5.38    4.18   0
  -4  -8   7    0.68    4.38   0
   4   8  -7    6.69    3.93   0
   4   8  -7    0.27    4.27   0
  -3  -8   7   48.14    3.54   0
  -3  -8   7   52.44    3.59   0
   3   8  -7   58.06    4.41   0
  -3  -8   7   59.22    4.44   0
  -2  -8   7   35.71    4.38   0
   2   8  -7   31.66    4.19   0
  -2  -8   7   32.30    4.71   0
  -2  -8   7   37.87    4.35   0
  -1  -8   7   36.57    4.54   0
  -1  -8   7   36.38    4.58   0
  -1  -8   7   24.50    4.50   0
   1   8  -7   31.96    3.11   0
   0  -8   7   26.06    4.71   0
   0  -8   7   29.59    4.53   0
   0  -8   7   33.94    4.71   0
   0   8  -7   27.54    4.26   0
   1  -8   7   12.48    4.60   0
   1  -8   7   14.09    4.82   0
  -1   8  -7   21.90    4.47   0
   1  -8   7   16.04    4.84   0
  -6  -7   7   43.23    4.24   0
   6   7  -7   51.72    4.67   0
  -6  -7   7   36.10    4.56   0
  -5  -7   7   42.23    4.15   0
   5   7  -7   55.43    4.40   0
  -5  -7   7   43.66    4.46   0
  -4  -7   7   37.58    4.05   0
   4   7  -7   45.06    4.15   0
  -4  -7   7   42.08    4.40   0
   4   7  -7   40.32    4.05   0
   3   7  -7   11.39    2.76   0
  -3  -7   7   15.18    2.90   0
   3   7  -7   16.73    4.14   0
  -3  -7   7   15.51    3.08   0
   2   7  -7   92.40    4.05   0
  -2  -7   7   75.35    4.42   0
  -2  -7   7   84.05    4.72   0
  -2  -7   7   74.13    4.33   0
  -1  -7   7   21.59    4.04   0
  -1  -7   7   16.16    4.22   0
  -1  -7   7   17.26    4.04   0
   1   7  -7   16.85    3.87   0
   0  -7   7   10.41    2.88   0
   0  -7   7    9.58    4.11   0
   0  -7   7   10.31    4.25   0
   0   7  -7   12.68    3.98   0
   1  -7   7    4.91    3.05   0
   1  -7   7    0.44    4.37   0
  -1   7  -7    6.06    3.77   0
   1  -7   7    2.76    4.29   0
   2  -7   7    6.90    4.59   0
   2  -7   7   13.66    4.57   0
   2  -7   7   14.49    4.57   0
  -2   7  -7   16.53    5.13   0
   7   6  -7    8.73    4.15   0
  -7  -6   7    0.03    4.14   0
  -7  -6   7    5.55    4.26   0
   6   6  -7   -1.72    4.14   0
  -6  -6   7   -3.50    3.88   0
  -6  -6   7   -1.64    4.10   0
   5   6  -7   57.77    4.20   0
  -5  -6   7   42.20    4.01   0
  -5  -6   7   46.98    3.19   0
  -4  -6   7    8.82    3.78   0
  -4  -6   7   -0.51    2.75   0
   4   6  -7    7.64    2.63   0
  -3  -6   7    6.23    3.49   0
   3   6  -7    3.10    3.78   0
  -3  -6   7   -0.14    3.83   0
   3   6  -7    0.27    3.51   0
  -2  -6   7   24.97    3.91   0
  -2  -6   7   26.63    4.01   0
   2   6  -7   21.80    3.84   0
  -2  -6   7   22.31    4.13   0
   1   6  -7   26.09    3.81   0
  -1  -6   7   30.22    3.91   0
  -1  -6   7   32.34    3.07   0
  -1  -6   7   21.83    3.83   0
   0  -6   7  130.26    4.50   0
   0  -6   7  137.92    4.55   0
   0  -6   7  115.14    4.47   0
   0   6  -7  126.65    4.37   0
   1  -6   7    9.64    4.08   0
   1  -6   7   10.27    4.06   0
  -1   6  -7    9.46    3.81   0
   1  -6   7   10.85    4.18   0
   2  -6   7   89.71    3.61   0
   2  -6   7   86.90    5.83   0
  -2   6  -7   95.52    5.44   0
   2  -6   7   88.35    4.75   0
   3  -6   7    5.16    4.44   0
   3  -6   7    6.10    4.41   0
  -3   6  -7    4.05    4.12   0
   3  -6   7    7.52    4.52   0
   7   5  -7   39.28    3.20   0
  -7  -5   7   31.24    4.39   0
  -7  -5   7   31.93    3.34   0
   6   5  -7    6.04    3.95   0
  -6  -5   7    2.33    3.73   0
  -6  -5   7    8.28    4.08   0
   5   5  -7    6.97    3.88   0
  -5  -5   7    3.51    3.64   0
  -5  -5   7    4.83    2.84   0
   4   5  -7  542.46    5.92   0
  -4  -5   7  462.55    5.07   0
  -4  -5   7  484.50    5.91   0
   3   5  -7   74.92    4.14   0
   3   5  -7   69.16    3.91   0
  -3  -5   7   71.05    3.85   0
  -3  -5   7   70.69    4.28   0
   2   5  -7   -0.39    3.45   0
  -2  -5   7    6.14    3.62   0
  -2  -5   7   -0.86    2.75   0
  -1  -5   7   24.12    3.70   0
   1   5  -7   25.22    3.58   0
  -1  -5   7   19.87    3.74   0
  -1  -5   7   23.50    3.85   0
   0  -5   7  207.60    4.84   0
   0  -5   7  205.60    4.98   0
   0  -5   7  178.16    4.62   0
   0   5  -7  191.33    4.69   0
   1  -5   7   19.84    3.85   0
   1  -5   7   24.20    3.94   0
  -1   5  -7   19.15    3.51   0
   1  -5   7   16.11    3.79   0
   2  -5   7   13.88    3.96   0
   2  -5   7   14.14    4.18   0
  -2   5  -7   10.53    4.59   0
   2  -5   7   11.96    4.14   0
   3  -5   7    7.94    5.35   0
   3  -5   7    7.70    4.12   0
  -3   5  -7    8.68    4.87   0
   3  -5   7    3.32    2.95   0
   4  -5   7    0.84    4.36   0
  -4   5  -7    3.71    5.19   0
   4  -5   7    3.60    4.81   0
  -7  -4   7    7.08    3.82   0
   7   4  -7    2.82    4.09   0
  -7  -4   7    5.85    4.12   0
  -6  -4   7   52.53    4.12   0
   6   4  -7   70.52    4.20   0
  -6  -4   7   53.54    3.18   0
  -5  -4   7    3.70    3.38   0
   5   4  -7    5.79    3.77   0
  -5  -4   7    7.82    3.90   0
   4   4  -7   89.02    4.13   0
  -4  -4   7   76.37    4.10   0
  -4  -4   7   70.15    2.97   0
   3   4  -7   41.25    3.90   0
  -3  -4   7   35.58    4.08   0
  -3  -4   7   35.08    3.57   0
   2   4  -7   67.27    3.95   0
   2   4  -7   69.05    4.18   0
  -2  -4   7   63.34    3.74   0
  -2  -4   7   66.10    4.34   0
   1   4  -7  170.91    4.14   0
  -1  -4   7  160.11    4.16   0
  -1  -4   7  165.29    4.80   0
  -1  -4   7  152.74    3.93   0
   0  -4   7  285.09    5.29   0
   0   4  -7  294.88    5.24   0
   0  -4   7  277.50    4.31   0
   0  -4   7  330.79    5.56   0
   1  -4   7   13.85    3.64   0
   1  -4   7   11.81    2.81   0
   1  -4   7   10.84    4.65   0
  -1   4  -7   11.15    3.53   0
   2  -4   7  246.88    4.88   0
   2  -4   7  206.18    5.71   0
  -2   4  -7  246.15    6.17   0
   2  -4   7  215.92    4.09   0
   3  -4   7  130.15    5.45   0
   3  -4   7  161.99    4.56   0
  -3   4  -7  147.87    5.64   0
   4  -4   7   22.05    3.00   0
  -4   4  -7   21.06    4.92   0
  -4   4  -7   16.81    4.21   0
   4  -4   7   22.15    5.52   0
  -5   4  -7    6.70    3.20   0
   5  -4   7    9.52    3.28   0
  -5   4  -7   13.08    6.26   0
   5  -4   7   12.96    5.65   0
  -8  -3   7    1.33    4.63   0
  -8  -3   7    0.56    4.25   0
  -8  -3   7    3.57    4.46   0
   8   3  -7    1.88    4.34   0
  -7  -3   7   40.17    3.11   0
   7   3  -7   47.85    4.54   0
  -7  -3   7   38.70    4.37   0
  -6  -3   7  399.14    5.54   0
   6   3  -7  474.97    5.84   0
  -6  -3   7  392.06    5.85   0
  -5  -3   7    1.88    2.35   0
   5   3  -7   -1.45    3.79   0
  -5  -3   7   -0.93    2.74   0
  -4  -3   7   15.18    3.51   0
   4   3  -7   18.16    3.73   0
  -4  -3   7   18.65    3.75   0
  -3  -3   7   14.97    3.32   0
   3   3  -7   15.10    4.09   0
  -3  -3   7   11.45    3.86   0
   2   3  -7  736.00    6.72   0
  -2  -3   7  666.97    6.64   0
  -2  -3   7  696.42    6.33   0
   1   3  -7    5.78    3.37   0
  -1  -3   7    6.59    3.51   0
  -1  -3   7    5.80    3.72   0
  -1  -3   7    9.27    4.18   0
   0   3  -7    1.81    3.40   0
   0  -3   7   -1.45    3.42   0
   0  -3   7   -4.04    3.97   0
   0  -3   7    3.83    4.03   0
   1  -3   7   15.72    3.77   0
  -1   3  -7   11.84    4.36   0
   1  -3   7   12.79    4.16   0
   1  -3   7   11.31    3.88   0
   2  -3   7    4.33    3.70   0
   2  -3   7    2.21    3.81   0
  -2   3  -7    3.17    4.17   0
   3  -3   7   24.41    5.21   0
   3  -3   7   20.95    3.89   0
  -3   3  -7   25.24    3.77   0
  -3   3  -7   21.69    4.49   0
   4  -3   7    2.34    3.98   0
  -4   3  -7   10.33    4.04   0
  -4   3  -7    6.90    4.67   0
   4  -3   7    6.15    5.10   0
  -5   3  -7   17.30    6.66   0
   5  -3   7   13.13    4.26   0
  -5   3  -7   13.20    4.38   0
   5  -3   7   20.52    6.95   0
  -8  -2   7   28.28    4.63   0
  -8  -2   7   22.19    4.55   0
   8   2  -7   31.87    4.63   0
  -8  -2   7   31.86    4.57   0
  -7  -2   7   12.71    3.99   0
  -7  -2   7   11.94    4.10   0
  -7  -2   7    9.50    3.98   0
   7   2  -7   12.10    4.16   0
  -6  -2   7   18.48    3.63   0
   6   2  -7   18.19    3.68   0
  -6  -2   7   14.96    3.89   0
  -5  -2   7  420.52    5.29   0
   5   2  -7  460.21    5.52   0
  -5  -2   7  439.41    5.91   0
  -4  -2   7    4.88    3.49   0
   4   2  -7    2.22    3.73   0
  -4  -2   7    4.91    3.57   0
   3   2  -7  151.56    4.48   0
  -3  -2   7  168.96    3.35   0
  -3  -2   7  146.46    4.57   0
  -2  -2   7 1133.65    7.42   0
   2   2  -7 1181.29    8.28   0
  -2  -2   7 1121.97    8.26   0
  -1  -2   7  734.77    6.62   0
  -1  -2   7  681.00    6.46   0
   0  -2   7   32.66    3.83   0
   0  -2   7   36.27    3.59   0
   0  -2   7   34.33    4.04   0
   1  -2   7  243.56    5.28   0
   1  -2   7  259.68    4.98   0
   1  -2   7  264.76    5.20   0
  -1   2  -7  268.73    5.82   0
   2  -2   7 1229.59    8.13   0
  -2   2  -7 1171.34    8.23   0
   2  -2   7 1082.47   10.33   0
  -2   2  -7 1222.62   10.57   0
   3  -2   7   38.06    6.13   0
   3  -2   7   46.37    3.74   0
  -3   2  -7   34.23    3.86   0
  -3   2  -7   35.54    4.76   0
   4  -2   7    8.40    3.89   0
  -4   2  -7   10.62    3.86   0
   4  -2   7    4.32    6.47   0
  -4   2  -7    6.71    5.86   0
  -5   2  -7   54.09    4.15   0
   5  -2   7   53.37    4.39   0
   6  -2   7    0.88    4.37   0
  -6   2  -7   -1.12    4.29   0
  -8  -1   7   18.11    4.53   0
  -8  -1   7   24.56    4.57   0
   8   1  -7   14.21    4.58   0
  -8  -1   7   14.61    4.42   0
  -7  -1   7   51.96    4.30   0
  -7  -1   7   41.92    4.29   0
  -7  -1   7   56.54    4.22   0
   7   1  -7   52.80    4.29   0
  -6  -1   7  208.78    4.83   0
  -6  -1   7  216.86    4.65   0
  -6  -1   7  188.37    4.56   0
   6   1  -7  229.26    4.83   0
  -5  -1   7    6.71    3.57   0
  -5  -1   7   12.19    3.68   0
   5   1  -7   11.04    3.54   0
  -4  -1   7  308.29    4.81   0
   4   1  -7  302.29    4.97   0
  -4  -1   7  295.82    5.10   0
  -3  -1   7  116.73    4.00   0
   3   1  -7  115.97    4.27   0
  -3  -1   7  100.80    5.04   0
  -2  -1   7  908.94    6.97   0
   2   1  -7  939.24    8.52   0
  -2  -1   7  770.07    7.60   0
  -1  -1   7 1271.66    9.30   0
   1   1  -7 1359.53    9.57   0
  -1  -1   7 1344.77    8.67   0
   0  -1   7   28.51    3.54   0
   0  -1   7   25.79    3.87   0
   0  -1   7   25.26    4.03   0
   1  -1   7   64.27    4.19   0
   1  -1   7   66.59    4.56   0
   1  -1   7   65.89    4.31   0
   2  -1   7    0.53    3.67   0
  -2   1  -7    2.54    3.69   0
   2  -1   7    0.04    5.34   0
   3  -1   7  390.22   10.48   0
   3  -1   7  386.45    5.60   0
  -3   1  -7  404.90    5.69   0
   4  -1   7   24.26    3.75   0
  -4   1  -7   24.31    3.86   0
   5  -1   7   46.10    4.07   0
  -5   1  -7   35.42    4.09   0
   6  -1   7   42.91    4.44   0
  -6   1  -7   39.25    4.28   0
  -7   0   7   65.44    4.47   0
  -7   0   7   66.07    4.41   0
   7   0  -7   76.24    4.60   0
  -7   0   7   46.76    4.29   0
  -6   0   7   30.86    3.94   0
  -6   0   7   28.71    3.78   0
  -6   0   7   25.22    3.73   0
   6   0  -7   30.57    3.86   0
  -5   0   7   16.95    3.62   0
  -5   0   7   13.80    3.61   0
   5   0  -7   15.23    3.71   0
  -4   0   7  101.04    4.05   0
   4   0  -7  101.75    4.01   0
  -4   0   7   98.07    4.46   0
   3   0  -7  150.16    4.53   0
  -3   0   7  147.47    5.22   0
   2   0  -7  240.11    5.29   0
  -2   0   7  231.54    5.22   0
   1   0  -7   25.32    3.79   0
  -1   0   7   21.35    3.46   0
  -1   0   7   18.80    3.69   0
   0   0   7  736.16    7.30   0
   0   0   7  672.57    7.69   0
   0   0   7  667.94    7.75   0
   1   0   7  169.41    5.51   0
   1   0   7  159.47    4.75   0
   2   0   7 1028.88   13.16   0
   2   0   7 1099.32    8.19   0
  -2   0  -7 1090.37    8.40   0
   3   0   7    0.23    3.57   0
  -3   0  -7    5.39    3.78   0
   4   0   7  107.68    4.25   0
  -4   0  -7  106.65    4.29   0
   5   0   7   42.11    4.01   0
  -5   0  -7   38.87    4.05   0
   6   0   7    3.96    2.90   0
  -6   0  -7    4.52    4.08   0
   7   0   7    3.15    3.24   0
  -7   0  -7    9.42    4.36   0
  -7   1   7    4.63    4.18   0
   7  -1  -7    2.91    4.21   0
  -7   1   7    4.19    4.18   0
  -6   1   7    9.10    3.66   0
   6  -1  -7    8.05    3.77   0
  -6   1   7   10.77    3.82   0
  -5   1   7  207.09    4.64   0
  -5   1   7  210.19    4.50   0
   5  -1  -7  213.75    4.80   0
  -4   1   7  295.45    5.43   0
  -4   1   7  287.12    4.83   0
   4  -1  -7  312.91    5.95   0
  -3   1   7  518.46    5.54   0
   3  -1  -7  537.71    6.67   0
  -3   1   7  540.02    7.23   0
   2  -1  -7  140.01    4.75   0
  -2   1   7  145.31    4.04   0
  -2   1   7  136.35    4.69   0
  -1   1   7    3.58    2.47   0
   1  -1  -7    1.97    4.37   0
  -1   1   7    2.99    4.24   0
   0   1   7  188.14    5.56   0
   0   1   7  205.37    6.35   0
   0   1   7  211.02    4.86   0
   1   1   7 1882.70   12.08   0
  -1  -1  -7 1940.36   12.71   0
   1   1   7 1976.78   13.06   0
   1   1   7 2087.21   13.72   0
   2   1   7  114.24    4.28   0
  -2  -1  -7  118.41    4.54   0
   2   1   7  109.57    6.86   0
   2   1   7  108.65    6.56   0
   3   1   7   42.75    3.87   0
  -3  -1  -7   40.95    3.92   0
   4   1   7   16.94    3.76   0
  -4  -1  -7   14.81    3.87   0
   5   1   7   18.89    3.84   0
  -5  -1  -7   19.07    2.76   0
   6   1   7   14.36    3.95   0
  -6  -1  -7   13.57    3.95   0
  -7  -1  -7   37.28    4.60   0
   7   1   7   34.03    4.54   0
  -7   2   7   13.50    4.21   0
   7  -2  -7   11.24    4.23   0
  -7   2   7   12.19    4.15   0
  -6   2   7   57.89    4.31   0
   6  -2  -7   59.95    4.21   0
  -6   2   7   58.64    4.20   0
  -5   2   7  252.17    4.96   0
   5  -2  -7  278.48    5.89   0
  -5   2   7  243.67    4.87   0
  -4   2   7  295.14    5.47   0
   4  -2  -7  310.81    5.57   0
  -4   2   7  310.26    4.83   0
  -3   2   7   65.83    4.11   0
   3  -2  -7   72.14    4.94   0
  -3   2   7   67.03    4.02   0
  -2   2   7    3.98    4.49   0
   2  -2  -7    6.94    4.51   0
  -2   2   7    8.51    3.41   0
  -1   2   7   33.51    2.70   0
  -1   2   7   34.18    6.14   0
   1  -2  -7   35.08    5.83   0
   0   2   7 2920.79   22.95   0
   0   2   7 2820.19   22.71   0
   0   2   7 3090.44   13.57   0
   1   2   7    9.32    4.15   0
  -1  -2  -7   11.82    4.48   0
   1   2   7   12.52    3.79   0
   2   2   7   17.95    3.58   0
   2   2   7   18.45    4.83   0
  -2  -2  -7   19.53    3.56   0
   3   2   7  107.74    4.24   0
  -3  -2  -7  115.25    4.32   0
   4   2   7  794.85    6.63   0
  -4  -2  -7  780.67    6.97   0
   5   2   7    4.44    3.65   0
  -5  -2  -7    3.94    3.77   0
  -6  -2  -7   29.09    4.04   0
   6   2   7   35.40    4.00   0
  -7  -2  -7    3.14    4.16   0
   7   2   7    4.76    2.95   0
  -7   3   7   18.61    4.49   0
  -7   3   7   21.76    4.52   0
   7  -3  -7   24.29    4.50   0
  -6   3   7  179.47    5.10   0
   6  -3  -7  175.75    5.01   0
  -6   3   7  155.77    4.93   0
  -5   3   7    3.51    3.72   0
   5  -3  -7    3.15    3.56   0
  -5   3   7    8.06    3.68   0
  -4   3   7    2.56    4.48   0
   4  -3  -7    1.53    4.61   0
  -4   3   7   -0.96    3.54   0
  -3   3   7    8.50    4.46   0
   3  -3  -7   12.65    3.81   0
  -3   3   7    9.92    3.83   0
  -2   3   7   22.17    4.83   0
   2  -3  -7   19.86    4.87   0
  -2   3   7   19.39    3.55   0
   1  -3  -7 1307.05    8.55   0
  -1   3   7 1310.81    8.40   0
   0  -3  -7    4.21    2.50   0
   0   3   7    4.47    3.74   0
   1   3   7 1371.27   10.21   0
  -1  -3  -7 1325.02   16.03   0
  -1  -3  -7 1382.77   10.67   0
   1   3   7 1338.16   15.18   0
  -2  -3  -7    2.33    3.39   0
   2   3   7   -0.20    4.53   0
  -2  -3  -7    2.27    4.30   0
   2   3   7    0.52    4.15   0
  -3  -3  -7  133.64    5.16   0
   3   3   7  135.20    8.47   0
   3   3   7  138.86    4.54   0
  -4  -3  -7  167.07    4.43   0
   4   3   7  175.23    4.47   0
  -5  -3  -7   14.53    3.66   0
   5   3   7   10.87    3.82   0
  -6  -3  -7    2.54    3.79   0
   6   3   7   -0.59    4.01   0
  -7  -3  -7   59.32    4.53   0
   7   3   7   68.01    3.42   0
  -8  -3  -7    6.82    4.62   0
   8   3   7    6.06    3.14   0
  -6   4   7  251.23    5.38   0
  -6   4   7  251.36    5.68   0
   6  -4  -7  270.12    5.78   0
  -5   4   7  244.50    4.77   0
  -5   4   7  237.85    5.31   0
   5  -4  -7  248.19    5.24   0
  -4   4   7   37.53    3.78   0
  -4   4   7   29.76    3.79   0
   4  -4  -7   29.47    4.54   0
  -3   4   7  492.84    7.51   0
   3  -4  -7  500.86    5.64   0
   3  -4  -7  512.11    7.51   0
  -3   4   7  494.46    5.60   0
  -2   4   7 1044.14    7.13   0
  -2   4   7  979.24   11.41   0
   2  -4  -7  987.09    7.46   0
   2  -4  -7  993.14   11.22   0
  -1   4   7    0.43    3.42   0
   1  -4  -7    4.00    3.41   0
   0   4   7  223.05    4.89   0
   0  -4  -7  221.87    4.86   0
   1   4   7  565.91    6.73   0
  -1  -4  -7  549.20   14.22   0
   1   4   7  524.05   13.73   0
  -1  -4  -7  569.78    6.73   0
  -2  -4  -7 1314.49   12.01   0
   2   4   7 1310.73   10.55   0
  -2  -4  -7 1313.93   10.40   0
   2   4   7 1290.74   11.78   0
   3   4   7  283.00    7.28   0
  -3  -4  -7  269.29    6.02   0
  -3  -4  -7  280.13    7.10   0
   3   4   7  273.68    5.51   0
  -4  -4  -7    9.82    4.20   0
  -4  -4  -7    9.97    5.95   0
   4   4   7    9.56    3.77   0
   4   4   7    9.91    5.70   0
  -5  -4  -7   19.61    3.76   0
   5   4   7   16.38    3.80   0
  -6  -4  -7   19.99    3.81   0
   6   4   7   14.86    3.90   0
  -7  -4  -7   58.32    4.40   0
   7   4   7   76.51    4.50   0
  -8  -4  -7   18.65    4.48   0
   8   4   7   16.24    4.48   0
  -6   5   7    2.08    4.18   0
  -6   5   7    0.95    4.25   0
   6  -5  -7    0.26    4.16   0
  -5   5   7    6.27    3.96   0
  -5   5   7    7.80    4.13   0
   5  -5  -7    2.56    4.09   0
  -4   5   7  457.78    5.34   0
  -4   5   7  446.44    6.67   0
   4  -5  -7  431.05    5.72   0
   4  -5  -7  446.73    7.07   0
  -3   5   7  148.01    4.16   0
  -3   5   7  136.00    5.46   0
   3  -5  -7  139.76    4.10   0
   3  -5  -7  134.78    5.49   0
  -2   5   7    5.04    3.74   0
  -2   5   7    3.17    4.61   0
   2  -5  -7    0.91    3.59   0
   2  -5  -7    4.10    4.42   0
  -1   5   7 1172.23    7.51   0
   1  -5  -7 1181.09   16.15   0
   1  -5  -7 1176.02    7.65   0
   1  -5  -7 1154.87   15.65   0
   0   5   7  186.22    4.50   0
   0  -5  -7  177.03    4.47   0
  -1  -5  -7  383.28   11.36   0
   1   5   7  398.55    5.90   0
   1   5   7  389.61   12.19   0
  -1  -5  -7  394.91    5.84   0
  -2  -5  -7   39.10    4.86   0
   2   5   7   38.51    3.93   0
   2   5   7   35.45    4.96   0
  -2  -5  -7   38.18    3.73   0
  -3  -5  -7  588.33    7.98   0
  -3  -5  -7  533.87    7.54   0
   3   5   7  552.21    6.88   0
   3   5   7  583.06    7.94   0
  -4  -5  -7  260.58    6.66   0
  -4  -5  -7  260.68    5.18   0
   4   5   7  267.72    6.77   0
   4   5   7  269.24    5.71   0
  -5  -5  -7    0.61    5.16   0
  -5  -5  -7    1.00    3.51   0
   5   5   7    1.40    5.07   0
   5   5   7    3.54    3.58   0
  -6  -5  -7  227.38   11.35   0
  -6  -5  -7  229.75    5.09   0
   6   5   7  237.17    4.95   0
  -7  -5  -7   51.26    4.15   0
   7   5   7   57.86    3.34   0
  -8  -5  -7   -0.89    4.33   0
   8   5   7    0.52    4.31   0
  -6   6   7   -1.31    4.29   0
  -6   6   7    3.73    4.65   0
   6  -6  -7    0.54    5.39   0
  -5   6   7   74.23    4.47   0
  -5   6   7   61.87    4.87   0
   5  -6  -7   66.11    4.48   0
  -4   6   7  172.97    4.55   0
  -4   6   7  174.92    6.04   0
   4  -6  -7  172.55    4.73   0
   4  -6  -7  173.91    5.05   0
   3  -6  -7  291.69    5.79   0
  -3   6   7  309.64    4.84   0
  -3   6   7  299.22    6.66   0
   3  -6  -7  300.19    5.01   0
   2  -6  -7    7.75    4.46   0
  -2   6   7    3.66    3.68   0
   2  -6  -7    4.58    3.62   0
   1  -6  -7    1.40    4.93   0
  -1   6   7    2.44    3.48   0
   1  -6  -7    1.58    4.48   0
   1  -6  -7    3.38    2.35   0
   0  -6  -7  111.18    7.14   0
   0   6   7  117.36    4.20   0
   0  -6  -7  113.50    6.61   0
   0  -6  -7  120.56    4.30   0
   1   6   7  115.50    4.26   0
  -1  -6  -7  110.60    6.71   0
  -1  -6  -7  110.33    6.43   0
  -1  -6  -7  124.45    4.30   0
  -2  -6  -7  541.57    8.34   0
  -2  -6  -7  550.58    6.36   0
   2   6   7  543.08    7.06   0
   2   6   7  507.81    8.12   0
  -3  -6  -7   71.09    4.99   0
  -3  -6  -7   70.26    4.27   0
   3   6   7   69.40    4.95   0
   3   6   7   75.39    5.00   0
  -4  -6  -7   13.35    3.82   0
  -4  -6  -7   13.98    3.81   0
   4   6   7   13.49    4.36   0
   4   6   7   14.30    3.88   0
  -5  -6  -7    9.36    3.58   0
  -5  -6  -7    7.22    4.50   0
   5   6   7    7.35    4.59   0
   5   6   7    9.19    4.40   0
  -6  -6  -7   18.60    3.76   0
  -6  -6  -7   16.09    4.80   0
   6   6   7   15.60    3.77   0
  -7  -6  -7   56.25    4.31   0
  -7  -6  -7   57.59    7.38   0
   7   6   7   55.15    4.51   0
  -8  -6  -7    2.30    4.43   0
   8   6   7   -0.80    3.18   0
  -5   7   7    1.70    4.25   0
   5  -7  -7    4.01    4.20   0
  -5   7   7   -4.29    4.44   0
   5  -7  -7    0.86    4.30   0
   4  -7  -7   48.72    5.20   0
  -4   7   7   51.32    4.13   0
  -4   7   7   49.63    4.64   0
   4  -7  -7   53.88    4.20   0
   3  -7  -7   50.62    5.02   0
  -3   7   7   51.27    3.93   0
  -3   7   7   57.19    4.43   0
   3  -7  -7   47.79    2.96   0
   2  -7  -7  531.97    7.94   0
  -2   7   7  566.02    5.78   0
   2  -7  -7  577.95    8.28   0
   2  -7  -7  566.58    5.91   0
   1  -7  -7    4.19    4.44   0
  -1   7   7    6.14    2.62   0
   1  -7  -7    4.38    4.67   0
   1  -7  -7    4.61    2.57   0
   0  -7  -7  105.72    6.35   0
   0   7   7  104.85    4.34   0
   0  -7  -7  110.39    5.89   0
   0  -7  -7  108.39    4.25   0
   1   7   7  578.94    6.17   0
  -1  -7  -7  582.15    9.25   0
  -1  -7  -7  573.15    8.78   0
  -1  -7  -7  583.92    6.11   0
  -2  -7  -7    6.26    3.61   0
   2   7   7    7.43    4.52   0
   2   7   7    5.57    3.41   0
  -2  -7  -7    9.61    4.34   0
  -3  -7  -7  274.01    5.23   0
   3   7   7  252.58    6.16   0
  -3  -7  -7  260.33    5.46   0
   3   7   7  274.11    5.85   0
  -4  -7  -7  150.73    4.58   0
  -4  -7  -7  159.40    4.63   0
   4   7   7  162.98    4.80   0
   4   7   7  156.69    5.44   0
  -5  -7  -7    7.02    3.69   0
   5   7   7    7.77    4.57   0
  -5  -7  -7    5.45    3.75   0
   5   7   7    5.64    3.98   0
  -6  -7  -7    8.17    3.86   0
  -6  -7  -7    4.83    4.01   0
   6   7   7    3.82    4.85   0
   6   7   7    8.10    3.86   0
  -7  -7  -7    8.46    4.09   0
  -7  -7  -7    7.46    5.17   0
   7   7   7    8.88    4.00   0
  -8  -7  -7   13.86    4.54   0
  -8  -7  -7   18.64    6.74   0
   8   7   7   17.91    4.67   0
   4  -8  -7    7.13    4.45   0
  -4   8   7   15.69    4.05   0
   4  -8  -7   13.17    4.26   0
   3  -8  -7    3.32    4.83   0
  -3   8   7    5.36    4.04   0
   3  -8  -7    3.16    4.23   0
   3  -8  -7    0.72    2.89   0
   2  -8  -7   11.56    3.84   0
  -2   8   7   14.67    3.95   0
   2  -8  -7   14.08    3.70   0
   2  -8  -7   14.04    5.08   0
   1  -8  -7  275.86    6.64   0
  -1   8   7  307.30    4.90   0
   1  -8  -7  310.04    6.80   0
   1  -8  -7  284.71    4.08   0
   0  -8  -7  775.62    9.65   0
   0   8   7  827.04    6.43   0
   0  -8  -7  794.23    9.27   0
   0  -8  -7  819.84    6.54   0
  -1  -8  -7  477.85    5.70   0
  -1  -8  -7  473.38    8.14   0
   1   8   7  482.12    5.73   0
  -1  -8  -7  480.54    7.68   0
  -2  -8  -7  245.77    4.75   0
   2   8   7  221.14    6.27   0
   2   8   7  238.35    4.89   0
  -2  -8  -7  233.48    5.52   0
   3   8   7   72.36    4.03   0
  -3  -8  -7   70.72    4.03   0
   3   8   7   62.22    4.20   0
  -3  -8  -7   66.79    4.18   0
  -4  -8  -7    5.21    4.58   0
   4   8   7    6.19    3.63   0
   4   8   7    4.56    3.68   0
  -4  -8  -7    3.31    3.56   0
  -5  -8  -7  116.18    4.52   0
  -5  -8  -7  119.53    5.40   0
   5   8   7  117.06    4.45   0
   5   8   7  111.52    5.44   0
  -6  -8  -7   95.14    4.57   0
  -6  -8  -7  122.68    5.87   0
   6   8   7  116.01    4.61   0
   6   8   7  107.52    5.80   0
  -7  -8  -7    9.04    4.17   0
  -7  -8  -7   12.51    4.55   0
   7   8   7   12.36    4.30   0
   3  -9  -7   21.59    4.27   0
  -3   9   7   24.49    4.23   0
   3  -9  -7   17.42    5.72   0
   3  -9  -7   25.67    4.43   0
   2  -9  -7   44.85    5.23   0
   2  -9  -7   46.04    5.56   0
  -2   9   7   44.31    4.15   0
   2  -9  -7   50.46    4.03   0
   1  -9  -7  129.78    5.73   0
  -1   9   7  140.06    3.53   0
   1  -9  -7  140.73    5.10   0
   1  -9  -7  141.79    4.41   0
   0  -9  -7    6.77    4.75   0
   0   9   7   11.25    3.72   0
   0  -9  -7    5.36    3.81   0
   0  -9  -7   12.11    3.62   0
  -1  -9  -7   91.70    4.22   0
  -1  -9  -7   79.66    4.39   0
   1   9   7   76.59    3.83   0
  -1  -9  -7   82.27    4.37   0
  -2  -9  -7  227.62    4.89   0
  -2  -9  -7  224.31    5.65   0
   2   9   7  229.66    4.06   0
   3   9   7  349.00    5.37   0
  -3  -9  -7  351.73    5.49   0
   3   9   7  327.73    6.02   0
  -3  -9  -7  350.01    6.04   0
  -4  -9  -7  159.21    4.73   0
   4   9   7  171.11    4.81   0
   4   9   7  165.84    4.91   0
  -4  -9  -7  159.16    4.80   0
  -5  -9  -7   26.44    4.16   0
   5   9   7   29.47    4.09   0
   5   9   7   26.14    4.24   0
  -5  -9  -7   25.30    4.08   0
  -6  -9  -7   75.81    4.48   0
  -6  -9  -7   96.04    5.66   0
   6   9   7   83.76    4.79   0
   6   9   7   79.14    4.56   0
  -7  -9  -7   -2.03    4.18   0
  -7  -9  -7    2.15    5.20   0
   7   9   7    1.13    4.24   0
   7   9   7    0.30    5.44   0
   2 -10  -7   24.79    4.55   0
  -2  10   7   29.63    4.31   0
   2 -10  -7   21.93    4.69   0
   2 -10  -7   18.49    4.19   0
   1 -10  -7    1.22    5.07   0
   1 -10  -7   -0.58    4.05   0
  -1  10   7   -0.46    4.04   0
   1 -10  -7    2.28    3.96   0
   0 -10  -7    2.53    5.13   0
   0 -10  -7    0.81    5.03   0
   0  10   7    1.54    2.79   0
   0 -10  -7   -0.22    3.83   0
  -1 -10  -7   32.63    4.10   0
  -1 -10  -7   32.36    5.43   0
  -1 -10  -7   39.79    4.27   0
   1  10   7   41.41    3.97   0
  -2 -10  -7  778.16    6.83   0
  -2 -10  -7  700.68    8.31   0
  -2 -10  -7  773.81    8.51   0
   2  10   7  745.52    6.61   0
   3  10   7   23.55    2.87   0
  -3 -10  -7   19.11    4.12   0
   3  10   7   20.47    4.33   0
  -3 -10  -7   21.24    4.98   0
  -4 -10  -7    9.35    4.07   0
   4  10   7    4.37    4.07   0
   4  10   7    5.71    5.01   0
  -4 -10  -7    4.09    4.06   0
  -5 -10  -7    2.00    4.26   0
   5  10   7    6.08    4.05   0
   5  10   7    1.12    4.16   0
  -5 -10  -7    2.50    4.09   0
  -6 -10  -7   14.11    4.31   0
   6  10   7   14.86    4.32   0
  -6 -10  -7   19.64    4.43   0
   6  10   7   11.87    4.34   0
   1 -11  -7    2.32    4.57   0
   1 -11  -7    4.35    4.50   0
  -1  11   7    6.05    4.06   0
   1 -11  -7    5.39    4.08   0
   0 -11  -7   -0.46    4.48   0
   0 -11  -7    0.74    4.31   0
   0  11   7    1.78    2.96   0
   0 -11  -7   -0.77    4.11   0
  -1 -11  -7   94.93    4.60   0
  -1 -11  -7   81.57    5.22   0
  -1 -11  -7   89.51    5.82   0
   1  11   7   86.99    3.35   0
  -2 -11  -7  106.53    4.54   0
  -2 -11  -7   99.21    5.14   0
  -2 -11  -7  102.79    5.72   0
   2  11   7   96.37    3.54   0
  -3 -11  -7    8.42    4.14   0
   3  11   7    9.05    4.05   0
  -3 -11  -7   11.89    5.12   0
  -4 -11  -7  183.74    5.21   0
   4  11   7  189.28    5.21   0
   4  11   7  174.70    5.74   0
  -4 -11  -7  201.20    5.56   0
  -5 -11  -7   55.51    4.53   0
   5  11   7   51.84    4.73   0
   5  11   7   55.24    4.64   0
  -5 -11  -7   51.49    5.61   0
   6  11   7    7.11    5.68   0
  -6 -11  -7    5.73    4.58   0
   6  11   7    5.85    4.59   0
  -6 -11  -7    5.73    4.43   0
  -1 -12  -7    7.91    4.44   0
  -1 -12  -7    6.73    4.72   0
  -1 -12  -7    1.05    4.47   0
   1  12   7    3.77    4.40   0
   2  12   7   77.04    3.64   0
  -2 -12  -7   68.12    4.79   0
  -2 -12  -7   70.58    5.55   0
  -2 -12  -7   76.75    6.15   0
  -3 -12  -7    6.52    4.19   0
   3  12   7    3.50    4.39   0
  -3 -12  -7    1.43    4.53   0
  -3 -12  -7    2.87    4.50   0
  -4 -12  -7   21.17    4.54   0
   4  12   7   21.88    4.58   0
   4  12   7   14.38    4.82   0
  -4 -12  -7   29.07    4.69   0
   4   8  -8   91.42    5.04   0
   4   8  -8   62.88    4.75   0
  -4  -8   8   60.77    4.88   0
  -4  -8   8   74.08    5.26   0
  -3  -8   8    6.61    4.48   0
   3   8  -8    2.75    4.10   0
  -3  -8   8    2.15    4.49   0
  -3  -8   8    1.32    4.33   0
  -2  -8   8    4.74    4.36   0
  -2  -8   8    2.32    4.56   0
  -2  -8   8    1.23    3.03   0
   2   8  -8    4.91    4.18   0
   1   8  -8   26.45    4.43   0
  -1  -8   8   34.75    4.61   0
  -1  -8   8   27.53    4.80   0
  -1  -8   8   23.29    4.64   0
  -5  -7   8   16.42    4.22   0
   5   7  -8   21.70    4.43   0
  -5  -7   8   16.54    4.46   0
  -4  -7   8   35.13    4.17   0
   4   7  -8   37.38    4.38   0
  -4  -7   8   36.33    4.49   0
  -3  -7   8   23.50    2.96   0
   3   7  -8   29.37    4.11   0
  -3  -7   8   24.21    4.28   0
   2   7  -8    6.44    3.85   0
  -2  -7   8    2.23    4.27   0
  -2  -7   8    2.89    4.34   0
  -2  -7   8    4.43    4.02   0
  -1  -7   8    8.89    3.12   0
   1   7  -8    7.56    3.75   0
  -1  -7   8    3.01    4.40   0
  -1  -7   8    4.70    4.31   0
   0   7  -8  193.25    5.21   0
   0  -7   8  199.88    5.37   0
   0  -7   8  186.73    5.54   0
   0  -7   8  155.90    5.36   0
   1  -7   8    4.96    3.16   0
   1  -7   8    1.84    4.22   0
   1  -7   8    4.24    4.43   0
  -1   7  -8   -2.47    3.96   0
   6   6  -8   13.73    4.41   0
  -6  -6   8   14.15    4.05   0
  -6  -6   8   13.27    3.17   0
  -5  -6   8    8.61    3.79   0
   5   6  -8   11.94    4.09   0
  -5  -6   8    8.37    4.22   0
  -4  -6   8    4.64    3.79   0
   4   6  -8    8.20    4.12   0
  -4  -6   8    2.67    3.03   0
   3   6  -8   34.71    3.96   0
  -3  -6   8   37.33    3.96   0
   3   6  -8   56.02    4.20   0
  -3  -6   8   37.61    4.40   0
  -2  -6   8  218.27    4.91   0
   2   6  -8  219.75    4.83   0
  -2  -6   8  228.90    5.19   0
  -2  -6   8  247.20    5.35   0
  -1  -6   8    9.44    3.98   0
  -1  -6   8    6.74    4.17   0
   1   6  -8    6.61    3.65   0
  -1  -6   8    7.01    3.89   0
   0   6  -8   29.13    3.85   0
   0  -6   8   40.35    4.13   0
   0  -6   8   29.88    4.37   0
   0  -6   8   24.34    4.22   0
  -1   6  -8   12.06    4.76   0
   1  -6   8    9.33    3.02   0
   1  -6   8    7.94    4.19   0
   1  -6   8   15.85    4.21   0
   2  -6   8   35.43    4.68   0
   2  -6   8   37.18    4.90   0
   2  -6   8   48.67    4.73   0
  -2   6  -8   45.38    4.63   0
   3  -6   8    0.64    4.71   0
   3  -6   8    0.63    4.48   0
   3  -6   8   -1.44    4.47   0
  -3   6  -8    2.80    5.32   0
   7   5  -8   79.15    4.96   0
  -7  -5   8   71.57    4.65   0
  -7  -5   8   63.85    5.01   0
   6   5  -8    2.22    4.10   0
  -6  -5   8   -1.65    3.87   0
  -6  -5   8   -0.82    4.00   0
  -5  -5   8   31.26    4.07   0
   5   5  -8   44.98    4.17   0
  -5  -5   8   30.03    4.20   0
   4   5  -8   41.97    4.13   0
  -4  -5   8   42.98    4.20   0
  -4  -5   8   36.19    3.76   0
  -3  -5   8   34.54    3.77   0
   3   5  -8   43.94    4.21   0
  -3  -5   8   36.70    4.08   0
   2   5  -8  342.96    5.29   0
  -2  -5   8  313.35    5.20   0
  -2  -5   8  330.84    5.44   0
  -2  -5   8  358.13    5.63   0
  -1  -5   8  100.84    4.29   0
  -1  -5   8  117.33    4.70   0
   1   5  -8  107.54    4.29   0
  -1  -5   8  114.68    4.62   0
   0  -5   8   17.54    4.03   0
   0   5  -8   20.60    3.61   0
   0  -5   8   16.61    2.98   0
   0  -5   8   17.94    3.78   0
  -1   5  -8   17.82    3.79   0
   1  -5   8   15.09    4.17   0
   1  -5   8    9.13    4.01   0
   1  -5   8   20.86    3.97   0
   2  -5   8  204.42    5.18   0
   2  -5   8  167.42    5.73   0
   2  -5   8  190.10    4.19   0
  -2   5  -8  206.13    5.48   0
   3  -5   8    5.67    5.41   0
   3  -5   8    0.28    4.29   0
   3  -5   8    7.30    4.33   0
  -3   5  -8    1.06    4.94   0
  -4   5  -8    1.03    5.34   0
   4  -5   8   -0.18    4.64   0
   4  -5   8    1.73    4.68   0
   4  -5   8    1.62    4.87   0
  -7  -4   8  343.71    5.42   0
   7   4  -8  438.12    6.38   0
  -7  -4   8  377.57    6.41   0
  -6  -4   8   34.06    3.95   0
   6   4  -8   44.08    4.19   0
  -6  -4   8   33.62    4.26   0
  -5  -4   8    1.52    3.65   0
   5   4  -8   -0.10    2.72   0
  -5  -4   8   -2.46    3.85   0
   4   4  -8  129.44    4.21   0
  -4  -4   8  116.82    4.35   0
  -4  -4   8  113.25    4.00   0
   3   4  -8  217.38    4.83   0
  -3  -4   8  188.84    4.73   0
  -3  -4   8  181.17    4.35   0
   2   4  -8  108.55    4.57   0
  -2  -4   8  103.88    4.11   0
  -2  -4   8  107.92    4.62   0
  -1  -4   8  110.51    4.27   0
   1   4  -8  117.42    4.16   0
  -1  -4   8  113.67    4.54   0
  -1  -4   8  124.76    4.58   0
   0  -4   8  184.64    5.40   0
   0   4  -8  193.63    4.65   0
   0  -4   8  185.27    3.94   0
   0  -4   8  206.29    4.91   0
   1  -4   8  136.17    4.51   0
   1  -4   8  144.71    4.68   0
  -1   4  -8  131.27    4.44   0
   1  -4   8  130.35    5.35   0
  -2   4  -8    7.91    3.71   0
   2  -4   8    9.07    3.91   0
   2  -4   8    7.51    4.10   0
   2  -4   8    6.93    4.10   0
  -3   4  -8  208.77    5.64   0
   3  -4   8  195.06    6.84   0
   3  -4   8  204.06    5.09   0
   3  -4   8  212.63    5.21   0
   4  -4   8    0.01    4.21   0
  -4   4  -8    1.78    5.87   0
   4  -4   8    1.10    5.50   0
  -7  -3   8    0.97    4.16   0
   7   3  -8    4.13    3.97   0
  -7  -3   8    3.90    4.20   0
  -6  -3   8   10.95    3.75   0
   6   3  -8   18.12    4.01   0
  -6  -3   8   16.06    4.09   0
  -5  -3   8  243.35    4.71   0
   5   3  -8  283.53    5.18   0
  -5  -3   8  245.87    5.18   0
  -4  -3   8   18.98    3.60   0
   4   3  -8   20.65    3.79   0
  -4  -3   8   16.03    3.80   0
  -3  -3   8  154.60    4.21   0
   3   3  -8  157.69    4.37   0
  -3  -3   8  135.18    4.83   0
   2   3  -8    7.08    3.93   0
  -2  -3   8    9.20    3.68   0
  -2  -3   8   15.31    3.62   0
  -1  -3   8   89.30    4.49   0
  -1  -3   8   81.24    3.84   0
  -1  -3   8   81.08    4.38   0
   0   3  -8  194.47    4.60   0
   0  -3   8  195.74    5.37   0
   0  -3   8  213.91    4.96   0
   0  -3   8  221.99    5.27   0
   1  -3   8   47.57    4.11   0
   1  -3   8   48.04    4.31   0
  -1   3  -8   44.72    3.87   0
   1  -3   8   43.44    4.93   0
  -2   3  -8  102.77    5.02   0
   2  -3   8  108.06    4.42   0
   2  -3   8  115.19    4.62   0
   2  -3   8   94.27    5.67   0
  -3   3  -8   48.11    4.11   0
   3  -3   8   43.39    5.56   0
   3  -3   8   44.39    4.06   0
  -3   3  -8   45.04    4.95   0
   4  -3   8   67.62    4.52   0
  -4   3  -8   63.98    5.63   0
  -4   3  -8   70.97    4.52   0
   4  -3   8   67.87    6.90   0
   5  -3   8    1.88    4.43   0
  -5   3  -8    3.79    4.49   0
  -7  -2   8   10.80    4.07   0
  -7  -2   8    5.77    4.15   0
   7   2  -8    9.35    4.31   0
  -7  -2   8   10.74    2.76   0
   6   2  -8   27.79    4.01   0
  -6  -2   8   29.51    4.15   0
  -6  -2   8   22.96    2.82   0
   5   2  -8  549.03    6.13   0
  -5  -2   8  477.03    6.16   0
  -5  -2   8  477.79    4.97   0
   4   2  -8   88.34    4.14   0
  -4  -2   8   74.57    4.07   0
  -4  -2   8   82.31    3.78   0
   3   2  -8  671.98    6.33   0
  -3  -2   8  651.61    5.98   0
  -3  -2   8  588.96    6.27   0
  -2  -2   8  277.82    4.74   0
   2   2  -8  277.29    5.07   0
  -2  -2   8  268.70    5.12   0
  -1  -2   8  131.74    4.18   0
  -1  -2   8  123.69    4.39   0
  -1  -2   8  113.91    4.54   0
   0  -2   8   14.94    3.88   0
   0  -2   8   10.33    3.75   0
   0  -2   8   12.26    3.58   0
   1  -2   8  336.95    5.93   0
   1  -2   8  385.77    5.72   0
   1  -2   8  395.88    5.72   0
   2  -2   8  163.13    4.68   0
   2  -2   8  146.85    5.72   0
   3  -2   8   26.42    3.95   0
   3  -2   8   27.45    5.86   0
  -3   2  -8   26.80    4.10   0
   4  -2   8  107.56    4.41   0
  -4   2  -8   91.67    4.38   0
   4  -2   8   94.45    7.92   0
   5  -2   8   13.51    4.22   0
  -5   2  -8    9.89    4.24   0
   6  -2   8    7.70    4.38   0
  -6   2  -8    1.65    4.67   0
  -7  -1   8    5.90    4.22   0
  -7  -1   8   12.11    4.02   0
   7   1  -8    6.95    4.08   0
  -7  -1   8    5.91    4.04   0
  -6  -1   8   33.59    4.06   0
  -6  -1   8   34.50    2.97   0
   6   1  -8   38.92    4.09   0
  -6  -1   8   37.11    2.93   0
   5   1  -8   43.59    3.81   0
  -5  -1   8   35.79    3.70   0
  -5  -1   8   31.02    4.07   0
   4   1  -8  461.97    5.78   0
  -4  -1   8  396.43    5.76   0
  -4  -1   8  442.45    5.29   0
   3   1  -8   92.18    4.73   0
  -3  -1   8   87.49    3.79   0
  -3  -1   8   78.06    4.23   0
  -2  -1   8   87.70    3.80   0
   2   1  -8   84.46    4.89   0
  -2  -1   8   72.43    4.23   0
  -1  -1   8  885.92    7.89   0
  -1  -1   8  834.82    7.79   0
  -1  -1   8  910.47    6.80   0
   0  -1   8  803.89    7.36   0
   0  -1   8  842.32    7.54   0
   0  -1   8  871.58    7.87   0
   1  -1   8  275.12    5.15   0
   1  -1   8  237.67    5.31   0
   1  -1   8  284.17    5.45   0
   2  -1   8   13.80    3.73   0
  -2   1  -8   16.37    3.83   0
   2  -1   8   14.78    4.64   0
   3  -1   8  119.81    4.46   0
   3  -1   8  112.54    8.28   0
  -3   1  -8  128.94    4.47   0
   4  -1   8  143.58    4.58   0
  -4   1  -8  146.68    4.55   0
   5  -1   8  299.37    4.57   0
  -5   1  -8  275.10    4.64   0
   6  -1   8   40.27    3.30   0
  -6   1  -8   48.87    4.71   0
  -7   0   8    8.06    4.10   0
   7   0  -8    4.78    4.07   0
  -7   0   8    4.69    4.08   0
  -7   0   8   -2.10    3.99   0
  -6   0   8  109.56    4.44   0
  -6   0   8  109.12    3.37   0
   6   0  -8  126.29    4.55   0
  -6   0   8   93.36    4.31   0
  -5   0   8   11.21    3.62   0
  -5   0   8    7.81    3.35   0
  -5   0   8    8.64    3.46   0
   5   0  -8    9.78    3.87   0
  -4   0   8    1.68    3.47   0
   4   0  -8   -0.48    3.66   0
  -4   0   8    2.63    3.83   0
   3   0  -8  102.42    4.44   0
  -3   0   8   94.10    4.54   0
  -2   0   8  409.77    5.05   0
   2   0  -8  402.85    6.21   0
  -2   0   8  345.21    5.86   0
  -1   0   8  442.59    5.66   0
  -1   0   8  417.12    6.76   0
   0   0   8  147.62    4.35   0
   0   0   8  139.97    4.56   0
   0   0   8  141.90    5.35   0
   1   0   8  410.18    6.77   0
   1   0   8  425.88    5.97   0
   1   0   8  444.15    6.35   0
   2   0   8  113.76    5.69   0
  -2   0  -8  121.18    4.40   0
   2   0   8  124.26    4.29   0
   3   0   8  236.22    4.60   0
  -3   0  -8  245.60    4.98   0
   4   0   8  131.42    4.50   0
  -4   0  -8  129.54    4.36   0
   5   0   8    8.25    3.97   0
  -5   0  -8   10.76    2.87   0
   6   0   8   -3.22    4.17   0
  -6   0  -8    3.87    2.80   0
  -7   1   8   52.61    4.61   0
   7  -1  -8   66.15    3.53   0
  -7   1   8   57.61    4.70   0
  -6   1   8   59.34    4.20   0
   6  -1  -8   71.01    5.09   0
  -6   1   8   58.20    4.00   0
  -5   1   8   77.32    4.06   0
   5  -1  -8   75.82    4.19   0
  -5   1   8   67.41    3.99   0
  -4   1   8    4.13    4.79   0
   4  -1  -8    7.22    3.89   0
  -4   1   8    6.11    2.52   0
   3  -1  -8  808.02    8.38   0
  -3   1   8  741.40    6.32   0
  -3   1   8  759.15    7.82   0
   2  -1  -8 1094.90   10.14   0
  -2   1   8 1027.07    7.19   0
  -2   1   8  991.25    9.42   0
  -1   1   8   31.52    3.68   0
  -1   1   8   25.42    3.86   0
   0   1   8    6.37    4.36   0
   0   1   8    3.43    4.59   0
   0   1   8    6.93    4.25   0
   1   1   8  231.14    5.70   0
   1   1   8  229.73    5.43   0
   1   1   8  231.58    5.23   0
   1   1   8  242.50    5.88   0
   2   1   8  397.22    5.84   0
  -2  -1  -8  434.36    6.16   0
   2   1   8  441.38    9.29   0
   2   1   8  402.40    8.45   0
   3   1   8  216.10    4.61   0
  -3  -1  -8  196.61    4.65   0
   4   1   8    5.33    3.88   0
  -4  -1  -8    3.87    3.81   0
   5   1   8   17.82    3.78   0
  -5  -1  -8   16.44    3.78   0
   6   1   8  103.43    4.45   0
  -6  -1  -8   89.29    4.56   0
  -7  -1  -8  169.89    5.75   0
   7   1   8  196.94    5.69   0
  -7   2   8    0.88    4.28   0
   7  -2  -8    2.14    4.28   0
  -7   2   8    1.81    4.26   0
  -6   2   8    9.91    4.04   0
   6  -2  -8    8.43    4.04   0
  -6   2   8    2.18    3.87   0
  -5   2   8    3.52    4.30   0
   5  -2  -8    5.33    3.80   0
  -5   2   8    1.06    3.63   0
  -4   2   8  448.67    6.28   0
   4  -2  -8  482.20    6.41   0
  -4   2   8  448.04    5.38   0
  -3   2   8   15.74    4.61   0
   3  -2  -8   17.99    4.47   0
  -3   2   8   16.69    3.64   0
  -2   2   8  317.96    7.21   0
   2  -2  -8  332.46    7.79   0
  -2   2   8  322.54    4.79   0
  -1   2   8  429.44    9.70   0
  -1   2   8  445.42    5.70   0
  -1   2   8  423.19    9.34   0
   0   2   8 1280.80   14.25   0
   0   2   8 1261.24   14.33   0
   0   2   8 1345.21    9.15   0
   1   2   8  361.68    7.02   0
   1   2   8  379.15    6.61   0
   2   2   8  780.62   11.10   0
   2   2   8  743.86    7.46   0
   2   2   8  789.76   10.46   0
  -2  -2  -8  768.97    8.32   0
   3   2   8  600.96    6.54   0
  -3  -2  -8  597.06    6.64   0
   4   2   8  154.61    4.34   0
  -4  -2  -8  160.17    4.41   0
   5   2   8  158.89    3.57   0
  -5  -2  -8  161.64    4.67   0
  -6  -2  -8  169.28    4.70   0
   6   2   8  165.14    4.78   0
  -7  -2  -8    2.34    4.13   0
   7   2   8   -1.52    2.84   0
  -7   3   8   12.96    4.49   0
   7  -3  -8    8.23    4.43   0
  -7   3   8   10.64    4.65   0
  -6   3   8   -0.69    3.96   0
   6  -3  -8    1.23    3.97   0
  -6   3   8    1.60    4.04   0
  -5   3   8  195.14    5.06   0
   5  -3  -8  206.45    4.99   0
  -5   3   8  192.74    4.61   0
  -4   3   8   51.10    4.79   0
   4  -3  -8   50.08    4.74   0
  -4   3   8   51.63    3.91   0
  -3   3   8  377.39    6.92   0
   3  -3  -8  394.71    6.99   0
  -3   3   8  385.33    4.41   0
  -2   3   8   10.11    5.24   0
   2  -3  -8    9.49    5.28   0
  -2   3   8   10.60    3.50   0
  -1   3   8  124.02    4.15   0
   0   3   8  271.39    5.27   0
   1   3   8  182.90    6.69   0
   1   3   8  193.67    4.92   0
   2   3   8    2.83    3.42   0
   2   3   8    0.25    4.78   0
  -2  -3  -8    2.37    3.52   0
   3   3   8  405.32    6.50   0
   3   3   8  397.37   11.58   0
  -3  -3  -8  403.53    6.00   0
  -4  -3  -8   84.06    4.10   0
   4   3   8   74.52    4.12   0
  -5  -3  -8    6.15    3.73   0
   5   3   8    6.27    3.57   0
  -6  -3  -8    5.54    3.90   0
   6   3   8    4.68    3.84   0
  -7  -3  -8   41.20    4.42   0
   7   3   8   53.41    4.51   0
  -6   4   8   15.56    4.28   0
  -6   4   8   12.23    4.38   0
   6  -4  -8   14.92    4.29   0
  -5   4   8   -0.17    2.79   0
  -5   4   8    1.47    3.92   0
   5  -4  -8    2.14    3.89   0
  -4   4   8   60.47    5.04   0
   4  -4  -8   66.20    5.01   0
  -4   4   8   65.74    3.93   0
  -3   4   8   65.34    5.24   0
   3  -4  -8   66.04    4.93   0
  -3   4   8   55.84    2.94   0
  -2   4   8  209.80    7.96   0
   2  -4  -8  215.32    4.61   0
   2  -4  -8  214.70    7.89   0
  -2   4   8  224.29    4.65   0
  -1   4   8  482.45    5.59   0
   1  -4  -8  480.31    5.67   0
   0   4   8  575.28    6.37   0
   0  -4  -8  570.31    6.45   0
   1   4   8  111.10    4.37   0
   1   4   8  102.77   10.85   0
  -1  -4  -8  110.13    4.20   0
  -2  -4  -8   20.01    5.30   0
   2   4   8   16.90    3.97   0
  -2  -4  -8   18.69    3.69   0
   2   4   8   16.89    4.76   0
  -3  -4  -8  398.80    6.33   0
  -3  -4  -8  409.74    8.37   0
   3   4   8  419.75    8.75   0
   3   4   8  386.68    6.08   0
   4   4   8   19.26    9.27   0
  -4  -4  -8   20.19    3.69   0
   4   4   8   17.68    3.99   0
  -5  -4  -8  196.43    4.47   0
   5   4   8  186.88    4.51   0
  -6  -4  -8    2.86    3.78   0
   6   4   8   -0.48    3.87   0
  -7  -4  -8   13.58    4.20   0
   7   4   8   20.35    4.14   0
  -6   5   8   24.99    4.26   0
  -6   5   8   23.61    4.64   0
   6  -5  -8   24.23    4.56   0
  -5   5   8  322.62    5.35   0
  -5   5   8  304.86    6.26   0
   5  -5  -8  325.70    6.86   0
  -4   5   8   21.83    3.82   0
  -4   5   8   23.76    4.97   0
   4  -5  -8   24.75    4.03   0
  -3   5   8   -1.79    3.72   0
  -3   5   8    4.22    4.77   0
   3  -5  -8    3.96    3.63   0
   3  -5  -8    2.37    4.58   0
  -2   5   8  133.88    4.16   0
  -2   5   8  131.11    6.91   0
   2  -5  -8  131.08    3.39   0
   2  -5  -8  134.89    6.72   0
  -1   5   8 1001.96    7.17   0
   1  -5  -8 1001.89    7.29   0
   0   5   8  382.06    5.43   0
   0  -5  -8  379.08    5.45   0
   1   5   8  483.49    6.11   0
  -1  -5  -8  487.80    6.13   0
  -2  -5  -8  322.10    7.54   0
   2   5   8  332.05    5.83   0
   2   5   8  316.49    7.55   0
  -2  -5  -8  350.69    5.80   0
  -3  -5  -8    4.72    4.41   0
   3   5   8    4.58    3.71   0
  -3  -5  -8    3.66    4.50   0
   3   5   8    4.66    4.70   0
  -4  -5  -8   92.84    4.26   0
   4   5   8   89.21    5.71   0
  -4  -5  -8   84.55    5.55   0
   4   5   8   90.18    4.31   0
  -5  -5  -8  198.44    5.10   0
  -5  -5  -8  211.95   10.05   0
   5   5   8  214.36    4.78   0
  -6  -5  -8   20.45    3.86   0
   6   5   8   23.32    3.96   0
  -7  -5  -8    6.28    3.91   0
   7   5   8    6.88    3.93   0
  -5   6   8   37.90    4.21   0
  -5   6   8   40.35    4.67   0
   5  -6  -8   37.74    4.60   0
  -4   6   8  127.34    3.55   0
  -4   6   8  120.36    5.18   0
   4  -6  -8  115.23    4.40   0
   4  -6  -8  119.76    4.71   0
  -3   6   8   18.04    3.81   0
  -3   6   8   21.10    4.94   0
   3  -6  -8   18.24    3.68   0
   3  -6  -8   17.46    4.64   0
  -2   6   8    2.03    3.69   0
   2  -6  -8    5.41    5.45   0
   2  -6  -8    0.12    3.49   0
   2  -6  -8    2.42    4.48   0
  -1   6   8  808.75    5.97   0
   1  -6  -8  820.12   15.41   0
   1  -6  -8  808.67    6.64   0
   1  -6  -8  808.79   15.57   0
   0   6   8  252.62    4.92   0
   0  -6  -8  245.17    4.90   0
  -1  -6  -8    2.92    7.43   0
   1   6   8    3.75    3.64   0
  -1  -6  -8    2.69    7.75   0
  -1  -6  -8    2.58    3.59   0
  -2  -6  -8  107.63    5.54   0
   2   6   8  117.78    4.49   0
   2   6   8  107.01    5.79   0
  -2  -6  -8  113.19    4.47   0
  -3  -6  -8  919.53    9.44   0
   3   6   8  920.64    9.17   0
   3   6   8  976.86    8.80   0
  -3  -6  -8 1010.38    8.86   0
  -4  -6  -8   81.25    4.38   0
   4   6   8   84.30    5.30   0
   4   6   8   84.17    5.02   0
  -4  -6  -8   88.90    5.20   0
  -5  -6  -8    3.31    4.48   0
  -5  -6  -8    1.30    3.75   0
   5   6   8    3.14    4.48   0
   5   6   8    2.17    4.62   0
  -6  -6  -8    7.97    3.87   0
   6   6   8   15.72    3.99   0
  -6  -6  -8   11.13    6.49   0
  -7  -6  -8   53.25    4.62   0
   7   6   8   60.29    4.53   0
  -5   7   8    1.79    4.34   0
  -5   7   8    1.19    4.66   0
   5  -7  -8    2.55    4.35   0
  -4   7   8   45.87    4.14   0
  -4   7   8   42.71    4.55   0
   4  -7  -8   41.05    4.27   0
   4  -7  -8   39.12    5.20   0
  -3   7   8  280.67    5.00   0
   3  -7  -8  245.25    4.94   0
   3  -7  -8  248.32    5.97   0
   2  -7  -8  108.96    5.52   0
  -2   7   8  118.47    4.17   0
   2  -7  -8  119.28    5.77   0
   2  -7  -8  113.80    4.22   0
   1  -7  -8   57.20    5.88   0
  -1   7   8   65.19    3.88   0
   1  -7  -8   67.57    6.02   0
   1  -7  -8   65.95    3.69   0
   0  -7  -8   76.07    7.39   0
   0   7   8   76.37    3.96   0
   0  -7  -8   75.24    7.02   0
   0  -7  -8   81.62    4.00   0
  -1  -7  -8   43.81    6.19   0
   1   7   8   43.62    4.00   0
  -1  -7  -8   43.02    3.96   0
  -1  -7  -8   43.30    6.16   0
  -2  -7  -8   21.36    4.79   0
   2   7   8   20.02    4.82   0
   2   7   8   22.85    3.83   0
  -2  -7  -8   20.66    3.87   0
  -3  -7  -8  274.72    5.38   0
  -3  -7  -8  271.35    6.34   0
   3   7   8  257.85    6.31   0
   3   7   8  282.06    6.10   0
  -4  -7  -8   38.91    4.10   0
  -4  -7  -8   41.94    3.85   0
   4   7   8   44.54    4.02   0
   4   7   8   43.94    4.63   0
   5   7   8   12.34    4.78   0
  -5  -7  -8   13.07    3.74   0
  -5  -7  -8   13.31    4.59   0
   5   7   8   18.29    4.55   0
   6   7   8   17.49    4.98   0
  -6  -7  -8   15.69    5.68   0
  -6  -7  -8   17.78    4.07   0
   6   7   8   18.32    4.02   0
  -7  -7  -8   18.62    6.88   0
  -7  -7  -8   17.30    4.27   0
   7   7   8   15.13    4.29   0
  -4   8   8    3.32    3.07   0
   4  -8  -8    2.28    4.11   0
   4  -8  -8    5.10    4.13   0
   3  -8  -8  187.39    5.80   0
  -3   8   8  213.21    4.94   0
   3  -8  -8  181.53    6.92   0
   3  -8  -8  169.96    4.04   0
   2  -8  -8  190.17    6.52   0
  -2   8   8  222.33    4.70   0
   2  -8  -8  220.25    6.71   0
   2  -8  -8  187.25    3.88   0
   1  -8  -8   -1.82    4.49   0
  -1   8   8    4.69    3.66   0
   1  -8  -8    1.30    4.52   0
   1  -8  -8    1.71    2.57   0
   0  -8  -8   26.26    5.44   0
   0   8   8   26.52    3.90   0
   0  -8  -8   28.35    5.41   0
   0  -8  -8   23.60    3.80   0
  -1  -8  -8  471.94    8.81   0
   1   8   8  477.72    5.70   0
  -1  -8  -8  463.57    8.46   0
  -1  -8  -8  488.71    5.72   0
  -2  -8  -8    9.06    3.73   0
   2   8   8    8.35    5.52   0
   2   8   8    6.35    3.78   0
  -2  -8  -8    8.84    4.56   0
  -3  -8  -8   33.51    3.81   0
   3   8   8   33.32    4.83   0
   3   8   8   33.52    3.79   0
  -3  -8  -8   32.61    4.69   0
  -4  -8  -8   20.33    3.80   0
  -4  -8  -8   19.60    3.82   0
   4   8   8   23.19    4.10   0
   4   8   8   22.37    3.91   0
  -5  -8  -8  250.93    6.22   0
  -5  -8  -8  287.62    6.56   0
   5   8   8  287.36    6.17   0
   5   8   8  279.88    5.91   0
  -6  -8  -8    3.18    4.01   0
  -6  -8  -8    9.14    5.09   0
   6   8   8    6.79    3.90   0
   6   8   8    7.76    4.92   0
  -7  -8  -8    8.30    4.16   0
  -7  -8  -8   10.12    5.32   0
   7   8   8    7.59    4.32   0
   3  -9  -8   -0.32    5.16   0
  -3   9   8    6.56    4.15   0
   3  -9  -8    1.50    4.28   0
   3  -9  -8   -0.79    4.03   0
   2  -9  -8   23.55    5.14   0
  -2   9   8   30.92    4.08   0
   2  -9  -8   28.65    5.23   0
   2  -9  -8   23.79    3.98   0
   1  -9  -8   12.43    4.95   0
  -1   9   8   16.06    3.89   0
   1  -9  -8   12.66    5.01   0
   1  -9  -8   16.02    3.86   0
   0  -9  -8  277.71    7.78   0
   0   9   8  308.13    4.20   0
   0  -9  -8  298.79    7.13   0
   0  -9  -8  295.33    4.98   0
  -1  -9  -8    3.51    4.89   0
   1   9   8    4.58    2.70   0
  -1  -9  -8    0.95    4.47   0
  -1  -9  -8    2.74    2.76   0
  -2  -9  -8  138.33    4.63   0
  -2  -9  -8  132.21    6.05   0
   2   9   8  149.20    4.36   0
  -2  -9  -8  144.08    5.86   0
  -3  -9  -8   46.02    4.01   0
   3   9   8   39.73    4.17   0
  -3  -9  -8   42.45    4.98   0
   3   9   8   42.68    3.98   0
  -4  -9  -8    2.54    3.88   0
   4   9   8    0.53    3.84   0
   4   9   8    2.82    4.94   0
  -4  -9  -8    0.45    3.83   0
  -5  -9  -8  117.21    5.00   0
  -5  -9  -8  135.83    4.74   0
   5   9   8  133.18    4.77   0
   5   9   8  131.84    5.10   0
  -6  -9  -8    1.34    4.08   0
  -6  -9  -8    2.24    5.12   0
   6   9   8    1.67    4.19   0
   6   9   8    6.65    4.21   0
  -7  -9  -8    4.26    5.30   0
  -7  -9  -8    2.80    5.50   0
   7   9   8    2.03    5.35   0
   7   9   8    3.53    4.28   0
   2 -10  -8   17.26    5.61   0
  -2  10   8   16.36    4.26   0
   2 -10  -8   15.66    5.68   0
   2 -10  -8   17.44    4.25   0
   1 -10  -8   95.90    6.01   0
  -1  10   8  114.21    4.48   0
   1 -10  -8  106.27    5.18   0
   1 -10  -8  106.99    4.47   0
   0 -10  -8   44.41    5.19   0
   0  10   8   47.49    4.19   0
   0 -10  -8   44.29    5.29   0
   0 -10  -8   47.53    4.13   0
  -1 -10  -8   30.59    5.25   0
   1  10   8   38.93    3.08   0
  -1 -10  -8   37.51    5.08   0
  -1 -10  -8   42.70    4.20   0
  -2 -10  -8  207.79    4.92   0
  -2 -10  -8  206.19    6.73   0
  -2 -10  -8  210.45    6.15   0
   2  10   8  220.12    4.86   0
   3  10   8    1.11    3.92   0
  -3 -10  -8    3.31    3.81   0
   3  10   8    0.70    5.34   0
  -3 -10  -8   -0.00    4.02   0
  -4 -10  -8  108.36    4.56   0
   4  10   8   95.32    4.60   0
   4  10   8   98.96    5.73   0
  -4 -10  -8  100.73    4.89   0
  -5 -10  -8    3.46    4.10   0
  -5 -10  -8   12.94    5.32   0
   5  10   8    5.07    4.09   0
   5  10   8   10.03    4.35   0
  -6 -10  -8    1.05    4.26   0
  -6 -10  -8    4.27    4.38   0
   6  10   8    2.62    4.49   0
   6  10   8    3.36    4.35   0
   1 -11  -8   33.73    6.11   0
   1 -11  -8   43.11    5.95   0
  -1  11   8   41.99    4.45   0
   1 -11  -8   37.88    4.46   0
   0 -11  -8  132.52    5.95   0
   0 -11  -8  143.54    6.70   0
   0  11   8  147.14    4.98   0
   0 -11  -8  139.92    5.01   0
  -1 -11  -8   -1.41    4.34   0
  -1 -11  -8   -1.33    4.12   0
   1  11   8   -0.15    4.11   0
  -1 -11  -8   -0.23    4.16   0
  -2 -11  -8   18.03    4.29   0
  -2 -11  -8   21.21    4.62   0
  -2 -11  -8   18.32    4.15   0
   2  11   8   23.22    4.20   0
  -3 -11  -8   65.46    4.46   0
   3  11   8   55.26    3.38   0
  -3 -11  -8   66.96    5.50   0
  -4 -11  -8  311.53    6.00   0
   4  11   8  305.52    5.97   0
   4  11   8  248.00    7.15   0
  -4 -11  -8  283.08    6.20   0
  -5 -11  -8   41.24    4.76   0
   5  11   8   38.56    4.72   0
   5  11   8   34.83    4.64   0
  -5 -11  -8   33.91    4.63   0
  -1 -12  -8    5.51    4.78   0
  -1 -12  -8    5.61    5.56   0
   1  12   8   -0.77    4.36   0
  -1 -12  -8    8.02    4.43   0
   2  12   8   49.35    4.70   0
  -2 -12  -8   49.10    4.73   0
  -2 -12  -8   41.17    6.03   0
  -2 -12  -8   46.25    5.83   0
  -3 -12  -8   48.84    4.81   0
   3  12   8   44.48    4.58   0
  -3 -12  -8   36.48    6.22   0
  -3 -12  -8   49.59    5.14   0
  -4 -12  -8  206.31    5.66   0
   4  12   8  206.42    5.86   0
   4  12   8  157.02    7.36   0
  -4 -12  -8  207.99    7.02   0
   4   7  -9   97.17    5.02   0
  -4  -7   9   68.83    3.80   0
  -4  -7   9   80.40    3.93   0
  -3  -7   9   16.65    4.27   0
  -3  -7   9   19.35    4.55   0
  -3  -7   9   17.58    4.49   0
   2   7  -9    0.52    4.08   0
  -2  -7   9    0.34    4.50   0
  -2  -7   9    1.89    4.54   0
  -2  -7   9    5.86    4.21   0
   1   7  -9    2.12    4.08   0
  -1  -7   9    7.39    4.52   0
  -1  -7   9    5.85    4.63   0
  -1  -7   9    3.18    4.34   0
   0  -7   9    7.46    4.46   0
   0  -7   9    1.54    4.64   0
   0  -7   9    5.42    4.44   0
   0   7  -9    4.02    4.13   0
  -5  -6   9    7.32    4.15   0
   5   6  -9   16.87    4.29   0
  -5  -6   9    7.36    4.33   0
   4   6  -9   25.22    4.29   0
  -4  -6   9   18.96    2.98   0
  -4  -6   9   27.79    4.36   0
  -3  -6   9   95.35    4.59   0
  -3  -6   9  102.99    4.89   0
  -2  -6   9    8.73    3.97   0
   2   6  -9    5.94    3.90   0
  -2  -6   9    0.80    3.00   0
  -2  -6   9    1.12    4.40   0
  -1  -6   9   12.73    4.31   0
  -1  -6   9   10.94    4.34   0
   1   6  -9    6.40    3.73   0
  -1  -6   9    8.36    4.17   0
   0   6  -9   40.24    4.26   0
   0  -6   9   41.74    4.55   0
   0  -6   9   42.44    4.63   0
   0  -6   9   32.91    4.40   0
   1  -6   9   18.26    4.65   0
   1  -6   9   14.00    4.15   0
  -1   6  -9   10.97    4.11   0
   1  -6   9   13.15    4.38   0
   2  -6   9   57.16    3.78   0
   2  -6   9   60.24    6.45   0
   2  -6   9   64.58    5.02   0
  -2   6  -9   68.86    5.21   0
   6   5  -9   47.47    4.53   0
  -6  -5   9   41.23    4.18   0
  -6  -5   9   35.40    4.48   0
   5   5  -9  122.97    4.88   0
  -5  -5   9   96.09    4.40   0
  -5  -5   9  104.33    4.73   0
   4   5  -9    6.86    4.05   0
  -4  -5   9    3.34    3.75   0
  -4  -5   9    7.43    4.10   0
   3   5  -9  152.30    4.71   0
  -3  -5   9  124.27    4.49   0
  -3  -5   9  126.44    3.82   0
  -2  -5   9   81.76    4.36   0
  -2  -5   9   93.87    4.56   0
  -2  -5   9   99.36    4.69   0
   1   5  -9    5.22    3.69   0
  -1  -5   9    7.42    3.71   0
  -1  -5   9    5.53    4.13   0
  -1  -5   9    7.66    4.18   0
   0  -5   9   17.57    4.17   0
   0  -5   9   14.99    4.20   0
   0   5  -9   11.66    3.74   0
   0  -5   9   10.43    3.90   0
  -1   5  -9   48.71    4.13   0
   1  -5   9   51.83    4.52   0
   1  -5   9   48.59    3.40   0
   1  -5   9   44.52    4.51   0
   2  -5   9   22.12    4.49   0
   2  -5   9   20.42    5.45   0
   2  -5   9   21.09    4.51   0
  -2   5  -9   22.90    4.15   0
   3  -5   9    4.93    5.66   0
   3  -5   9   -2.37    3.30   0
   3  -5   9    3.04    3.30   0
  -3   5  -9    1.80    4.30   0
  -7  -4   9  133.61    5.14   0
   7   4  -9  143.62    5.58   0
  -7  -4   9  121.87    5.48   0
  -6  -4   9    3.96    3.93   0
   6   4  -9    7.26    4.18   0
  -6  -4   9   10.30    4.19   0
  -5  -4   9  246.59    4.29   0
   5   4  -9  308.37    5.47   0
  -5  -4   9  269.83    5.44   0
   4   4  -9   15.40    3.86   0
  -4  -4   9   11.12    3.85   0
  -4  -4   9   20.57    3.63   0
   3   4  -9   -1.50    4.04   0
  -3  -4   9    2.22    2.86   0
  -3  -4   9    3.89    3.63   0
  -2  -4   9    5.27    3.71   0
  -2  -4   9    9.76    3.92   0
  -2  -4   9    8.86    4.11   0
  -1  -4   9  857.84    7.46   0
  -1  -4   9  939.90    7.49   0
  -1  -4   9  973.73    7.85   0
   0  -4   9   71.78    4.20   0
   0  -4   9   85.21    4.24   0
   0   4  -9   74.87    4.63   0
   0  -4   9   85.81    4.46   0
   1  -4   9   31.79    4.22   0
   1  -4   9   28.85    4.39   0
   1  -4   9   25.82    4.03   0
  -1   4  -9   24.73    3.78   0
   2  -4   9  100.56    4.54   0
   2  -4   9   76.92    5.20   0
   2  -4   9   94.54    4.66   0
  -2   4  -9   92.13    4.63   0
  -3   4  -9   41.17    5.38   0
   3  -4   9   36.41    4.94   0
   3  -4   9   37.75    4.45   0
   3  -4   9   53.47    4.61   0
   4  -4   9   38.80    4.83   0
   4  -4   9   33.79    3.63   0
  -4   4  -9   40.45    6.78   0
   4  -4   9   34.23    6.36   0
  -7  -3   9    6.13    4.10   0
   7   3  -9    8.97    4.40   0
  -7  -3   9    3.71    4.34   0
  -6  -3   9   24.61    2.87   0
   6   3  -9   31.50    4.37   0
  -6  -3   9   20.83    4.31   0
  -5  -3   9  321.06    5.46   0
   5   3  -9  358.82    5.72   0
  -5  -3   9  303.30    5.45   0
  -4  -3   9   85.12    3.98   0
   4   3  -9   86.47    4.27   0
  -4  -3   9   81.48    4.28   0
  -3  -3   9   75.23    3.95   0
   3   3  -9   74.52    4.19   0
  -3  -3   9   68.76    4.19   0
  -2  -3   9   24.67    3.93   0
  -2  -3   9   19.30    2.64   0
  -1  -3   9  167.25    4.75   0
  -1  -3   9  159.91    4.56   0
  -1  -3   9  162.00    4.00   0
   0  -3   9   13.59    4.33   0
   0  -3   9   10.20    3.92   0
   0  -3   9   16.30    4.03   0
   1  -3   9   54.41    4.10   0
   1  -3   9   58.90    4.43   0
   1  -3   9   50.25    4.08   0
   2  -3   9  127.93    4.51   0
   2  -3   9  119.20    4.69   0
   2  -3   9  110.16    5.17   0
   3  -3   9   94.75    4.52   0
   3  -3   9   94.64    6.95   0
   4  -3   9    3.58    4.26   0
  -4   3  -9    3.43    2.92   0
   4  -3   9    4.68    6.27   0
  -7  -2   9   81.43    4.87   0
   7   2  -9  103.42    4.87   0
  -7  -2   9   67.10    4.73   0
  -7  -2   9   77.68    3.71   0
   6   2  -9    8.83    4.13   0
  -6  -2   9    2.13    3.70   0
  -6  -2   9    7.26    3.96   0
   5   2  -9  448.68    5.78   0
  -5  -2   9  389.95    5.42   0
  -5  -2   9  410.24    5.79   0
   4   2  -9   89.86    4.34   0
  -4  -2   9   87.21    3.95   0
  -4  -2   9   82.91    4.16   0
   3   2  -9  866.12    7.30   0
  -3  -2   9  850.02    6.66   0
  -3  -2   9  792.41    7.22   0
  -2  -2   9   29.38    3.73   0
   2   2  -9   33.77    4.05   0
  -2  -2   9   26.47    3.82   0
  -1  -2   9   53.28    3.98   0
  -1  -2   9   52.25    4.10   0
  -1  -2   9   55.23    3.77   0
   0  -2   9   80.59    4.10   0
   0  -2   9   76.58    4.20   0
   0  -2   9   75.14    4.72   0
   1  -2   9  482.60    7.34   0
   1  -2   9  515.33    6.04   0
   1  -2   9  540.53    6.39   0
   2  -2   9   48.88    3.93   0
   2  -2   9   45.80    4.24   0
   2  -2   9   38.38    4.20   0
   3  -2   9    0.72    3.98   0
   3  -2   9    0.69    6.11   0
  -3   2  -9    1.37    3.94   0
   4  -2   9   26.18    4.15   0
  -4   2  -9   25.75    4.24   0
   5  -2   9   16.83    4.45   0
  -5   2  -9   14.84    4.43   0
  -7  -1   9   11.03    4.39   0
  -7  -1   9    6.77    4.26   0
   7   1  -9   15.46    4.37   0
  -7  -1   9    5.77    4.30   0
  -6  -1   9   41.58    4.34   0
  -6  -1   9   28.98    3.82   0
   6   1  -9   50.81    4.24   0
  -6  -1   9   37.55    4.02   0
  -5  -1   9  286.46    5.22   0
   5   1  -9  387.09    5.60   0
  -5  -1   9  356.43    5.20   0
  -5  -1   9  348.61    6.26   0
   4   1  -9  109.60    4.18   0
  -4  -1   9  101.07    3.97   0
  -4  -1   9  103.42    4.20   0
  -3  -1   9  474.14    5.46   0
   3   1  -9  496.68    6.21   0
  -3  -1   9  431.55    6.10   0
  -2  -1   9   69.32    3.94   0
   2   1  -9   70.68    4.17   0
  -2  -1   9   65.91    5.12   0
  -1  -1   9  132.89    4.55   0
  -1  -1   9  134.15    4.06   0
  -1  -1   9  124.57    4.50   0
   0  -1   9  257.21    4.98   0
   0  -1   9  259.54    5.79   0
   0  -1   9  250.65    5.37   0
   1  -1   9  859.06    7.32   0
   1  -1   9  849.46    8.19   0
   1  -1   9  969.38    7.94   0
   2  -1   9   46.70    3.98   0
   2  -1   9   33.85    4.98   0
   3  -1   9   10.29    3.81   0
   3  -1   9    9.82    6.46   0
  -3   1  -9    9.79    3.83   0
   4  -1   9   97.84    4.22   0
  -4   1  -9   87.77    4.49   0
   5  -1   9   73.27    4.58   0
  -5   1  -9   73.75    4.76   0
   6  -1   9    8.58    4.66   0
  -6   1  -9    3.41    4.54   0
  -7   0   9   20.92    4.44   0
  -7   0   9   24.85    4.28   0
   7   0  -9   27.50    5.43   0
  -7   0   9   20.49    4.24   0
  -6   0   9    2.92    3.86   0
  -6   0   9    2.74    3.93   0
   6   0  -9    7.32    3.85   0
  -6   0   9    4.72    3.76   0
  -5   0   9  185.03    4.87   0
  -5   0   9  203.79    4.54   0
   5   0  -9  201.07    4.92   0
  -5   0   9  171.78    4.43   0
  -4   0   9  121.70    4.10   0
   4   0  -9  112.61    4.31   0
  -4   0   9  110.57    4.12   0
  -4   0   9  113.21    4.33   0
  -3   0   9  673.24    6.01   0
   3   0  -9  677.48    7.10   0
  -3   0   9  630.66    5.94   0
  -3   0   9  622.15    7.08   0
   2   0  -9   31.71    3.91   0
  -2   0   9   27.75    2.72   0
  -2   0   9   30.95    4.90   0
  -1   0   9    8.93    4.67   0
  -1   0   9    7.35    3.43   0
  -1   0   9    3.00    3.71   0
   0   0   9   65.75    4.20   0
   0   0   9   71.23    4.35   0
   0   0   9   73.05    3.93   0
   1   0   9  178.31    4.89   0
   1   0   9  184.53    4.79   0
   1   0   9  197.18    5.06   0
   2   0   9  140.10    6.74   0
   2   0   9  144.02    4.46   0
  -2   0  -9  142.96    4.60   0
   2   0   9  136.20    5.78   0
   3   0   9    8.97    3.92   0
  -3   0  -9    9.05    3.93   0
   4   0   9  139.74    4.41   0
  -4   0  -9  144.85    4.67   0
   5   0   9    9.08    3.99   0
  -5   0  -9    4.73    4.18   0
   6   0   9    8.69    4.23   0
  -6   0  -9   13.68    4.40   0
  -7   1   9  122.16    5.40   0
   7  -1  -9  162.75    5.43   0
  -7   1   9  103.70    5.08   0
  -7   1   9  134.35    4.97   0
  -6   1   9   15.24    4.02   0
   6  -1  -9   19.05    4.05   0
  -6   1   9   14.02    3.81   0
  -5   1   9    8.03    3.85   0
   5  -1  -9    7.92    3.81   0
  -5   1   9    6.61    2.68   0
  -4   1   9  134.14    5.15   0
   4  -1  -9  138.91    4.39   0
  -4   1   9  122.89    3.37   0
   3  -1  -9  320.72    5.79   0
  -3   1   9  309.81    4.86   0
  -3   1   9  293.44    5.69   0
   2  -1  -9    7.04    4.58   0
  -2   1   9    3.21    3.56   0
  -2   1   9    5.38    4.56   0
  -1   1   9    2.90    4.69   0
  -1   1   9   -0.23    3.53   0
  -1   1   9    2.17    3.79   0
   0   1   9  146.73    4.88   0
   0   1   9  143.58    5.45   0
   0   1   9  130.26    4.88   0
   0   1   9  137.88    4.31   0
   1   1   9  126.41    5.18   0
   1   1   9  141.99    5.22   0
   1   1   9  143.52    4.93   0
   1   1   9  132.10    4.61   0
   2   1   9   28.37    3.70   0
  -2  -1  -9   27.97    3.64   0
   2   1   9   30.21    5.58   0
   2   1   9   27.41    4.71   0
   3   1   9  352.61    5.44   0
  -3  -1  -9  351.91    5.49   0
   4   1   9   -1.90    3.43   0
  -4  -1  -9    5.92    3.81   0
   5   1   9   42.87    4.18   0
  -5  -1  -9   35.88    4.07   0
   6   1   9   19.12    4.36   0
  -6  -1  -9   22.86    3.02   0
  -7   2   9    5.90    5.36   0
   7  -2  -9    9.69    5.35   0
  -7   2   9    2.08    4.35   0
  -6   2   9  123.15    4.98   0
   6  -2  -9  122.23    5.04   0
  -6   2   9  106.90    4.71   0
  -5   2   9    4.14    3.86   0
   5  -2  -9    6.81    3.85   0
  -5   2   9    2.93    3.73   0
  -4   2   9   -0.78    3.68   0
   4  -2  -9    3.34    3.65   0
  -4   2   9    5.68    3.53   0
  -3   2   9  209.73    5.80   0
   3  -2  -9  208.27    5.80   0
  -3   2   9  209.35    4.40   0
   2  -2  -9  422.35    8.01   0
  -2   2   9  409.76    5.43   0
  -2   2   9  402.75    7.72   0
  -1   2   9  125.07    6.26   0
  -1   2   9  136.16    4.37   0
  -1   2   9  125.78    6.07   0
   0   2   9  361.03    8.40   0
   0   2   9  330.24    7.88   0
   0   2   9  374.07    6.17   0
   1   2   9   30.82    3.78   0
   1   2   9   32.82    5.23   0
   1   2   9   32.23    4.00   0
   2   2   9  101.34    5.77   0
   2   2   9   97.84    4.23   0
  -2  -2  -9   90.96    4.58   0
   2   2   9  107.81    5.35   0
   3   2   9    0.18    3.83   0
  -3  -2  -9    1.49    3.65   0
   4   2   9  269.24    4.97   0
  -4  -2  -9  260.43    5.03   0
   5   2   9   47.20    4.00   0
  -5  -2  -9   36.29    4.10   0
  -6  -2  -9   26.19    4.23   0
   6   2   9   38.79    4.18   0
  -7  -2  -9   -0.96    4.54   0
   7   2   9    8.35    4.26   0
  -6   3   9   32.84    4.48   0
   6  -3  -9   39.41    4.39   0
  -6   3   9   32.23    4.34   0
  -5   3   9    2.60    3.84   0
   5  -3  -9    2.43    4.00   0
  -5   3   9    4.15    3.88   0
  -4   3   9    3.89    3.63   0
   4  -3  -9    2.26    4.52   0
  -4   3   9    6.72    3.70   0
  -3   3   9   53.67    4.95   0
   3  -3  -9   61.61    5.10   0
  -3   3   9   60.70    3.75   0
  -2   3   9  104.58    6.31   0
   2  -3  -9  106.35    7.00   0
  -2   3   9  108.04    4.08   0
  -1   3   9  250.67    4.84   0
   0   3   9  414.36    5.77   0
   1   3   9   29.06    3.89   0
   1   3   9   31.72    5.54   0
   1   3   9   31.72    6.05   0
   2   3   9   55.41    4.87   0
   2   3   9   58.34    5.21   0
  -2  -3  -9   53.20    4.93   0
   3   3   9  928.80    8.54   0
  -3  -3  -9  901.31    8.54   0
   3   3   9  973.01   16.09   0
   3   3   9  888.46   16.00   0
   4   3   9   -2.11    3.65   0
  -4  -3  -9    2.32    3.62   0
  -5  -3  -9    1.67    3.83   0
   5   3   9    1.73    3.66   0
  -6  -3  -9    0.66    2.71   0
   6   3   9    0.98    3.86   0
  -7  -3  -9   41.45    4.50   0
   7   3   9   38.82    3.45   0
  -6   4   9    4.87    4.22   0
  -6   4   9    5.77    5.57   0
   6  -4  -9    4.45    5.44   0
  -5   4   9    8.01    4.04   0
   5  -4  -9   10.23    4.06   0
  -5   4   9    8.12    4.00   0
  -4   4   9  442.15    6.68   0
   4  -4  -9  460.20    7.56   0
  -4   4   9  431.13    5.45   0
  -3   4   9  104.94    6.11   0
   3  -4  -9  110.58    6.11   0
  -3   4   9  110.75    4.21   0
  -2   4   9    1.89    6.91   0
   2  -4  -9    1.13    6.78   0
  -2   4   9   -1.74    2.46   0
  -1   4   9  295.32    5.10   0
   0   4   9   32.19    3.92   0
   0  -4  -9   28.04    3.72   0
   1   4   9    9.84    4.66   0
  -1  -4  -9    4.17    3.49   0
   2   4   9   -0.77    4.74   0
  -2  -4  -9    2.02    5.10   0
   2   4   9    1.99    5.29   0
  -3  -4  -9    1.58    4.58   0
   3   4   9    1.94    5.61   0
   3   4   9    4.80    3.91   0
  -4  -4  -9   67.99    4.82   0
   4   4   9   64.40    4.04   0
  -5  -4  -9   35.07    3.90   0
   5   4   9   41.09    4.04   0
  -6  -4  -9    2.23    4.03   0
   6   4   9    0.78    4.01   0
  -7  -4  -9   42.20    4.62   0
   7   4   9   57.47    4.46   0
  -6   5   9    4.58    4.44   0
  -6   5   9    9.44    5.64   0
   6  -5  -9    3.39    4.51   0
  -5   5   9   54.13    3.09   0
  -5   5   9   59.41    5.58   0
   5  -5  -9   61.88    5.49   0
  -4   5   9  144.82    3.54   0
  -4   5   9  150.16    5.29   0
   4  -5  -9  147.31    5.04   0
  -3   5   9  569.17    5.74   0
  -3   5   9  566.74    9.12   0
   3  -5  -9  581.17    8.77   0
  -2   5   9    4.18    3.64   0
   2  -5  -9    6.79    3.49   0
   2  -5  -9    9.66    7.19   0
  -1   5   9    4.80    3.78   0
   1  -5  -9    3.79    3.78   0
   0   5   9  303.61    5.16   0
   0  -5  -9  292.59    4.35   0
   1   5   9  675.64    6.92   0
  -1  -5  -9  661.78    7.11   0
  -2  -5  -9    2.68    5.08   0
   2   5   9    2.09    4.92   0
  -2  -5  -9    2.89    3.68   0
   2   5   9    3.12    5.27   0
  -3  -5  -9   16.39    4.39   0
  -3  -5  -9   16.30    4.45   0
   3   5   9   15.70    4.84   0
   3   5   9   14.52    3.70   0
  -4  -5  -9   22.42    3.76   0
   4   5   9   23.08    5.50   0
  -4  -5  -9   24.32    5.42   0
   4   5   9   24.02    3.68   0
  -5  -5  -9   63.86    4.05   0
   5   5   9   71.94    4.07   0
  -6  -5  -9   11.56    4.05   0
   6   5   9    9.41    3.98   0
  -7  -5  -9    3.36    4.21   0
   7   5   9    9.11    4.26   0
  -5   6   9   64.28    3.53   0
  -5   6   9   73.32    6.06   0
   5  -6  -9   75.90    4.87   0
  -4   6   9   29.84    3.99   0
  -4   6   9   28.64    5.39   0
   4  -6  -9   27.04    4.35   0
  -3   6   9    3.41    3.73   0
  -3   6   9    7.98    5.15   0
   3  -6  -9   10.51    3.73   0
   3  -6  -9    7.22    5.41   0
  -2   6   9    1.53    3.70   0
   2  -6  -9    0.17    6.58   0
   2  -6  -9    0.44    3.55   0
   2  -6  -9    1.35    5.82   0
  -1   6   9  267.21    4.79   0
   1  -6  -9  267.61    4.79   0
   0   6   9   20.36    2.91   0
   0  -6  -9   22.04    2.84   0
   1   6   9  156.13    4.36   0
  -1  -6  -9  161.62    4.41   0
  -2  -6  -9  281.10    9.13   0
   2   6   9  297.93    5.53   0
   2   6   9  267.40    9.23   0
  -2  -6  -9  293.52    5.47   0
  -3  -6  -9   74.00    4.92   0
   3   6   9   73.56    5.21   0
   3   6   9   74.48    4.47   0
  -3  -6  -9   78.40    4.87   0
  -4  -6  -9    3.12    3.57   0
   4   6   9    3.15    4.63   0
   4   6   9    2.69    4.37   0
  -4  -6  -9    4.22    4.45   0
  -5  -6  -9   84.37    4.51   0
   5   6   9   92.83    6.69   0
  -5  -6  -9   88.63    6.63   0
   5   6   9  100.85    4.45   0
  -6  -6  -9   29.71    4.85   0
   6   6   9   34.14    4.05   0
  -7  -6  -9    6.12    4.27   0
   7   6   9   12.42    4.29   0
  -5   7   9    3.42    4.50   0
  -5   7   9    6.05    4.67   0
   5  -7  -9    4.46    4.48   0
  -4   7   9   45.83    4.29   0
  -4   7   9   42.16    5.85   0
   4  -7  -9   33.50    4.26   0
   4  -7  -9   51.88    5.53   0
  -3   7   9   19.10    3.89   0
   3  -7  -9   21.86    5.29   0
   3  -7  -9   26.13    3.85   0
   3  -7  -9   22.22    5.06   0
  -2   7   9  198.36    4.43   0
   2  -7  -9  197.27    7.67   0
   2  -7  -9  178.05    3.66   0
   2  -7  -9  188.90    7.26   0
  -1   7   9  355.75    5.14   0
   1  -7  -9  331.80    5.20   0
   0   7   9   34.80    3.96   0
   0  -7  -9   37.83    3.84   0
   1   7   9  105.64    4.24   0
  -1  -7  -9   89.50    4.14   0
  -2  -7  -9    5.22    5.81   0
   2   7   9    7.67    5.71   0
   2   7   9    4.72    3.68   0
  -2  -7  -9    9.82    3.72   0
  -3  -7  -9   26.75    4.64   0
   3   7   9   25.88    4.85   0
   3   7   9   21.84    3.91   0
  -3  -7  -9   25.30    3.82   0
  -4  -7  -9   14.84    4.53   0
   4   7   9   12.30    4.04   0
   4   7   9   10.67    3.90   0
  -4  -7  -9    6.60    4.81   0
   5   7   9    0.50    4.73   0
  -5  -7  -9   -0.06    4.67   0
   5   7   9    3.69    3.88   0
  -5  -7  -9   -0.31    4.72   0
  -6  -7  -9    1.51    4.10   0
   6   7   9   12.30    4.85   0
   6   7   9    5.14    5.10   0
  -6  -7  -9    6.39    6.02   0
  -7  -7  -9    2.82    4.16   0
   7   7   9    0.83    4.11   0
  -4   8   9   -1.33    2.94   0
   4  -8  -9    0.96    4.51   0
   4  -8  -9    5.69    3.05   0
   4  -8  -9    2.42    5.37   0
  -3   8   9   52.30    4.24   0
   3  -8  -9   45.46    5.70   0
   3  -8  -9   41.21    4.23   0
   3  -8  -9   51.24    5.51   0
  -2   8   9    4.80    3.77   0
   2  -8  -9    0.86    4.84   0
   2  -8  -9   -0.36    3.69   0
   2  -8  -9    1.39    4.77   0
   1  -8  -9   98.26    7.27   0
  -1   8   9  105.19    3.33   0
   1  -8  -9  109.31    7.57   0
   1  -8  -9   95.57    3.27   0
   0  -8  -9   34.69    8.55   0
   0   8   9   37.02    3.96   0
   0  -8  -9   29.45    3.89   0
   0  -8  -9   34.47    8.29   0
  -1  -8  -9   32.84    6.92   0
  -1  -8  -9   30.79    6.99   0
   1   8   9   34.77    3.72   0
  -1  -8  -9   34.72    3.63   0
  -2  -8  -9   46.40    5.62   0
   2   8   9   50.47    4.03   0
  -2  -8  -9   48.75    4.13   0
  -3  -8  -9  136.75    5.69   0
   3   8   9  134.80    5.78   0
   3   8   9  153.56    4.60   0
  -3  -8  -9  159.26    4.63   0
  -4  -8  -9  162.10    5.51   0
  -4  -8  -9  137.30    5.11   0
   4   8   9  158.73    5.06   0
   4   8   9  144.79    5.65   0
  -5  -8  -9    6.11    4.99   0
  -5  -8  -9    5.56    4.65   0
   5   8   9    4.13    4.91   0
   5   8   9    1.73    4.11   0
  -6  -8  -9   21.43    5.15   0
  -6  -8  -9   16.82    4.12   0
   6   8   9   15.48    4.29   0
   6   8   9   16.68    5.23   0
  -7  -8  -9   35.62    4.69   0
   7   8   9   41.34    4.75   0
  -7  -8  -9   35.54    6.90   0
  -3   9   9    2.45    4.15   0
   3  -9  -9    1.82    5.47   0
   3  -9  -9    0.77    4.06   0
   3  -9  -9   -1.01    4.43   0
   2  -9  -9  107.02    6.21   0
  -2   9   9  132.32    3.47   0
   2  -9  -9  127.20    6.47   0
   2  -9  -9  123.89    4.59   0
   1  -9  -9  110.12    6.71   0
  -1   9   9  130.98    4.45   0
   1  -9  -9  122.92    6.89   0
   1  -9  -9  114.78    4.46   0
   0  -9  -9   48.81    6.72   0
   0   9   9   57.42    4.09   0
   0  -9  -9   48.94    6.15   0
   0  -9  -9   53.14    3.93   0
  -1  -9  -9  123.90    7.72   0
   1   9   9  133.87    4.59   0
  -1  -9  -9  130.98    7.51   0
  -1  -9  -9  123.00    4.38   0
  -2  -9  -9  247.20    7.43   0
   2   9   9  259.00    4.95   0
  -2  -9  -9  249.98    4.19   0
  -2  -9  -9  248.08    7.09   0
  -3  -9  -9   37.35    3.95   0
  -3  -9  -9   32.42    4.94   0
   3   9   9   33.58    5.23   0
   3   9   9   38.29    4.05   0
  -4  -9  -9   30.60    4.27   0
  -4  -9  -9   28.03    5.03   0
   4   9   9   35.14    4.37   0
   4   9   9   33.39    5.22   0
  -5  -9  -9    4.31    4.10   0
  -5  -9  -9    4.22    4.07   0
   5   9   9    7.61    4.98   0
   5   9   9    6.02    5.04   0
  -6  -9  -9   57.78    5.62   0
  -6  -9  -9   49.83    5.51   0
   6   9   9   49.03    4.79   0
   6   9   9   45.03    4.52   0
   2 -10  -9    0.88    5.13   0
  -2  10   9    2.02    2.96   0
   2 -10  -9    1.31    6.17   0
   2 -10  -9    1.98    4.10   0
   1 -10  -9    3.35    5.09   0
  -1  10   9    5.07    4.17   0
   1 -10  -9    5.59    5.14   0
   1 -10  -9    5.00    3.02   0
   0 -10  -9   50.96    6.34   0
   0  10   9   52.85    4.35   0
   0 -10  -9   58.86    6.28   0
   0 -10  -9   56.43    4.35   0
  -1 -10  -9    9.32    5.75   0
   1  10   9   10.88    3.95   0
  -1 -10  -9   10.04    4.96   0
  -1 -10  -9    5.36    3.92   0
  -2 -10  -9    4.96    5.08   0
   2  10   9    2.59    3.97   0
  -2 -10  -9    1.89    4.81   0
  -2 -10  -9    5.02    3.92   0
  -3 -10  -9   24.68    4.16   0
   3  10   9   23.17    5.38   0
  -3 -10  -9   25.53    5.12   0
   3  10   9   32.93    4.17   0
  -4 -10  -9    0.07    4.06   0
  -4 -10  -9    0.68    4.20   0
   4  10   9    3.09    4.07   0
   4  10   9   -1.74    4.18   0
  -5 -10  -9    3.92    5.10   0
  -5 -10  -9   -1.00    5.00   0
   5  10   9    1.67    5.16   0
   5  10   9    2.36    5.16   0
  -6 -10  -9    8.42    4.39   0
  -6 -10  -9   14.84    4.65   0
   6  10   9   15.47    4.77   0
   6  10   9    6.17    4.40   0
   1 -11  -9    6.31    5.50   0
  -1  11   9    8.66    4.41   0
   1 -11  -9    4.40    5.74   0
   1 -11  -9    6.02    4.30   0
   0 -11  -9   28.13    5.43   0
   0  11   9   38.08    4.55   0
   0 -11  -9   31.38    5.66   0
   0 -11  -9   30.43    3.39   0
  -1 -11  -9    1.29    5.29   0
   1  11   9    3.33    4.24   0
  -1 -11  -9    0.93    5.24   0
  -1 -11  -9    1.21    2.83   0
  -2 -11  -9   20.49    5.66   0
  -2 -11  -9   23.59    5.18   0
   2  11   9   29.62    4.43   0
  -2 -11  -9   23.07    4.33   0
  -3 -11  -9   35.80    4.42   0
   3  11   9   39.11    4.25   0
  -3 -11  -9   31.22    5.89   0
  -3 -11  -9   32.44    5.55   0
  -4 -11  -9   -0.42    4.26   0
   4  11   9   -1.10    4.37   0
   4  11   9   -0.04    5.35   0
  -4 -11  -9    3.30    5.11   0
  -5 -11  -9   12.72    5.60   0
  -5 -11  -9    8.59    4.41   0
   5  11   9    7.22    4.79   0
   5  11   9    5.86    4.51   0
  -2 -12  -9    2.59    5.71   0
  -2 -12  -9    2.48    5.62   0
   2  12   9    5.93    4.54   0
  -2 -12  -9    1.78    4.35   0
  -3 -12  -9    2.80    4.50   0
   3  12   9    5.93    4.48   0
  -3 -12  -9    3.12    5.84   0
  -3 -12  -9    1.86    4.47   0
  -2  -7  10   53.97    5.05   0
  -2  -7  10   42.89    5.18   0
  -2  -7  10   34.16    4.83   0
  -4  -6  10   49.67    4.60   0
   4   6 -10   51.72    4.81   0
  -4  -6  10   49.46    4.92   0
  -3  -6  10   32.49    4.52   0
  -3  -6  10   39.09    4.59   0
  -3  -6  10   38.65    4.73   0
  -2  -6  10   13.78    4.25   0
  -2  -6  10   16.45    4.45   0
  -2  -6  10    8.98    4.47   0
  -1  -6  10   21.11    4.56   0
  -1  -6  10   20.99    4.67   0
  -1  -6  10   19.53    4.30   0
   0   6 -10   52.88    4.48   0
   0  -6  10   56.78    4.97   0
   0  -6  10   50.47    4.90   0
   0  -6  10   36.85    4.79   0
   1  -6  10    4.71    4.51   0
  -1   6 -10    9.98    5.29   0
   1  -6  10    8.70    4.56   0
   1  -6  10    8.57    4.72   0
   5   5 -10    1.87    4.29   0
  -5  -5  10    7.06    3.01   0
  -5  -5  10    6.55    4.27   0
   4   5 -10  111.25    4.74   0
  -4  -5  10   95.03    4.58   0
  -4  -5  10   94.04    4.93   0
  -3  -5  10   54.23    4.17   0
  -3  -5  10   61.04    4.69   0
  -2  -5  10    8.09    3.96   0
  -2  -5  10    7.21    4.16   0
  -2  -5  10    7.46    4.27   0
  -1  -5  10    1.18    3.82   0
  -1  -5  10    1.35    4.21   0
  -1  -5  10    9.33    4.32   0
   0  -5  10   31.61    4.51   0
   0  -5  10   32.21    4.47   0
   0  -5  10   26.05    4.22   0
   1  -5  10  118.04    4.91   0
   1  -5  10  108.84    5.07   0
   1  -5  10   87.72    5.28   0
  -1   5 -10  116.18    5.84   0
   2  -5  10   68.25    4.90   0
   2  -5  10   58.93    6.54   0
   2  -5  10   54.43    5.02   0
  -2   5 -10   64.23    5.90   0
  -6  -4  10   14.67    4.11   0
   6   4 -10   12.56    4.45   0
  -6  -4  10    8.82    4.52   0
   5   4 -10   42.10    4.37   0
  -5  -4  10   35.60    4.36   0
  -5  -4  10   26.57    3.01   0
   4   4 -10   33.81    4.28   0
  -4  -4  10   31.21    4.29   0
  -4  -4  10   28.05    4.10   0
   3   4 -10   -0.89    4.01   0
  -3  -4  10   -3.52    3.63   0
  -3  -4  10    4.25    3.95   0
  -2  -4  10   50.81    4.00   0
  -2  -4  10   62.22    4.22   0
  -2  -4  10   65.01    4.23   0
  -1  -4  10   32.18    3.93   0
  -1  -4  10   39.88    4.18   0
  -1  -4  10   35.04    4.27   0
   0  -4  10   18.13    4.94   0
   0  -4  10   22.29    4.21   0
   0  -4  10   18.56    4.26   0
   1  -4  10  322.25    5.67   0
   1  -4  10  316.04    5.82   0
   1  -4  10  279.74    6.03   0
   2  -4  10    5.42    4.30   0
   2  -4  10    4.33    5.32   0
   2  -4  10    3.87    4.37   0
   3  -4  10   11.29    5.66   0
   3  -4  10   17.16    4.44   0
   3  -4  10   15.31    4.61   0
  -6  -3  10   15.49    2.95   0
   6   3 -10   15.80    4.39   0
  -6  -3  10   15.28    4.14   0
  -5  -3  10   77.53    4.21   0
   5   3 -10   85.11    4.53   0
  -5  -3  10   60.34    4.44   0
  -4  -3  10    2.63    3.68   0
   4   3 -10    9.82    3.87   0
  -4  -3  10    6.58    3.95   0
  -3  -3  10  196.16    4.83   0
   3   3 -10  231.80    4.99   0
  -3  -3  10  192.85    4.94   0
  -2  -3  10    1.33    3.86   0
  -2  -3  10    3.40    3.73   0
  -2  -3  10    1.97    3.66   0
  -1  -3  10   24.25    4.05   0
  -1  -3  10   23.54    3.73   0
  -1  -3  10   26.47    4.01   0
   0  -3  10    4.11    3.87   0
   0  -3  10   -0.35    3.68   0
   0  -3  10    4.71    3.80   0
   1  -3  10   27.17    3.02   0
   1  -3  10   23.64    4.19   0
   1  -3  10   26.37    4.19   0
   2  -3  10   76.41    4.48   0
   2  -3  10   77.43    4.68   0
   2  -3  10   69.95    5.69   0
   3  -3  10   52.92    4.58   0
   3  -3  10   43.76    5.99   0
   3  -3  10   39.86    3.42   0
   4  -3  10    8.54    4.51   0
   4  -3  10    3.91    8.85   0
   6   2 -10   37.94    4.39   0
  -6  -2  10   26.84    4.32   0
  -6  -2  10   38.03    4.13   0
  -6  -2  10   35.09    4.38   0
   5   2 -10  391.99    5.90   0
  -5  -2  10  355.21    5.48   0
  -5  -2  10  338.02    5.85   0
   4   2 -10   54.57    4.97   0
  -4  -2  10   48.45    3.84   0
  -4  -2  10   41.47    3.95   0
  -3  -2  10   15.56    2.66   0
   3   2 -10   13.84    3.78   0
  -3  -2  10   15.51    3.74   0
  -2  -2  10    3.43    2.37   0
  -2  -2  10    3.41    3.75   0
  -1  -2  10   81.65    4.19   0
  -1  -2  10   80.29    4.26   0
  -1  -2  10   85.40    4.00   0
   0  -2  10   27.85    3.84   0
   0  -2  10   25.35    3.63   0
   0  -2  10   27.58    3.98   0
   1  -2  10  217.06    5.98   0
   1  -2  10  245.64    5.07   0
   1  -2  10  242.16    5.32   0
   2  -2  10   10.97    4.15   0
   2  -2  10   16.21    4.15   0
   2  -2  10   10.14    4.77   0
   3  -2  10  149.93    4.85   0
   3  -2  10  124.13    6.76   0
   4  -2  10    5.59    3.12   0
  -4   2 -10    1.51    4.29   0
   5  -2  10   15.51    4.57   0
  -5   2 -10   11.36    4.52   0
  -7  -1  10   30.73    4.63   0
  -7  -1  10   32.93    3.40   0
   7   1 -10   37.86    4.70   0
  -7  -1  10   24.24    4.62   0
  -6  -1  10  101.57    4.68   0
  -6  -1  10  103.57    4.33   0
   6   1 -10  119.29    4.73   0
  -6  -1  10   69.95    4.52   0
  -5  -1  10   26.69    3.80   0
   5   1 -10   32.76    4.08   0
  -5  -1  10   22.91    3.85   0
  -5  -1  10   28.77    4.10   0
  -4  -1  10  249.37    4.73   0
   4   1 -10  290.76    5.31   0
  -4  -1  10  261.49    5.91   0
  -3  -1  10 1956.90    9.36   0
   3   1 -10 1991.49   10.57   0
  -3  -1  10 1711.59   10.22   0
   2   1 -10  452.35    6.37   0
  -2  -1  10  389.73    6.02   0
  -2  -1  10  448.74    5.45   0
  -1  -1  10  179.71    4.38   0
  -1  -1  10  191.68    5.02   0
  -1  -1  10  193.05    5.15   0
   0  -1  10  229.02    5.22   0
   0  -1  10  236.24    5.56   0
   0  -1  10  214.28    4.85   0
   1  -1  10  274.92    5.13   0
   1  -1  10  253.48    5.57   0
   1  -1  10  259.47    5.34   0
   2  -1  10    1.83    3.78   0
   2  -1  10    3.43    3.85   0
   2  -1  10    0.48    4.45   0
   3  -1  10   -0.18    3.81   0
   3  -1  10    0.42    6.73   0
  -3   1 -10    0.71    3.81   0
   3  -1  10    1.36    6.21   0
   4  -1  10   19.02    4.21   0
  -4   1 -10   19.30    4.30   0
   5  -1  10    3.48    3.14   0
  -5   1 -10    4.49    4.36   0
  -7   0  10   40.62    5.70   0
   7   0 -10   56.63    4.85   0
  -7   0  10   33.77    4.66   0
  -7   0  10   44.66    3.47   0
  -6   0  10    5.85    3.97   0
  -6   0  10   13.29    3.93   0
   6   0 -10    6.78    4.24   0
  -6   0  10   10.63    3.83   0
  -5   0  10   32.12    4.11   0
   5   0 -10   35.09    3.99   0
  -5   0  10   25.70    3.91   0
  -5   0  10   32.96    3.86   0
  -4   0  10   21.37    3.57   0
   4   0 -10   19.02    3.86   0
  -4   0  10   18.59    2.66   0
  -4   0  10   17.35    3.74   0
   3   0 -10  457.47    6.28   0
  -3   0  10  411.21    5.37   0
  -3   0  10  465.41    5.41   0
  -3   0  10  403.03    6.14   0
  -2   0  10  993.25    7.27   0
   2   0 -10  950.34    8.47   0
  -2   0  10  878.19    8.31   0
  -1   0  10   28.42    3.58   0
  -1   0  10   25.03    4.01   0
  -1   0  10   28.23    4.25   0
   0   0  10  115.32    5.41   0
   0   0  10  103.58    4.52   0
   0   0  10  106.38    4.35   0
   1   0  10   70.25    4.86   0
   1   0  10   74.39    4.37   0
   1   0  10   66.97    3.90   0
   2   0  10  109.65    5.63   0
   2   0  10  129.18    5.09   0
   2   0  10  123.95    6.27   0
   3   0  10  447.90    5.88   0
  -3   0 -10  412.19    5.93   0
   4   0  10   19.10    4.03   0
  -4   0 -10   12.76    4.09   0
   5   0  10   70.88    4.49   0
  -5   0 -10   59.70    4.67   0
   6   0  10    1.23    4.60   0
  -6   0 -10    3.12    4.56   0
  -6   1  10   27.12    4.09   0
  -6   1  10   28.73    2.94   0
   6  -1 -10   29.22    4.44   0
  -6   1  10   26.17    4.14   0
  -5   1  10  100.16    4.46   0
   5  -1 -10  112.11    5.35   0
  -5   1  10   86.81    3.25   0
  -4   1  10  142.31    4.91   0
   4  -1 -10  152.37    4.95   0
  -4   1  10  129.39    4.25   0
   3  -1 -10  242.10    6.07   0
  -3   1  10  215.20    4.50   0
  -3   1  10  208.79    5.24   0
   2  -1 -10  151.27    5.56   0
  -2   1  10  148.88    4.42   0
  -2   1  10  131.60    5.43   0
  -1   1  10 3139.01   16.41   0
  -1   1  10 3122.19   11.97   0
  -1   1  10 2975.13   16.02   0
  -1   1  10 3300.48   12.08   0
   0   1  10  141.07    4.53   0
   0   1  10  140.41    5.48   0
   0   1  10  140.61    5.61   0
   0   1  10  136.57    4.56   0
   1   1  10  270.46    5.93   0
   1   1  10  267.42    5.45   0
   1   1  10  268.64    5.38   0
   1   1  10  271.17    5.41   0
   2   1  10  176.91    4.77   0
   2   1  10  181.15    6.45   0
   2   1  10  187.47    6.22   0
   3   1  10   43.42    3.78   0
  -3  -1 -10   35.85    4.04   0
   4   1  10   14.49    3.82   0
  -4  -1 -10   15.42    3.97   0
   5   1  10    3.69    4.03   0
  -5  -1 -10    3.18    3.93   0
   6   1  10    4.44    4.36   0
  -6  -1 -10    0.58    4.34   0
  -6   2  10   11.78    4.27   0
   6  -2 -10    6.63    4.23   0
  -6   2  10   11.03    2.98   0
  -5   2  10  272.44    6.14   0
   5  -2 -10  287.84    5.93   0
  -5   2  10  218.30    5.16   0
  -4   2  10  151.45    5.39   0
   4  -2 -10  154.39    4.90   0
  -4   2  10  142.69    3.56   0
  -3   2  10   30.56    4.74   0
   3  -2 -10   37.80    4.98   0
  -3   2  10   28.67    3.56   0
   2  -2 -10    1.69    4.62   0
  -2   2  10    1.49    3.71   0
  -2   2  10    0.66    4.54   0
  -1   2  10   32.11    5.60   0
  -1   2  10   31.90    3.66   0
  -1   2  10   27.53    4.87   0
   0   2  10 1176.21   11.82   0
   0   2  10 1086.21   11.87   0
   0   2  10 1228.96    8.83   0
   1   2  10   24.70    4.59   0
   1   2  10   25.95    3.63   0
   1   2  10   26.04    4.99   0
   1   2  10   25.96    3.77   0
   2   2  10  373.99    7.71   0
   2   2  10  382.08    8.12   0
   2   2  10  360.51    5.77   0
  -2  -2 -10  380.64    6.95   0
   3   2  10   51.12    3.90   0
  -3  -2 -10   56.34    4.07   0
   4   2  10   44.84    3.88   0
  -4  -2 -10   41.30    4.89   0
   5   2  10   84.09    4.26   0
  -5  -2 -10   86.67    4.61   0
  -6  -2 -10   39.14    4.58   0
   6   2  10   34.71    4.31   0
  -6   3  10   56.57    4.84   0
   6  -3 -10   61.04    4.74   0
  -6   3  10   49.86    3.44   0
  -5   3  10  258.76    6.78   0
   5  -3 -10  289.56    6.74   0
  -5   3  10  234.56    5.12   0
  -4   3  10   55.69    4.15   0
   4  -3 -10   59.27    5.07   0
  -4   3  10   55.80    3.91   0
  -3   3  10   11.30    5.22   0
   3  -3 -10    8.73    4.63   0
  -3   3  10   10.94    3.54   0
  -2   3  10    5.64    6.05   0
   2  -3 -10    3.37    5.74   0
  -2   3  10    6.19    3.81   0
  -1   3  10  993.91    7.44   0
   0   3  10  150.94   10.28   0
   0   3  10  146.14   10.06   0
   0   3  10  166.67    4.55   0
   1   3  10  131.20    5.75   0
   1   3  10  127.78    6.19   0
   1   3  10  140.34    5.55   0
   2   3  10   64.06    4.89   0
   2   3  10   63.02    4.93   0
  -2  -3 -10   65.56    5.01   0
   3   3  10  200.11    5.09   0
  -3  -3 -10  210.89    5.84   0
   3   3  10  189.42    9.55   0
   3   3  10  197.96    9.24   0
   4   3  10  227.75    4.89   0
  -4  -3 -10  218.68    5.14   0
  -5  -3 -10   39.35    4.30   0
   5   3  10   52.61    4.09   0
  -6  -3 -10    3.08    4.18   0
   6   3  10   10.68    4.06   0
  -7  -3 -10    6.61    4.61   0
   7   3  10    1.19    4.29   0
  -6   4  10    6.61    4.34   0
  -6   4  10    5.90    5.71   0
   6  -4 -10    0.52    5.51   0
  -5   4  10   18.74    4.26   0
   5  -4 -10   21.90    5.12   0
  -5   4  10   12.50    3.88   0
  -4   4  10   14.09    4.79   0
   4  -4 -10   11.65    4.78   0
  -4   4  10   10.59    3.82   0
  -3   4  10   92.43    5.66   0
   3  -4 -10  102.81    6.22   0
  -3   4  10   98.74    4.13   0
  -2   4  10  427.57    4.61   0
  -1   4  10   84.04    4.20   0
   0   4  10  277.04    4.97   0
   1   4  10    4.95    4.80   0
   2   4  10  109.07    5.43   0
  -2  -4 -10  106.09    5.78   0
   2   4  10  104.96    5.60   0
  -3  -4 -10   23.10    4.69   0
   3   4  10   24.98    6.00   0
   3   4  10   24.35    3.82   0
  -4  -4 -10    2.49    3.74   0
   4   4  10    3.35    3.69   0
  -5  -4 -10    3.02    3.75   0
   5   4  10    5.73    3.83   0
  -6  -4 -10   28.38    4.31   0
   6   4  10   32.62    4.34   0
  -7  -4 -10   10.06    4.52   0
   7   4  10    7.33    4.29   0
  -5   5  10    6.71    4.14   0
  -5   5  10    6.83    5.42   0
   5  -5 -10    5.59    4.36   0
  -4   5  10   32.57    4.07   0
  -4   5  10   33.79    5.26   0
   4  -5 -10   34.37    5.21   0
  -3   5  10  365.14    5.09   0
  -3   5  10  372.34    9.48   0
   3  -5 -10  389.98    9.58   0
  -2   5  10   13.01    3.70   0
  -1   5  10  476.46    5.71   0
   1  -5 -10  429.24    5.54   0
   0   5  10    7.19    3.79   0
   0  -5 -10    4.42    3.55   0
   1   5  10  301.42    5.45   0
  -1  -5 -10  294.55    5.38   0
   2   5  10  741.37    7.75   0
  -2  -5 -10  718.69   12.53   0
  -2  -5 -10  689.67    7.77   0
   2   5  10  698.00   12.12   0
  -3  -5 -10   54.68    4.88   0
   3   5  10   56.18    5.34   0
   3   5  10   54.71    4.96   0
  -4  -5 -10   47.91    4.90   0
   4   5  10   43.85    6.66   0
   4   5  10   48.84    4.35   0
  -5  -5 -10    3.91    4.83   0
   5   5  10    3.65    3.90   0
  -6  -5 -10   96.35    5.54   0
   6   5  10   98.51    4.72   0
  -7  -5 -10    8.71    4.27   0
   7   5  10    9.10    4.27   0
  -5   6  10    0.32    4.26   0
  -5   6  10    5.64    5.60   0
   5  -6 -10    0.78    5.36   0
  -4   6  10    6.49    4.01   0
  -4   6  10    0.83    5.23   0
   4  -6 -10    0.79    4.94   0
  -3   6  10  150.58    4.45   0
   3  -6 -10  151.08    7.15   0
  -2   6  10  568.15    5.89   0
   2  -6 -10  517.14    5.94   0
  -1   6  10   68.63    3.12   0
   1  -6 -10   62.51    3.89   0
   0   6  10  100.15    3.23   0
   0  -6 -10   98.95    4.26   0
   1   6  10  534.31    6.21   0
  -1  -6 -10  505.43    6.21   0
  -2  -6 -10  267.54   10.96   0
   2   6  10  273.44    5.44   0
   2   6  10  259.54   10.44   0
  -2  -6 -10  263.11    5.38   0
  -3  -6 -10  123.35    5.78   0
  -3  -6 -10  121.62    4.74   0
   3   6  10  121.01    5.69   0
   3   6  10  129.91    5.69   0
  -4  -6 -10   23.28    4.72   0
   4   6  10   21.59    4.86   0
  -4  -6 -10   21.99    5.27   0
   4   6  10   19.41    4.01   0
   5   6  10   47.72    7.73   0
  -5  -6 -10   42.23    4.37   0
   5   6  10   49.41    4.99   0
  -6  -6 -10    1.41    4.05   0
   6   6  10    2.04    4.06   0
  -7  -6 -10   -1.47    4.28   0
   7   6  10    2.32    4.28   0
  -4   7  10    5.20    4.24   0
   4  -7 -10    4.80    5.21   0
  -3   7  10    2.14    3.94   0
   3  -7 -10    0.21    5.94   0
   3  -7 -10    4.98    3.80   0
   3  -7 -10    2.05    6.36   0
  -2   7  10   24.85    2.78   0
   2  -7 -10   14.06    3.73   0
  -1   7  10    3.95    3.69   0
   1  -7 -10    2.91    3.63   0
   0   7  10   -1.72    3.89   0
   0  -7 -10   -0.46    3.64   0
   1   7  10   99.17    4.22   0
  -1  -7 -10  103.48    4.13   0
  -2  -7 -10   54.80    8.97   0
   2   7  10   61.17    4.04   0
  -2  -7 -10   61.99    3.87   0
  -3  -7 -10    1.78    4.47   0
   3   7  10    2.82    4.55   0
   3   7  10   -0.57    4.71   0
  -3  -7 -10   -0.34    3.75   0
   4   7  10   62.53    4.67   0
  -4  -7 -10   55.53    5.04   0
   4   7  10   61.03    5.19   0
  -4  -7 -10   62.58    4.19   0
   5   7  10   13.39    4.98   0
  -5  -7 -10   12.22    4.03   0
   5   7  10   15.42    4.06   0
  -5  -7 -10   14.62    4.87   0
  -6  -7 -10   12.45    4.14   0
  -6  -7 -10   12.61    8.08   0
   6   7  10   18.15    5.08   0
  -7  -7 -10   -0.37    4.28   0
   7   7  10   -0.43    4.39   0
  -4   8  10   25.04    4.47   0
   4  -8 -10   13.14    5.92   0
   4  -8 -10   19.42    4.43   0
   4  -8 -10   18.18    5.73   0
  -3   8  10    3.74    4.07   0
   3  -8 -10    3.93    6.17   0
   3  -8 -10    3.26    4.02   0
   3  -8 -10    6.44    6.06   0
  -2   8  10   14.23    4.04   0
   2  -8 -10   14.61    8.02   0
   2  -8 -10   14.12    2.84   0
   2  -8 -10   14.33    7.79   0
  -1   8  10  146.90    3.53   0
   1  -8 -10  119.20    3.46   0
   0   8  10  276.61    5.06   0
   0  -8 -10  265.43    5.09   0
   1   8  10   11.71    4.02   0
  -1  -8 -10   11.72    3.79   0
  -2  -8 -10    6.65    7.35   0
  -2  -8 -10    8.55    7.79   0
   2   8  10    8.47    3.81   0
  -2  -8 -10    8.45    3.76   0
  -3  -8 -10   67.23    5.45   0
   3   8  10   66.51    6.37   0
   3   8  10   76.70    4.36   0
  -3  -8 -10   75.47    4.32   0
  -4  -8 -10    1.82    4.64   0
   4   8  10   -2.02    4.92   0
   4   8  10    2.49    3.97   0
  -4  -8 -10    1.17    4.77   0
  -5  -8 -10   35.09    4.26   0
   5   8  10   44.20    5.28   0
   5   8  10   36.02    5.42   0
  -5  -8 -10   34.73    4.39   0
   6   8  10    3.22    6.07   0
  -6  -8 -10    1.68    5.03   0
   6   8  10    4.44    4.17   0
  -6  -8 -10   -0.81    5.92   0
  -3   9  10    3.16    3.03   0
   3  -9 -10    2.77    6.62   0
   3  -9 -10    3.45    4.05   0
   3  -9 -10    2.48    5.47   0
  -2   9  10    2.48    4.09   0
   2  -9 -10    0.96    6.76   0
   2  -9 -10    2.38    2.87   0
   2  -9 -10    2.10    6.67   0
  -1   9  10   13.07    3.93   0
   1  -9 -10    9.88    3.94   0
   0   9  10  303.19    5.17   0
   0  -9 -10  247.63    4.33   0
   1   9  10  141.45    4.68   0
  -1  -9 -10  127.80    4.39   0
  -2  -9 -10   32.30    6.67   0
  -2  -9 -10   34.92    7.08   0
   2   9  10   36.86    4.06   0
  -2  -9 -10   38.71    4.02   0
  -3  -9 -10   44.86    5.32   0
   3   9  10   43.83    5.70   0
   3   9  10   49.79    4.36   0
  -3  -9 -10   47.28    4.20   0
  -4  -9 -10  108.43    5.22   0
   4   9  10  124.63    5.88   0
   4   9  10  118.48    5.30   0
  -4  -9 -10  126.76    4.72   0
  -5  -9 -10   -0.50    4.20   0
   5   9  10    0.07    5.25   0
   5   9  10    1.08    4.23   0
  -5  -9 -10    2.00    4.06   0
  -6  -9 -10    0.47    4.15   0
   6   9  10    0.91    5.29   0
   6   9  10    0.22    4.30   0
  -6  -9 -10    2.32    4.31   0
  -2  10  10   50.72    4.65   0
   2 -10 -10   48.23    7.34   0
   2 -10 -10   49.07    4.58   0
   2 -10 -10   43.25    7.24   0
   1 -10 -10   23.59    7.84   0
  -1  10  10   21.93    4.39   0
   1 -10 -10   23.94    7.28   0
   1 -10 -10   18.17    4.31   0
   0 -10 -10    9.02    7.88   0
   0  10  10   14.11    4.22   0
   0 -10 -10    9.11    4.04   0
   0 -10 -10   10.44    8.46   0
  -1 -10 -10    1.41    7.22   0
   1  10  10   -1.09    4.03   0
  -1 -10 -10    2.76    3.98   0
  -1 -10 -10    0.82    7.14   0
  -2 -10 -10   21.16    6.17   0
  -2 -10 -10   17.84    7.06   0
   2  10  10   25.56    4.06   0
  -2 -10 -10   21.98    4.09   0
  -3 -10 -10   15.25    5.08   0
   3  10  10   19.29    4.34   0
  -3 -10 -10   16.38    4.35   0
  -4 -10 -10    6.17    4.19   0
   4  10  10    5.64    5.30   0
   4  10  10    5.58    5.34   0
  -4 -10 -10   10.52    4.31   0
  -5 -10 -10   10.98    4.57   0
  -5 -10 -10    8.93    4.21   0
   5  10  10   15.18    5.72   0
   5  10  10   13.57    4.58   0
   0 -11 -10   -1.47    7.13   0
   0  11  10    5.36    4.45   0
   0 -11 -10    1.10    7.05   0
   0 -11 -10   -4.12    4.39   0
  -1 -11 -10   53.14    7.78   0
   1  11  10   66.27    4.57   0
  -1 -11 -10   62.45    4.68   0
  -1 -11 -10   64.39    7.81   0
  -2 -11 -10  108.84    7.90   0
   2  11  10  129.60    4.82   0
  -2 -11 -10  127.58    4.98   0
  -2 -11 -10  117.55    7.39   0
  -3 -11 -10   26.22    5.51   0
   3  11  10   36.63    4.39   0
  -3 -11 -10   31.26    5.76   0
  -3 -11 -10   34.77    4.46   0
  -4 -11 -10   11.48    4.58   0
  -4 -11 -10    2.14    4.29   0
   4  11  10   10.27    4.53   0
   4  11  10    6.59    5.61   0
  -3  -6  11    1.68    4.33   0
  -3  -6  11   -1.34    4.93   0
  -3  -6  11    1.46    4.80   0
  -2  -6  11    4.30    4.29   0
  -2  -6  11    6.04    4.65   0
  -2  -6  11    6.48    3.56   0
  -1  -6  11   40.76    4.96   0
  -1  -6  11   45.63    5.10   0
  -1  -6  11   31.17    4.68   0
   4   5 -11    1.11    4.39   0
  -4  -5  11    7.90    4.12   0
  -4  -5  11    5.37    4.46   0
  -3  -5  11   73.81    4.68   0
  -3  -5  11   84.28    4.89   0
  -3  -5  11   76.50    5.19   0
  -2  -5  11   47.08    4.21   0
  -2  -5  11   50.42    4.84   0
  -2  -5  11   46.53    4.76   0
  -1  -5  11    5.33    4.21   0
  -1  -5  11    3.96    4.35   0
  -1  -5  11    7.98    4.51   0
   0  -5  11   -1.66    4.53   0
   0  -5  11    3.83    3.29   0
   0  -5  11    1.57    4.23   0
   1  -5  11    4.78    3.25   0
   1  -5  11   -1.58    4.36   0
   1  -5  11    2.21    4.46   0
   5   4 -11    1.35    4.32   0
  -5  -4  11    0.16    4.18   0
  -5  -4  11    2.86    2.93   0
   4   4 -11    0.76    4.27   0
  -4  -4  11    7.02    4.20   0
  -4  -4  11    3.81    3.87   0
  -3  -4  11  236.24    5.35   0
  -3  -4  11  236.25    5.78   0
  -2  -4  11   88.94    4.48   0
  -2  -4  11   99.22    4.77   0
  -2  -4  11   89.66    4.92   0
  -1  -4  11   -1.23    3.88   0
  -1  -4  11   11.25    4.11   0
  -1  -4  11    2.15    3.09   0
   0  -4  11    5.02    4.16   0
   0  -4  11    7.61    4.19   0
   0  -4  11    6.81    4.22   0
   1  -4  11  184.44    5.31   0
   1  -4  11  155.57    5.45   0
   1  -4  11  131.97    5.52   0
   2  -4  11    4.84    4.51   0
   2  -4  11    3.82    4.69   0
   2  -4  11    1.41    4.51   0
  -6  -3  11    1.39    4.22   0
   6   3 -11    3.60    4.23   0
  -6  -3  11    2.84    4.26   0
  -5  -3  11   55.94    3.35   0
   5   3 -11   73.64    4.64   0
  -5  -3  11   54.42    4.58   0
  -4  -3  11   20.01    3.87   0
   4   3 -11   24.66    4.21   0
  -4  -3  11   19.41    4.16   0
  -3  -3  11    4.63    3.79   0
   3   3 -11    4.13    4.09   0
  -3  -3  11    3.62    4.00   0
  -2  -3  11  302.39    5.66   0
  -2  -3  11  295.04    5.68   0
  -2  -3  11  287.63    5.39   0
  -1  -3  11   38.10    4.27   0
  -1  -3  11   29.60    3.92   0
  -1  -3  11   32.27    4.21   0
   0  -3  11    5.52    3.94   0
   0  -3  11   10.63    3.98   0
   0  -3  11    9.79    4.07   0
   1  -3  11   12.94    4.17   0
   1  -3  11    7.70    3.02   0
   1  -3  11   10.53    4.94   0
   2  -3  11   78.97    4.43   0
   2  -3  11   69.60    4.76   0
   2  -3  11   64.90    5.95   0
   3  -3  11   13.63    4.41   0
   3  -3  11   14.43    6.78   0
   3  -3  11   13.40    4.55   0
   6   2 -11   44.90    4.72   0
  -6  -2  11   31.85    4.30   0
  -6  -2  11   37.34    4.21   0
  -6  -2  11   38.40    5.52   0
   5   2 -11   36.66    4.40   0
  -5  -2  11   38.73    2.99   0
  -5  -2  11   35.96    4.14   0
   4   2 -11  146.49    4.97   0
  -4  -2  11  127.33    4.51   0
  -4  -2  11  115.72    4.75   0
  -3  -2  11   10.64    3.79   0
   3   2 -11    4.34    4.05   0
  -3  -2  11   12.54    3.86   0
  -2  -2  11   11.98    3.71   0
  -2  -2  11   16.11    3.93   0
  -2  -2  11   13.80    3.81   0
  -1  -2  11  273.12    5.38   0
  -1  -2  11  268.78    5.40   0
  -1  -2  11  241.57    5.25   0
   0  -2  11  118.17    4.61   0
   0  -2  11  104.87    5.13   0
   0  -2  11  112.05    4.68   0
   1  -2  11   16.15    4.72   0
   1  -2  11   23.20    3.96   0
   1  -2  11   23.98    4.16   0
   2  -2  11   17.96    4.13   0
   2  -2  11   21.53    4.29   0
   2  -2  11   15.21    5.12   0
   3  -2  11    3.22    4.29   0
   3  -2  11    2.27    6.40   0
   3  -2  11   -3.11    4.52   0
   4  -2  11    3.28    4.40   0
  -6  -1  11   33.04    4.49   0
  -6  -1  11   34.15    4.39   0
   6   1 -11   36.95    4.50   0
  -6  -1  11   25.58    4.34   0
  -5  -1  11   86.28    3.36   0
   5   1 -11   93.42    4.58   0
  -5  -1  11   74.01    4.20   0
  -5  -1  11   81.91    4.60   0
  -4  -1  11   41.21    3.85   0
   4   1 -11   41.96    4.08   0
  -4  -1  11   37.39    4.26   0
   3   1 -11   97.27    4.58   0
  -3  -1  11   93.41    5.00   0
  -3  -1  11  108.10    4.33   0
  -2  -1  11   33.52    4.04   0
  -2  -1  11   37.06    3.61   0
  -2  -1  11   30.85    4.74   0
  -1  -1  11  168.62    4.69   0
  -1  -1  11  178.54    4.83   0
  -1  -1  11  175.08    4.91   0
   0  -1  11  550.35    6.29   0
   0  -1  11  506.61    6.45   0
   0  -1  11  504.72    6.41   0
   1  -1  11  122.65    4.40   0
   1  -1  11  108.22    4.72   0
   1  -1  11  117.69    4.55   0
   2  -1  11   65.34    4.21   0
   2  -1  11   74.10    4.46   0
   2  -1  11   52.37    6.03   0
   3  -1  11   54.76    4.25   0
   3  -1  11   45.19    7.65   0
   3  -1  11   45.76    7.19   0
   4  -1  11   -0.18    4.28   0
  -4   1 -11    4.50    4.34   0
   5  -1  11   14.09    4.58   0
  -5   1 -11   15.99    4.61   0
  -6   0  11  109.53    5.17   0
   6   0 -11  148.55    5.30   0
  -6   0  11   91.90    4.67   0
  -6   0  11  122.30    3.77   0
  -5   0  11  103.75    4.40   0
   5   0 -11  111.80    4.79   0
  -5   0  11   80.80    3.47   0
  -5   0  11  106.66    4.78   0
  -4   0  11   29.91    2.81   0
   4   0 -11   36.29    4.16   0
  -4   0  11   29.74    2.86   0
  -4   0  11   37.93    4.97   0
   3   0 -11  206.52    6.10   0
  -3   0  11  176.70    4.67   0
  -3   0  11  172.43    5.83   0
  -3   0  11  184.20    3.72   0
  -2   0  11   78.09    4.04   0
  -2   0  11   69.30    4.36   0
  -2   0  11   65.64    3.99   0
  -2   0  11   66.34    5.03   0
  -1   0  11    0.64    3.39   0
  -1   0  11    2.47    4.60   0
  -1   0  11    3.61    4.56   0
   0   0  11  170.43    4.79   0
   0   0  11  180.82    4.67   0
   0   0  11  169.17    5.07   0
   0   0  11  169.27    4.66   0
   1   0  11   22.90    3.81   0
   1   0  11   25.18    4.00   0
   1   0  11   18.46    3.82   0
   1   0  11   19.77    3.86   0
   2   0  11   79.82    5.41   0
   2   0  11   84.96    5.10   0
   2   0  11   79.19    4.31   0
   2   0  11   83.86    5.34   0
   3   0  11    1.72   10.63   0
   3   0  11    4.59    3.82   0
   3   0  11    1.37    9.96   0
  -3   0 -11    0.94    3.88   0
   4   0  11  231.01    5.19   0
  -4   0 -11  220.04    5.45   0
   5   0  11    8.47    4.26   0
  -5   0 -11    8.70    4.48   0
  -6   1  11   34.32    5.58   0
   6  -1 -11   44.49    5.58   0
  -6   1  11   32.51    3.14   0
  -6   1  11   26.54    4.37   0
  -5   1  11   10.36    4.99   0
  -5   1  11   10.60    3.89   0
   5  -1 -11   16.47    4.21   0
  -5   1  11    9.87    3.90   0
  -4   1  11    3.33    3.77   0
   4  -1 -11    4.89    3.79   0
  -4   1  11    5.50    2.53   0
   3  -1 -11   82.43    5.32   0
  -3   1  11   66.70    3.08   0
  -3   1  11   70.07    4.32   0
  -2   1  11   75.43    3.08   0
  -2   1  11   69.81    4.09   0
  -2   1  11   62.77    4.25   0
  -1   1  11  525.99    7.96   0
  -1   1  11  518.44    5.91   0
  -1   1  11  474.78    7.71   0
  -1   1  11  541.43    5.87   0
   0   1  11  182.51    5.03   0
   0   1  11  202.87    4.78   0
   0   1  11  189.46    5.98   0
   0   1  11  183.11    4.90   0
   1   1  11  272.88    5.50   0
   1   1  11  305.68    6.66   0
   1   1  11  283.36    5.61   0
   1   1  11  282.70    5.54   0
   2   1  11  159.23    4.62   0
   2   1  11  164.17    5.60   0
   2   1  11  139.47    5.99   0
   2   1  11  153.97    6.54   0
   3   1  11    7.41    3.81   0
  -3  -1 -11    5.37    3.98   0
   4   1  11   38.21    4.07   0
  -4  -1 -11   40.27    4.30   0
   5   1  11   27.02    4.48   0
  -5  -1 -11   23.50    4.63   0
  -6   2  11   16.10    4.56   0
   6  -2 -11   17.26    4.63   0
  -6   2  11    9.88    4.10   0
  -5   2  11   10.18    4.97   0
   5  -2 -11    7.77    4.11   0
  -5   2  11   10.30    3.93   0
  -4   2  11  306.21    6.77   0
   4  -2 -11  338.56    6.81   0
  -4   2  11  271.71    5.04   0
  -3   2  11  323.82    7.12   0
   3  -2 -11  371.62    7.39   0
  -3   2  11  341.94    5.27   0
  -2   2  11    5.77    5.41   0
  -2   2  11    5.92    2.56   0
  -2   2  11    4.18    4.65   0
  -1   2  11  653.97   10.32   0
  -1   2  11  640.28    6.22   0
  -1   2  11  565.11    9.46   0
   0   2  11    7.22    4.65   0
   0   2  11    6.74    4.70   0
   0   2  11    3.89    3.67   0
   1   2  11  141.02    4.85   0
   1   2  11  130.63    5.06   0
   1   2  11  148.44    5.29   0
   1   2  11  155.00    4.78   0
   2   2  11  266.57    6.88   0
   2   2  11  272.96    5.48   0
   2   2  11  265.36    6.81   0
   3   2  11    9.80    3.57   0
  -3  -2 -11    8.80    3.98   0
   4   2  11    5.44    4.06   0
  -4  -2 -11    4.47    4.02   0
   5   2  11   22.36    4.29   0
  -5  -2 -11   11.47    4.08   0
  -6  -2 -11   92.28    5.31   0
   6   2  11  106.37    5.19   0
  -6   3  11    4.57    5.57   0
   6  -3 -11    4.80    5.71   0
  -6   3  11    4.75    4.26   0
  -5   3  11   11.38    4.16   0
   5  -3 -11   17.23    4.17   0
  -5   3  11   18.65    3.76   0
  -4   3  11  127.12    5.97   0
   4  -3 -11  149.17    5.90   0
  -4   3  11  116.86    4.45   0
  -3   3  11  203.18    7.24   0
   3  -3 -11  233.48    7.67   0
  -3   3  11  206.16    4.72   0
  -2   3  11  254.55    9.58   0
  -2   3  11  261.79   10.03   0
  -2   3  11  257.02    4.88   0
  -1   3  11   91.39    4.44   0
   0   3  11   23.13    7.38   0
   0   3  11   22.29    7.16   0
   0   3  11   24.67    3.95   0
   1   3  11 2861.78   18.59   0
   1   3  11 2808.37   20.05   0
   1   3  11 2877.91   13.41   0
   2   3  11  277.39    5.82   0
   2   3  11  296.46    6.90   0
   2   3  11  318.37    6.83   0
   3   3  11   -1.41    4.67   0
   3   3  11    1.18    6.94   0
  -3  -3 -11    2.26    4.80   0
   3   3  11    1.10    7.04   0
   4   3  11    9.78    4.68   0
  -4  -3 -11   10.37    4.79   0
  -5  -3 -11  101.60    4.74   0
   5   3  11  111.73    4.57   0
  -6  -3 -11   29.41    4.50   0
   6   3  11   25.54    4.35   0
  -5   4  11   17.93    5.37   0
   5  -4 -11   17.30    5.23   0
  -5   4  11   11.43    3.01   0
  -4   4  11   14.49    5.16   0
   4  -4 -11   13.57    4.96   0
  -4   4  11   17.42    3.95   0
  -3   4  11  109.45    7.71   0
   3  -4 -11  114.66    7.78   0
  -3   4  11  115.10    3.34   0
  -2   4  11   90.42    4.18   0
  -1   4  11   52.95    2.99   0
   0   4  11    2.27    3.60   0
   1   4  11   57.56    4.25   0
   2   4  11  478.16    7.70   0
   2   4  11  442.13    8.08   0
  -3  -4 -11  473.49    7.86   0
   3   4  11  489.03    9.74   0
   3   4  11  487.26    7.27   0
  -4  -4 -11    9.90    3.95   0
   4   4  11    9.83    3.90   0
  -5  -4 -11    5.64    4.01   0
   5   4  11    2.36    3.86   0
  -6  -4 -11   23.77    4.46   0
   6   4  11   25.06    4.36   0
  -5   5  11   79.60    4.63   0
  -5   5  11   79.77    6.41   0
   5  -5 -11   89.40    6.20   0
  -4   5  11   14.80    3.97   0
  -4   5  11   14.18    5.24   0
   4  -5 -11   17.31    5.11   0
  -3   5  11    2.59    3.72   0
  -3   5  11    3.53    8.29   0
   3  -5 -11    2.55    7.97   0
  -2   5  11  416.94    5.55   0
  -1   5  11  127.03    4.22   0
   0   5  11    7.67    3.73   0
   1   5  11    4.33    3.82   0
   2   5  11   24.85    4.83   0
   2   5  11   17.79    5.66   0
  -3  -5 -11  451.20    8.08   0
   3   5  11  458.55    8.29   0
   3   5  11  442.90    7.67   0
  -4  -5 -11    3.67    4.71   0
   4   5  11    2.87    7.34   0
   4   5  11    3.76    3.82   0
  -5  -5 -11   24.76    4.16   0
   5   5  11   26.69    4.10   0
  -6  -5 -11   29.51    4.49   0
   6   5  11   28.60    4.39   0
  -4   6  11   18.18    4.24   0
  -4   6  11   13.61    6.46   0
   4  -6 -11   17.46    6.03   0
  -3   6  11   28.53    4.16   0
  -2   6  11   21.82    3.78   0
  -1   6  11    3.29    3.77   0
   1  -6 -11    3.30    3.64   0
   0   6  11  157.92    4.51   0
   0  -6 -11  128.72    4.46   0
   1   6  11   36.72    4.05   0
  -1  -6 -11   31.48    3.83   0
   2   6  11   48.79    4.14   0
  -2  -6 -11   48.22    3.81   0
  -3  -6 -11   25.08    5.19   0
  -3  -6 -11   20.95    3.83   0
   3   6  11   24.75    4.25   0
   3   6  11   22.90    5.62   0
   4   6  11  311.92    7.92   0
  -4  -6 -11  293.70    6.36   0
   4   6  11  310.83    6.21   0
  -5  -6 -11  229.73    5.93   0
   5   6  11  241.53    5.74   0
  -6  -6 -11   -2.70    5.32   0
   6   6  11   -1.94    4.29   0
  -4   7  11    6.46    4.15   0
   4  -7 -11    0.55    6.45   0
   4  -7 -11    0.81    5.31   0
  -3   7  11   51.09    4.37   0
  -2   7  11   80.82    4.19   0
   2  -7 -11   72.99    4.11   0
  -1   7  11   35.56    4.06   0
   1  -7 -11   32.59    4.10   0
   0   7  11   52.83    3.93   0
   0  -7 -11   53.56    4.13   0
   1   7  11   57.85    4.21   0
  -1  -7 -11   55.36    4.22   0
   2   7  11   58.46    4.23   0
  -2  -7 -11   49.50    4.08   0
  -3  -7 -11    4.83    5.35   0
   3   7  11    2.96    5.69   0
  -3  -7 -11    6.89    3.77   0
   3   7  11    9.49    4.84   0
   4   7  11   39.95    5.51   0
  -4  -7 -11   33.76    5.23   0
  -4  -7 -11   37.65    4.37   0
   4   7  11   38.69    5.33   0
   5   7  11    4.43    5.87   0
  -5  -7 -11    4.79    4.96   0
  -5  -7 -11    4.46    5.89   0
   5   7  11    0.97    5.01   0
  -6  -7 -11    4.22    4.23   0
   6   7  11    1.62    4.12   0
  -3   8  11    5.48    4.15   0
   3  -8 -11    7.94    4.11   0
   3  -8 -11    5.56    9.52   0
   3  -8 -11    6.58    9.44   0
  -2   8  11   28.75    4.15   0
   2  -8 -11   20.42    4.08   0
  -1   8  11   -2.15    4.10   0
   1  -8 -11    4.47    3.90   0
   0   8  11   42.56    3.04   0
   0  -8 -11   32.95    3.98   0
   1   8  11   42.59    4.12   0
  -1  -8 -11   44.73    3.97   0
   2   8  11  205.56    5.08   0
  -2  -8 -11  175.69    4.92   0
  -3  -8 -11   12.83    5.78   0
   3   8  11   12.35    5.94   0
   3   8  11   16.75    4.21   0
  -3  -8 -11   13.54    3.90   0
   4   8  11   79.73    4.99   0
  -4  -8 -11   68.58    5.61   0
   4   8  11   67.08    5.48   0
  -4  -8 -11   73.13    4.85   0
  -5  -8 -11   -0.89    5.00   0
   5   8  11    1.31    5.15   0
   5   8  11   -0.62    5.13   0
  -5  -8 -11    0.77    4.99   0
  -6  -8 -11   58.16    5.22   0
   6   8  11   59.69    8.11   0
  -6  -8 -11   65.89    7.36   0
   6   8  11   69.64    5.37   0
  -2   9  11   70.09    4.60   0
   2  -9 -11   55.60    4.57   0
  -1   9  11   -1.34    4.23   0
   1  -9 -11    1.00    4.00   0
   0   9  11  111.30    4.50   0
   0  -9 -11   99.02    4.48   0
   1   9  11    2.18    4.07   0
  -1  -9 -11    5.35    3.81   0
   2   9  11   10.23    4.06   0
  -2  -9 -11   13.99    3.87   0
  -3  -9 -11   47.20    6.50   0
   3   9  11   46.63    7.67   0
   3   9  11   57.43    4.49   0
  -3  -9 -11   52.47    4.33   0
   4   9  11   87.35    4.95   0
  -4  -9 -11   72.57    6.63   0
   4   9  11   74.16    6.01   0
  -4  -9 -11   87.10    4.76   0
  -5  -9 -11    0.15    5.07   0
   5   9  11   -0.10    4.34   0
   5   9  11    1.75    5.24   0
  -5  -9 -11    2.31    5.13   0
  -1  10  11    8.88    4.07   0
   1 -10 -11    7.22    3.09   0
   0  10  11   58.93    4.42   0
   0 -10 -11   49.84    4.54   0
   1  10  11   94.57    4.81   0
  -1 -10 -11   78.67    4.71   0
   2  10  11   57.41    4.64   0
  -2 -10 -11   53.40    4.48   0
  -3 -10 -11    1.05    5.81   0
  -3 -10 -11    1.28    7.28   0
  -3 -10 -11    6.04    3.86   0
   3  10  11   -2.42    4.41   0
  -4 -10 -11   23.69    5.45   0
   4  10  11   24.73    4.57   0
   4  10  11   27.48    5.84   0
  -4 -10 -11   21.80    5.40   0
  -5 -10 -11   36.33    5.96   0
   5  10  11   33.79    5.12   0
   5  10  11   31.41    6.09   0
  -5 -10 -11   36.71    4.91   0
   1  11  11    5.23    4.41   0
  -1 -11 -11   -4.65    4.28   0
  -2 -11 -11    2.68    9.39   0
  -2 -11 -11    1.14   10.09   0
   2  11  11    3.64    4.48   0
  -2 -11 -11    1.12    4.30   0
  -3 -11 -11   24.28    7.52   0
  -3 -11 -11   24.92    7.24   0
  -3 -11 -11   26.76    4.40   0
   3  11  11   29.83    4.56   0
  -4 -11 -11   -1.29    5.64   0
   4  11  11    0.68    5.66   0
   4  11  11    1.00    5.76   0
  -4 -11 -11    2.13    4.41   0
  -3  -5  12   -1.16    4.48   0
  -3  -5  12    4.29    4.57   0
  -3  -5  12   -3.16    4.50   0
  -2  -5  12   22.36    4.46   0
  -2  -5  12   27.22    4.65   0
  -2  -5  12   20.21    4.76   0
  -1  -5  12   32.25    4.67   0
  -1  -5  12   50.76    5.03   0
  -1  -5  12   34.89    5.04   0
   4   4 -12   11.47    4.52   0
  -4  -4  12    8.71    4.31   0
  -4  -4  12    6.89    4.44   0
  -3  -4  12   58.12    4.91   0
  -3  -4  12   52.47    3.52   0
  -3  -4  12   50.60    4.81   0
  -2  -4  12    2.86    4.16   0
  -2  -4  12   -0.19    4.38   0
  -2  -4  12    4.56    4.44   0
  -1  -4  12   19.54    4.21   0
  -1  -4  12   16.25    4.49   0
  -1  -4  12   17.03    4.54   0
   0  -4  12   61.45    4.77   0
   0  -4  12   46.90    4.90   0
   0  -4  12   47.42    4.76   0
   1  -4  12   50.76    4.84   0
   1  -4  12   41.96    5.00   0
   1  -4  12   36.63    5.02   0
  -5  -3  12    2.16    4.03   0
   5   3 -12   -2.59    4.38   0
  -5  -3  12    2.89    4.37   0
  -4  -3  12    8.92    4.11   0
   4   3 -12    9.34    4.33   0
  -4  -3  12   14.03    4.22   0
  -3  -3  12   13.64    4.27   0
  -3  -3  12    4.97    4.39   0
  -3  -3  12    6.03    3.81   0
  -2  -3  12  155.24    5.06   0
  -2  -3  12  119.98    4.59   0
  -2  -3  12  134.91    5.07   0
  -1  -3  12   14.48    4.30   0
  -1  -3  12   10.41    4.03   0
  -1  -3  12   11.51    4.39   0
   0  -3  12  102.73    4.89   0
   0  -3  12  126.04    4.90   0
   0  -3  12  119.81    5.16   0
   1  -3  12   42.71    4.55   0
   1  -3  12   35.31    4.60   0
   1  -3  12   30.62    4.58   0
   2  -3  12   12.62    4.41   0
   2  -3  12    7.14    4.59   0
   2  -3  12    7.31    5.62   0
  -5  -2  12   20.60    4.32   0
   5   2 -12   25.96    4.46   0
  -5  -2  12   15.47    4.43   0
  -4  -2  12    7.14    2.79   0
   4   2 -12    8.60    4.11   0
  -4  -2  12    5.88    4.07   0
  -3  -2  12   17.47    3.93   0
  -3  -2  12   14.37    5.09   0
  -2  -2  12   86.19    4.30   0
  -2  -2  12   85.22    4.70   0
  -2  -2  12   84.64    4.64   0
  -1  -2  12    2.53    4.00   0
  -1  -2  12    1.28    4.09   0
  -1  -2  12    4.16    3.91   0
   0  -2  12   85.84    4.54   0
   0  -2  12   75.51    4.34   0
   0  -2  12   85.93    4.49   0
   1  -2  12    2.37    4.94   0
   1  -2  12    1.42    3.95   0
   1  -2  12    3.62    4.18   0
   2  -2  12  206.51    5.58   0
   2  -2  12  166.60    5.71   0
   2  -2  12  152.38    6.85   0
   3  -2  12    0.41    4.36   0
   3  -2  12    3.65    6.67   0
   3  -2  12   -2.30    4.48   0
   3  -2  12    2.68    6.77   0
  -5  -1  12   94.23    4.69   0
   5   1 -12  123.13    5.83   0
  -5  -1  12   71.23    3.63   0
  -5  -1  12   83.63    4.90   0
   4   1 -12  288.58    5.94   0
  -4  -1  12  223.22    4.40   0
  -4  -1  12  249.07    5.81   0
  -4  -1  12  285.73    5.27   0
   3   1 -12    5.57    4.09   0
  -3  -1  12    2.30    3.79   0
  -3  -1  12    4.70    3.99   0
  -2  -1  12    7.68    3.60   0
  -2  -1  12    6.60    4.05   0
  -2  -1  12    3.84    4.79   0
  -1  -1  12   70.47    4.12   0
  -1  -1  12   77.09    5.24   0
  -1  -1  12   73.85    4.48   0
   0  -1  12   28.50    3.99   0
   0  -1  12   24.51    4.14   0
   0  -1  12   23.49    3.85   0
   1  -1  12    4.17    4.06   0
   1  -1  12    9.76    4.64   0
   1  -1  12   12.52    4.29   0
   2  -1  12  102.84    4.68   0
   2  -1  12   90.95    4.86   0
   2  -1  12   86.33    5.92   0
   2  -1  12   73.87    6.03   0
   3  -1  12   43.63    4.40   0
   3  -1  12   28.81    8.61   0
   3  -1  12   40.77    4.52   0
   3  -1  12   35.71    8.75   0
   4  -1  12    2.16    4.42   0
  -6   0  12    9.50    4.52   0
   6   0 -12    9.88    4.54   0
  -6   0  12    9.08    4.25   0
  -6   0  12    7.36    4.36   0
   5   0 -12    2.12    4.27   0
  -5   0  12   -0.46    3.76   0
  -5   0  12    0.67    3.91   0
  -5   0  12   -1.27    4.20   0
   4   0 -12  162.88    5.11   0
  -4   0  12  121.00    4.69   0
  -4   0  12  145.03    4.72   0
  -4   0  12  132.86    5.22   0
   3   0 -12    5.75    4.10   0
  -3   0  12    6.54    3.66   0
  -3   0  12   12.33    3.77   0
  -3   0  12    5.53    4.71   0
  -2   0  12   35.03    3.75   0
  -2   0  12   29.75    5.31   0
  -2   0  12   32.72    3.87   0
  -2   0  12   27.23    4.24   0
  -1   0  12   58.30    4.53   0
  -1   0  12   50.89    4.02   0
  -1   0  12   55.42    4.42   0
  -1   0  12   61.51    3.85   0
   0   0  12  367.55    6.31   0
   0   0  12  398.89    6.17   0
   0   0  12  335.01    6.18   0
   0   0  12  374.96    6.02   0
   1   0  12   43.27    4.16   0
   1   0  12   33.36    4.40   0
   1   0  12   35.11    4.04   0
   1   0  12   35.66    4.12   0
   2   0  12   94.74    5.85   0
   2   0  12  101.52    4.61   0
   2   0  12  100.46    4.96   0
   2   0  12   97.07    5.81   0
   3   0  12   35.01    4.19   0
   3   0  12   29.93   12.10   0
   3   0  12   34.07    4.47   0
   4   0  12   85.73    4.84   0
  -4   0 -12   99.29    5.00   0
  -6   1  12   46.64    6.02   0
   6  -1 -12   60.31    5.04   0
  -6   1  12   45.26    3.54   0
  -6   1  12   47.49    4.60   0
  -5   1  12   26.37    4.40   0
   5  -1 -12   27.86    4.55   0
  -5   1  12   31.84    4.09   0
  -5   1  12   26.42    4.14   0
  -4   1  12   14.50    5.05   0
   4  -1 -12   10.54    4.99   0
  -4   1  12   17.57    3.96   0
  -4   1  12   13.82    3.97   0
   3  -1 -12   68.94    5.37   0
  -3   1  12   61.70    3.92   0
  -3   1  12   51.02    2.98   0
  -3   1  12   50.73    5.19   0
  -2   1  12  317.22    7.00   0
  -2   1  12  301.22    4.30   0
  -2   1  12  277.75    5.09   0
  -2   1  12  265.16    6.12   0
  -1   1  12   16.75    4.78   0
  -1   1  12   17.46    3.70   0
  -1   1  12   14.02    4.64   0
  -1   1  12   16.12    3.54   0
   0   1  12   12.56    3.57   0
   0   1  12   15.97    3.94   0
   0   1  12   12.99    4.58   0
   0   1  12   13.61    3.84   0
   1   1  12   44.43    4.92   0
   1   1  12   43.38    4.80   0
   1   1  12   42.37    5.24   0
   1   1  12   40.84    4.01   0
   2   1  12   51.17    4.17   0
   2   1  12   52.63    5.22   0
   2   1  12   47.95    5.99   0
   2   1  12   48.97    5.28   0
   3   1  12   59.27    4.36   0
   4   1  12    0.71    4.19   0
  -4  -1 -12    4.37    4.07   0
   5   1  12   -2.65    4.45   0
  -5  -1 -12    2.19    4.54   0
  -5   2  12   59.17    4.71   0
   5  -2 -12   76.30    5.78   0
  -5   2  12   43.44    4.39   0
  -4   2  12    5.19    4.79   0
   4  -2 -12    2.15    5.01   0
  -4   2  12    6.11    3.78   0
  -3   2  12    0.92    4.75   0
   3  -2 -12    0.90    4.81   0
  -3   2  12    1.28    3.74   0
  -2   2  12  585.36    9.46   0
  -2   2  12  568.67    6.28   0
  -2   2  12  566.96   10.01   0
  -1   2  12    5.81    4.57   0
  -1   2  12   -1.27    3.62   0
  -1   2  12    1.82    4.51   0
   0   2  12    8.86    5.21   0
   0   2  12    5.80    3.51   0
   0   2  12    8.87    4.66   0
   0   2  12    7.72    3.52   0
   1   2  12  229.83    5.45   0
   1   2  12  232.80    5.41   0
   1   2  12  229.86    6.47   0
   1   2  12  226.73    5.47   0
   2   2  12  222.72    6.51   0
   2   2  12  221.08    6.01   0
   2   2  12  202.69    6.37   0
   2   2  12  213.88    6.49   0
   3   2  12   -2.05    4.02   0
  -3  -2 -12    2.01    4.01   0
   4   2  12   37.05    4.22   0
  -4  -2 -12   29.41    4.35   0
   5   2  12   49.41    4.60   0
  -5  -2 -12   46.51    4.74   0
  -5   3  12   17.75    5.29   0
   5  -3 -12   21.55    5.49   0
  -5   3  12   17.88    4.12   0
  -4   3  12    3.84    4.96   0
   4  -3 -12    7.20    4.98   0
  -4   3  12    7.83    3.90   0
  -3   3  12   46.22    6.13   0
   3  -3 -12   48.54    6.34   0
  -3   3  12   45.06    4.01   0
  -2   3  12   16.57    7.57   0
  -2   3  12   17.62    8.46   0
  -2   3  12   17.16    3.86   0
  -1   3  12  135.46    4.49   0
   0   3  12   40.52    6.93   0
   0   3  12   37.37    7.17   0
   0   3  12   40.17    3.92   0
   1   3  12   16.13    5.24   0
   1   3  12   14.87    5.45   0
   1   3  12   17.45    4.77   0
   2   3  12   86.79    5.15   0
   2   3  12   86.59    5.30   0
   2   3  12   90.76    5.49   0
   2   3  12   78.91    4.73   0
   3   3  12  693.01    7.66   0
   3   3  12  647.72   14.24   0
  -3  -3 -12  662.36    7.96   0
   3   3  12  629.68   14.27   0
   4   3  12   60.28    4.30   0
  -4  -3 -12   57.86    4.50   0
  -5  -3 -12   53.30    4.75   0
   5   3  12   43.21    4.48   0
  -5   4  12    2.08    5.39   0
   5  -4 -12    1.26    6.21   0
  -5   4  12    1.78    4.13   0
  -4   4  12   77.89    7.10   0
   4  -4 -12   97.74    6.98   0
  -4   4  12   80.12    4.37   0
  -3   4  12  138.13   11.12   0
  -3   4  12  128.26    4.45   0
  -2   4  12  248.07    4.99   0
  -1   4  12   83.83    4.11   0
   0   4  12  163.47    4.50   0
   1   4  12   96.98    5.00   0
   2   4  12   28.39    4.31   0
   2   4  12   21.12    5.19   0
   2   4  12   27.95    5.58   0
   3   4  12   18.73    5.78   0
  -3  -4 -12   16.18    5.04   0
   3   4  12   16.84    6.13   0
   3   4  12   15.98    3.84   0
  -4  -4 -12    1.43    4.13   0
   4   4  12   -0.98    4.69   0
  -5  -4 -12   19.51    4.58   0
   5   4  12   17.97    4.43   0
  -6  -4 -12   26.31    4.77   0
   6   4  12   33.81    4.57   0
  -5   5  12   29.74    4.51   0
  -5   5  12   34.60    7.12   0
   5  -5 -12   44.64    6.80   0
  -4   5  12    6.53    4.04   0
  -4   5  12    3.08    6.19   0
   4  -5 -12    2.79    6.76   0
  -3   5  12  175.41    3.94   0
  -2   5  12   -0.58    3.98   0
  -1   5  12    4.39    3.82   0
   0   5  12   45.90    3.99   0
   1   5  12  114.72    5.17   0
   2   5  12   27.47    5.02   0
   2   5  12   16.21    7.52   0
   2   5  12   16.91    7.12   0
  -3  -5 -12  513.68    8.89   0
   3   5  12  564.10    9.67   0
   3   5  12  513.62    8.80   0
  -4  -5 -12  126.46    6.22   0
   4   5  12  126.24    5.88   0
  -5  -5 -12   84.92    5.04   0
   5   5  12   94.76    5.80   0
  -6  -5 -12   10.94    4.63   0
   6   5  12   13.82    4.42   0
  -4   6  12  148.71    3.98   0
   4  -6 -12  181.88   10.87   0
  -3   6  12   -1.44    4.00   0
  -2   6  12   12.45    3.93   0
  -1   6  12  394.48    5.61   0
   0   6  12  422.68    5.66   0
   1   6  12   -1.51    3.98   0
   2   6  12    0.12    4.90   0
  -3  -6 -12    0.29    5.71   0
   3   6  12    4.67    4.86   0
   3   6  12    0.27    5.59   0
   4   6  12   -0.47    5.82   0
  -4  -6 -12    1.28    4.90   0
   4   6  12    0.64    5.09   0
  -5  -6 -12   49.06    5.58   0
   5   6  12   46.61    4.57   0
  -6  -6 -12    6.03    4.56   0
   6   6  12    6.99    4.37   0
  -3   7  12    4.28    4.08   0
  -2   7  12   21.59    4.08   0
  -1   7  12  104.06    4.40   0
   1  -7 -12   81.42    4.49   0
   0   7  12  150.26    4.64   0
   0  -7 -12  131.59    4.66   0
   1   7  12   17.72    3.92   0
  -1  -7 -12   10.76    3.69   0
   2   7  12    8.22    3.93   0
  -2  -7 -12    6.55    3.87   0
  -3  -7 -12    4.68    6.54   0
   3   7  12    6.25    7.05   0
  -3  -7 -12    4.17    3.97   0
   3   7  12    9.45    4.27   0
   4   7  12    3.48    5.22   0
  -4  -7 -12    4.10    5.04   0
   4   7  12    2.86    5.09   0
   5   7  12  129.76    9.09   0
  -5  -7 -12  116.90    5.71   0
   5   7  12  133.54    5.42   0
  -6  -7 -12    0.81    5.45   0
   6   7  12    4.81    5.63   0
  -3   8  12   68.41    3.49   0
  -2   8  12  259.42    4.43   0
   2  -8 -12  191.98    5.57   0
  -1   8  12    4.79    3.97   0
   1  -8 -12    1.04    4.00   0
   0   8  12    5.75    3.97   0
   0  -8 -12    6.36    3.79   0
   1   8  12  127.54    4.68   0
  -1  -8 -12  114.11    4.42   0
   2   8  12   28.59    5.16   0
  -2  -8 -12   23.05    4.00   0
  -3  -8 -12   16.23    9.97   0
   3   8  12   14.46    9.64   0
  -3  -8 -12   17.26    4.25   0
   3   8  12   16.50    5.17   0
   4   8  12   23.27    4.54   0
  -4  -8 -12   18.44    6.10   0
   4   8  12   17.01    5.47   0
  -4  -8 -12   19.65    5.05   0
  -5  -8 -12    2.54    4.47   0
  -5  -8 -12    2.31    6.00   0
   5   8  12   -0.09    5.27   0
   5   8  12    2.68    6.08   0
  -2   9  12   19.58    4.41   0
   2  -9 -12   14.63    4.32   0
  -1   9  12   58.51    4.55   0
   1  -9 -12   47.68    4.44   0
   0   9  12   54.10    4.52   0
   0  -9 -12   49.22    4.41   0
   1   9  12   33.25    4.50   0
  -1  -9 -12   25.41    4.18   0
   2   9  12  238.75    5.41   0
  -2  -9 -12  210.85    5.39   0
  -3  -9 -12    8.07    4.18   0
   3   9  12    6.58    4.29   0
   4   9  12   13.44    4.44   0
  -4  -9 -12   12.32    6.38   0
   4   9  12   14.81    6.45   0
  -4  -9 -12   14.01    4.18   0
  -5  -9 -12    0.58    5.52   0
   5   9  12    4.74    4.69   0
   5   9  12    4.27    5.38   0
  -5  -9 -12    0.81    5.31   0
   0  10  12   10.25    4.53   0
   0 -10 -12    8.64    4.24   0
   1  10  12    7.86    4.42   0
  -1 -10 -12   12.52    4.19   0
   2  10  12   33.52    4.46   0
  -2 -10 -12   26.76    4.42   0
  -3 -10 -12   19.96    4.35   0
   3  10  12   15.52    4.56   0
   4  10  12    3.31    4.59   0
  -4 -10 -12    2.02    6.31   0
   4  10  12    0.66    6.56   0
  -4 -10 -12    0.44    4.30   0
  -2  -4  13   -0.67    4.43   0
  -2  -4  13   -0.98    4.57   0
  -2  -4  13    0.18    4.59   0
  -1  -4  13   56.17    4.93   0
  -1  -4  13   67.29    5.13   0
  -1  -4  13   50.32    5.06   0
  -4  -3  13   65.74    5.03   0
  -4  -3  13   67.99    3.74   0
  -3  -3  13    7.04    4.59   0
  -3  -3  13    4.20    4.39   0
  -3  -3  13    1.05    2.97   0
  -2  -3  13    3.93    4.43   0
  -2  -3  13    7.22    4.15   0
  -2  -3  13    5.99    4.36   0
  -1  -3  13    5.19    4.13   0
  -1  -3  13    4.40    4.41   0
  -1  -3  13    4.77    4.44   0
   0  -3  13  206.35    6.28   0
   0  -3  13  277.76    6.13   0
   0  -3  13  214.17    6.09   0
   1  -3  13    6.75    4.60   0
   1  -3  13    9.35    4.65   0
   1  -3  13    9.22    5.71   0
  -4  -2  13   55.92    4.48   0
   4   2 -13   66.86    4.84   0
  -4  -2  13   49.30    4.67   0
  -3  -2  13    3.28    3.99   0
  -3  -2  13    2.26    4.35   0
  -3  -2  13    2.52    5.05   0
  -2  -2  13  163.47    5.35   0
  -2  -2  13  130.06    5.20   0
  -2  -2  13  134.55    4.78   0
  -1  -2  13    0.85    4.35   0
  -1  -2  13    1.81    3.98   0
  -1  -2  13    1.90    4.31   0
   0  -2  13   -0.17    4.29   0
   0  -2  13    5.50    4.93   0
   0  -2  13    4.02    4.21   0
   1  -2  13   -0.46    4.24   0
   1  -2  13   -0.24    4.37   0
   1  -2  13    1.77    4.38   0
   2  -2  13   10.52    4.42   0
   2  -2  13    8.25    4.63   0
   2  -2  13    9.28    5.63   0
   5   1 -13   13.04    4.67   0
  -5  -1  13   10.22    4.35   0
  -5  -1  13   15.54    4.23   0
  -5  -1  13   11.23    5.59   0
   4   1 -13    7.75    5.66   0
  -4  -1  13    4.06    4.16   0
  -4  -1  13    6.47    3.92   0
  -4  -1  13    6.04    4.39   0
  -3  -1  13    3.64    4.29   0
  -3  -1  13   -1.12    3.86   0
  -3  -1  13    0.42    3.75   0
  -3  -1  13    1.37    4.10   0
  -2  -1  13  140.25    3.95   0
  -2  -1  13  160.63    6.14   0
  -2  -1  13  131.19    5.18   0
  -1  -1  13    0.40    3.67   0
  -1  -1  13    1.47    5.09   0
  -1  -1  13    2.65    4.15   0
   0  -1  13    9.17    3.99   0
   0  -1  13    9.11    4.05   0
   0  -1  13    6.83    3.96   0
   1  -1  13   -0.93    4.12   0
   1  -1  13    0.02    4.90   0
   1  -1  13    4.53    4.12   0
   1  -1  13   -0.65    3.95   0
   2  -1  13   88.20    4.82   0
   2  -1  13   77.82    5.83   0
   2  -1  13   71.67    6.05   0
   2  -1  13   66.11    7.00   0
   3  -1  13    8.35    4.29   0
   3  -1  13    6.63    9.04   0
   3  -1  13    8.71    4.60   0
   3  -1  13    4.21    8.90   0
  -5   0  13    2.55    4.00   0
   5   0 -13    1.02    5.64   0
  -5   0  13   -0.99    2.87   0
  -5   0  13    0.44    4.40   0
  -4   0  13  194.42    4.86   0
   4   0 -13  189.88    5.71   0
  -4   0  13  161.75    4.87   0
  -4   0  13  177.24    6.47   0
  -3   0  13   49.86    4.11   0
  -3   0  13   48.81    4.75   0
  -3   0  13   48.52    4.11   0
  -3   0  13   39.86    4.52   0
  -2   0  13    3.64    4.30   0
  -2   0  13    1.09    3.84   0
  -2   0  13    2.72    3.91   0
  -2   0  13    1.13    3.84   0
  -1   0  13  184.05    5.35   0
  -1   0  13  169.07    4.94   0
  -1   0  13  160.45    4.70   0
  -1   0  13  159.70    6.11   0
   0   0  13   72.42    4.29   0
   0   0  13   85.82    4.73   0
   0   0  13   71.45    5.59   0
   0   0  13   80.10    4.32   0
   1   0  13    3.10    4.87   0
   1   0  13    0.65    4.13   0
   1   0  13    2.05    4.93   0
   1   0  13   -1.78    4.01   0
   2   0  13   47.31    5.69   0
   2   0  13   62.13    4.61   0
   2   0  13   57.94    4.71   0
   2   0  13   50.23    5.46   0
   3   0  13   28.86    4.30   0
   3   0  13   25.39    4.46   0
   4   0  13    9.72    4.47   0
   4   0  13    5.81    4.72   0
  -5   1  13    7.02    5.20   0
  -5   1  13    2.80    2.76   0
   5  -1 -13    1.15    5.51   0
  -5   1  13    1.03    3.98   0
  -4   1  13   73.55    5.71   0
   4  -1 -13   92.28    5.95   0
  -4   1  13   84.97    4.44   0
  -4   1  13   67.02    4.35   0
  -3   1  13  222.44    4.88   0
  -3   1  13  194.75    4.83   0
  -3   1  13  206.48    6.74   0
  -2   1  13   22.55    5.36   0
  -2   1  13   21.39    3.91   0
  -2   1  13   23.18    5.07   0
  -2   1  13   27.59    3.96   0
  -1   1  13    0.61    4.79   0
  -1   1  13    6.08    3.50   0
  -1   1  13    0.96    3.61   0
  -1   1  13    1.58    4.69   0
   0   1  13  177.78    5.30   0
   0   1  13  155.85    6.18   0
   0   1  13  168.09    4.79   0
   0   1  13  175.94    4.84   0
   1   1  13   52.28    4.33   0
   1   1  13   61.98    5.10   0
   1   1  13   47.85    4.48   0
   1   1  13   50.92    4.22   0
   2   1  13   60.82    4.24   0
   2   1  13   49.82    5.46   0
   2   1  13   58.86    4.51   0
   2   1  13   58.36    6.30   0
   3   1  13   14.68    4.27   0
   3   1  13   19.58    5.29   0
   4   1  13   11.77    4.51   0
  -5   2  13  109.21    6.59   0
  -5   2  13  125.27    3.97   0
   5  -2 -13  140.69    6.75   0
  -5   2  13   94.37    3.92   0
  -4   2  13    3.87    4.95   0
   4  -2 -13    2.41    5.19   0
  -4   2  13    2.29    4.01   0
  -3   2  13   85.43    5.81   0
  -3   2  13   96.27    6.11   0
  -3   2  13   79.13    3.33   0
  -2   2  13  155.04    7.14   0
  -2   2  13  133.65    4.57   0
  -2   2  13  128.68    6.91   0
  -1   2  13   60.22    6.06   0
  -1   2  13   59.49    3.97   0
  -1   2  13   55.68    4.05   0
  -1   2  13   45.94    6.01   0
   0   2  13   57.16    4.00   0
   0   2  13   50.62    5.24   0
   0   2  13   42.84    5.42   0
   0   2  13   46.09    4.02   0
   1   2  13   90.36    5.33   0
   1   2  13   94.09    5.34   0
   1   2  13   91.25    5.78   0
   1   2  13   88.49    4.60   0
   2   2  13   26.65    5.05   0
   2   2  13   24.05    4.99   0
   2   2  13   27.62    4.90   0
   2   2  13   22.46    4.51   0
   3   2  13    2.00    3.96   0
   3   2  13   -1.21    5.12   0
   4   2  13   90.22    4.86   0
  -4  -2 -13   89.25    5.93   0
   5   2  13    1.19    4.57   0
  -5  -2 -13   -0.11    4.68   0
  -5   3  13   59.06    6.21   0
   5  -3 -13   73.41    6.36   0
  -5   3  13   57.80    4.74   0
  -4   3  13   27.97    6.46   0
   4  -3 -13   31.65    5.68   0
  -4   3  13   31.66    4.21   0
  -3   3  13    6.09    6.40   0
  -3   3  13    7.12    6.83   0
  -3   3  13    5.23    2.87   0
  -2   3  13   15.38    9.53   0
  -2   3  13   17.15   10.61   0
  -2   3  13   14.74    2.86   0
  -1   3  13  642.38    6.75   0
   0   3  13  164.33    8.78   0
   0   3  13  146.13    8.90   0
   0   3  13  162.98    5.48   0
   1   3  13  150.29    6.92   0
   1   3  13  156.54    4.96   0
   1   3  13  120.65    6.49   0
   1   3  13  153.32    5.05   0
   2   3  13  129.35    5.81   0
   2   3  13  137.71    6.02   0
   2   3  13  132.83    5.87   0
   2   3  13  129.68    6.19   0
   3   3  13   20.47    5.00   0
   3   3  13   21.70    8.53   0
   3   3  13   20.71    7.45   0
   4   3  13    1.91    5.07   0
  -4  -3 -13    4.16    5.31   0
  -5  -3 -13   33.27    4.91   0
   5   3  13   34.10    4.60   0
  -4   4  13    2.37    6.96   0
   4  -4 -13    3.07    6.95   0
  -4   4  13    1.59    4.08   0
  -3   4  13   -0.90    3.98   0
  -2   4  13    7.70    3.90   0
  -1   4  13  115.20    4.49   0
   0   4  13  121.78    4.62   0
   1   4  13   22.47    4.86   0
   2   4  13   60.91    5.18   0
   2   4  13   52.02    5.80   0
   2   4  13   56.87    6.10   0
   3   4  13   10.33    6.31   0
   3   4  13   10.34    6.08   0
   3   4  13    8.66    4.62   0
  -4  -4 -13   14.63    5.34   0
   4   4  13   12.97    5.16   0
  -5  -4 -13    2.68    4.52   0
   5   4  13    2.02    4.32   0
  -4   5  13    9.54    2.97   0
  -3   5  13   65.55    4.40   0
  -2   5  13   30.64    4.16   0
  -1   5  13   -0.46    3.80   0
   0   5  13    5.50    3.76   0
   1   5  13   56.39    4.27   0
   2   5  13  105.32    5.70   0
   2   5  13   89.98   10.51   0
   2   5  13   90.53   10.33   0
   3   5  13  196.64    7.76   0
   3   5  13  173.31    6.61   0
  -4  -5 -13    1.50    5.07   0
   4   5  13   -1.30    4.96   0
  -5  -5 -13   98.43    6.33   0
   5   5  13   97.02    6.16   0
  -4   6  13   44.21    4.64   0
  -3   6  13   23.40    4.27   0
  -2   6  13  134.94    4.74   0
  -1   6  13   30.86    4.15   0
   0   6  13    4.21    3.92   0
   1   6  13  313.22    5.66   0
   2   6  13  256.93    6.64   0
   3   6  13   17.58    5.14   0
   3   6  13   17.55    6.20   0
   4   6  13   47.13    7.64   0
  -4  -6 -13   46.06    5.65   0
   4   6  13   44.18    5.48   0
  -5  -6 -13   23.52    4.88   0
   5   6  13   28.40    5.73   0
  -3   7  13   27.31    4.49   0
  -2   7  13    0.47    4.05   0
  -1   7  13    3.68    4.18   0
   0   7  13   55.58    4.29   0
   1   7  13    7.07    4.03   0
   2   7  13   21.95    4.22   0
   3   7  13   14.80    4.37   0
   4   7  13   91.87    6.37   0
  -4  -7 -13   84.00    6.45   0
   4   7  13   77.98    6.13   0
  -5  -7 -13  101.80    6.28   0
   5   7  13  125.03    6.68   0
  -2   8  13    6.55    4.23   0
  -1   8  13   44.83    4.49   0
   1  -8 -13   29.09    4.37   0
   0   8  13  111.40    4.48   0
   0  -8 -13   96.65    4.48   0
   1   8  13  112.92    4.94   0
  -1  -8 -13   77.53    4.88   0
   2   8  13   32.72    5.27   0
  -2  -8 -13   22.25    4.22   0
  -3  -8 -13   75.07    4.90   0
   3   8  13   85.87    5.82   0
   4   8  13   21.10    5.80   0
  -4  -8 -13   18.61    6.72   0
   4   8  13   18.06    7.24   0
  -5  -8 -13    2.87    5.50   0
   5   8  13   -0.57    5.50   0
   5   8  13    1.56    6.25   0
  -1   9  13   19.20    4.52   0
   1  -9 -13    8.49    4.44   0
   0   9  13   18.89    4.37   0
   0  -9 -13   17.60    4.08   0
   1   9  13   27.50    4.55   0
  -1  -9 -13   16.91    4.29   0
   2   9  13   22.47    4.44   0
  -2  -9 -13   18.38    4.16   0
  -3  -9 -13    0.84    4.96   0
   3   9  13    2.53    4.33   0
   4   9  13   15.13    5.77   0
  -4  -9 -13    9.64    7.50   0
   4   9  13   11.25    7.52   0
  -4  -9 -13   11.74    5.55   0
   1  10  13   -4.45    4.37   0
  -1 -10 -13   -2.60    4.12   0
   2  10  13   11.89    4.63   0
  -2 -10 -13    9.87    4.32   0
  -3 -10 -13   86.81    5.23   0
   3  10  13  115.83    5.50   0
  -3  -2  14   34.63    4.58   0
  -3  -2  14   33.78    4.85   0
  -3  -2  14   30.14    4.63   0
  -2  -2  14   22.70    4.61   0
  -2  -2  14   22.87    4.69   0
  -2  -2  14   24.60    4.48   0
  -1  -2  14    3.23    4.40   0
  -1  -2  14    3.28    4.27   0
  -1  -2  14    5.87    4.39   0
   0  -2  14   38.68    4.80   0
   0  -2  14   27.14    5.58   0
   0  -2  14   35.79    5.78   0
   1  -2  14   25.46    5.69   0
   1  -2  14   37.90    4.87   0
   1  -2  14   30.45    4.93   0
  -4  -1  14    1.01    4.17   0
  -4  -1  14   -0.74    4.14   0
  -4  -1  14   -1.82    5.50   0
  -3  -1  14    0.56    2.91   0
  -3  -1  14   -0.87    4.59   0
  -3  -1  14    3.65    4.05   0
  -3  -1  14    3.08    4.40   0
  -2  -1  14    8.17    4.30   0
  -2  -1  14   11.47    4.52   0
  -2  -1  14    9.07    4.25   0
  -2  -1  14    8.67    4.38   0
  -1  -1  14   -0.36    4.32   0
  -1  -1  14    0.19    4.01   0
  -1  -1  14    3.14    5.21   0
  -1  -1  14    1.53    3.83   0
   0  -1  14    3.72    4.22   0
   0  -1  14    4.11    4.91   0
   0  -1  14    0.39    4.00   0
   0  -1  14   -1.85    5.22   0
   1  -1  14   19.01    5.47   0
   1  -1  14   22.12    4.43   0
   1  -1  14   19.63    4.56   0
   1  -1  14   19.52    4.37   0
   2  -1  14    5.02    4.43   0
   2  -1  14   -1.98    4.55   0
   2  -1  14    0.44    5.33   0
   2  -1  14   -0.30    6.40   0
  -4   0  14   -1.04    2.95   0
  -4   0  14   -2.89    4.27   0
  -4   0  14   -0.24    4.34   0
  -3   0  14   16.60    4.53   0
  -3   0  14   14.83    4.17   0
  -3   0  14   11.39    4.31   0
  -3   0  14   17.82    4.21   0
  -2   0  14  115.68    5.44   0
  -2   0  14  107.62    4.66   0
  -2   0  14  102.99    4.62   0
  -2   0  14  108.82    6.01   0
  -1   0  14  125.28    4.84   0
  -1   0  14  135.17    5.32   0
  -1   0  14  123.18    4.77   0
  -1   0  14  109.54    6.07   0
   0   0  14   47.77    5.46   0
   0   0  14   32.76    4.59   0
   0   0  14   34.32    4.19   0
   0   0  14   35.45    4.30   0
   1   0  14   25.19    4.38   0
   1   0  14   24.43    5.29   0
   1   0  14   23.53    5.49   0
   1   0  14   24.78    5.30   0
   2   0  14   51.89    5.98   0
   2   0  14   73.53    4.77   0
   2   0  14   61.40    4.97   0
   2   0  14   59.34    5.94   0
   3   0  14   18.86    4.63   0
   3   0  14   17.09    4.81   0
  -4   1  14   13.94    5.54   0
   4  -1 -14   14.24    5.77   0
  -4   1  14   11.06    3.08   0
  -4   1  14   16.95    4.14   0
  -3   1  14    5.62    5.34   0
  -3   1  14    5.37    4.29   0
  -3   1  14    4.47    4.04   0
  -3   1  14    4.32    5.14   0
  -2   1  14    3.21    3.97   0
  -2   1  14    1.57    5.15   0
  -2   1  14   -2.31    3.99   0
  -2   1  14    2.35    4.97   0
  -1   1  14   39.20    4.08   0
  -1   1  14   34.51    4.39   0
  -1   1  14   29.75    4.04   0
  -1   1  14   28.13    5.18   0
   0   1  14   -1.61    5.14   0
   0   1  14    2.25    3.80   0
   0   1  14    3.82    5.05   0
   0   1  14   -0.31    3.85   0
   1   1  14    1.54    4.94   0
   1   1  14   -0.23    4.19   0
   1   1  14   -1.60    4.92   0
   1   1  14    3.75    4.83   0
   2   1  14   13.25    4.33   0
   2   1  14   11.70    5.32   0
   2   1  14   11.34    4.34   0
   2   1  14   13.50    5.39   0
   3   1  14   73.80    4.86   0
   3   1  14   69.13    5.10   0
  -4   2  14   10.88    5.46   0
  -4   2  14   11.68    4.31   0
   4  -2 -14   14.78    5.76   0
  -4   2  14   18.95    4.42   0
  -3   2  14  273.41    9.18   0
  -3   2  14  333.80    5.80   0
  -3   2  14  333.62    9.42   0
  -3   2  14  282.85    5.73   0
  -2   2  14   11.51    3.81   0
  -2   2  14   11.88    6.15   0
  -2   2  14   12.20    3.90   0
  -2   2  14    9.89    5.87   0
  -1   2  14   13.89    5.74   0
  -1   2  14   18.45    3.83   0
  -1   2  14   13.33    4.02   0
  -1   2  14   12.54    5.73   0
   0   2  14  131.05    6.11   0
   0   2  14  129.59    4.70   0
   0   2  14  113.24    6.26   0
   0   2  14  132.58    4.79   0
   1   2  14    7.08    4.82   0
   1   2  14    6.68    5.11   0
   1   2  14    4.45    4.90   0
   1   2  14    2.42    4.15   0
   2   2  14    3.27    5.19   0
   2   2  14    7.05    4.99   0
   2   2  14    6.28    4.28   0
   2   2  14    6.49    4.97   0
   3   2  14   21.13    4.34   0
   3   2  14   20.30    4.61   0
   4   2  14    0.98    5.39   0
  -4   3  14   31.62    6.98   0
  -4   3  14   36.24    4.49   0
  -3   3  14   74.82    9.64   0
  -3   3  14   89.04   10.49   0
  -3   3  14   85.00    4.67   0
  -2   3  14   24.23    4.06   0
  -1   3  14    3.16    4.82   0
   0   3  14    2.47    7.43   0
   0   3  14    3.06    3.65   0
   0   3  14    2.09    6.95   0
   0   3  14    7.14    4.83   0
   1   3  14  289.06    8.48   0
   1   3  14  250.21    8.09   0
   1   3  14  287.75    6.03   0
   1   3  14  300.57    6.11   0
   2   3  14    0.86    4.85   0
   2   3  14    2.00    5.11   0
   2   3  14    3.45    5.12   0
   2   3  14    3.63    4.78   0
   3   3  14    3.11    4.27   0
   3   3  14    3.41    8.17   0
   3   3  14    3.65    4.47   0
   3   3  14    2.67    8.65   0
   4   3  14   -2.51    4.16   0
  -4   4  14   43.29    4.72   0
  -3   4  14  106.88    4.80   0
  -2   4  14   17.61    4.21   0
  -1   4  14   66.69    4.29   0
   0   4  14  173.53    5.11   0
   1   4  14   15.62    5.02   0
   2   4  14   24.26    5.37   0
   2   4  14   26.27    5.08   0
   2   4  14   18.17    6.37   0
   2   4  14   20.78    5.35   0
   3   4  14    1.02    5.92   0
   3   4  14    3.60    5.31   0
   3   4  14    1.65    6.35   0
   3   4  14    3.11    4.97   0
  -4  -4 -14   37.86    5.17   0
   4   4  14   40.99    4.60   0
  -3   5  14    0.12    4.15   0
  -2   5  14    4.19    4.10   0
  -1   5  14   28.77    4.15   0
   0   5  14   37.63    4.13   0
   1   5  14  133.58    4.77   0
   2   5  14    0.83    4.24   0
   3   5  14   17.82    5.63   0
   3   5  14   20.48    5.61   0
   3   5  14   16.65    6.10   0
   3   5  14   19.64    5.93   0
  -4  -5 -14   15.90    5.86   0
   4   5  14   17.92    5.60   0
  -3   6  14   32.92    4.50   0
  -2   6  14   56.69    3.42   0
  -1   6  14   13.02    3.11   0
   0   6  14   83.94    4.62   0
   1   6  14    2.76    5.18   0
   2   6  14   12.66    4.49   0
   3   6  14    6.04    7.94   0
   3   6  14    3.13    4.38   0
   3   6  14    3.57    7.66   0
   4   6  14   10.27    7.86   0
   4   6  14   11.52    8.09   0
  -4  -6 -14    8.90    5.37   0
   4   6  14    9.08    5.22   0
  -2   7  14   64.16    4.83   0
  -1   7  14   41.17    4.58   0
   0   7  14    3.45    4.24   0
   1   7  14    6.11    4.21   0
   2   7  14   42.36    5.56   0
   3   7  14  102.50    6.27   0
   4   7  14    0.13    6.42   0
  -4  -7 -14    0.25    6.46   0
   4   7  14    2.65    6.23   0
  -1   8  14   13.75    4.42   0
   0   8  14    2.23    2.96   0
   1   8  14    4.40    5.25   0
   2   8  14   31.69    4.53   0
   3   8  14   32.69    4.81   0
   4   8  14   28.11    6.13   0
  -4  -8 -14   22.89    8.69   0
   4   8  14   20.94    8.52   0
   0   9  14   65.44    4.91   0
   0  -9 -14   48.88    4.97   0
   1   9  14   10.12    4.58   0
  -1  -9 -14    8.70    4.21   0
   2   9  14    0.96    5.63   0
  -2  -9 -14    2.19    4.29   0
  -3  -9 -14    5.64    4.50   0
   3   9  14    7.30    5.74   0
  -2  -1  15   41.35    4.59   0
  -2  -1  15   40.49    6.31   0
  -2  -1  15   33.08    4.49   0
  -2  -1  15   35.89    4.94   0
  -1  -1  15    4.00    4.64   0
  -1  -1  15    5.36    4.36   0
  -1  -1  15   -2.09    4.30   0
  -1  -1  15    3.34    4.18   0
   0  -1  15    2.18    4.61   0
   0  -1  15    2.74    4.42   0
   0  -1  15    3.17    4.63   0
   0  -1  15    2.80    5.32   0
  -3   0  15   36.04    6.15   0
  -3   0  15   32.42    4.51   0
  -3   0  15   32.16    4.60   0
  -3   0  15   31.98    5.96   0
  -2   0  15   12.64    4.71   0
  -2   0  15   16.52    3.09   0
  -2   0  15   12.73    3.11   0
  -2   0  15   11.78    5.51   0
  -1   0  15   16.01    4.20   0
  -1   0  15   19.72    4.57   0
  -1   0  15   18.90    4.35   0
  -1   0  15   16.94    4.57   0
   0   0  15   48.88    5.62   0
   0   0  15   30.29    4.85   0
   0   0  15   33.70    4.79   0
   0   0  15   39.54    4.77   0
   1   0  15  155.76    6.13   0
   1   0  15  126.21    6.02   0
   1   0  15  136.66    7.11   0
   1   0  15  130.87    6.68   0
  -3   1  15    1.39    4.20   0
  -3   1  15    2.39    5.69   0
  -3   1  15    3.49    4.29   0
  -3   1  15    0.13    5.32   0
  -2   1  15    3.52    4.07   0
  -2   1  15    4.04    5.54   0
  -2   1  15    6.81    4.07   0
  -2   1  15    2.71    5.45   0
  -1   1  15  163.38    6.86   0
  -1   1  15  154.84    5.18   0
  -1   1  15  149.38    5.10   0
  -1   1  15  123.51    6.79   0
   0   1  15    3.74    5.32   0
   0   1  15    1.90    4.10   0
   0   1  15    5.22    5.39   0
   0   1  15    2.56    5.13   0
   1   1  15    0.22    4.31   0
   1   1  15    3.25    4.45   0
   1   1  15    1.69    5.12   0
   1   1  15   -1.26    4.30   0
   2   1  15    5.08    4.56   0
   2   1  15    4.16    5.42   0
   2   1  15   -0.17    4.60   0
   2   1  15    3.40    6.38   0
  -3   2  15    1.62    6.20   0
  -3   2  15    1.53    2.93   0
  -3   2  15    1.07    6.39   0
  -3   2  15    1.58    4.27   0
  -2   2  15   19.99    4.21   0
  -2   2  15   19.61    6.40   0
  -2   2  15   14.16    4.26   0
  -2   2  15   16.79    6.26   0
  -1   2  15  100.04    7.34   0
  -1   2  15   97.27    4.66   0
  -1   2  15   81.75    4.88   0
  -1   2  15   84.89    7.32   0
   0   2  15   10.96    5.26   0
   0   2  15    6.86    5.36   0
   0   2  15    8.58    5.10   0
   0   2  15   11.76    4.03   0
   1   2  15    9.07    5.14   0
   1   2  15    5.37    5.14   0
   1   2  15    8.82    5.42   0
   1   2  15    7.79    5.26   0
   2   2  15   32.29    6.52   0
   2   2  15   25.24    5.44   0
   2   2  15   29.69    4.75   0
   2   2  15   28.47    5.49   0
   3   2  15   16.79    5.69   0
   3   2  15   14.85    5.02   0
  -3   3  15   38.06    4.69   0
  -2   3  15   26.75    4.34   0
  -2   3  15   23.21    4.38   0
  -1   3  15    5.07    4.94   0
  -1   3  15    6.96    4.15   0
   0   3  15    8.08    8.46   0
   0   3  15    8.39    4.04   0
   0   3  15    6.96    7.98   0
   0   3  15    9.86    4.16   0
   1   3  15  136.59    5.43   0
   1   3  15  136.49    7.83   0
   1   3  15  136.17    6.06   0
   1   3  15  123.19    7.92   0
   2   3  15    4.78    5.24   0
   2   3  15    1.26    5.38   0
   2   3  15    1.37    6.11   0
   2   3  15    0.02    5.48   0
   3   3  15    5.22    5.61   0
   3   3  15    6.63   10.55   0
   3   3  15    5.64    4.85   0
   3   3  15    6.45   11.05   0
  -3   4  15   22.56    4.63   0
  -2   4  15   58.20    4.65   0
  -1   4  15  104.25    4.70   0
   0   4  15    0.83    4.14   0
   1   4  15  106.28    5.93   0
   1   4  15  105.97    4.99   0
   2   4  15  129.86    6.55   0
   2   4  15  122.03    6.24   0
   2   4  15  101.61    8.54   0
   2   4  15  104.62    7.70   0
   3   4  15   -0.34    5.54   0
   3   4  15   -1.27    7.31   0
   3   4  15   -1.10    5.31   0
   3   4  15   -0.87    7.05   0
  -2   5  15   -1.55    4.38   0
  -1   5  15   19.88    4.58   0
   0   5  15    8.27    4.99   0
   1   5  15    6.27    4.30   0
   2   5  15   20.28    5.81   0
   3   5  15    1.81    6.01   0
   3   5  15    0.92    6.48   0
   3   5  15    1.62    6.44   0
   3   5  15    1.23    6.15   0
  -2   6  15    2.79    3.08   0
  -1   6  15   69.53    3.74   0
   0   6  15   59.72    4.63   0
   1   6  15   45.79    5.43   0
   2   6  15    1.83    4.70   0
   3   6  15   41.29    6.16   0
  -1   7  15   21.98    4.85   0
   0   7  15   15.13    4.52   0
   1   7  15    4.14    5.40   0
   2   7  15    1.44    5.58   0
   3   7  15    1.65    5.88   0
   0   8  15    7.93    4.43   0
   1   8  15   15.63    4.62   0
   2   8  15    6.16    4.64   0
  -1   2  16    7.78    4.33   0
  -1   2  16    4.49    6.62   0
  -1   2  16    7.46    4.38   0
  -1   2  16    4.87    7.25   0
   0   2  16    7.52    6.36   0
   0   2  16    8.25    5.25   0
   0   2  16    2.77    6.51   0
   0   2  16    6.25    5.43   0
   1   2  16   19.82    4.43   0
   1   2  16   20.26    5.80   0
   1   2  16   17.05    5.99   0
   1   2  16   15.86    4.88   0
  -1   3  16   26.74    4.45   0
  -1   3  16   21.23    4.64   0
   0   3  16   36.64    5.32   0
   0   3  16   36.72    4.64   0
   1   3  16    4.04    6.46   0
   1   3  16    6.42    4.40   0
   1   3  16    5.26    6.59   0
   1   3  16    9.03    5.70   0
  -1   4  16    7.98    4.33   0
   0   4  16   69.57    4.96   0
   0   4  16   65.89    4.69   0
   1   4  16   -3.89    5.60   0
   1   4  16    3.84    4.30   0
   2   4  16    0.35    5.75   0
   2   4  16   -0.31    7.32   0
   2   4  16    1.14    5.38   0
   2   4  16    0.03    7.17   0
  -1   5  16   -2.10    4.41   0
   0   5  16    7.85    4.50   0
   1   5  16    5.47    4.71   0
   2   5  16   22.11    5.77   0
   2   5  16   18.66    5.06   0
   0   6  16   26.02    4.63   0
   1   6  16   32.12    4.90   0
;
_shelx_hkl_checksum              62140
_shelx_res_file
;
TITL [C12N3H14]+ Cl- * CHCL3 at 170 K in P-1 (Felix134)
CELL  0.71073   7.0474   9.7775  12.8695  71.744  89.177  72.582
ZERR  2.0       0.0003   0.0005   0.0006   0.003   0.004   0.004
LATT  1
SFAC C H N CL
UNIT 26 30 6 8
L.S. 10
ACTA
TEMP -103
BOND $H
HTAB
EQIV $1 -x+1, -y+1, -z
HTAB C5 Cl2_$1
HTAB N2 Cl1
HTAB N3 N1
HTAB C11 Cl1
HTAB C13 Cl1
WGHT    0.052900    0.190400
EXTI    0.012285
FVAR       1.11307
C1    1    0.216999    0.567753    0.425370    11.00000    0.02852    0.03249 =
         0.03516   -0.01472    0.00552   -0.01126
N1    3    0.136322    0.629881    0.501014    11.00000    0.02939    0.03122 =
         0.03590   -0.01536    0.00648   -0.00963
C2    1    0.012263    0.774338    0.468260    11.00000    0.02847    0.03019 =
         0.04322   -0.01573    0.00508   -0.00976
C3    1   -0.030134    0.858417    0.358609    11.00000    0.03354    0.03238 =
         0.04533   -0.01111    0.00103   -0.01001
AFIX  43
H3    2   -0.116947    0.959758    0.336500    11.00000   -1.20000
AFIX   0
C4    1    0.055800    0.793083    0.280515    11.00000    0.03873    0.03942 =
         0.03553   -0.00885    0.00017   -0.01417
AFIX  43
H4    2    0.028202    0.850113    0.204599    11.00000   -1.20000
AFIX   0
C5    1    0.180777    0.645867    0.313181    11.00000    0.03605    0.03896 =
         0.03279   -0.01467    0.00622   -0.01371
AFIX  43
H5    2    0.240118    0.599329    0.260993    11.00000   -1.20000
AFIX   0
C6    1   -0.071058    0.832940    0.559111    11.00000    0.03905    0.03531 =
         0.05123   -0.02259    0.01068   -0.01033
AFIX 137
H6A   2   -0.158354    0.775936    0.597891    11.00000   -1.50000
H6B   2   -0.147986    0.940488    0.528366    11.00000   -1.50000
H6C   2    0.038592    0.820781    0.610581    11.00000   -1.50000
AFIX   0
N2    3    0.342800    0.419371    0.461201    11.00000    0.03445    0.03249 =
         0.03250   -0.01599    0.00780   -0.00797
AFIX   3
H2N   2    0.396260    0.381231    0.410181    11.00000   -1.50000
AFIX   0
C7    1    0.389257    0.323336    0.566211    11.00000    0.02807    0.03303 =
         0.03653   -0.01523    0.00576   -0.01078
N3    3    0.326050    0.374593    0.649983    11.00000    0.03171    0.03064 =
         0.03484   -0.01328    0.00609   -0.00939
AFIX  43
H3N   2    0.255982    0.470619    0.635045    11.00000   -1.20000
AFIX   0
C8    1    0.365474    0.284755    0.756846    11.00000    0.03267    0.03957 =
         0.03605   -0.01158    0.00447   -0.01450
C9    1    0.473164    0.135449    0.780089    11.00000    0.03810    0.03834 =
         0.03919   -0.00703   -0.00029   -0.01208
AFIX  43
H9    2    0.502131    0.070428    0.854147    11.00000   -1.20000
AFIX   0
C10   1    0.540669    0.078533    0.694633    11.00000    0.03642    0.03228 =
         0.04993   -0.01277   -0.00130   -0.00774
AFIX  43
H10   2    0.614490   -0.025535    0.710932    11.00000   -1.20000
AFIX   0
C11   1    0.501436    0.171114    0.588159    11.00000    0.03135    0.03464 =
         0.04513   -0.01865    0.00239   -0.00740
AFIX  43
H11   2    0.549236    0.133115    0.530059    11.00000   -1.20000
AFIX   0
C12   1    0.285474    0.360965    0.839201    11.00000    0.04972    0.05210 =
         0.03667   -0.01679    0.00949   -0.01492
AFIX 137
H12A  2    0.313049    0.285737    0.912867    11.00000   -1.50000
H12B  2    0.140988    0.409227    0.822689    11.00000   -1.50000
H12C  2    0.349799    0.438028    0.836184    11.00000   -1.50000
AFIX   0
CL1   4    0.536764    0.274829    0.289403    11.00000    0.05938    0.04370 =
         0.04391   -0.02200    0.02125   -0.01572
C13   1    0.801847    0.279701    0.066535    11.00000    0.04797    0.05416 =
         0.03680   -0.01352    0.00808   -0.01018
AFIX  13
H13   2    0.706483    0.297786    0.122680    11.00000   -1.20000
AFIX   0
CL2   4    0.746962    0.445625   -0.046737    11.00000    0.05738    0.04985 =
         0.03972   -0.01192    0.00980   -0.00875
CL3   4    1.044997    0.230496    0.125598    11.00000    0.05401    0.10471 =
         0.05528   -0.00355   -0.00757   -0.01882
CL4   4    0.770718    0.130778    0.026060    11.00000    0.09384    0.05351 =
         0.06630   -0.01877    0.00043   -0.01838
HKLF 4
REM  [C12N3H14]+ Cl- * CHCL3 at 170 K in P-1 (Felix134)
REM R1 =  0.0366 for    2885 Fo > 4sig(Fo)  and  0.0464 for all    3487 data
REM    184 parameters refined using      0 restraints
END
WGHT      0.0528      0.1901
REM Instructions for potential hydrogen bonds
HTAB C5 Cl2_$1
HTAB N2 Cl1
HTAB N3 N1
HTAB C11 Cl1
HTAB C13 Cl1
REM Highest difference peak  0.373,  deepest hole -0.498,  1-sigma level  0.046
Q1    1   0.8865  0.1339  0.0302  11.00000  0.05    0.37
Q2    1   0.0806  0.7006  0.4853  11.00000  0.05    0.24
Q3    1   1.0938  0.1867  0.0897  11.00000  0.05    0.23
Q4    1   0.1620  0.5719  0.5582  11.00000  0.05    0.22
Q5    1   0.1922  0.6066  0.3805  11.00000  0.05    0.22
Q6    1   0.7022  0.1360  0.0776  11.00000  0.05    0.21
Q7    1   0.1741  0.6002  0.4634  11.00000  0.05    0.20
Q8    1   1.0956  0.2727  0.1368  11.00000  0.05    0.20
Q9    1   0.2672  0.5071  0.4459  11.00000  0.05    0.19
Q10   1   0.0143  0.8198  0.3211  11.00000  0.05    0.18
Q11   1   0.1205  0.7136  0.3009  11.00000  0.05    0.17
Q12   1  -0.0070  0.8139  0.4139  11.00000  0.05    0.17
Q13   1   0.3426  0.3679  0.5244  11.00000  0.05    0.15
Q14   1   0.4302  0.2540  0.5744  11.00000  0.05    0.14
Q15   1   0.3647  0.3398  0.6132  11.00000  0.05    0.14
Q16   1  -0.0224  0.7938  0.4988  11.00000  0.05    0.14
Q17   1   0.4717  0.1577  0.3376  11.00000  0.05    0.14
Q18   1   0.5037  0.2254  0.2089  11.00000  0.05    0.14
Q19   1   0.3678  0.3304  0.6995  11.00000  0.05    0.14
Q20   1   0.9139  0.1890  0.0788  11.00000  0.05    0.14
;
_shelx_res_checksum              64247
_shelxl_version_number           2.014
loop_
_space_group_symop_operation_xyz
'x, y, z'
'-x, -y, -z'
loop_
_atom_site_type_symbol
_atom_site_label
_atom_site_fract_x
_atom_site_fract_y
_atom_site_fract_z
_atom_site_U_iso_or_equiv
_atom_site_adp_type
_atom_site_calc_flag
_atom_site_occupancy
C C1 0.2170(2) 0.56775(18) 0.42537(14) 0.0307(3) Uani d 1
N N1 0.1363(2) 0.62988(15) 0.50101(12) 0.0311(3) Uani d 1
C C2 0.0123(2) 0.77434(18) 0.46826(15) 0.0329(4) Uani d 1
C C3 -0.0301(3) 0.85842(19) 0.35861(16) 0.0375(4) Uani d 1
H H3 -0.1169 0.9598 0.3365 0.045 Uiso calc 1
C C4 0.0558(3) 0.7931(2) 0.28052(16) 0.0382(4) Uani d 1
H H4 0.0282 0.8501 0.2046 0.046 Uiso calc 1
C C5 0.1808(3) 0.6459(2) 0.31318(15) 0.0347(4) Uani d 1
H H5 0.2401 0.5993 0.2610 0.042 Uiso calc 1
C C6 -0.0711(3) 0.8329(2) 0.55911(17) 0.0401(4) Uani d 1
H H6A -0.1584 0.7759 0.5979 0.060 Uiso calc 1
H H6B -0.1480 0.9405 0.5284 0.060 Uiso calc 1
H H6C 0.0386 0.8208 0.6106 0.060 Uiso calc 1
N N2 0.3428(2) 0.41937(15) 0.46120(12) 0.0324(3) Uani d 1
H H2N 0.3963 0.3812 0.4102 0.049 Uiso d 1
C C7 0.3893(2) 0.32334(18) 0.56621(14) 0.0313(3) Uani d 1
N N3 0.3260(2) 0.37459(15) 0.64998(12) 0.0318(3) Uani d 1
H H3N 0.2560 0.4706 0.6350 0.038 Uiso calc 1
C C8 0.3655(3) 0.2848(2) 0.75685(15) 0.0355(4) Uani d 1
C C9 0.4732(3) 0.1354(2) 0.78009(16) 0.0398(4) Uani d 1
H H9 0.5021 0.0704 0.8541 0.048 Uiso calc 1
C C10 0.5407(3) 0.0785(2) 0.69463(17) 0.0403(4) Uani d 1
H H10 0.6145 -0.0255 0.7109 0.048 Uiso calc 1
C C11 0.5014(3) 0.17111(19) 0.58816(16) 0.0363(4) Uani d 1
H H11 0.5492 0.1331 0.5301 0.044 Uiso calc 1
C C12 0.2855(3) 0.3610(2) 0.83920(16) 0.0458(4) Uani d 1
H H12A 0.3130 0.2857 0.9129 0.069 Uiso calc 1
H H12B 0.1410 0.4092 0.8227 0.069 Uiso calc 1
H H12C 0.3498 0.4380 0.8362 0.069 Uiso calc 1
Cl Cl1 0.53676(8) 0.27483(5) 0.28940(4) 0.04733(15) Uani d 1
C C13 0.8018(3) 0.2797(2) 0.06653(17) 0.0480(5) Uani d 1
H H13 0.7065 0.2978 0.1227 0.058 Uiso calc 1
Cl Cl2 0.74696(8) 0.44562(6) -0.04674(4) 0.05151(16) Uani d 1
Cl Cl3 1.04500(10) 0.23050(10) 0.12560(6) 0.0780(2) Uani d 1
Cl Cl4 0.77072(12) 0.13078(7) 0.02606(6) 0.0723(2) Uani d 1
loop_
_atom_site_aniso_label
_atom_site_aniso_U_11
_atom_site_aniso_U_22
_atom_site_aniso_U_33
_atom_site_aniso_U_12
_atom_site_aniso_U_13
_atom_site_aniso_U_23
C1 0.0285(8) 0.0325(8) 0.0352(9) -0.0113(6) 0.0055(7) -0.0147(7)
N1 0.0294(7) 0.0312(7) 0.0359(7) -0.0096(5) 0.0065(6) -0.0154(6)
C2 0.0285(8) 0.0302(8) 0.0432(10) -0.0098(6) 0.0051(7) -0.0157(7)
C3 0.0335(9) 0.0324(8) 0.0453(10) -0.0100(7) 0.0010(7) -0.0111(7)
C4 0.0387(9) 0.0394(9) 0.0355(9) -0.0142(7) 0.0002(7) -0.0089(7)
C5 0.0360(9) 0.0390(9) 0.0328(9) -0.0137(7) 0.0062(7) -0.0147(7)
C6 0.0390(9) 0.0353(9) 0.0512(11) -0.0103(7) 0.0107(8) -0.0226(8)
N2 0.0344(7) 0.0325(7) 0.0325(7) -0.0080(6) 0.0078(6) -0.0160(6)
C7 0.0281(8) 0.0330(8) 0.0365(9) -0.0108(6) 0.0058(7) -0.0152(7)
N3 0.0317(7) 0.0306(7) 0.0348(7) -0.0094(5) 0.0061(6) -0.0133(6)
C8 0.0327(8) 0.0396(9) 0.0360(9) -0.0145(7) 0.0045(7) -0.0116(7)
C9 0.0381(9) 0.0383(9) 0.0392(10) -0.0121(7) -0.0003(8) -0.0070(8)
C10 0.0364(9) 0.0323(8) 0.0499(11) -0.0077(7) -0.0013(8) -0.0128(8)
C11 0.0314(8) 0.0346(8) 0.0451(10) -0.0074(7) 0.0024(7) -0.0186(8)
C12 0.0497(11) 0.0521(11) 0.0367(10) -0.0149(9) 0.0095(8) -0.0168(9)
Cl1 0.0594(3) 0.0437(3) 0.0439(3) -0.0157(2) 0.0212(2) -0.0220(2)
C13 0.0480(11) 0.0542(11) 0.0368(10) -0.0102(9) 0.0081(8) -0.0135(9)
Cl2 0.0574(3) 0.0499(3) 0.0397(3) -0.0087(2) 0.0098(2) -0.0119(2)
Cl3 0.0540(4) 0.1047(5) 0.0553(4) -0.0188(3) -0.0076(3) -0.0035(3)
Cl4 0.0938(5) 0.0535(3) 0.0663(4) -0.0184(3) 0.0004(4) -0.0188(3)
loop_
_atom_type_symbol
_atom_type_description
_atom_type_scat_dispersion_real
_atom_type_scat_dispersion_imag
_atom_type_scat_source
C C 0.0033 0.0016 'International Tables Vol C Tables 4.2.6.8 and 6.1.1.4'
H H 0.0000 0.0000 'International Tables Vol C Tables 4.2.6.8 and 6.1.1.4'
N N 0.0061 0.0033 'International Tables Vol C Tables 4.2.6.8 and 6.1.1.4'
Cl Cl 0.1484 0.1585 'International Tables Vol C Tables 4.2.6.8 and 6.1.1.4'
loop_
_geom_angle_atom_site_label_1
_geom_angle_atom_site_label_2
_geom_angle_atom_site_label_3
_geom_angle
N1 C1 N2 118.11(15)
N1 C1 C5 122.75(15)
N2 C1 C5 119.14(15)
C1 N1 C2 119.32(15)
N1 C2 C3 121.07(16)
N1 C2 C6 115.17(16)
C3 C2 C6 123.76(16)
C2 C3 C4 119.17(16)
C2 C3 H3 120.4
C4 C3 H3 120.4
C5 C4 C3 120.08(17)
C5 C4 H4 120.0
C3 C4 H4 120.0
C4 C5 C1 117.60(16)
C4 C5 H5 121.2
C1 C5 H5 121.2
C2 C6 H6A 109.5
C2 C6 H6B 109.5
H6A C6 H6B 109.5
C2 C6 H6C 109.5
H6A C6 H6C 109.5
H6B C6 H6C 109.5
C7 N2 C1 127.70(14)
C7 N2 H2N 115.6
C1 N2 H2N 116.7
N3 C7 N2 119.76(15)
N3 C7 C11 119.47(16)
N2 C7 C11 120.77(16)
C7 N3 C8 122.93(15)
C7 N3 H3N 118.5
C8 N3 H3N 118.5
N3 C8 C9 118.58(17)
N3 C8 C12 115.71(16)
C9 C8 C12 125.71(18)
C8 C9 C10 119.86(18)
C8 C9 H9 120.1
C10 C9 H9 120.1
C11 C10 C9 120.55(17)
C11 C10 H10 119.7
C9 C10 H10 119.7
C10 C11 C7 118.61(17)
C10 C11 H11 120.7
C7 C11 H11 120.7
C8 C12 H12A 109.5
C8 C12 H12B 109.5
H12A C12 H12B 109.5
C8 C12 H12C 109.5
H12A C12 H12C 109.5
H12B C12 H12C 109.5
Cl3 C13 Cl2 111.00(12)
Cl3 C13 Cl4 110.30(12)
Cl2 C13 Cl4 109.85(12)
Cl3 C13 H13 108.5
Cl2 C13 H13 108.5
Cl4 C13 H13 108.5
loop_
_geom_bond_atom_site_label_1
_geom_bond_atom_site_label_2
_geom_bond_distance
C1 N1 1.337(2)
C1 N2 1.388(2)
C1 C5 1.391(2)
N1 C2 1.355(2)
C2 C3 1.376(3)
C2 C6 1.496(3)
C3 C4 1.392(3)
C3 H3 0.9500
C4 C5 1.377(3)
C4 H4 0.9500
C5 H5 0.9500
C6 H6A 0.9800
C6 H6B 0.9800
C6 H6C 0.9800
N2 C7 1.360(2)
N2 H2N 0.8800
C7 N3 1.343(2)
C7 C11 1.399(2)
N3 C8 1.359(2)
N3 H3N 0.8800
C8 C9 1.366(3)
C8 C12 1.491(3)
C9 C10 1.398(3)
C9 H9 0.9500
C10 C11 1.363(3)
C10 H10 0.9500
C11 H11 0.9500
C12 H12A 0.9800
C12 H12B 0.9800
C12 H12C 0.9800
C13 Cl3 1.749(2)
C13 Cl2 1.751(2)
C13 Cl4 1.763(2)
C13 H13 1.0000
loop_
_geom_hbond_atom_site_label_D
_geom_hbond_atom_site_label_H
_geom_hbond_atom_site_label_A
_geom_hbond_site_symmetry_A
_geom_hbond_distance_DH
_geom_hbond_distance_HA
_geom_hbond_distance_DA
_geom_hbond_angle_DHA
N3 H3n N1 . 0.88 1.92 2.602(2) 133
N2 H2N Cl1 . 0.88 2.20 3.0771(15) 177
C5 H5 Cl2 2_665 0.95 2.92 3.7969(19) 154
C13 H13 Cl1 . 1.00 2.42 3.396(2) 164
