#------------------------------------------------------------------------------
#$Date: 2016-03-04 13:49:07 +0200 (Fri, 04 Mar 2016) $
#$Revision: 177497 $
#$URL: svn://www.crystallography.net/cod/cif/1/54/25/1542519.cif $
#------------------------------------------------------------------------------
#
# This file is available in the Crystallography Open Database (COD),
# http://www.crystallography.net/
#
# All data on this site have been placed in the public domain by the
# contributors.
#
data_1542519
loop_
_publ_author_name
'Gurung, Sita'
'Golen, James A.'
'Manke, David R.'
_publ_section_title
;
 5-Bromo-1<i>H</i>-indole-2,3-dione
;
_journal_coeditor_code           FF4002
_journal_issue                   2
_journal_name_full               IUCrData
_journal_page_first              x160177
_journal_paper_doi               10.1107/S2414314616001772
_journal_volume                  1
_journal_year                    2016
_chemical_formula_iupac          'C8 H4 Br N O2'
_chemical_formula_moiety         'C8 H4 Br N O2'
_chemical_formula_sum            'C8 H4 Br N O2'
_chemical_formula_weight         226.03
_chemical_name_systematic
;
5-Bromo-1<i>H</i>-indole-2,3-dione
;
_space_group_crystal_system      orthorhombic
_space_group_IT_number           33
_space_group_name_Hall           'P 2c -2n'
_space_group_name_H-M_alt        'P n a 21'
_symmetry_space_group_name_Hall  'P 2c -2n'
_symmetry_space_group_name_H-M   'P n a 21'
_atom_sites_solution_hydrogens   mixed
_audit_creation_method
;
Olex2 1.2
(compiled 2015.09.30 svn.r3233 for OlexSys, GUI svn.r5103)
;
_cell_angle_alpha                90
_cell_angle_beta                 90
_cell_angle_gamma                90
_cell_formula_units_Z            4
_cell_length_a                   25.1411(18)
_cell_length_b                   5.6851(4)
_cell_length_c                   5.1593(3)
_cell_measurement_reflns_used    5354
_cell_measurement_temperature    120(2)
_cell_measurement_theta_max      25.37
_cell_measurement_theta_min      3.24
_cell_volume                     737.42(9)
_computing_cell_refinement
;
SAINT (Bruker, 2014)
;
_computing_data_collection
;
APEX2 (Bruker, 2014)
;
_computing_data_reduction
;
SAINT (Bruker, 2014)
;
_computing_molecular_graphics
;
<i>OLEX2</i> (Dolomanov <i>et al.</i>,  2009)
;
_computing_publication_material
;
<i>OLEX2</i> (Dolomanov <i>et al.</i>,  2009) and publCIF (Westrip,
2010)
;
_computing_structure_refinement
;
SHELXL2014 (Sheldrick, 2015)
;
_computing_structure_solution
;
SHELXS97 (Sheldrick, 2008)
;
_diffrn_ambient_temperature      120.15
_diffrn_measured_fraction_theta_full 0.995
_diffrn_measured_fraction_theta_max 0.993
_diffrn_measurement_device_type  'Bruker D8 Venture CMOS'
_diffrn_measurement_method       '\f and \w scans'
_diffrn_radiation_monochromator  TRIUMPH
_diffrn_radiation_type           MoK\a
_diffrn_radiation_wavelength     0.71073
_diffrn_reflns_av_R_equivalents  0.0347
_diffrn_reflns_limit_h_max       30
_diffrn_reflns_limit_h_min       -30
_diffrn_reflns_limit_k_max       6
_diffrn_reflns_limit_k_min       -6
_diffrn_reflns_limit_l_max       6
_diffrn_reflns_limit_l_min       -6
_diffrn_reflns_number            8877
_diffrn_reflns_theta_full        25.250
_diffrn_reflns_theta_max         25.380
_diffrn_reflns_theta_min         3.241
_diffrn_standards_number         0
_exptl_absorpt_coefficient_mu    5.521
_exptl_absorpt_correction_T_max  0.1480
_exptl_absorpt_correction_T_min  0.1085
_exptl_absorpt_correction_type   multi-scan
_exptl_absorpt_process_details
;
(SADABS; Bruker, 2014)
;
_exptl_crystal_colour            orange
_exptl_crystal_density_diffrn    2.036
_exptl_crystal_description       block
_exptl_crystal_F_000             440
_exptl_crystal_size_max          0.2
_exptl_crystal_size_mid          0.12
_exptl_crystal_size_min          0.1
_refine_diff_density_max         0.448
_refine_diff_density_min         -0.794
_refine_ls_abs_structure_details
;
 Refined as an inversion twin
;
_refine_ls_abs_structure_Flack   0.02(2)
_refine_ls_extinction_method     none
_refine_ls_goodness_of_fit_ref   1.121
_refine_ls_hydrogen_treatment    mixed
_refine_ls_matrix_type           full
_refine_ls_number_parameters     113
_refine_ls_number_reflns         1334
_refine_ls_number_restraints     2
_refine_ls_restrained_S_all      1.121
_refine_ls_R_factor_all          0.0297
_refine_ls_R_factor_gt           0.0250
_refine_ls_shift/su_max          0.000
_refine_ls_shift/su_mean         0.000
_refine_ls_structure_factor_coef Fsqd
_refine_ls_weighting_details
'w=1/[\s^2^(Fo^2^)+1.6735P] where P=(Fo^2^+2Fc^2^)/3'
_refine_ls_weighting_scheme      calc
_refine_ls_wR_factor_gt          0.0530
_refine_ls_wR_factor_ref         0.0543
_reflns_number_gt                1232
_reflns_number_total             1334
_reflns_threshold_expression     'I > 2\s(I)'
_cod_data_source_file            ff4002sup1.cif
_cod_data_source_block           I
_cod_depositor_comments          'Adding full bibliography for 1542519.cif.'
_cod_database_code               1542519
_cod_database_fobs_code          1542519
_shelx_space_group_comment
;
The symmetry employed for this shelxl refinement is uniquely defined
by the following loop, which should always be used as a source of
symmetry information in preference to the above space-group names.
They are only intended as comments.
;
_shelx_estimated_absorpt_t_min   0.405
_shelx_estimated_absorpt_t_max   0.608
_shelx_hkl_file
;
   0   0   1   -0.21    0.32
   0   0  -1   -0.53    0.28
   0   0  -2  513.41   23.34
   0   0   2  563.12   23.37
   0   0   3    0.62    0.34
   0   0   3    0.38    0.33
   0   0   3    0.42    0.87
   0   0  -3    0.45    0.80
   0   0   4  123.80    5.92
   0   0  -4  102.34    5.78
   0   0   4  118.39    5.18
   0   0   4  116.82    5.17
   0   0   5    0.80    1.87
   0   0  -5    0.33    1.60
   0   0   5    0.53    0.70
   0   0   5    0.52    0.82
   0   1   0   -0.34    0.25
   0  -1   0   -0.53    0.26
   0   1   0   -0.49    0.24
   0   1   0   -0.17    0.27
   0  -1   0   -0.24    0.26
   0  -1   0   -0.55    0.25
   0   1   1  386.66   17.29
   0  -1  -1  390.81   17.29
   0  -1   1  405.03   17.19
   0  -1  -1  390.74   17.28
   0   1   1  408.57   17.41
   0  -1  -1  397.15   17.41
   0   1   1  416.62   17.31
   0  -1   1  407.17   17.19
   0  -1   2    0.55    0.51
   0   1   2   -0.29    0.61
   0  -1  -2    0.16    0.39
   0   1   2    0.34    0.44
   0   1   2   -0.04    0.42
   0  -1  -2    0.07    0.36
   0  -1  -2   -0.25    0.64
   0  -1  -3  221.76   10.64
   0   1   3  230.77   10.29
   0  -1   3  236.83   10.48
   0   1   3  237.18   10.29
   0   1   3  241.61   10.70
   0   1   4   -1.22    1.35
   0   1   4    0.76    0.70
   0  -1  -4    0.40    1.31
   0   1   4    1.11    0.76
   0  -1   4    1.23    1.15
   0  -1   5  119.13    6.44
   0  -1  -5  123.72    6.57
   0   1   5  119.67    5.77
   0   1   5  124.22    5.86
   0   1   6   -0.76    1.34
   0  -1  -6    1.74    2.37
   0  -2   0  268.32   12.11
   0  -2   0  277.27   12.13
   0   2   0  279.47   12.12
   0  -2   0  277.55   12.12
   0   2   0  272.36   12.10
   0   2   0  284.82   12.14
   0  -2  -1   -0.65    0.59
   0  -2   1    0.20    0.40
   0  -2  -1   -0.03    0.53
   0  -2  -1    0.19    0.52
   0   2  -1   -0.27    0.36
   0  -2   1   -0.22    0.40
   0   2   1    0.54    0.51
   0   2   1    0.16    0.52
   0  -2   1    0.35    0.43
   0   2   1   -0.04    0.61
   0  -2  -2   96.33    4.92
   0  -2  -2   97.14    4.91
   0   2   2  114.38    5.01
   0   2   2  117.17    5.03
   0  -2   2  103.85    4.75
   0   2   2  111.89    5.23
   0  -2  -2  101.05    5.22
   0  -2   2  106.61    4.75
   0  -2  -3   -0.23    1.17
   0  -2   3   -0.03    0.40
   0   2   3    1.59    1.18
   0  -2   3    0.47    0.76
   0   2   3   -0.32    0.67
   0   2   3    1.02    0.77
   0  -2  -3   -0.06    0.65
   0  -2  -3    0.26    0.65
   0  -2   3   -0.34    0.40
   0   2   4   21.90    1.88
   0   2   4   20.17    2.80
   0   2   4   18.82    1.96
   0  -2   4   21.98    2.12
   0  -2  -4   28.59    2.71
   0  -2  -5   -0.28    1.99
   0   2   5   -0.86    1.12
   0  -2   5   -0.50    1.71
   0   2   5    0.02    1.38
   0  -3   0    0.38    0.71
   0  -3   0   -0.22    0.68
   0   3   0   -0.30    0.67
   0  -3   0   -0.03    0.67
   0   3   0    0.80    0.69
   0   3   0    0.01    0.63
   0   3  -1   55.91    2.89
   0   3   1   65.86    3.31
   0  -3  -1   56.60    3.24
   0  -3   1   60.39    3.03
   0   3   1   62.25    3.10
   0  -3   1   54.50    2.93
   0  -3  -1   59.62    3.12
   0  -3  -1   62.46    3.14
   0   3  -1   52.88    2.90
   0  -3   1   52.66    2.97
   0   3   1   58.02    3.11
   0  -3   2   -0.03    0.58
   0   3   2    0.28    0.87
   0  -3   2   -0.23    0.64
   0   3   2    0.68    1.16
   0   3   2    1.12    0.76
   0  -3  -2    1.57    0.95
   0  -3  -2    1.17    1.16
   0  -3   2    0.12    0.65
   0   3  -2   -0.11    0.37
   0   3  -2    0.80    0.37
   0  -3  -2    0.86    0.84
   0  -3   3   90.46    4.56
   0   3   3   97.78    5.42
   0   3   3   95.92    4.97
   0   3   3   96.29    4.88
   0  -3   3   92.85    4.57
   0  -3  -3  105.77    4.88
   0  -3  -3  109.18    4.91
   0  -3  -3  103.67    5.41
   0  -3   3   89.43    4.66
   0  -3  -4    1.16    1.84
   0  -3  -4   -0.98    1.00
   0  -3   4   -0.42    1.11
   0  -3  -4    0.77    1.09
   0   3   4    0.74    1.38
   0  -3   4   -1.11    0.77
   0  -3   4   -0.90    0.72
   0   3   4    1.41    1.14
   0   3   5   11.61    2.07
   0   3   5    8.54    1.99
   0  -3  -5    8.37    2.51
   0  -4   0   44.93    2.84
   0  -4   0   49.18    2.84
   0   4   0   44.83    2.76
   0  -4   0   47.57    2.89
   0   4   0   42.89    2.78
   0   4   0   42.92    2.80
   0  -4   1    0.54    0.84
   0  -4  -1    0.55    1.15
   0   4   1    0.37    0.94
   0  -4  -1   -0.01    1.04
   0   4   1   -0.15    1.24
   0  -4   1    0.05    1.04
   0  -4   1    0.71    0.96
   0  -4  -1    1.19    1.18
   0   4  -1    0.71    0.79
   0   4   1    1.67    1.12
   0   4  -1    0.01    0.78
   0  -4   2  122.79    6.05
   0   4   2  130.85    6.24
   0   4   2  121.20    6.55
   0   4  -2  126.52    5.77
   0  -4   2  127.68    6.04
   0  -4  -2  131.00    6.31
   0   4   2  122.20    6.28
   0  -4   2  122.11    5.92
   0  -4  -2  122.16    6.53
   0  -4  -2  136.47    6.32
   0   4  -2  127.67    5.78
   0   4   3    1.95    1.39
   0  -4  -3    1.08    1.33
   0  -4   3    0.32    1.02
   0  -4   3    1.57    0.92
   0  -4   3    0.51    1.06
   0   4   3    0.90    1.21
   0  -4  -3    0.99    1.41
   0  -4  -3    0.38    1.70
   0  -4  -4   75.62    4.51
   0  -4   4   74.83    4.05
   0   4   4   74.83    4.49
   0  -4   4   75.36    4.03
   0  -4   4   79.93    4.03
   0  -4  -4   76.08    4.38
   0  -4   4   78.11    4.22
   0  -4  -4   85.43    5.40
   0   4   5   -1.64    1.79
   0  -4  -5   -2.33    2.39
   0  -5   0    1.16    1.53
   0   5   0   -0.47    1.13
   0   5   0    1.23    1.36
   0  -5   0   -0.65    1.25
   0   5   0    1.53    1.38
   0  -5   0    0.07    1.35
   0   5  -1  155.60    7.59
   0   5   1  154.60    8.03
   0  -5  -1  171.10    8.08
   0  -5   1  165.11    7.68
   0   5   1  144.77    7.78
   0  -5   1  163.82    7.89
   0  -5   1  157.49    7.81
   0   5   1  174.14    7.94
   0  -5  -1  162.37    7.91
   0  -5  -2    1.15    1.45
   0   5  -2    0.46    1.06
   0   5   2    0.00    1.32
   0   5  -2    0.34    0.98
   0  -5   2    0.41    1.30
   0  -5  -2   -0.08    1.74
   0  -5   2    0.73    1.59
   0  -5   2   -0.10    1.10
   0  -5   3   66.60    4.31
   0   5   3   69.59    4.42
   0  -5   3   69.78    3.88
   0  -5  -3   73.02    4.47
   0  -5   3   74.59    4.42
   0  -5  -3   79.79    5.08
   0  -5   4    1.27    1.79
   0   5   4    0.40    1.98
   0  -5  -4    0.42    1.86
   0  -5  -4   -2.28    2.54
   0   6   0   72.28    4.93
   0   6   0   77.14    4.44
   0  -6   0   83.76    4.79
   0  -6   0   67.25    4.70
   0  -6   1    0.76    1.57
   0  -6   1    1.28    1.73
   0   6  -1    1.80    1.50
   0  -6  -1   -2.68    1.91
   0   6   1   -2.04    1.75
   0  -6  -1   -1.00    1.96
   0   6   2   30.55    3.32
   0  -6   2   26.55    2.81
   0  -6  -2   35.98    3.49
   0  -6   2   28.69    3.32
   0  -6  -2   42.48    4.08
   0  -6  -3   -4.95    2.58
   0  -6  -3    3.06    2.43
   0  -6   3    1.66    2.02
  -1   0   1   -0.54    0.30
   1   0   1   -0.69    0.29
  -1   0   1   -0.50    0.12
  -1   0   1   -0.68    0.12
   1   0  -1   -0.44    0.32
  -1   0  -1   -0.64    0.29
   1   0   2    2.92    0.68
  -1   0  -2    1.04    0.58
  -1   0   3   -0.04    0.35
   1   0   3    0.48    0.84
  -1   0  -3    1.20    0.86
   1   0   3    0.54    0.33
  -1   0   3    0.19    0.37
  -1   0   3    0.19    0.85
   1   0  -3    0.28    0.81
   1   0   3    1.11    0.35
  -1   0   4    3.93    1.44
   1   0   4    6.40    1.47
   1   0  -4    4.05    1.33
  -1   0   4    3.97    0.65
  -1   0   4    2.97    0.61
   1   0   5   -0.15    1.76
  -1   0   5    0.27    0.73
   1   0   5    0.79    0.68
  -1   0  -5   -0.07    1.53
  -1   0   5    2.03    1.90
  -1   0   5   -0.52    0.85
   1   0   5    1.49    0.84
   1  -1   0  147.25    6.55
   1   1   0  151.01    6.58
  -1   1   0  127.71    6.54
   1   1   0  138.38    6.54
   1  -1   0  150.09    6.54
  -1  -1   0  155.58    6.58
   1  -1   0  163.06    6.57
  -1   1   0  150.63    6.54
  -1  -1   0  155.07    6.56
  -1  -1   0  149.12    6.55
   1   1   0  154.49    6.56
  -1   1   0  155.66    6.56
   1  -1  -1  149.99    6.77
   1   1   1  147.61    6.75
   1  -1  -1  154.09    6.66
  -1  -1   1  157.14    6.55
  -1  -1   1  148.01    6.55
   1   1   1  146.52    6.65
   1   1   1  139.92    6.65
   1  -1  -1  162.03    6.66
  -1  -1  -1  152.46    6.65
   1  -1   1  153.42    6.54
  -1   1   1  146.34    6.66
  -1   1   1  152.17    6.66
  -1   1   1  145.27    6.75
  -1  -1  -1  149.15    6.77
   1  -1   1  156.90    6.54
  -1  -1  -1  153.17    6.65
   1   1   2   11.93    0.91
   1  -1  -2   11.00    1.27
   1  -1  -2   12.08    0.88
   1   1   2   10.90    0.93
   1  -1  -2   10.30    0.82
  -1  -1   2   10.94    1.04
   1   1   2   12.91    1.24
  -1  -1  -2   12.19    1.27
  -1   1   2   11.30    0.91
  -1  -1  -2   10.83    0.85
  -1   1   2   11.20    0.94
  -1  -1  -2   10.41    0.81
   1  -1   2   11.77    0.98
  -1   1   2   12.52    1.30
  -1  -1   3  105.16    5.01
   1   1   3   98.59    4.77
   1  -1  -3  112.69    5.24
   1   1   3  105.50    5.22
   1   1   3   99.63    4.77
  -1   1   3  102.66    4.78
  -1   1   3  104.85    4.80
  -1   1   3  103.01    5.21
   1  -1   3   99.92    4.94
  -1  -1  -3  108.34    5.22
   1   1   4    4.43    1.54
   1   1   4    4.93    0.87
   1  -1  -4    3.94    1.50
   1   1   4    5.17    0.86
  -1  -1   4    4.45    1.35
  -1   1   4    4.88    0.91
  -1   1   4    5.07    0.85
   1  -1   4    4.11    1.32
  -1   1   4    4.21    1.56
  -1  -1  -4    3.48    1.44
   1   1   5   42.39    2.61
  -1  -1   5   41.01    3.53
   1   1   5   38.18    2.49
   1  -1  -5   39.94    3.56
  -1  -1  -5   42.09    3.49
  -1   1   5   40.16    2.51
   1  -1   5   36.69    3.43
  -1   1   5   44.29    2.70
   1  -1  -6    0.68    2.43
   1   1   6    1.95    1.37
  -1   1   6    2.01    1.38
  -1  -1  -6   -0.28    2.38
  -1  -2   0  753.38   31.71
  -1   2   0  726.03   31.69
  -1   2   0  727.30   31.68
  -1  -2   0  743.95   31.73
   1   2   0  726.85   31.72
   1  -2   0  695.35   31.68
   1   2   0  753.92   31.70
  -1   2   0  745.23   31.69
   1  -2   0  738.03   31.69
   1   2   0  727.90   31.68
  -1  -2   0  745.94   31.70
  -1  -2   1    3.40    0.58
   1   2   1    3.19    0.67
   1   2   1    3.83    0.80
   1   2   1    3.78    0.68
  -1  -2   1    3.71    0.57
  -1  -2   1    3.18    0.59
   1  -2  -1    5.04    0.72
   1  -2  -1    5.44    0.84
   1  -2  -1    4.67    0.71
  -1   2  -1    5.33    0.63
  -1   2  -1    5.82    0.68
   1  -2   1    4.98    0.70
  -1   2   1    4.77    0.74
   1   2  -1    4.51    0.56
  -1  -2  -1    4.82    0.73
   1  -2   1    4.89    0.65
  -1  -2  -1    6.33    0.79
   1   2  -1    5.07    0.63
  -1   2   1    4.69    0.82
   1  -2   1    5.11    0.69
  -1   2   1    4.62    0.71
  -1  -2  -1    4.70    0.84
   1  -2  -2  284.60   12.84
   1  -2  -2  284.58   13.09
   1   2   2  288.13   12.87
   1  -2  -2  289.50   12.86
   1   2   2  299.85   13.12
  -1  -2   2  292.46   12.68
   1   2   2  298.09   12.89
  -1  -2   2  300.10   12.69
   1  -2   2  306.44   12.69
  -1  -2  -2  274.08   12.83
  -1  -2  -2  285.36   12.83
  -1   2   2  303.09   12.89
  -1   2   2  295.86   12.90
   1  -2   2  299.29   12.68
  -1   2   2  293.14   13.10
  -1  -2  -2  278.44   13.09
  -1  -2   3    4.49    0.65
   1  -2  -3    4.77    0.82
  -1  -2   3    5.07    0.66
   1  -2  -3    4.84    0.85
  -1  -2   3    5.08    0.97
   1   2   3    5.65    0.91
   1   2   3    5.71    0.94
   1   2   3    4.59    1.32
   1  -2  -3    5.13    1.40
   1  -2   3    3.87    0.53
  -1   2   3    5.00    0.88
  -1  -2  -3    5.33    0.83
  -1   2   3    6.37    1.46
  -1   2   3    5.37    0.97
   1  -2   3    5.21    0.89
  -1  -2  -3    4.48    0.79
  -1  -2  -3    5.15    1.39
   1   2   4  105.84    5.18
   1  -2  -4  105.63    5.76
   1   2   4  108.63    5.21
   1   2   4  100.83    5.80
  -1  -2   4  105.75    5.34
   1  -2   4  113.58    5.25
  -1   2   4  103.78    5.15
  -1  -2  -4   99.47    5.74
  -1   2   4  110.32    5.24
  -1   2   4  102.12    5.83
   1   2   5    5.92    1.30
   1   2   5    2.03    1.50
   1  -2  -5    2.28    2.03
  -1  -2   5    6.03    1.84
   1  -2   5    6.09    1.82
  -1   2   5    5.98    1.34
  -1  -2  -5    4.89    2.17
  -1   2   5    6.96    1.62
  -1  -3   0    1.00    0.73
   1  -3   0    0.74    0.71
  -1   3   0    0.44    0.69
  -1  -3   0    0.45    0.75
  -1   3   0    0.95    0.72
  -1   3   0   -0.01    0.66
  -1  -3   0   -0.30    0.67
   1  -3   0    0.36    0.68
   1   3   0   -0.34    0.59
   1   3   0    0.42    0.69
   1  -3   0    0.33    0.65
   1   3   0    0.77    0.66
  -1   3  -1  349.38   15.56
  -1  -3   1  368.88   15.65
   1   3   1  362.04   15.71
   1  -3  -1  346.72   15.73
   1  -3  -1  335.26   15.80
   1   3   1  367.24   15.75
  -1  -3   1  368.92   15.65
   1   3   1  360.87   15.84
  -1  -3   1  363.89   15.65
   1  -3  -1  352.26   15.73
   1   3  -1  354.86   15.56
  -1   3   1  362.83   15.82
   1  -3   1  364.23   15.64
  -1  -3  -1  334.08   15.81
   1   3  -1  363.31   15.57
  -1  -3  -1  340.77   15.72
  -1   3   1  338.87   15.69
   1  -3   1  375.20   15.66
  -1   3   1  358.33   15.73
   1  -3   1  371.26   15.58
  -1  -3  -1  343.25   15.71
  -1  -3   2   32.37    1.95
   1  -3  -2   29.29    2.12
   1   3   2   32.93    2.21
   1  -3  -2   31.67    2.23
   1  -3  -2   30.72    2.50
   1   3   2   33.97    2.54
  -1   3  -2   32.66    1.55
  -1  -3   2   32.45    1.93
  -1  -3   2   32.89    1.92
   1   3   2   34.96    2.13
  -1  -3  -2   29.34    2.16
   1   3  -2   31.09    1.57
   1  -3   2   33.90    1.93
  -1   3   2   31.87    2.24
   1   3  -2   28.14    1.58
   1  -3   2   34.21    1.93
  -1  -3  -2   27.43    2.43
  -1  -3  -2   28.94    2.11
  -1   3   2   35.05    2.59
   1  -3   2   31.76    1.81
  -1   3   2   33.25    2.11
   1   3   3  232.09   10.08
   1  -3  -3  220.67    9.99
  -1  -3   3  214.46    9.73
   1   3   3  218.12   10.41
  -1  -3   3  227.05    9.76
   1  -3  -3  225.22   10.47
   1   3   3  210.33   10.03
   1  -3  -3  231.12    9.97
  -1  -3  -3  221.60    9.97
  -1   3   3  217.75   10.06
   1  -3   3  214.66    9.72
  -1   3   3  220.72   10.05
  -1  -3  -3  212.02    9.94
  -1  -3  -3  222.08   10.45
  -1   3   3  219.95   10.43
   1  -3   3  207.26    9.71
   1  -3   3  218.35    9.77
  -1  -3   4    6.72    0.98
   1  -3  -4    7.00    1.28
  -1  -3   4    7.37    1.04
   1   3   4    7.15    1.35
  -1  -3   4    6.76    1.42
   1  -3  -4   12.13    2.30
   1  -3  -4    6.91    1.25
   1   3   4    6.81    1.57
  -1  -3  -4    8.17    1.30
  -1   3   4    6.78    1.40
   1  -3   4    7.81    1.33
  -1  -3  -4    7.75    1.27
  -1  -3  -4    9.27    2.18
   1  -3   4    7.10    0.93
   1  -3   4    6.55    0.94
  -1   3   4    8.70    1.62
   1  -3  -5   67.33    5.21
   1   3   5   73.13    4.51
   1   3   5   63.42    4.31
  -1   3   5   65.73    4.57
  -1  -3  -5   81.51    5.21
  -1   3   5   73.15    4.51
   1   4   0   93.30    4.76
  -1  -4   0   91.62    4.76
  -1  -4   0   99.11    4.80
   1   4   0   88.44    4.65
   1   4   0   97.81    4.73
  -1  -4   0   93.26    4.73
   1  -4   0   92.27    4.72
   1  -4   0   90.14    4.75
  -1   4   0   85.56    4.64
   1  -4   0   96.75    4.73
  -1   4   0   93.73    4.71
  -1   4   0   94.40    4.71
  -1  -4   1    3.13    1.04
   1  -4  -1    2.69    1.18
  -1  -4   1    1.53    0.93
   1   4   1    2.86    1.16
   1   4   1    2.22    1.27
   1  -4  -1    5.42    1.32
  -1  -4   1    2.97    1.18
  -1   4  -1    2.80    0.89
   1   4   1    1.64    1.02
   1  -4  -1    2.12    1.14
  -1   4   1    1.28    1.00
  -1  -4  -1    2.55    1.27
   1   4  -1    2.41    0.91
  -1   4   1    0.44    1.19
   1  -4   1    2.42    1.04
   1   4  -1    1.95    0.87
  -1  -4  -1    1.47    1.20
  -1  -4  -1    3.09    1.12
  -1   4   1    0.75    1.11
   1  -4   1    2.02    0.92
   1  -4   1    2.79    1.12
  -1  -4   2   63.86    3.48
  -1  -4   2   61.51    3.50
   1  -4  -2   65.72    3.77
  -1  -4   2   62.44    3.38
   1   4   2   63.64    3.76
  -1   4  -2   61.25    3.11
   1   4   2   61.70    3.61
   1  -4  -2   68.84    4.02
   1   4   2   63.86    4.02
  -1   4  -2   59.18    3.12
   1  -4  -2   60.29    3.63
  -1   4   2   61.34    3.63
   1  -4   2   59.86    3.42
  -1  -4  -2   65.56    4.06
   1   4  -2   60.77    3.13
   1  -4   2   62.71    3.48
   1   4  -2   61.18    3.13
  -1  -4  -2   68.09    3.80
   1  -4   2   61.19    3.24
  -1  -4  -2   68.29    3.81
  -1   4   2   62.87    3.73
  -1   4   2   67.90    4.11
  -1  -4   3   16.61    1.67
   1   4   3   15.21    2.07
  -1  -4   3   15.66    1.92
   1  -4  -3   16.57    2.31
   1  -4  -3   16.63    2.26
   1  -4  -3   19.62    2.42
  -1  -4   3   16.22    1.77
   1   4   3   19.35    2.34
   1  -4   3   18.58    1.87
  -1  -4  -3   17.60    2.82
  -1  -4  -3   15.21    2.18
  -1   4   3   16.08    2.17
  -1  -4  -3   17.23    2.38
   1  -4   3   17.33    1.57
  -1   4   3   17.57    2.41
   1  -4   3   17.04    1.79
   1   4   4   29.31    2.98
   1  -4  -4   26.18    2.91
  -1  -4   4   30.23    2.45
  -1  -4   4   35.33    2.61
  -1  -4   4   33.08    2.54
  -1  -4   4   31.00    2.59
   1  -4  -4   30.37    2.83
   1  -4  -4   33.59    3.75
   1  -4   4   32.49    2.16
   1  -4   4   30.51    2.47
  -1  -4  -4   31.83    2.95
   1  -4   4   32.09    2.37
   1  -4   4   32.51    2.48
  -1   4   4   31.29    2.98
  -1  -4  -4   31.05    2.64
  -1  -4  -4   33.92    3.76
   1  -4  -5   -0.09    2.48
   1   4   5   -2.24    1.89
  -1   4   5    0.85    1.90
  -1  -4  -5    4.39    2.74
  -1  -5   0   24.88    2.45
  -1   5   0   21.56    2.39
   1   5   0   26.86    2.39
   1   5   0   25.29    2.64
  -1   5   0   24.73    2.53
  -1  -5   0   25.73    2.58
   1  -5   0   20.56    2.60
   1  -5   0   25.38    2.51
  -1  -5   0   25.06    2.64
  -1   5   0   25.87    2.28
   1  -5   0   27.34    2.50
   1   5   0   23.73    2.39
  -1  -5   1    5.04    1.42
  -1   5  -1    4.76    1.31
   1   5   1    5.91    1.44
   1   5   1    4.49    1.76
  -1  -5   1    4.61    1.48
  -1  -5   1    7.89    1.78
   1   5   1    5.55    1.56
   1  -5   1    3.75    1.41
  -1   5   1    7.33    1.54
  -1  -5  -1    6.24    1.73
   1   5  -1    5.19    1.22
   1  -5   1    1.74    1.56
  -1   5   1    5.94    1.50
   1   5  -1    4.47    1.35
  -1   5   1    6.61    1.81
   1  -5  -2    5.27    1.62
   1  -5  -2    7.82    1.93
  -1   5  -2    4.38    1.16
  -1  -5   2    6.12    1.39
   1   5   2    7.99    1.68
  -1  -5   2    5.51    1.76
  -1   5  -2    6.57    1.14
  -1  -5   2    5.39    1.54
  -1   5   2    6.62    1.69
  -1  -5  -2    3.89    1.97
   1  -5   2    5.18    1.20
   1  -5   2    6.14    1.55
   1   5  -2    6.24    1.15
  -1  -5  -2    5.77    1.71
   1  -5   2    6.41    1.70
   1   5  -2    6.54    1.28
   1  -5  -3   11.91    2.04
   1   5   3    8.61    1.93
   1  -5  -3    9.70    2.37
  -1  -5   3    6.01    1.59
  -1  -5   3    3.23    1.94
  -1  -5   3    5.57    1.42
   1  -5   3    5.79    1.24
   1  -5   3    5.47    1.91
   1  -5   3    6.45    1.62
  -1  -5  -3    7.86    1.91
  -1   5   3    8.82    1.87
  -1  -5  -3    9.52    2.36
   1  -5  -4   -0.95    2.35
  -1  -5   4    0.78    1.76
   1   5   4   -0.92    1.92
   1  -5  -4    0.72    1.83
  -1  -5  -4    0.36    1.91
  -1   5   4    3.30    1.91
   1  -5   4    1.98    1.80
  -1  -5  -4    4.91    2.70
   1  -6   0   48.36    4.08
  -1  -6   0   49.99    3.84
   1   6   0   49.39    3.60
  -1   6   0   52.21    4.13
   1   6   0   43.10    3.81
  -1  -6   0   54.92    3.96
   1  -6   0   47.75    3.76
  -1   6   0   52.53    3.59
   1   6   1   -0.67    1.75
   1  -6  -1    1.72    2.00
  -1  -6   1   -0.41    1.55
  -1  -6   1   -0.67    1.85
   1  -6  -1    0.21    1.83
  -1   6  -1    1.15    1.58
  -1   6  -1    0.20    1.44
  -1  -6  -1   -1.39    1.94
   1   6  -1   -1.27    1.59
  -1  -6  -1   -0.18    1.96
   1  -6   1    0.87    1.78
  -1   6   1   -1.02    1.71
   1  -6   1    0.03    1.54
   1  -6  -2   32.18    3.53
  -1  -6   2   30.07    2.93
   1  -6  -2   32.63    3.79
  -1  -6   2   34.32    3.51
   1   6   2   29.22    3.36
  -1   6  -2   36.68    3.35
   1   6  -2   29.69    3.25
  -1  -6  -2   29.17    3.41
   1  -6   2   27.26    3.39
  -1   6   2   33.78    3.38
   1  -6   2   29.09    2.74
  -1  -6  -2   42.05    4.20
  -1  -6   3    0.18    2.10
  -1  -6  -3   -0.12    2.18
   1  -6   3    1.50    2.14
  -2   0   1   22.45    1.37
   2   0   1   24.84    1.16
  -2   0   1   24.38    1.20
   2   0  -1   28.07    1.41
   2   0   1   23.98    1.29
  -2   0   1   25.28    1.19
   2   0   1   25.56    1.17
  -2   0   2  550.57   24.15
   2   0   2  535.01   24.10
  -2   0   2  555.99   24.42
  -2   0   2  580.81   24.14
  -2   0  -2  592.21   24.38
   2   0   2  520.33   24.11
   2   0  -2  611.50   24.47
   2   0   2  552.82   24.36
   2   0   3   31.11    2.17
   2   0  -3   39.56    2.32
   2   0   3   32.27    1.65
  -2   0   3   31.82    2.32
  -2   0  -3   39.15    2.24
  -2   0   3   33.61    1.72
  -2   0   3   33.48    1.68
   2   0   3   33.71    1.64
   2   0   4  190.92    8.26
   2   0   4  184.07    8.25
  -2   0  -4  188.37    8.82
  -2   0   4  183.86    8.27
   2   0   4  188.72    8.84
  -2   0   4  185.06    8.30
   2   0  -4  188.74    8.92
  -2   0   4  194.97    8.94
   2   0   5    3.40    0.85
  -2   0   5    2.73    0.87
  -2   0   5    6.43    1.97
   2   0   5    4.90    1.85
  -2   0   5    2.74    0.83
   2   0   5    3.86    0.82
  -2   0  -5    1.53    1.58
   2  -1   0   32.76    1.58
  -2  -1   0   32.67    1.58
   2   1   0   32.26    1.62
   2  -1   0   32.22    1.55
  -2  -1   0   33.44    1.63
  -2   1   0   31.96    1.58
   2   1   0   31.67    1.58
  -2  -1   0   33.64    1.59
  -2   1   0   32.44    1.57
   2  -1   0   30.73    1.57
   2   1   0   30.99    1.58
  -2   1   0   30.64    1.54
   2   1   1  211.46    9.02
  -2  -1   1  223.81    8.93
   2   1   1  214.09    9.02
  -2  -1   1  219.31    8.93
   2   1   1  216.48    9.13
   2  -1  -1  191.17    9.01
   2  -1  -1  188.95    9.10
   2  -1  -1  199.03    9.00
  -2  -1  -1  187.79    8.99
  -2  -1  -1  190.03    8.99
   2   1  -1  197.67    8.87
  -2   1   1  217.60    9.03
  -2   1   1  208.04    9.02
   2  -1   1  223.98    8.92
   2  -1   1  221.13    8.88
  -2   1   1  204.73    9.12
   2   1  -1  191.89    8.88
   2  -1   1  215.76    8.91
  -2  -1  -1  191.69    9.11
   2  -1  -2   35.81    1.94
   2   1   2   39.88    2.03
   2   1   2   43.66    2.32
   2   1   2   42.42    2.03
  -2  -1   2   44.09    2.20
   2  -1  -2   37.11    1.98
   2  -1  -2   34.00    2.27
  -2  -1  -2   35.66    1.94
   2  -1   2   42.42    2.03
  -2  -1  -2   35.37    2.29
  -2   1   2   45.54    2.08
  -2   1   2   42.30    2.02
  -2  -1  -2   37.50    1.93
  -2   1   2   42.29    2.35
   2  -1  -3  157.41    7.49
  -2  -1   3  146.83    7.27
   2   1   3  154.27    7.06
   2   1   3  160.82    7.46
   2   1   3  153.61    7.06
   2  -1   3  163.72    7.20
  -2   1   3  166.40    7.55
  -2  -1  -3  158.05    7.48
  -2   1   3  158.81    7.07
  -2   1   3  158.67    7.09
   2   1   4    3.35    0.80
  -2  -1   4    2.80    1.36
   2  -1  -4    3.85    1.51
   2   1   4    2.93    0.78
   2   1   4    2.19    1.43
  -2  -1  -4    2.97    1.33
  -2   1   4    1.44    1.56
   2  -1   4    2.97    1.16
  -2   1   4    0.93    0.75
  -2   1   4    2.24    0.87
   2  -1  -5   43.68    3.81
  -2  -1   5   47.31    3.76
   2   1   5   45.17    2.68
   2   1   5   44.56    2.79
  -2   1   5   47.78    2.73
   2  -1   5   49.47    3.55
  -2   1   5   46.06    2.84
  -2  -1  -5   39.33    3.62
   2   1   6    2.52    1.40
  -2  -1  -6    3.15    2.28
  -2   1   6    4.99    1.49
   2  -2   0   13.28    1.04
   2  -2   0   15.25    1.08
  -2   2   0   12.05    1.06
  -2   2   0   13.41    1.04
   2  -2   0   14.19    1.07
  -2  -2   1   27.79    1.58
  -2  -2   1   30.86    1.69
   2   2   1   29.07    1.72
  -2   2  -1   29.14    1.52
   2   2   1   28.61    1.70
   2   2   1   30.56    1.86
  -2   2  -1   28.46    1.54
   2  -2  -1   28.98    1.70
   2  -2  -1   29.78    1.71
   2  -2  -1   29.21    1.85
  -2  -2   1   29.92    1.61
  -2   2   1   30.01    1.84
   2  -2   1   28.80    1.47
  -2  -2  -1   27.34    1.71
   2   2  -1   28.88    1.53
   2  -2   1   28.33    1.59
   2   2  -1   28.22    1.53
  -2   2   1   31.08    1.72
   2  -2   1   28.86    1.60
  -2  -2  -1   26.12    1.72
  -2   2   1   29.57    1.73
  -2  -2  -1   27.02    1.85
   2   2   2   88.45    4.47
   2   2   2   93.37    4.47
   2  -2  -2  105.61    4.80
   2  -2  -2  105.82    4.48
   2   2   2   98.72    4.75
  -2  -2   2   84.05    4.25
  -2  -2   2   85.43    4.26
   2  -2  -2  103.15    4.50
  -2  -2  -2   99.90    4.47
  -2   2   2   90.77    4.45
   2  -2   2   81.92    4.24
  -2   2   2   93.11    4.49
  -2  -2  -2  103.05    4.79
  -2   2   2   94.34    4.74
  -2  -2  -2   99.21    4.48
   2  -2   2   85.03    4.24
   2   2   3    3.75    1.27
   2   2   3    3.32    0.83
  -2  -2   3    2.94    0.53
  -2  -2   3    3.11    0.53
  -2  -2   3    2.51    0.94
   2   2   3    4.43    0.89
   2  -2  -3    3.54    0.80
   2  -2  -3    4.26    0.79
   2  -2  -3    4.79    1.37
  -2  -2  -3    4.76    1.26
   2  -2   3    3.63    0.49
   2  -2   3    2.62    0.50
  -2   2   3    4.06    0.86
  -2  -2  -3    5.09    0.80
  -2   2   3    3.24    1.29
  -2  -2  -3    5.00    0.81
   2  -2   3    4.14    0.80
  -2   2   3    4.86    0.92
  -2  -2   4   46.03    2.30
   2   2   4   44.31    2.81
   2  -2  -4   51.95    3.61
   2  -2  -4   49.13    2.34
   2   2   4   50.58    3.71
   2   2   4   46.94    2.89
  -2  -2   4   48.57    3.11
  -2  -2   4   46.98    2.31
   2  -2   4   52.02    2.90
  -2  -2  -4   48.33    3.55
  -2   2   4   48.09    3.65
  -2   2   4   44.36    2.80
  -2   2   4   51.96    2.97
  -2  -2   5    1.46    1.80
   2   2   5    4.77    1.31
   2  -2  -5    4.14    2.09
   2   2   5    3.23    1.49
   2  -2   5    5.73    1.70
  -2  -2  -5    3.50    2.02
  -2   2   5    5.22    1.58
  -2   2   5    5.40    1.36
   2  -3   0   19.28    1.50
   2   3   0   19.60    1.52
  -2  -3   0   18.28    1.53
  -2   3   0   18.97    1.50
  -2   3   0   18.15    1.50
   2   3   0   19.61    1.44
   2  -3   0   16.95    1.47
  -2  -3   0   18.78    1.50
  -2   3   0   20.26    1.49
   2   3   0   16.92    1.53
  -2  -3   0   17.28    1.54
   2  -3   0   19.33    1.47
  -2  -3   1   31.97    2.05
   2   3   1   32.89    2.19
   2   3   1   33.96    2.39
  -2   3  -1   37.29    2.00
   2  -3  -1   38.59    2.33
   2  -3  -1   42.16    2.28
  -2  -3   1   33.50    2.11
  -2   3  -1   35.55    1.98
   2  -3  -1   41.87    2.26
   2   3   1   33.86    2.16
  -2  -3   1   33.22    2.12
  -2  -3  -1   36.83    2.38
   2  -3   1   28.24    1.91
  -2   3   1   34.00    2.17
   2  -3   1   29.77    2.04
  -2  -3  -1   36.41    2.23
  -2   3   1   33.41    2.17
  -2   3   1   34.10    2.31
   2   3  -1   37.47    2.01
  -2  -3  -1   39.08    2.29
   2  -3   1   29.23    2.04
   2   3  -1   36.13    2.04
   2   3   2    7.00    1.49
  -2  -3   2    5.69    0.96
  -2  -3   2    4.60    0.87
   2  -3  -2    4.63    1.21
  -2  -3   2    4.52    0.87
   2   3   2    7.66    1.09
   2  -3  -2    5.66    1.07
  -2   3  -2    3.48    0.47
   2  -3  -2    5.45    1.10
   2   3   2    6.39    1.12
  -2   3   2    6.43    1.04
  -2  -3  -2    4.86    1.04
   2  -3   2    4.31    0.84
  -2  -3  -2    4.19    1.27
  -2   3   2    6.41    1.44
   2  -3   2    5.72    0.85
   2   3  -2    4.62    0.64
  -2   3   2    6.77    1.16
   2  -3   2    5.46    0.89
   2   3  -2    4.11    0.58
  -2  -3  -2    5.06    1.07
   2   3   3   33.76    2.32
   2  -3  -3   34.46    2.18
   2  -3  -3   34.10    2.87
  -2  -3   3   25.22    1.86
   2   3   3   31.87    2.88
  -2  -3   3   24.28    1.88
   2   3   3   31.46    2.39
  -2   3   3   31.92    2.22
  -2   3   3   30.73    2.36
  -2  -3  -3   32.36    2.84
   2  -3   3   23.89    1.77
  -2   3   3   33.55    2.92
   2  -3   3   24.95    1.82
  -2  -3  -3   34.20    2.25
   2  -3   3   25.36    1.78
   2  -3   3   27.65    1.77
  -2  -3  -3   31.77    2.16
   2  -3  -4    3.95    1.88
   2   3   4    1.99    1.44
   2   3   4    3.45    1.24
   2  -3  -4    4.16    1.20
  -2  -3   4    3.87    0.87
   2  -3  -4    2.84    1.12
  -2  -3   4    3.22    0.92
  -2  -3   4    2.89    1.39
  -2  -3  -4    2.80    1.92
  -2   3   4    3.16    1.27
  -2   3   4    2.98    1.48
   2  -3   4    2.90    0.79
   2  -3   4    4.05    0.92
   2  -3   4    3.85    1.08
  -2  -3  -4    1.85    1.07
  -2  -3  -4    3.40    1.20
   2   3   5   12.39    2.16
   2   3   5   13.61    1.99
   2  -3  -5   16.01    2.84
  -2  -3  -5   17.29    2.72
  -2   3   5   16.75    2.26
  -2   3   5   12.55    2.17
   2  -4   0  180.10    8.42
   2  -4   0  179.76    8.40
  -2  -4   0  177.35    8.43
   2   4   0  184.50    8.47
   2  -4   0  179.24    8.35
  -2   4   0  191.93    8.41
  -2  -4   0  178.56    8.41
  -2   4   0  179.31    8.36
  -2   4   0  183.29    8.36
   2   4   0  182.98    8.35
   2   4   0  173.28    8.34
  -2  -4   0  177.50    8.43
   2  -4  -1    4.96    1.23
  -2  -4   1    6.28    1.20
  -2   4  -1    6.95    1.07
  -2  -4   1    7.56    1.32
  -2   4  -1    6.74    1.10
   2   4   1    6.94    1.24
   2   4   1    8.40    1.61
  -2  -4   1    6.46    1.21
   2  -4  -1    5.92    1.39
   2  -4  -1    6.91    1.40
   2   4   1    7.03    1.29
  -2  -4  -1    7.03    1.48
  -2  -4  -1    5.75    1.26
  -2   4   1    5.71    1.33
   2  -4   1    7.47    1.29
  -2  -4  -1    7.29    1.47
   2  -4   1    7.11    1.05
  -2   4   1    7.33    1.35
  -2   4   1    7.24    1.29
   2   4  -1    5.45    1.04
   2   4  -1    7.30    1.12
   2  -4   1    5.72    1.17
   2   4   2  107.72    5.16
   2  -4  -2   92.61    5.08
   2  -4  -2   88.59    5.02
   2  -4  -2   91.93    5.32
   2   4   2  102.93    5.42
  -2   4  -2   85.96    4.50
   2   4   2   98.51    5.05
  -2  -4   2  104.71    4.93
  -2   4  -2   87.34    4.53
  -2  -4   2  101.22    4.87
  -2  -4   2  104.52    4.89
  -2   4   2  100.16    5.11
   2   4  -2   93.21    4.54
   2  -4   2  108.33    4.91
   2   4  -2   88.54    4.55
  -2  -4  -2   91.77    5.08
   2  -4   2  105.67    4.89
  -2  -4  -2   87.31    5.00
  -2   4   2  110.81    5.12
   2  -4   2  100.30    4.61
  -2  -4  -2   88.14    5.30
  -2   4   2  105.74    5.40
   2  -4  -3    7.60    1.68
   2  -4  -3    6.05    2.04
   2   4   3    6.97    1.60
  -2  -4   3    8.41    1.26
   2   4   3    6.69    1.46
  -2  -4   3    8.54    1.33
  -2  -4   3    7.58    1.37
   2  -4  -3    7.39    1.48
  -2   4   3    8.79    1.56
  -2  -4  -3    5.55    1.50
   2  -4   3    8.59    1.29
  -2  -4  -3    5.92    1.62
   2  -4   3    9.43    1.31
  -2   4   3   10.17    1.70
   2  -4   3    8.03    1.19
  -2  -4  -3    4.59    1.99
  -2  -4   4   41.45    2.76
  -2  -4   4   42.47    3.01
   2   4   4   39.69    3.14
  -2  -4   4   46.60    3.00
   2  -4  -4   39.88    3.99
   2  -4  -4   37.37    3.31
  -2  -4   4   39.26    2.83
   2  -4  -4   36.56    3.07
   2  -4   4   42.06    2.39
  -2  -4  -4   41.42    3.07
  -2   4   4   41.52    3.20
  -2  -4  -4   33.83    4.07
   2  -4   4   41.18    2.76
   2  -4   4   40.69    2.63
  -2  -4  -4   40.06    3.26
   2   4   5    4.97    2.03
   2  -4  -5    3.10    2.88
  -2  -4  -5    4.16    2.69
  -2   4   5    2.53    2.06
   2   5   0   10.18    1.67
  -2  -5   0   11.32    1.86
   2  -5   0   10.43    1.73
   2   5   0    8.59    1.56
  -2  -5   0   10.62    1.78
  -2   5   0   10.18    1.55
   2   5   0   11.06    1.94
   2  -5   0    9.88    1.63
  -2   5   0   11.74    1.72
   2  -5   0   10.86    1.87
  -2   5   0    8.76    1.66
  -2  -5   0   11.26    1.88
  -2   5  -1   93.51    4.91
   2  -5  -1   98.02    5.40
   2   5   1   93.12    5.24
   2  -5  -1  101.17    5.29
  -2  -5   1   98.75    5.16
  -2   5  -1   94.86    5.00
   2   5   1   96.66    5.47
  -2  -5   1  104.76    5.18
  -2  -5   1   97.43    5.31
   2   5   1   87.53    5.39
   2   5  -1   94.36    4.90
  -2  -5  -1   98.27    5.28
   2   5  -1   97.33    5.04
   2  -5   1  102.09    5.21
   2  -5   1  100.66    4.94
   2  -5   1   98.66    5.21
  -2   5   1  103.41    5.53
  -2  -5  -1   88.13    5.40
  -2   5   1   91.15    5.17
   2   5   2   18.55    2.36
  -2  -5   2   19.55    2.34
  -2  -5   2   17.95    2.61
   2  -5  -2   20.17    2.60
  -2  -5   2   17.38    2.14
  -2   5  -2   14.70    1.75
  -2   5  -2   15.76    1.80
   2  -5  -2   20.55    2.31
  -2  -5  -2   20.27    2.79
   2  -5   2   18.80    2.49
   2  -5   2   18.34    2.24
  -2   5   2   17.67    2.53
   2  -5   2   17.25    1.77
   2   5  -2   14.35    1.82
   2   5  -2   15.99    1.73
  -2  -5  -2   19.30    2.61
  -2  -5   3   72.26    4.08
   2  -5  -3   75.21    5.09
  -2  -5   3   73.19    4.46
   2   5   3   73.33    4.48
  -2  -5   3   74.90    4.26
   2  -5  -3   74.00    4.64
  -2  -5  -3   79.19    5.15
  -2   5   3   72.84    4.72
   2  -5   3   66.22    3.67
   2  -5   3   72.42    4.51
  -2  -5  -3   74.41    4.66
   2  -5   3   74.74    4.30
   2  -5  -4    2.15    2.09
   2  -5  -4    2.62    2.47
   2   5   4   -0.63    1.92
  -2  -5   4   -1.19    1.69
  -2  -5  -4    2.09    1.92
  -2  -5  -4    2.70    2.59
   2  -5   4    0.43    1.71
  -2   5   4    0.89    1.92
   2  -6   0   23.21    2.98
  -2   6   0   31.18    3.31
   2  -6   0   20.19    2.68
   2   6   0   24.53    2.83
  -2  -6   0   25.28    3.04
  -2  -6   0   26.81    3.08
   2  -6  -1    6.28    1.98
  -2   6  -1    8.94    1.78
  -2  -6   1    7.29    2.02
  -2  -6   1   11.15    1.99
  -2   6  -1    5.17    1.60
   2   6   1    8.21    2.12
   2  -6  -1    9.43    2.29
  -2  -6  -1    6.43    2.21
  -2  -6  -1    9.32    2.36
   2  -6   1    5.39    2.05
  -2   6   1    8.69    2.00
   2  -6   1   10.45    1.81
   2   6  -1    4.52    1.91
   2   6  -1    6.37    1.64
  -2  -6   2   30.38    3.04
  -2  -6   2   34.19    3.35
   2  -6  -2   28.64    3.67
   2   6   2   26.27    3.28
   2  -6  -2   24.34    3.39
  -2   6   2   24.13    3.21
   2  -6   2   28.68    3.39
  -2  -6  -2   26.11    3.71
   2  -6   2   29.40    2.61
   2   6  -2   32.74    3.04
  -2  -6  -2   32.39    4.06
  -3   0   1   -0.33    0.23
  -3   0   1   -0.35    0.28
  -3   0  -1   -0.13    0.31
  -3   0   1   -0.15    0.42
   3   0   1    0.03    0.22
   3   0  -1   -0.18    0.23
   3   0   1   -0.78    0.29
  -3   0  -1   -0.21    0.19
   3   0   1   -0.05    0.25
  -3   0  -1   -0.13    0.18
   3   0  -1   -0.08    0.22
  -3   0  -2   -0.14    0.55
  -3   0   2    0.07    0.31
   3   0   2    0.44    0.55
   3   0   2    0.09    0.26
  -3   0   2   -0.04    0.61
   3   0   3    1.29    0.81
  -3   0   3   -0.78    0.91
   3   0   3    0.88    0.40
  -3   0   3   -0.11    0.41
  -3   0  -3    1.31    0.78
   3   0  -3    1.00    0.91
  -3   0   3    0.54    0.47
   3   0   3    1.44    0.39
  -3   0  -4    1.77    1.15
  -3   0   4    5.28    1.45
   3   0   4    5.10    0.67
   3   0   4    7.28    1.37
   3   0   4    3.24    0.65
  -3   0   5    0.10    0.91
   3   0   5   -0.47    1.70
   3   0   5    1.04    0.81
  -3   0   5   -0.49    1.86
   3   0   5    0.91    0.73
  -3   0   5   -0.21    0.78
  -3   0  -5    0.44    1.56
   3   1   0  132.67    5.83
   3  -1   0  129.93    5.82
  -3  -1   0  134.14    5.83
   3  -1   0  128.34    5.78
  -3   1   0  132.43    5.82
   3   1   0  131.07    5.88
  -3   1   0  124.80    5.78
   3   1   0  131.06    5.82
  -3  -1   0  136.35    5.89
  -3   1   0  135.09    5.83
   3  -1   0  136.55    5.84
  -3   1  -1  350.49   15.32
   3   1   1  340.27   15.44
  -3   1  -1  368.06   15.31
   3  -1  -1  385.87   15.48
   3  -1  -1  357.71   15.55
   3   1   1  322.06   15.43
   3  -1  -1  381.42   15.45
  -3  -1   1  338.84   15.38
  -3  -1   1  347.62   15.37
   3   1   1  331.61   15.53
  -3   1   1  341.66   15.46
   3   1  -1  374.31   15.36
  -3   1   1  346.34   15.45
  -3  -1  -1  371.27   15.57
  -3  -1  -1  385.46   15.46
  -3   1   1  332.40   15.54
   3   1  -1  369.98   15.34
  -3  -1  -1  377.12   15.45
   3  -1   1  352.33   15.37
   3  -1  -2   45.17    2.58
   3  -1  -2   45.31    2.23
  -3  -1   2   49.91    2.13
   3   1   2   49.10    2.31
   3  -1  -2   47.43    2.28
   3   1   2   43.62    2.29
   3   1   2   46.35    2.57
  -3  -1   2   46.59    2.10
  -3  -1   2   46.03    2.50
  -3   1   2   48.54    2.35
  -3  -1  -2   46.62    2.23
  -3   1   2   43.68    2.30
  -3  -1  -2   43.89    2.21
   3  -1   2   45.35    2.24
  -3  -1  -2   45.24    2.56
  -3   1   2   44.41    2.59
  -3  -1   3   67.01    3.28
   3   1   3   71.11    3.53
   3   1   3   78.40    3.99
   3   1   3   76.05    3.56
  -3  -1   3   73.65    3.87
   3  -1  -3   70.31    3.99
  -3  -1   3   74.20    3.29
   3  -1   3   76.54    3.67
  -3   1   3   75.81    3.60
  -3   1   3   77.14    4.10
  -3   1   3   80.56    3.58
  -3  -1  -3   70.17    3.98
  -3  -1   4    3.98    1.45
   3  -1  -4    4.06    1.44
   3   1   4    4.91    1.50
   3   1   4    4.55    0.89
   3   1   4    5.00    0.86
  -3  -1   4    6.23    0.74
  -3   1   4    5.10    0.92
  -3   1   4    7.75    1.81
  -3  -1  -4    5.46    1.55
  -3   1   4    5.58    0.94
   3  -1   4    5.47    1.24
  -3  -1   5   64.00    4.36
   3  -1  -5   63.33    4.50
  -3  -1   5   61.73    3.09
   3   1   5   60.89    4.96
   3   1   5   63.46    3.45
   3   1   5   66.39    3.50
  -3  -1   5   63.13    3.12
   3  -1   5   67.62    4.05
  -3   1   5   67.15    3.60
  -3  -1  -5   56.45    4.31
  -3   1   5   68.52    3.49
   3   1   6    5.51    1.63
  -3   1   6    6.32    1.54
  -3  -1  -6    1.47    2.26
  -3  -2   0  160.83    7.38
   3  -2   0  165.51    7.32
   3   2   0  162.55    7.29
   3  -2   0  161.12    7.26
  -3   2   0  162.93    7.26
   3   2   0  162.57    7.37
  -3   2   0  164.66    7.31
   3  -2   0  159.78    7.30
  -3  -2   0  161.40    7.31
   3   2   0  164.56    7.31
  -3   2   0  169.53    7.30
   3   2   1   51.02    2.67
  -3  -2   1   54.25    2.59
  -3   2  -1   54.79    2.52
   3  -2  -1   53.34    2.68
   3   2   1   50.97    2.82
  -3  -2   1   54.08    2.60
  -3  -2   1   54.09    2.70
  -3   2  -1   52.70    2.53
   3  -2  -1   49.79    2.78
   3   2   1   54.03    2.70
   3  -2  -1   49.40    2.67
  -3   2   1   53.24    2.79
  -3  -2  -1   52.50    2.84
  -3   2   1   52.05    2.69
   3   2  -1   52.27    2.52
   3  -2   1   50.43    2.41
  -3   2   1   51.56    2.69
   3   2  -1   56.11    2.54
   3  -2   1   53.07    2.58
  -3  -2  -1   51.07    2.67
   3  -2   1   53.94    2.58
  -3  -2  -1   52.62    2.68
  -3  -2   2  295.76   13.04
   3  -2  -2  316.68   13.20
   3  -2  -2  297.88   13.21
   3  -2  -2  286.91   13.42
   3   2   2  292.75   13.22
   3   2   2  301.32   13.43
  -3  -2   2  297.04   13.05
   3   2   2  299.60   13.23
  -3  -2  -2  304.09   13.47
   3  -2   2  290.59   13.02
  -3  -2  -2  335.52   13.22
   3  -2   2  294.69   12.96
   3  -2   2  287.76   13.02
  -3   2   2  295.06   13.44
  -3   2   2  307.15   13.23
  -3   2   2  294.94   13.24
  -3  -2  -2  300.02   13.19
  -3  -2   3   35.74    1.87
   3   2   3   37.53    2.23
   3   2   3   37.33    2.24
   3   2   3   35.22    2.76
   3  -2  -3   36.05    2.71
  -3  -2   3   36.09    1.87
   3  -2  -3   40.25    2.12
  -3  -2   3   34.83    2.37
   3  -2  -3   37.89    2.15
  -3  -2  -3   37.34    2.71
  -3  -2  -3   38.27    2.12
  -3  -2  -3   36.66    2.10
   3  -2   3   34.55    1.80
  -3   2   3   36.10    2.22
   3  -2   3   37.74    2.04
  -3   2   3   37.37    2.30
   3  -2   3   35.65    1.83
  -3   2   3   33.35    2.80
  -3  -2   4  167.04    7.71
   3   2   4  161.59    8.04
   3   2   4  159.63    7.47
   3  -2  -4  153.85    7.06
  -3  -2   4  168.22    7.09
  -3  -2   4  155.72    7.07
   3   2   4  164.86    7.50
   3  -2  -4  163.18    7.10
   3  -2  -4  161.10    8.09
  -3   2   4  156.41    8.05
   3  -2   4  165.43    7.40
  -3   2   4  153.65    7.44
  -3  -2  -4  146.55    7.96
  -3   2   4  166.28    7.56
  -3  -2   5   13.82    1.23
  -3  -2   5   15.47    2.38
   3   2   5   15.16    1.95
  -3  -2   5   13.42    1.25
   3   2   5   14.57    1.98
   3  -2  -5   18.84    2.70
  -3  -2  -5   13.15    2.41
  -3   2   5   16.77    2.08
  -3   2   5   15.31    1.76
   3  -2   5   15.57    2.35
  -3   3   0    0.32    0.65
   3  -3   0    1.40    0.68
   3   3   0    0.03    0.64
  -3  -3   0    0.91    0.77
   3   3   0    1.04    0.77
  -3   3   0    1.55    0.70
   3  -3   0    1.08    0.70
  -3  -3   0    0.71    0.75
   3  -3   0    1.14    0.74
   3   3   0    0.98    0.69
  -3   3   0    0.48    0.70
  -3  -3   0    0.93    0.73
   3   3   1  109.48    5.64
   3  -3  -1  124.79    5.53
  -3   3  -1  122.43    5.34
  -3   3  -1  126.33    5.30
   3   3   1  107.06    5.46
   3  -3  -1  121.27    5.52
   3   3   1  114.36    5.50
  -3   3  -1  127.53    5.35
   3  -3  -1  122.00    5.60
  -3  -3   1  110.36    5.45
  -3  -3   1   97.89    5.36
  -3  -3   1  109.15    5.40
  -3  -3  -1  127.18    5.56
  -3   3   1  105.97    5.47
   3   3  -1  120.97    5.34
   3   3  -1  133.26    5.38
  -3  -3  -1  115.43    5.51
  -3   3   1  107.95    5.49
  -3   3   1  107.53    5.55
   3  -3   1  103.11    5.37
  -3  -3  -1  127.02    5.70
   3  -3   1  102.68    5.22
   3  -3   1  109.68    5.38
  -3  -3   2   57.38    2.98
   3   3   2   57.79    3.24
   3  -3  -2   61.25    3.23
   3   3   2   57.48    3.53
  -3   3  -2   58.91    2.67
  -3  -3   2   57.41    2.99
   3  -3  -2   59.11    3.22
   3  -3  -2   59.94    3.51
   3   3   2   59.31    3.21
  -3  -3   2   60.90    3.15
  -3   3  -2   58.75    2.65
   3   3  -2   55.99    2.71
  -3  -3  -2   58.97    3.50
  -3  -3  -2   59.28    3.23
  -3   3   2   58.10    3.26
  -3  -3  -2   59.17    3.24
  -3   3   2   58.39    3.51
   3   3  -2   57.41    2.76
   3  -3   2   60.35    3.00
   3  -3   2   53.73    2.75
  -3   3   2   59.75    3.20
   3  -3   2   55.38    2.97
   3  -3  -3  131.10    6.38
   3  -3  -3  132.82    6.40
  -3  -3   3  130.63    6.18
   3   3   3  132.53    6.45
   3   3   3  129.04    6.83
   3   3   3  136.19    6.51
   3  -3  -3  139.00    6.90
  -3  -3   3  135.87    6.18
   3  -3   3  146.28    6.05
  -3  -3  -3  138.50    6.38
  -3   3   3  139.45    6.50
  -3   3   3  127.05    6.49
   3  -3   3  130.05    6.12
   3  -3   3  134.10    6.16
   3  -3   3  136.03    6.04
  -3  -3  -3  131.20    6.39
  -3   3   3  132.55    6.92
  -3  -3  -3  137.96    6.94
  -3  -3   4   26.76    1.87
   3   3   4   24.50    2.60
   3  -3  -4   29.46    3.14
  -3  -3   4   24.43    1.81
   3  -3  -4   26.70    2.23
  -3  -3   4   29.52    2.60
   3  -3  -4   29.97    2.12
   3   3   4   23.54    2.28
  -3   3   4   23.97    2.33
  -3  -3  -4   29.16    2.24
   3  -3   4   24.88    1.83
   3  -3   4   23.58    1.72
  -3  -3  -4   28.53    2.06
  -3  -3  -4   26.77    3.24
  -3   3   4   22.62    2.64
   3  -3   4   25.66    1.95
   3   3   5   42.25    3.91
  -3  -3   5   39.48    4.78
   3  -3  -5   42.68    4.29
  -3  -3   5   45.20    2.82
   3   3   5   35.81    3.07
  -3  -3  -5   41.95    4.25
  -3   3   5   41.78    3.67
   3   4   0   21.02    1.94
  -3   4   0   17.26    1.88
  -3   4   0   22.98    2.08
   3   4   0   25.68    2.22
  -3  -4   0   23.70    2.07
  -3  -4   0   21.87    2.07
  -3   4   0   21.17    1.96
  -3  -4   0   20.49    2.11
   3   4   0   17.89    1.93
   3  -4   0   24.84    2.14
   3  -4   0   21.81    1.90
   3  -4   0   22.89    1.99
   3  -4  -1   21.92    2.19
   3  -4  -1   19.43    2.03
   3   4   1   22.44    1.97
  -3   4  -1   21.51    1.76
  -3   4  -1   18.44    1.75
   3   4   1   22.23    2.14
   3   4   1   24.81    2.33
  -3   4  -1   21.97    1.74
  -3  -4   1   23.44    2.12
   3  -4  -1   19.55    2.15
  -3  -4   1   23.51    1.91
  -3  -4   1   22.86    1.96
  -3   4   1   21.50    2.09
  -3   4   1   23.86    2.25
   3  -4   1   22.44    1.70
   3  -4   1   22.49    2.02
  -3  -4  -1   20.25    2.13
   3   4  -1   21.63    1.77
   3   4  -1   23.92    1.83
  -3  -4  -1   17.61    2.18
   3  -4   1   23.18    1.89
  -3   4   1   25.63    2.06
  -3  -4  -1   18.58    2.19
  -3   4  -2   30.77    1.77
   3   4   2   25.43    2.30
  -3  -4   2   25.24    2.19
   3  -4  -2   33.83    2.51
  -3  -4   2   24.44    2.15
   3   4   2   31.46    2.65
  -3  -4   2   23.70    2.24
  -3   4  -2   30.00    1.81
   3   4   2   31.33    2.94
   3  -4  -2   30.03    2.59
   3  -4   2   24.12    2.17
   3   4  -2   32.50    1.89
  -3  -4  -2   33.75    2.60
  -3  -4  -2   33.19    2.51
  -3   4   2   25.99    2.40
   3  -4   2   27.32    2.17
  -3   4   2   28.48    2.84
   3  -4   2   23.95    1.74
  -3  -4  -2   34.06    2.93
  -3   4   2   28.15    2.54
   3   4   3    3.48    1.27
   3  -4  -3    1.29    1.30
  -3  -4   3    1.26    1.16
  -3  -4   3    1.01    1.11
  -3  -4   3    2.30    1.18
   3  -4  -3    0.92    1.49
   3   4   3    3.67    1.44
   3  -4  -3    0.87    1.73
   3  -4   3    1.31    0.71
  -3   4   3    0.05    1.23
  -3  -4  -3    1.89    1.88
   3  -4   3    2.93    0.75
   3  -4   3    1.84    1.11
  -3   4   3    3.47    1.38
   3  -4   3    2.49    1.06
  -3  -4  -3    1.83    1.26
  -3  -4  -3    1.81    1.50
   3  -4  -4   33.38    3.63
   3   4   4   31.30    2.94
   3  -4  -4   21.52    2.87
  -3  -4   4   32.77    2.87
  -3  -4   4   27.22    2.40
  -3  -4   4   27.92    2.51
   3  -4  -4   21.95    2.72
  -3  -4   4   29.18    2.65
   3  -4   4   32.45    1.77
  -3   4   4   26.37    2.81
  -3  -4  -4   26.44    2.62
   3  -4   4   28.79    2.29
  -3  -4  -4   29.01    2.98
   3  -4   4   30.35    2.35
  -3  -4  -4   28.98    3.76
   3  -4  -5    0.87    2.61
   3   4   5   -0.62    2.04
  -3  -4  -5    2.14    2.74
  -3   4   5   -0.61    1.78
  -3  -5   0    1.09    1.43
   3  -5   0    2.23    1.46
   3  -5   0    3.02    1.53
  -3  -5   0    3.35    1.65
  -3  -5   0    2.86    1.45
  -3   5   0    0.85    1.22
   3   5   0    3.54    1.42
   3   5   0    0.80    1.59
  -3   5   0    2.96    1.42
  -3   5   0    4.76    1.55
   3   5   0    2.25    1.32
   3  -5   0    0.90    1.31
   3  -5  -1   19.71    2.53
  -3  -5   1   15.78    2.35
   3   5   1   15.89    2.26
   3   5   1   18.75    2.67
   3  -5  -1   20.21    2.46
  -3  -5   1   22.49    2.67
  -3  -5   1   18.20    2.24
  -3   5  -1   13.61    1.91
   3   5   1   17.25    2.76
  -3   5  -1   12.24    1.69
   3   5  -1   16.80    1.94
  -3   5   1   16.67    2.39
  -3   5   1   18.96    2.74
   3  -5   1   12.10    1.85
   3  -5   1   14.91    1.90
  -3  -5  -1   18.27    2.43
   3  -5   1   19.00    2.39
  -3  -5  -1   17.94    2.65
   3   5  -1   17.83    2.17
  -3  -5   2   13.02    1.98
  -3  -5   2   13.09    1.78
  -3   5  -2   13.18    1.46
   3   5   2   11.45    1.84
  -3  -5   2   15.72    2.25
   3  -5  -2   12.47    1.98
   3  -5  -2   10.94    2.18
  -3   5  -2   13.30    1.64
   3   5  -2   13.80    1.63
   3  -5   2   14.74    1.99
  -3  -5  -2   13.39    2.33
   3   5  -2   13.95    1.56
  -3   5   2   14.52    2.02
   3  -5   2   12.80    1.60
   3  -5   2   13.83    1.82
  -3  -5  -2   14.16    2.08
  -3  -5   3    3.39    1.83
   3  -5  -3    3.01    2.27
   3   5   3    3.59    1.67
  -3  -5   3    0.89    1.38
   3  -5  -3    7.05    1.83
  -3  -5   3   -0.14    1.49
  -3  -5  -3    2.21    2.26
   3  -5   3    0.72    1.71
   3  -5   3    1.36    1.49
  -3   5   3    2.11    1.59
   3  -5   3    1.73    0.95
  -3  -5  -3    2.48    1.66
  -3  -5   4    1.83    1.74
   3  -5  -4    2.11    2.61
   3   5   4    1.20    2.03
   3  -5  -4    1.78    2.09
  -3   5   4    1.86    2.09
  -3  -5  -4    6.94    2.87
  -3  -5  -4    3.06    2.01
   3  -5   4    2.18    1.70
  -3  -6   0   23.95    3.07
   3   6   0   22.64    2.64
  -3   6   0   25.48    3.21
   3  -6   0   23.61    3.00
   3  -6   0   29.38    3.07
  -3  -6   0   28.86    3.19
   3  -6  -1    9.86    2.24
  -3  -6   1    8.51    2.00
  -3   6  -1    3.93    1.77
   3   6   1    3.97    1.89
  -3  -6   1    4.75    2.03
  -3   6  -1   11.04    1.96
   3  -6  -1    7.36    2.05
  -3  -6  -1    5.31    2.15
   3  -6   1    6.44    1.99
   3   6  -1    8.87    1.74
  -3   6   1    5.78    1.98
   3  -6   1    5.23    1.67
  -3  -6  -1   11.81    2.36
   3  -6  -2   15.81    2.92
  -3  -6   2   20.10    2.77
   3  -6  -2   11.67    2.59
  -3  -6   2   15.61    2.58
   3   6   2   16.04    2.51
  -3  -6  -2   12.33    2.75
   3   6  -2   16.11    2.21
  -3   6   2   17.78    2.48
   3  -6   2   15.68    2.40
  -3  -6  -2   10.55    2.70
  -4   0   0  157.53    7.43
   4   0   0  183.32    7.45
   4   0   0  155.19    7.44
  -4   0   0  185.43    7.47
   4   0  -1  605.15   24.76
  -4   0   1  557.87   24.89
  -4   0   1  557.59   24.76
  -4   0   1  561.34   24.78
  -4   0  -1  589.21   24.80
   4   0   1  559.66   24.79
  -4   0  -1  593.94   24.74
   4   0   1  549.73   24.74
  -4   0  -1  607.49   24.72
  -4   0   2  348.04   14.57
  -4   0  -2  318.08   14.71
  -4   0   2  341.52   14.86
   4   0   2  336.43   14.56
   4   0   2  331.97   14.72
   4   0   2  344.58   14.53
  -4   0   2  337.21   14.60
  -4   0   3   77.37    3.39
  -4   0   3   74.02    3.92
   4   0   3   71.18    3.33
  -4   0   3   75.75    3.44
   4   0   3   69.50    3.34
   4   0   3   73.36    3.72
  -4   0  -3   70.93    3.74
  -4   0   4  196.19    9.13
   4   0   4  185.07    8.37
   4   0   4  184.59    8.86
  -4   0  -4  191.71    8.90
  -4   0   4  192.97    8.42
  -4   0   4  188.22    8.46
   4   0   4  192.21    8.38
   4   0   5   52.27    3.75
  -4   0  -5   45.14    3.45
  -4   0   5   36.66    4.23
   4   0   5   48.38    2.61
  -4   0   5   49.19    2.70
   4   0   5   47.00    2.53
  -4  -1   0  118.80    5.12
  -4   1   0  110.74    5.06
   4   1   0  110.36    5.10
  -4  -1   0  112.06    5.11
   4   1   0  111.94    5.18
  -4  -1   0  108.57    5.18
   4  -1   0  111.97    5.11
   4   1   0  117.28    5.12
   4  -1   0  118.84    5.07
   4  -1   0  121.06    5.13
  -4   1   0  115.78    5.11
  -4   1   0  118.15    5.12
  -4   1  -1  463.00   18.39
   4  -1  -1  462.29   18.51
  -4   1  -1  455.39   18.40
  -4  -1   1  388.54   18.44
   4   1   1  403.55   18.58
   4   1   1  389.25   18.49
   4  -1  -1  450.87   18.62
   4  -1  -1  474.40   18.54
   4   1   1  401.89   18.48
  -4  -1   1  407.77   18.43
   4   1  -1  471.56   18.42
  -4   1   1  388.85   18.49
   4  -1   1  395.72   18.41
   4  -1   1  407.15   18.43
  -4  -1  -1  458.53   18.62
  -4   1   1  390.17   18.58
  -4   1   1  389.53   18.50
  -4  -1  -1  446.84   18.50
   4   1  -1  434.29   18.43
  -4  -1  -1  472.72   18.51
   4   1   2   62.22    2.94
   4   1   2   61.19    2.94
   4  -1  -2   62.41    2.88
  -4  -1   2   60.30    2.81
   4   1   2   60.98    3.16
  -4   1  -2   62.20    2.84
   4  -1  -2   62.57    3.25
   4  -1  -2   59.99    2.93
  -4  -1   2   62.46    2.79
   4  -1   2   62.07    2.74
  -4   1   2   61.28    2.98
  -4  -1  -2   62.31    2.88
  -4   1   2   63.78    2.97
   4  -1   2   61.94    2.73
  -4  -1  -2   60.81    2.87
  -4  -1  -2   59.53    3.17
  -4   1   2   51.32    3.18
   4  -1   2   60.25    2.83
   4  -1  -3  213.90    9.52
   4  -1  -3  213.55    8.88
  -4   1  -3  210.28    9.15
   4   1   3  207.48    9.09
  -4  -1   3  197.14    9.37
   4   1   3  209.48    9.44
   4  -1  -3  217.32    8.87
   4   1   3  198.02    9.07
  -4  -1   3  201.75    8.91
  -4  -1   3  200.57    8.90
  -4   1   3  195.47    9.09
  -4   1   3  200.53    9.51
  -4  -1  -3  207.96    9.44
  -4   1   3  197.44    9.13
   4  -1   3  198.53    9.12
  -4  -1   4   43.88    2.22
   4  -1  -4   40.41    3.24
   4   1   4   45.41    2.52
   4   1   4   45.18    2.50
  -4  -1   4   45.25    2.28
  -4  -1   4   47.20    3.20
   4   1   4   42.09    3.22
   4  -1   4   46.08    2.77
  -4   1   4   46.61    3.43
  -4  -1  -4   42.95    3.20
  -4   1   4   47.69    2.63
  -4   1   4   49.08    2.58
   4   1   5   87.72    5.56
   4   1   5   89.43    4.54
  -4  -1   5   91.56    4.27
   4   1   5   92.88    4.63
   4  -1  -5   96.57    5.57
  -4  -1   5   92.89    4.31
  -4  -1   5   93.40    5.42
  -4   1   5   97.26    4.71
  -4  -1  -5   88.90    5.35
  -4   1   5   89.94    4.56
   4  -1   5   83.79    4.11
   4  -1   5   92.88    5.03
   4   1   6    3.99    1.72
  -4  -1  -6    4.54    2.38
  -4   1   6    6.51    1.60
  -4   2   0  141.02    6.41
  -4  -2   0  142.54    6.42
  -4  -2   0  141.36    6.51
  -4  -2   0  140.72    6.42
  -4   2   0  142.87    6.35
   4   2   0  148.47    6.42
   4   2   0  142.23    6.49
   4  -2   0  145.22    6.42
   4  -2   0  143.24    6.35
   4   2   0  136.80    6.40
   4  -2   0  136.82    6.41
   4   2   1   17.96    1.27
   4  -2  -1   15.39    1.37
  -4  -2   1   18.49    1.19
  -4  -2   1   18.03    1.35
   4  -2  -1   16.80    1.26
  -4   2  -1   15.86    1.09
  -4  -2   1   17.49    1.19
   4   2   1   18.90    1.48
   4   2   1   15.40    1.28
   4  -2  -1   15.45    1.32
  -4   2  -1   14.57    1.06
  -4   2   1   16.48    1.25
  -4  -2  -1   13.86    1.25
  -4   2   1   16.35    1.30
   4  -2   1   16.78    1.15
   4  -2   1   17.48    1.16
   4  -2   1   15.84    0.88
  -4  -2  -1   15.80    1.26
  -4   2   1   17.62    1.44
   4   2  -1   16.47    1.10
  -4  -2  -1   15.49    1.43
   4   2  -1   16.97    1.10
  -4  -2   2   30.72    1.76
   4   2   2   37.52    2.05
   4  -2  -2   37.07    2.30
   4   2   2   34.68    2.01
  -4  -2   2   32.67    1.79
   4  -2  -2   35.57    2.02
   4  -2  -2   37.53    1.99
   4  -2   2   31.89    1.53
   4  -2   2   26.76    1.72
  -4   2   2   28.97    1.99
  -4   2   2   32.87    1.99
   4  -2   2   31.44    1.53
  -4   2   2   37.30    2.37
   4  -2   2   30.71    1.72
  -4  -2  -2   28.90    1.93
  -4  -2  -2   33.52    2.31
   4  -2  -3   28.67    1.83
  -4  -2   3   25.30    1.58
   4   2   3   29.50    2.47
   4  -2  -3   28.94    1.85
   4   2   3   28.63    1.93
  -4  -2   3   27.41    1.61
  -4  -2   3   28.36    2.18
   4  -2  -3   28.70    2.43
   4   2   3   28.68    1.97
  -4  -2  -3   28.48    1.79
   4  -2   3   27.50    1.55
   4  -2   3   28.30    1.52
   4  -2   3   28.65    1.65
  -4   2   3   30.07    2.05
  -4   2   3   28.21    1.94
  -4  -2  -3   27.39    2.47
  -4   2   3   29.02    2.62
  -4  -2  -3   27.66    1.79
  -4  -2   4   28.18    1.55
  -4  -2   4   29.92    2.53
   4   2   4   20.88    1.97
   4  -2  -4   23.04    1.58
   4   2   4   23.98    2.19
   4   2   4   25.16    2.87
   4  -2  -4   23.54    1.51
   4  -2  -4   27.36    2.91
  -4  -2   4   29.31    1.60
   4  -2   4   23.64    1.42
   4  -2   4   23.28    1.38
  -4   2   4   27.05    2.85
  -4   2   4   24.43    2.08
   4  -2   4   27.36    1.93
  -4   2   4   25.78    2.25
  -4  -2  -4   19.11    2.79
   4  -2  -5    9.52    2.33
  -4  -2   5    5.81    0.90
   4   2   5    4.49    1.31
  -4  -2   5    5.88    2.16
  -4  -2   5    2.75    1.11
   4   2   5    3.98    1.58
   4  -2   5    4.23    1.50
  -4   2   5    5.53    1.35
  -4  -2  -5    2.57    1.99
  -4   2   5    7.01    1.72
   4   3   0   11.54    1.25
   4  -3   0   12.59    1.31
  -4  -3   0   10.44    1.36
  -4  -3   0   12.04    1.30
  -4   3   0   12.07    1.28
  -4   3   0   11.52    1.24
   4  -3   0   12.30    1.29
  -4  -3   0   10.47    1.39
   4  -3   0   13.07    1.33
   4   3   0   11.28    1.46
   4   3   0   11.86    1.26
  -4   3  -1   79.11    3.79
  -4  -3   1   84.15    4.01
   4  -3  -1   73.87    4.12
   4  -3  -1   80.44    4.08
   4  -3  -1   79.63    4.08
  -4  -3   1   82.45    3.99
  -4  -3   1   81.57    4.05
  -4   3  -1   81.04    3.90
   4   3   1   89.19    4.30
   4   3   1   93.19    4.14
  -4   3  -1   75.27    3.87
   4   3   1   82.48    4.07
   4   3  -1   77.80    3.89
  -4  -3  -1   76.92    4.22
  -4   3   1   85.45    4.12
   4   3  -1   76.35    3.88
   4  -3   1   88.66    4.01
  -4   3   1   83.13    4.17
  -4  -3  -1   74.52    4.07
  -4   3   1   87.72    4.10
  -4  -3  -1   75.89    4.06
   4  -3   1   78.69    3.76
   4  -3   1   77.55    3.96
   4   3   2   17.26    1.79
   4  -3  -2   16.98    1.76
  -4  -3   2   16.56    1.64
   4   3   2   17.36    2.09
  -4  -3   2   20.22    1.47
  -4   3  -2   15.54    0.98
   4  -3  -2   15.80    1.79
   4  -3  -2   18.27    1.96
  -4   3  -2   15.69    1.02
   4   3   2   15.89    1.57
  -4  -3   2   16.02    1.41
   4   3  -2   15.38    1.17
  -4   3   2   19.89    1.67
  -4  -3  -2   14.70    1.70
  -4  -3  -2   15.33    1.77
   4  -3   2   14.29    0.94
   4  -3   2   16.46    1.39
  -4   3   2   18.65    2.11
  -4  -3  -2   13.77    1.98
   4  -3   2   17.32    1.44
  -4   3   2   15.97    1.77
   4   3   3   20.34    2.60
   4   3   3   16.35    2.03
   4  -3  -3   14.54    2.09
   4  -3  -3   13.31    1.85
   4  -3  -3    9.50    1.43
   4   3   3   14.02    1.69
  -4  -3   3   13.07    1.47
  -4  -3   3   11.91    1.41
   4  -3   3   14.93    1.05
  -4  -3  -3    9.22    1.96
   4  -3   3   14.90    0.94
  -4   3   3   18.48    2.54
  -4   3   3   15.59    1.95
  -4   3   3   16.28    1.79
   4  -3   3   12.97    1.33
   4  -3  -4    7.83    1.34
   4   3   4    6.27    1.41
   4  -3  -4    7.46    1.29
  -4  -3   4    5.92    1.61
  -4  -3   4    4.84    1.06
   4  -3  -4    4.96    1.83
  -4  -3   4    5.25    1.03
   4   3   4    7.80    1.65
  -4   3   4    5.65    1.41
  -4  -3  -4    7.39    2.16
  -4  -3  -4    6.68    1.20
  -4   3   4    7.22    1.68
   4  -3   4    7.81    1.00
   4  -3   4    5.95    0.95
   4  -3   4    6.01    1.00
  -4  -3  -4    6.48    1.33
  -4  -3   5    3.24    2.05
   4   3   5    3.38    1.61
   4   3   5    4.89    2.96
  -4  -3   5    0.46    1.09
   4  -3  -5    6.61    2.54
  -4  -3  -5    2.07    2.31
  -4   3   5    2.31    1.61
   4  -4   0  128.11    6.24
  -4  -4   0  125.83    6.36
  -4  -4   0  130.36    6.40
   4   4   0  134.05    6.29
   4  -4   0  132.43    6.37
   4  -4   0  130.49    6.36
  -4  -4   0  128.61    6.36
   4   4   0  133.64    6.47
   4   4   0  130.61    6.28
  -4   4   0  129.63    6.32
  -4   4   0  137.94    6.29
   4   4   1    7.56    1.30
   4   4   1    8.26    1.63
  -4   4  -1    4.15    1.04
   4  -4  -1    2.70    1.30
  -4  -4   1    7.27    1.25
  -4   4  -1    4.82    0.96
   4   4   1    7.84    1.35
  -4   4  -1    5.01    1.02
  -4  -4   1    7.27    1.33
   4  -4  -1    3.91    1.32
  -4  -4   1    7.56    1.30
   4  -4  -1    3.81    1.26
   4   4  -1    5.42    1.02
  -4  -4  -1    4.25    1.39
   4  -4   1    7.77    1.29
  -4  -4  -1    4.21    1.34
  -4   4   1    6.04    1.30
  -4   4   1    8.10    1.31
  -4  -4  -1    2.88    1.27
   4   4  -1    4.93    1.06
   4  -4   1    8.77    1.28
  -4   4   1    6.96    1.41
   4  -4  -2  150.61    6.98
  -4   4  -2  151.61    6.45
   4   4   2  137.10    7.22
  -4  -4   2  141.57    6.74
   4  -4  -2  141.43    7.12
  -4  -4   2  140.41    6.77
  -4  -4   2  142.15    6.72
  -4   4  -2  142.37    6.38
   4  -4  -2  143.66    6.91
   4   4   2  135.94    6.92
   4   4   2  135.87    6.86
  -4  -4  -2  144.18    6.93
   4  -4   2  136.44    6.66
  -4   4   2  131.93    7.12
  -4  -4  -2  142.21    6.91
  -4   4   2  142.64    6.88
  -4  -4  -2  142.67    7.21
   4  -4   2  128.89    6.30
   4   4  -2  149.26    6.48
  -4   4   2  134.21    6.90
   4  -4   2  146.49    6.73
  -4  -4   3   37.99    2.74
   4  -4  -3   47.61    3.61
   4   4   3   44.97    3.19
  -4  -4   3   45.13    2.94
  -4  -4   3   41.28    2.85
   4  -4  -3   45.10    3.08
   4   4   3   40.79    2.98
   4  -4  -3   45.52    3.28
  -4  -4  -3   43.84    3.23
   4  -4   3   41.11    2.70
  -4   4   3   39.76    3.01
  -4   4   3   44.51    3.15
   4  -4   3   42.90    2.78
  -4  -4  -3   47.43    3.08
  -4  -4  -3   45.43    3.71
  -4  -4   4   78.01    4.05
   4  -4  -4   70.25    4.33
  -4  -4   4   77.67    4.37
  -4  -4   4   73.63    4.16
   4  -4  -4   75.58    5.10
   4  -4  -4   74.95    4.38
   4   4   4   72.67    4.36
  -4  -4   4   70.13    4.47
   4  -4   4   74.21    3.96
  -4  -4  -4   67.16    4.29
   4  -4   4   70.70    4.05
  -4  -4  -4   74.41    5.23
  -4  -4  -4   73.06    4.53
  -4   4   4   80.57    4.55
   4  -5   0   33.36    2.67
   4  -5   0   28.84    2.48
   4   5   0   30.51    2.61
  -4  -5   0   30.66    2.78
   4  -5   0   30.56    2.74
  -4   5   0   24.76    2.70
   4   5   0   28.18    2.88
  -4   5   0   28.97    2.61
  -4  -5   0   30.24    2.66
  -4  -5   0   27.53    2.77
   4   5   0   23.07    2.49
  -4  -5   1  152.41    7.36
   4  -5  -1  141.17    7.25
   4   5   1  145.80    7.46
   4   5   1  138.77    7.24
  -4   5  -1  138.27    6.99
  -4  -5   1  147.72    7.21
  -4  -5   1  151.72    7.26
  -4   5  -1  145.93    6.98
   4  -5  -1  148.26    7.34
   4  -5   1  150.57    6.92
   4  -5   1  147.18    7.28
   4   5  -1  151.10    7.03
  -4   5   1  142.54    7.20
   4  -5   1  146.64    7.22
  -4   5   1  140.88    7.39
  -4  -5  -1  150.89    7.50
   4   5  -1  143.42    7.05
  -4  -5  -1  147.80    7.42
  -4  -5   2   25.89    2.65
   4   5   2   24.67    2.67
  -4   5  -2   31.56    2.19
  -4  -5   2   27.64    2.96
   4  -5  -2   32.03    3.30
   4  -5  -2   35.89    2.99
  -4   5  -2   32.05    2.18
  -4  -5   2   26.06    2.55
  -4  -5  -2   32.33    3.28
   4   5  -2   30.74    2.33
   4  -5   2   30.74    2.66
   4  -5   2   27.02    2.04
  -4   5   2   25.26    2.83
   4  -5   2   26.85    2.81
  -4  -5  -2   29.64    2.91
  -4  -5   3   58.87    4.05
  -4  -5   3   62.59    3.77
   4  -5  -3   55.95    3.90
   4  -5  -3   56.06    4.48
   4   5   3   56.76    3.92
  -4  -5   3   60.82    3.88
  -4  -5  -3   55.23    3.96
  -4  -5  -3   49.28    4.62
   4  -5   3   57.12    3.94
  -4   5   3   58.90    3.99
   4  -5   3   61.37    3.76
   4  -5  -4   25.30    3.36
  -4  -5   4   18.05    2.67
   4   5   4   17.82    2.70
   4  -5  -4   17.58    2.72
  -4  -5  -4   19.13    3.30
   4  -5   4   21.06    2.53
  -4  -5  -4   17.05    2.58
  -4   5   4   17.48    2.71
  -4   6   0   39.00    3.36
  -4  -6   0   48.48    3.78
  -4  -6   0   38.34    3.51
   4  -6   0   36.31    3.62
   4   6   0   41.61    3.25
  -4   6   0   34.73    3.56
   4  -6   0   41.95    3.34
  -4  -6   1   12.83    2.24
   4  -6  -1   19.84    3.10
   4   6   1   14.13    2.29
   4  -6  -1   17.21    2.41
  -4   6  -1   14.44    2.03
  -4  -6   1   15.90    2.38
  -4   6   1   10.89    2.17
   4  -6   1   14.27    1.98
  -4  -6  -1   15.36    2.55
   4  -6   1   12.27    2.24
  -4  -6  -1   18.80    2.58
   4   6  -1   17.17    2.05
   4   6   2   37.92    3.60
   4  -6  -2   42.27    4.22
  -4  -6   2   42.01    3.38
   4  -6  -2   28.45    4.07
  -4  -6   2   35.43    3.78
   4  -6   2   46.39    3.71
  -4  -6  -2   41.05    4.21
  -4   6   2   35.81    3.50
  -4  -6  -2   36.04    4.27
   4   6  -2   37.37    3.33
   5   0   0    0.16    0.34
   5   0   0    0.31    0.32
  -5   0   0   -0.06    0.33
  -5   0   0   -0.36    0.31
  -5   0  -1   -0.28    0.29
   5   0  -1   -0.01    0.32
   5   0   1   -0.01    0.30
  -5   0   1    0.11    0.33
   5   0   1    0.05    0.36
   5   0   1   -0.38    0.31
  -5   0  -1   -0.24    0.36
   5   0  -1   -0.01    0.35
  -5   0   1   -0.20    0.37
  -5   0  -1    0.19    0.33
   5   0   2    0.39    0.39
  -5   0   2    0.34    0.39
   5   0   2   -0.16    0.35
   5   0  -2    0.23    0.23
   5   0   2    0.27    0.54
  -5   0   2    0.38    0.70
  -5   0   2    0.57    0.46
  -5   0  -2    0.02    0.56
  -5   0   3   -0.06    0.58
   5   0   3    0.75    0.47
   5   0   3    1.96    0.85
  -5   0  -3    0.80    0.82
  -5   0   3    2.09    1.15
   5   0   4    2.42    0.64
   5   0   4    1.66    1.22
  -5   0   4    2.83    1.58
  -5   0  -4    0.94    1.10
   5   0   5   -0.36    0.73
  -5   0  -5    0.36    1.48
  -5   0   5   -0.09    0.98
   5   0   5   -0.18    1.71
   5   0   5   -0.48    0.86
  -5   0  -6    0.45    2.19
   5   1   0   39.53    1.99
  -5   1   0   41.10    2.02
  -5  -1   0   38.39    2.09
   5  -1   0   41.05    2.02
  -5   1   0   39.52    1.95
   5  -1   0   39.41    2.00
  -5   1   0   41.81    2.02
  -5  -1   0   39.75    2.00
  -5  -1   0   39.27    2.00
   5   1   0   41.30    2.01
  -5   1  -1  359.25   15.81
  -5  -1   1  385.11   15.90
   5   1   1  376.85   15.93
   5  -1  -1  366.30   15.92
   5  -1  -1  354.99   15.93
  -5   1  -1  364.60   15.83
  -5  -1   1  388.64   15.88
   5  -1  -1  334.74   15.99
   5   1   1  384.41   15.93
   5   1   1  383.00   16.03
  -5  -1  -1  344.18   16.00
  -5  -1  -1  335.72   15.89
  -5  -1  -1  353.54   15.90
  -5   1   1  372.87   16.03
   5  -1   1  385.90   15.86
   5  -1   1  378.38   15.88
   5   1  -1  360.79   15.83
  -5   1   1  394.50   15.97
   5   1  -1  340.82   15.85
   5   1   2   15.32    1.35
  -5  -1   2   13.93    0.94
   5   1   2   13.97    1.07
  -5  -1   2   14.12    0.97
   5   1   2   13.47    1.09
   5  -1   2   13.19    0.90
  -5   1   2   13.18    1.15
   5  -1   2   13.61    0.87
  -5   1   2   13.15    1.09
  -5   1   2   15.13    1.52
   5  -1   2   13.10    0.87
   5  -1  -3  114.99    5.71
   5   1   3  110.51    5.60
   5  -1  -3  120.47    5.09
  -5   1  -3  109.85    5.28
  -5  -1   3  109.44    5.10
  -5  -1   3  113.56    5.11
   5  -1  -3  123.52    5.07
  -5  -1   3  112.35    5.60
   5   1   3  110.43    5.26
   5   1   3  114.69    5.28
  -5  -1  -3  110.89    5.62
  -5   1   3  119.65    5.35
   5  -1   3  112.44    5.03
  -5   1   3  116.52    5.77
   5  -1   3  111.08    5.26
  -5   1   3  115.61    5.29
   5  -1   3  115.06    5.02
   5  -1  -4    3.39    1.61
  -5   1  -4    2.65    1.06
  -5  -1   4    3.42    0.68
   5   1   4    2.95    0.86
  -5  -1   4    4.48    0.75
   5   1   4    3.69    1.48
   5   1   4    3.20    0.89
  -5  -1   4    2.19    1.48
  -5   1   4    2.98    1.58
   5  -1   4    3.25    0.54
   5  -1   4    3.47    0.57
  -5  -1  -4    2.39    1.41
  -5   1   4    2.71    0.89
  -5   1   4    4.96    1.02
   5  -1   4    3.13    1.07
   5   1   5   20.88    2.13
   5  -1  -5   27.63    3.14
   5   1   5   20.79    2.91
  -5  -1   5   17.95    1.55
  -5  -1   5   17.24    2.49
   5   1   5   13.47    1.79
  -5  -1   5   21.82    1.72
  -5   1   5   23.34    2.12
   5  -1   5   17.96    2.68
   5  -1   5   18.85    1.37
  -5  -1  -5   24.24    2.95
   5  -1   5   18.46    1.31
  -5   1   5   17.06    1.91
  -5  -1  -6    2.76    2.43
  -5  -2   0  396.69   17.87
   5   2   0  420.71   17.89
   5  -2   0  411.45   17.79
   5   2   0  415.87   17.78
  -5   2   0  399.05   17.71
   5   2   0  412.80   17.78
  -5  -2   0  406.05   17.79
  -5   2   0  410.30   17.77
   5  -2   0  400.09   17.71
  -5  -2   0  405.26   17.78
   5  -2   0  407.40   17.80
  -5   2   0  412.53   17.78
  -5  -2   1   19.59    1.40
  -5   2  -1   25.64    1.34
   5  -2  -1   23.93    1.54
  -5  -2   1   20.29    1.59
   5  -2  -1   23.36    1.63
   5   2   1   18.59    1.61
   5  -2  -1   25.70    1.51
   5   2   1   20.11    1.48
   5   2   1   21.12    1.48
  -5  -2   1   19.17    1.38
  -5  -2  -1   27.39    1.55
  -5  -2  -1   23.55    1.51
  -5   2   1   19.00    1.51
  -5  -2  -1   24.60    1.72
   5   2  -1   23.42    1.33
  -5   2   1   18.24    1.45
  -5   2   1   20.00    1.62
   5   2  -1   24.77    1.37
   5  -2   1   19.41    1.34
   5  -2  -2  355.49   15.58
  -5  -2   2  363.03   15.44
   5   2   2  350.58   15.59
   5  -2  -2  330.93   15.51
   5  -2  -2  359.49   15.78
   5   2   2  353.46   15.76
  -5  -2   2  364.19   15.43
   5   2   2  345.65   15.57
  -5   2   2  351.96   15.58
  -5  -2  -2  357.53   15.54
  -5  -2  -2  372.12   15.56
  -5  -2  -2  353.82   15.79
   5  -2   2  352.03   15.40
  -5   2   2  352.49   15.81
   5  -2   2  358.63   15.41
  -5   2   2  348.55   15.60
  -5  -2   3   74.88    3.58
  -5  -2   3   75.23    3.58
  -5  -2   3   75.72    4.07
   5  -2  -3   78.01    3.79
   5   2   3   76.19    3.87
   5  -2  -3   75.58    4.33
   5  -2  -3   81.27    3.73
   5   2   3   70.92    4.22
   5   2   3   77.27    3.84
   5  -2   3   73.91    3.50
   5  -2   3   77.15    3.50
  -5   2   3   74.72    4.37
   5  -2   3   76.64    3.53
  -5  -2  -3   74.26    3.70
  -5  -2  -3   76.72    3.69
  -5   2   3   75.81    3.84
  -5   2   3   73.59    3.92
  -5  -2  -3   75.53    4.31
   5   2   4  128.34    6.53
  -5  -2   4  128.35    6.19
  -5  -2   4  134.71    6.89
   5  -2  -4  144.49    7.18
   5  -2  -4  139.06    6.21
  -5  -2   4  136.85    6.21
   5  -2  -4  157.99    6.19
   5   2   4  132.60    6.55
   5   2   4  132.33    7.01
   5  -2   4  138.69    6.33
  -5   2   4  145.80    6.59
   5  -2   4  135.38    6.11
  -5   2   4  132.69    7.25
  -5  -2  -4  130.49    7.07
   5  -2   4  137.60    6.12
  -5   2   4  140.17    6.63
   5   2   5   16.81    2.03
  -5  -2   5   16.31    1.48
   5  -2  -5   21.74    2.97
  -5  -2   5   17.25    2.64
   5   2   5   16.94    2.09
  -5  -2  -5   17.39    2.67
  -5   2   5   14.17    2.13
  -5   2   5   16.05    2.11
   5  -2   5   15.69    2.22
  -5   3   0  133.49    6.06
   5   3   0  133.54    6.28
   5  -3   0  130.11    6.05
  -5   3   0  131.44    6.14
  -5  -3   0  130.01    6.17
   5  -3   0  127.36    6.14
  -5  -3   0  132.09    6.28
  -5  -3   0  130.29    6.17
   5  -3   0  128.18    6.14
   5   3   0  134.20    6.13
  -5   3   0  133.61    6.12
   5   3   0  135.31    6.13
   5   3   1  324.44   14.50
   5  -3  -1  321.25   14.55
  -5   3  -1  315.12   14.34
   5   3   1  335.49   14.51
  -5  -3   1  328.77   14.44
   5  -3  -1  329.30   14.53
   5   3   1  323.16   14.65
  -5  -3   1  324.23   14.52
   5  -3  -1  315.81   14.48
  -5  -3   1  328.53   14.43
  -5   3  -1  332.14   14.35
  -5   3  -1  362.53   14.25
  -5   3   1  330.29   14.57
  -5  -3  -1  318.57   14.50
   5   3  -1  319.17   14.33
  -5   3   1  322.10   14.49
   5  -3   1  321.80   14.20
  -5  -3  -1  319.03   14.50
   5   3  -1  347.31   14.38
   5  -3   1  329.15   14.44
   5  -3   1  328.87   14.43
  -5   3   1  322.00   14.52
  -5  -3  -1  321.21   14.65
   5   3   2   47.41    3.25
   5  -3  -2   51.47    3.15
   5  -3  -2   51.46    2.93
  -5  -3   2   48.04    2.71
   5  -3  -2   54.36    2.95
  -5   3  -2   52.20    2.37
   5   3   2   47.65    2.88
  -5  -3   2   47.62    2.92
   5   3   2   49.84    2.95
  -5  -3   2   50.81    2.75
  -5   3  -2   50.95    2.42
  -5   3   2   47.89    2.98
  -5   3   2   46.58    3.20
   5  -3   2   48.91    2.67
  -5  -3  -2   47.03    2.87
  -5   3   2   47.76    2.91
  -5  -3  -2   51.29    2.93
   5  -3   2   51.27    2.69
  -5  -3  -2   52.99    3.27
   5   3  -2   51.40    2.53
   5   3  -2   52.55    2.46
   5   3   3   80.73    4.69
   5   3   3   77.88    4.26
   5  -3  -3   86.46    4.18
   5  -3  -3   77.43    4.57
   5   3   3   76.28    4.17
  -5  -3   3   79.66    3.92
  -5  -3   3   80.48    3.92
   5  -3  -3   80.08    4.15
  -5  -3  -3   78.77    4.15
  -5  -3  -3   79.42    4.11
   5  -3   3   78.10    3.85
  -5   3   3   79.84    4.78
  -5   3   3   74.16    4.20
  -5  -3  -3   78.66    4.67
  -5   3   3   76.52    4.34
   5  -3   3   78.26    3.87
   5  -3  -4   36.51    2.67
  -5  -3   4   44.24    2.49
   5   3   4   41.15    3.24
  -5  -3   4   43.85    2.61
   5   3   4   46.26    2.96
   5  -3  -4   40.89    3.76
   5  -3  -4   37.47    2.72
  -5  -3   4   45.68    3.30
   5  -3   4   43.04    2.43
  -5  -3  -4   36.80    2.74
  -5  -3  -4   38.04    2.59
   5  -3   4   42.76    2.36
  -5  -3  -4   39.15    3.64
  -5   3   4   43.60    2.99
  -5   3   4   44.73    3.28
  -5  -3   5   61.55    4.53
  -5  -3   5   63.03    3.39
   5  -3  -5   63.60    4.93
   5   3   5   61.48    4.04
  -5  -3  -5   60.30    5.11
  -5   3   5   70.78    4.43
   5   4   0   80.81    4.34
   5   4   0   74.38    4.03
  -5   4   0   76.06    4.15
  -5  -4   0   74.93    4.23
   5   4   0   80.46    4.11
  -5  -4   0   83.99    4.32
  -5  -4   0   75.99    4.15
   5  -4   0   78.43    4.15
   5  -4   0   75.23    4.18
  -5   4   0   79.84    4.06
   5  -4   0   77.29    4.01
   5  -4  -1   11.60    1.56
  -5  -4   1    8.64    1.47
  -5   4  -1   14.24    1.38
  -5  -4   1   11.78    1.65
  -5   4  -1   15.33    1.64
   5   4   1    8.68    1.40
   5   4   1    9.08    1.64
  -5  -4   1   11.32    1.55
   5   4   1    8.51    1.44
  -5   4  -1   15.23    1.55
   5  -4  -1   14.93    1.71
   5  -4  -1   10.23    1.55
   5   4  -1   14.69    1.60
  -5   4   1    8.91    1.38
  -5  -4  -1   10.44    1.60
  -5  -4  -1   11.72    1.77
  -5  -4  -1   14.68    1.69
   5  -4   1   10.96    1.44
  -5   4   1   10.94    1.59
   5   4  -1   13.69    1.50
   5  -4   1   11.67    1.33
   5  -4   1    9.87    1.43
  -5   4   1   11.66    1.60
  -5   4  -2   75.88    3.85
  -5   4  -2   77.38    3.92
   5   4   2   86.64    4.85
  -5  -4   2   87.82    4.30
   5  -4  -2   80.51    4.50
   5  -4  -2   74.41    4.45
   5   4   2   86.29    4.48
  -5  -4   2   85.03    4.35
   5  -4  -2   80.98    4.66
   5   4   2   86.29    4.54
  -5  -4   2   87.84    4.36
  -5   4   2   81.75    4.40
   5  -4   2   76.59    3.70
   5  -4   2   86.24    4.27
  -5  -4  -2   68.73    4.68
  -5  -4  -2   70.56    4.42
   5  -4   2   86.20    4.22
   5   4  -2   75.44    3.88
  -5   4   2   88.30    4.82
  -5   4   2   87.21    4.60
   5   4  -2   77.04    3.95
  -5  -4  -2   72.18    4.37
  -5  -4   3   31.11    2.50
  -5  -4   3   32.09    2.38
   5   4   3   31.03    2.65
   5  -4  -3   29.06    2.69
   5  -4  -3   31.68    3.16
  -5  -4   3   32.08    2.68
   5  -4  -3   29.69    2.86
   5   4   3   28.57    2.53
   5  -4   3   29.76    2.38
  -5  -4  -3   26.14    2.79
  -5  -4  -3   30.38    3.24
  -5  -4  -3   30.31    2.68
  -5   4   3   28.87    2.59
   5  -4   3   29.94    2.28
  -5   4   3   35.70    3.09
   5   4   4   16.26    2.44
   5  -4  -4   23.28    2.54
  -5  -4   4   19.54    2.14
  -5  -4   4   17.78    2.41
  -5  -4   4   15.89    2.59
   5  -4  -4   23.27    2.86
  -5  -4   4   19.07    2.31
   5  -4  -4   27.05    3.48
  -5  -4  -4   19.52    2.54
  -5  -4  -4   20.29    2.84
   5  -4   4   13.97    1.81
   5  -4   4   13.30    2.00
  -5   4   4   20.30    2.53
   5   5   0    0.65    1.60
  -5  -5   0   -0.02    1.42
   5   5   0    0.47    1.38
   5  -5   0    0.39    1.26
  -5  -5   0    0.51    1.44
   5  -5   0   -0.07    1.27
   5   5   0    0.83    1.21
   5  -5   0    1.47    1.43
  -5   5   0    0.52    1.22
  -5  -5   0    0.92    1.51
  -5   5   0    1.44    1.28
  -5   5   0    1.77    1.45
   5   5   1    8.79    1.70
   5  -5  -1   12.74    1.87
  -5  -5   1    8.85    1.76
  -5   5  -1    8.28    1.38
  -5  -5   1   12.23    1.95
  -5  -5   1    9.91    1.81
  -5   5  -1    9.72    1.51
  -5   5  -1    8.00    1.52
   5   5   1    9.74    1.85
   5  -5  -1   12.13    1.92
   5  -5   1    8.09    1.76
   5   5  -1   13.56    1.98
   5   5  -1   10.04    1.66
   5  -5   1    9.26    1.65
  -5   5   1    7.32    1.62
   5  -5   1    8.96    1.33
  -5   5   1   12.78    2.01
  -5  -5  -1   10.89    1.89
  -5  -5  -1   12.84    2.15
  -5  -5   2    0.08    1.39
   5  -5  -2    1.98    1.65
  -5   5  -2    1.63    1.08
   5   5   2   -0.53    1.39
  -5  -5   2    1.54    1.76
  -5  -5   2    0.79    1.40
   5  -5  -2   -0.72    1.80
  -5   5  -2    0.06    1.04
   5   5  -2   -0.10    1.21
  -5   5   2   -0.54    1.46
   5  -5   2   -0.29    1.51
  -5  -5  -2    2.67    1.72
   5  -5   2   -1.26    1.38
  -5  -5  -2    0.97    1.84
   5  -5   2   -0.54    0.84
  -5  -5   3    5.85    1.93
   5   5   3    5.13    1.75
   5  -5  -3    3.80    1.73
  -5  -5   3    4.66    1.62
   5  -5  -3    5.30    2.28
  -5  -5   3    3.96    1.61
   5  -5   3    6.25    1.81
  -5  -5  -3    2.28    2.16
  -5  -5  -3    1.92    1.77
   5  -5   3    5.73    1.68
  -5   5   3    4.10    1.73
   5  -5  -4    2.40    2.15
   5   5   4    1.18    1.96
  -5  -5   4   -0.52    1.68
  -5  -5   4    1.45    1.76
   5  -5  -4    1.44    2.65
  -5  -5  -4    0.37    2.64
  -5   5   4    0.46    1.84
  -5  -5  -4   -2.01    1.98
   5  -5   4    1.37    1.69
  -5   6   0   11.50    2.06
  -5  -6   0   12.35    2.34
   5  -6   0   11.44    2.07
   5  -6   0   11.63    2.15
   5   6   0   11.93    2.07
  -5   6   0   12.03    2.21
  -5  -6   0   15.31    2.45
  -5  -6   1   23.07    2.68
   5   6   1   19.52    2.49
   5  -6  -1   19.97    3.16
  -5   6  -1   18.83    2.40
   5  -6  -1   20.30    3.02
  -5  -6   1   20.97    3.07
   5   6  -1   18.83    2.51
  -5  -6  -1   17.76    2.60
   5  -6   1   18.60    2.40
  -5  -6  -1   18.41    2.74
   5  -6   1   21.00    2.80
   5  -6  -2   18.17    2.91
  -5  -6   2   21.04    3.01
  -5  -6   2   17.00    2.69
   5   6   2   17.83    2.63
   5  -6  -2   18.24    2.83
  -5  -6  -2   16.61    3.08
  -5   6   2   15.26    2.56
   5  -6   2   17.47    2.47
  -5  -6  -2   17.85    2.72
  -6   0   0  395.32   17.10
  -6   0   0  388.56   17.10
   6   0   0  399.50   17.11
  -6   0   1  306.72   12.50
   6   0   1  303.61   12.48
   6   0  -1  269.47   12.42
  -6   0  -1  266.40   12.44
  -6   0  -1  257.32   12.41
  -6   0  -1  268.92   12.39
   6   0  -1  263.52   12.43
  -6   0   1  311.14   12.47
   6   0   1  306.61   12.43
   6   0   1  306.34   12.46
  -6   0   2  240.47   10.47
   6   0  -2  231.57   10.32
   6   0  -2  244.13   10.32
  -6   0  -2  231.11   10.52
   6   0   2  227.62   10.37
  -6   0   2  236.07   10.71
   6   0   2  235.80   10.50
  -6   0   2  246.01   10.43
   6   0   2  250.09   10.44
   6   0   3   87.05    4.24
  -6   0   3   84.73    4.07
   6   0   3   88.63    3.95
  -6   0   3   85.87    4.55
  -6   0  -3   81.49    4.26
  -6   0   3   85.99    3.99
   6   0   3   86.91    3.98
  -6   0   4  180.53    8.55
  -6   0   4  171.07    7.87
   6   0   4  172.20    8.17
   6   0   4  181.77    7.77
  -6   0  -4  171.29    8.18
   6   0   4  169.11    7.76
  -6   0   4  174.02    7.81
  -6   0   5   11.64    1.49
   6   0   5   10.55    1.36
   6   0   5   10.59    1.49
  -6   0  -5   12.32    1.97
  -6   0   5   12.23    1.68
   6   0   5   10.07    2.04
  -6   0  -6   65.26    4.79
   6   1   0  102.18    4.54
  -6   1   0   98.57    4.50
  -6  -1   0   98.92    4.55
  -6  -1   0  101.12    4.67
  -6  -1   0  100.04    4.55
  -6   1   0   98.56    4.54
   6   1   0   99.87    4.54
   6  -1   0   96.81    4.55
   6  -1   0  100.17    4.56
  -6   1   0  102.49    4.57
  -6   1  -1  880.92   39.12
  -6  -1   1  898.34   39.20
   6  -1  -1  877.15   39.30
   6  -1  -1  907.40   39.21
   6   1   1  938.55   39.23
   6   1   1  936.34   39.30
   6  -1  -1  898.10   39.24
   6   1   1  929.46   39.22
  -6   1  -1  862.22   39.14
  -6  -1   1  954.17   39.19
  -6   1  -1  813.29   39.01
   6  -1   1 1000.00   39.21
  -6   1   1  910.12   39.32
   6  -1   1  971.42   39.18
   6   1  -1  880.20   39.17
  -6   1   1  957.90   39.24
   6   1  -1  907.62   39.15
  -6  -1  -1  898.67   39.21
  -6   1   1  952.92   39.27
  -6  -1  -1  887.49   39.30
  -6  -1  -1  879.16   39.19
   6   1   2   60.22    2.78
  -6  -1   2   57.94    2.68
   6  -1  -2   54.10    2.77
   6   1   2   58.71    2.98
   6  -1  -2   52.16    2.69
   6   1   2   59.58    2.79
   6  -1  -2   53.70    3.06
  -6   1  -2   54.95    2.59
  -6  -1   2   56.43    2.70
  -6  -1  -2   54.80    2.69
  -6  -1  -2   52.36    2.71
  -6   1   2   55.44    2.84
   6  -1   2   57.32    2.60
  -6   1   2   57.59    3.12
   6  -1   2   52.25    2.62
  -6  -1  -2   53.18    3.00
   6  -1   2   56.59    2.63
   6  -1  -3   46.64    2.58
  -6   1  -3   44.89    2.71
   6   1   3   53.16    2.75
  -6  -1   3   57.89    2.64
   6  -1  -3   45.65    2.52
  -6  -1   3   58.38    2.65
   6   1   3   55.83    3.18
  -6  -1   3   58.29    3.25
   6   1   3   55.45    2.78
   6  -1  -3   51.79    3.29
   6  -1   3   55.73    2.52
  -6   1   3   58.67    3.43
  -6  -1  -3   45.28    3.11
   6  -1   3   55.31    2.54
  -6   1   3   55.02    2.86
   6  -1   3   56.53    2.73
  -6   1   3   56.40    2.81
   6   1   4   10.45    1.69
   6   1   4   12.44    1.42
  -6  -1   4   11.40    1.26
   6   1   4    9.31    1.32
  -6  -1   4    9.88    1.11
  -6  -1   4    9.46    1.81
   6  -1  -4    9.34    1.82
  -6   1  -4   10.64    1.59
  -6   1   4   11.82    1.53
   6  -1   4   11.30    1.03
  -6   1   4    9.46    1.90
  -6   1   4   10.65    1.39
   6  -1   4   10.40    1.53
   6  -1   4    9.74    0.97
  -6  -1  -4   13.22    2.13
  -6  -1   5   27.85    2.07
   6   1   5   27.28    2.07
   6   1   5   29.99    2.30
  -6  -1   5   27.91    1.90
   6   1   5   26.49    2.97
  -6  -1   5   27.71    3.50
  -6   1   5   27.81    2.43
   6  -1   5   25.87    1.70
   6  -1   5   25.52    1.67
   6  -1   5   24.03    2.63
  -6  -1  -6   19.20    3.02
   6  -2   0    5.47    0.82
  -6  -2   0    6.60    0.97
  -6   2   0    6.26    0.92
   6  -2   0    5.16    0.81
  -6  -2   0    4.81    0.76
   6  -2   0    4.79    0.77
   6   2   0    6.94    0.83
  -6  -2   0    4.94    0.83
  -6   2   0    4.82    0.74
  -6   2   0    6.05    0.84
   6   2   0    5.28    0.74
   6   2   0    6.85    1.08
   6   2   1   15.89    1.42
  -6   2  -1   12.82    1.05
  -6   2  -1   10.39    1.05
  -6  -2   1   15.94    1.15
   6  -2  -1   11.40    1.17
  -6  -2   1   15.06    1.20
   6  -2  -1   12.35    1.21
   6  -2  -1   11.27    1.23
  -6  -2  -1   10.74    1.23
  -6   2   1   16.98    1.39
   6  -2   1   15.37    1.13
   6   2  -1   11.95    1.04
  -6  -2  -1   10.51    1.20
   6  -2   1   13.91    1.12
  -6  -2  -1   11.66    1.39
  -6   2   1   15.75    1.28
   6   2  -1   11.06    1.04
   6   2   2   11.42    1.23
   6   2   2   12.03    1.24
   6  -2  -2   14.76    1.62
  -6  -2   2    9.91    1.07
   6   2   2   12.27    1.67
  -6  -2   2   12.16    1.13
  -6   2   2   10.66    1.23
  -6  -2  -2   10.56    1.60
   6  -2   2    9.44    1.00
   6   2  -2    8.60    0.77
   6  -2   2    9.99    1.04
  -6   2   2   13.44    1.72
  -6   2   2   12.18    1.32
   6  -2  -3    3.18    0.87
   6  -2  -3    3.98    1.37
  -6  -2   3    2.79    0.74
   6   2   3    2.66    0.93
   6   2   3    3.97    1.33
   6  -2  -3    4.07    0.87
  -6  -2   3    1.65    0.67
   6   2   3    1.72    0.85
  -6  -2  -3    3.34    0.82
  -6  -2  -3    2.01    0.82
  -6   2   3    2.51    0.89
  -6   2   3    1.90    1.36
  -6   2   3    3.03    1.00
   6  -2   3    1.74    0.58
   6  -2   3    2.65    0.49
  -6  -2  -3    2.52    1.33
   6  -2   3    2.17    0.65
   6  -2  -4    4.29    0.89
  -6  -2   4    2.12    1.54
   6  -2  -4    4.71    1.62
   6   2   4    0.38    1.13
  -6  -2   4    1.46    0.75
   6   2   4    0.98    1.65
   6   2   4    0.30    0.96
   6  -2  -4    2.94    0.77
  -6  -2   4    1.45    0.79
  -6  -2  -4    1.27    0.56
   6  -2   4    2.25    0.63
   6  -2   4    2.85    0.85
   6  -2   4    2.17    0.73
  -6   2   4    1.06    1.26
  -6  -2  -4    2.63    1.62
  -6   2   4    2.23    1.06
   6   2   5    0.52    1.53
   6  -2  -5    2.10    2.12
  -6  -2   5    0.88    0.91
   6   2   5    2.24    1.30
  -6  -2   5   -1.46    1.99
  -6  -2  -5    2.83    2.05
   6  -2   5    1.33    1.84
   6  -2   5    0.14    0.74
  -6   2   5    0.25    1.66
  -6   2   5    2.41    1.30
  -6  -3   0    6.60    1.09
   6  -3   0    9.08    1.27
  -6   3   0    8.31    1.15
   6   3   0    8.37    1.09
  -6   3   0    8.43    1.08
   6  -3   0    7.66    0.98
  -6   3   0    6.73    1.04
  -6  -3   0    9.29    1.16
   6  -3   0    7.08    1.03
   6   3   0    9.54    1.31
  -6  -3   0    9.82    1.47
   6   3   0    9.80    1.48
   6   3   1    3.63    0.95
   6   3   1    5.86    1.09
  -6  -3   1    8.29    1.29
  -6  -3   1    5.27    0.95
   6   3   1    4.73    1.21
  -6  -3   1    5.08    0.97
  -6   3   1    4.91    1.10
  -6  -3  -1    8.76    1.23
   6  -3   1    3.75    0.65
  -6   3   1    6.12    1.13
  -6  -3  -1    8.35    1.15
  -6   3   1    4.67    0.97
   6  -3   1    4.85    0.89
   6  -3   1    4.22    0.91
  -6  -3  -1    8.65    1.32
  -6  -3   2    6.81    1.29
  -6  -3   2    7.01    1.04
  -6  -3   2    7.88    1.08
   6   3   2    8.13    1.62
   6  -3  -2   10.20    1.32
   6  -3  -2    9.10    1.49
  -6   3  -2    8.21    0.96
   6  -3  -2   10.78    1.48
  -6   3  -2    8.61    0.81
   6   3   2    6.66    1.22
   6   3   2    8.67    1.24
  -6   3   2    6.62    1.17
   6  -3   2    8.68    1.08
  -6   3   2    5.27    1.43
  -6   3   2    8.63    1.37
  -6  -3  -2    9.59    1.34
   6   3  -2    9.62    1.11
   6  -3   2    5.68    0.97
  -6  -3  -2    8.51    1.57
   6   3  -2    7.68    0.95
  -6  -3  -2   10.08    1.32
  -6  -3   3   31.51    2.13
   6   3   3   34.89    2.99
   6  -3  -3   33.58    2.48
   6   3   3   32.43    2.49
   6  -3  -3   31.20    2.92
   6  -3  -3   36.87    2.52
  -6  -3   3   34.63    2.17
   6   3   3   31.40    2.58
  -6  -3  -3   30.80    2.36
  -6   3   3   31.79    3.17
  -6   3   3   30.76    2.40
  -6   3   3   35.31    2.59
  -6  -3  -3   32.62    2.98
  -6  -3  -3   35.82    2.48
   6  -3   3   31.41    2.03
  -6  -3   4   17.59    1.80
   6  -3  -4   14.14    1.93
   6   3   4   19.76    2.15
   6   3   4   17.03    2.03
   6  -3  -4   16.59    2.06
   6  -3  -4   12.75    2.40
  -6  -3   4   17.31    2.25
  -6  -3   4   13.65    1.62
  -6  -3  -4   17.03    2.50
  -6  -3  -4   14.12    1.71
  -6  -3  -4   13.33    1.56
   6  -3   4   15.54    1.53
  -6   3   4   16.97    2.44
  -6   3   4   15.19    2.21
  -6  -3   5   17.84    1.85
   6   3   5   20.37    2.61
  -6  -3   5   18.43    2.64
   6  -3  -5   14.90    2.65
  -6   3   5   20.73    2.75
  -6  -3  -5   18.32    3.15
  -6   4   0  125.10    5.89
   6   4   0  127.25    5.96
  -6  -4   0  120.23    6.04
  -6  -4   0  123.39    6.14
  -6   4   0  122.90    6.01
   6   4   0  125.90    6.01
   6  -4   0  119.44    6.00
   6  -4   0  118.24    5.86
   6  -4   0  119.89    6.01
  -6  -4   0  118.87    6.00
  -6   4   0  127.31    5.95
   6   4   0  122.89    6.17
   6   4   1   16.89    1.95
  -6   4  -1   14.88    1.61
  -6  -4   1   14.70    1.95
   6  -4  -1   12.33    1.96
  -6  -4   1   17.20    1.94
   6  -4  -1   13.43    1.95
  -6   4  -1   14.86    1.75
   6  -4  -1   14.98    1.99
   6   4   1   16.25    2.27
   6   4   1   17.43    1.86
  -6   4  -1   14.27    1.43
  -6  -4   1   18.44    1.83
  -6  -4  -1   15.35    2.08
   6  -4   1   16.12    1.92
  -6  -4  -1   13.68    2.02
   6  -4   1   15.77    1.42
   6   4  -1   13.88    1.67
  -6   4   1   14.06    2.06
   6  -4   1   18.04    1.85
   6   4  -1   15.63    1.63
  -6   4   1   17.01    1.87
  -6  -4  -1   14.79    2.20
  -6   4   1   16.58    2.03
  -6  -4   2   90.92    4.69
   6   4   2   85.74    4.78
  -6  -4   2   91.66    4.79
  -6  -4   2   89.95    4.71
  -6   4  -2   93.03    4.29
   6   4   2   88.76    5.17
   6  -4  -2   93.80    4.92
   6  -4  -2   92.68    5.04
   6  -4  -2   96.05    4.91
  -6   4  -2   94.84    4.37
   6   4   2   82.71    4.89
  -6  -4  -2   96.37    4.94
  -6  -4  -2   89.07    5.17
   6  -4   2   88.40    4.61
  -6   4   2   91.49    4.80
   6   4  -2   95.90    4.36
  -6   4   2   86.21    4.91
   6   4  -2   86.92    4.40
   6  -4   2   90.16    4.67
  -6   4   2   90.63    5.16
  -6  -4  -2   85.08    4.86
   6  -4  -3   20.85    2.85
  -6  -4   3   22.64    2.05
   6   4   3   18.59    2.34
   6  -4  -3   17.70    2.43
  -6  -4   3   23.14    2.28
  -6  -4   3   21.90    2.45
   6   4   3   22.20    2.89
   6  -4  -3   19.65    2.58
   6  -4   3   21.16    2.16
   6  -4   3   19.37    1.98
  -6  -4  -3   20.23    2.61
  -6   4   3   19.97    2.44
  -6  -4  -3   21.18    3.05
  -6  -4  -3   19.44    2.42
   6  -4  -4   39.42    3.20
  -6  -4   4   34.91    2.95
   6  -4  -4   38.75    3.92
  -6  -4   4   34.46    2.72
   6   4   4   31.69    3.18
   6  -4  -4   36.20    3.10
  -6  -4   4   33.15    3.18
  -6  -4   4   28.28    3.54
  -6  -4  -4   33.61    2.96
   6  -4   4   35.33    2.70
   6  -4   4   35.53    2.57
  -6  -4  -4   35.94    3.36
  -6  -4  -4   37.05    3.95
  -6   4   4   33.77    3.03
  -6  -5   0   18.44    2.53
  -6   5   0   24.82    2.31
  -6  -5   0   18.56    2.62
   6   5   0   22.81    2.52
   6  -5   0   22.56    2.33
   6   5   0   20.44    2.32
  -6  -5   0   14.70    2.31
  -6   5   0   24.18    2.43
   6   5   0   19.43    2.80
   6  -5   0   23.32    2.48
  -6   5   0   19.53    2.56
   6  -5   0   21.84    2.28
  -6  -5   1   36.23    3.22
  -6   5  -1   36.93    2.61
   6  -5  -1   38.79    3.12
   6   5   1   34.95    2.91
  -6  -5   1   39.50    3.10
  -6  -5   1   33.69    3.03
  -6   5  -1   40.71    2.76
   6  -5  -1   40.87    3.11
  -6   5  -1   42.57    2.90
  -6  -5  -1   39.17    3.15
  -6   5   1   37.24    3.24
   6   5  -1   40.75    2.77
   6   5  -1   40.74    2.91
   6  -5   1   40.14    3.00
  -6  -5  -1   41.87    3.40
   6  -5   1   32.72    3.02
   6  -5   1   38.77    2.53
  -6  -5   2    7.59    1.89
  -6  -5   2    9.79    1.76
   6  -5  -2    9.05    1.91
   6  -5  -2    8.80    2.02
   6   5   2    9.46    1.82
  -6  -5   2    9.76    1.85
  -6   5  -2   12.66    1.71
  -6   5  -2   10.30    1.40
  -6  -5  -2    9.67    2.01
   6  -5   2    9.53    1.23
   6  -5   2    9.47    1.86
   6   5  -2   12.16    1.40
   6  -5   2   10.00    1.70
  -6  -5  -2   14.56    2.47
   6   5  -2   13.40    1.60
  -6   5   2    8.17    1.72
  -6  -5   3   50.90    3.68
   6   5   3   54.56    3.86
  -6  -5   3   54.83    4.14
   6  -5  -3   62.21    4.54
   6  -5  -3   57.26    4.10
  -6  -5   3   60.07    3.93
  -6  -5  -3   60.20    4.17
   6  -5   3   62.39    4.16
   6  -5   3   58.63    3.76
  -6  -5  -3   52.24    4.65
  -6   5   3   53.15    3.90
  -6  -5   4    5.71    1.95
   6  -5  -4    4.68    2.35
   6   5   4    6.26    2.13
   6  -5  -4    3.90    2.64
  -6  -5   4    6.12    2.11
   6  -5   4    4.71    1.69
  -6   5   4    6.89    2.06
  -6  -5  -4    1.99    2.14
  -6  -5  -4    4.12    2.74
   6  -6   0   62.97    3.95
  -6  -6   0   60.51    4.43
  -6  -6   0   59.08    4.26
  -6   6   0   58.26    4.14
   6   6   0   56.67    4.06
  -6   6   0   54.03    3.85
   6  -6   0   59.14    4.15
  -6  -6   1    9.72    2.23
  -6   6  -1    7.13    1.77
   6   6   1    7.36    2.02
   6  -6  -1    3.65    2.05
  -6  -6   1    9.33    2.18
   6  -6  -1    5.17    2.06
   6   6  -1    6.67    1.74
  -6  -6  -1    4.49    2.25
   6  -6   1    8.04    1.74
  -6  -6  -1    4.93    2.23
   6  -6   1    6.51    1.93
  -6  -6   2   24.26    3.23
   6  -6  -2   23.46    3.01
   6   6   2   21.79    3.15
  -6  -6   2   34.09    3.59
   6  -6  -2   27.09    3.67
  -6  -6  -2   19.41    3.17
   6  -6   2   28.77    3.17
  -6  -6  -2   23.23    3.05
   7   0   0    0.39    0.42
   7   0   0    0.71    0.44
  -7   0   0    0.57    0.47
  -7   0   0   -0.20    0.46
   7   0  -1    0.68    0.46
  -7   0  -1    0.13    0.46
  -7   0  -1   -0.03    0.44
   7   0   1   -0.11    0.41
   7   0   1   -0.35    0.39
  -7   0  -1   -0.01    0.37
  -7   0   1    0.10    0.48
   7   0  -1    0.00    0.41
   7   0   1    0.30    0.37
  -7   0   1    0.12    0.42
  -7   0  -2    0.03    0.29
   7   0  -2    0.44    0.43
  -7   0   2    0.40    0.47
  -7   0  -2    0.15    0.57
   7   0   2    0.73    0.49
  -7   0   2   -0.58    0.78
   7   0   2   -0.25    0.56
   7   0  -2    0.29    0.38
   7   0   2    0.47    0.46
  -7   0  -2   -0.04    0.33
  -7   0   2    0.63    0.57
  -7   0   3    0.01    0.69
   7   0   3    0.15    0.56
   7   0   3    0.61    0.78
  -7   0   3   -0.81    1.13
   7   0   3    0.65    0.53
  -7   0  -3   -0.14    0.78
  -7   0   3    0.31    0.55
  -7   0   4    0.89    0.88
   7   0   4    0.38    0.70
  -7   0   4    1.82    1.68
   7   0   4    1.13    0.70
  -7   0   4    0.28    0.72
  -7   0  -4    0.45    1.06
   7   0   4    0.76    1.12
  -7   0  -5   -2.22    1.43
  -7   0   5   -0.18    1.09
   7   0   5    1.01    0.99
  -7   0   5    0.87    1.00
   7   0   5    1.19    1.62
   7   0   5    0.90    0.86
  -7   0  -6    0.37    2.18
   7  -1   0   88.82    3.97
   7   1   0   83.95    3.92
   7   1   0   84.18    3.94
  -7   1   0   78.24    3.93
   7  -1   0   87.84    3.96
  -7  -1   0   80.92    4.05
  -7   1   0   85.61    3.91
  -7  -1   0   81.42    3.93
  -7   1   0   86.38    3.96
  -7  -1   0   89.69    3.96
  -7   1  -1   25.13    1.40
  -7   1  -1   27.39    1.44
   7  -1  -1   24.85    1.53
   7  -1  -1   25.23    1.48
  -7   1  -1   22.24    1.22
   7   1  -1   24.56    1.41
  -7  -1  -1   23.55    1.64
  -7  -1  -1   24.53    1.48
   7   1  -1   25.96    1.46
  -7  -1  -1   23.13    1.48
   7   1   2   12.10    1.37
   7   1   2   12.74    1.13
  -7  -1   2   11.56    1.06
   7   1   2   14.24    1.12
  -7  -1   2   12.43    1.03
   7  -1   2   11.94    0.97
  -7   1   2   12.58    1.13
   7  -1   2   11.43    0.84
   7  -1   2   11.42    0.97
  -7   1   2   12.27    1.27
  -7   1   2   13.64    1.58
   7   1   3   50.91    2.48
  -7  -1   3   44.75    2.34
   7   1   3   48.89    2.87
   7  -1  -3   41.79    2.30
  -7  -1   3   43.36    2.96
  -7   1  -3   40.79    2.39
   7  -1  -3   41.92    2.93
   7   1   3   45.14    2.47
   7  -1  -3   43.28    2.24
  -7  -1   3   45.15    2.36
  -7  -1  -3   42.32    2.17
  -7  -1  -3   42.77    2.85
   7  -1   3   45.03    2.26
  -7   1   3   47.00    2.56
   7  -1   3   46.67    2.38
   7  -1   3   45.39    2.23
  -7   1   3   49.61    3.20
  -7  -1  -3   46.04    2.14
  -7   1  -4   24.05    2.05
  -7  -1   4   28.26    1.89
   7   1   4   31.35    1.99
   7   1   4   24.94    1.94
  -7  -1   4   27.57    1.77
   7   1   4   30.25    2.67
  -7  -1   4   24.83    2.77
  -7   1   4   27.03    2.13
   7  -1   4   25.96    2.01
   7  -1   4   30.42    1.66
  -7   1   4   30.15    3.07
   7  -1   4   28.25    1.69
  -7  -1  -4   28.37    2.67
   7   1   5    7.52    1.93
  -7  -1   5    9.38    1.37
   7   1   5    9.44    1.38
  -7  -1   5   10.28    1.49
   7   1   5   10.52    1.52
   7  -1   5    9.71    1.74
   7  -1   5    8.74    1.27
  -7  -1  -5   15.61    2.26
  -7   1   5   10.24    1.66
   7  -1   5    9.54    1.23
   7  -2   0  236.02   10.43
  -7  -2   0  225.96   10.53
  -7   2   0  227.22   10.33
   7   2   0  241.35   10.41
   7  -2   0  229.83   10.32
  -7  -2   0  235.17   10.43
   7  -2   0  222.86   10.39
  -7  -2   0  242.08   10.43
   7   2   0  231.12   10.41
  -7   2   0  247.08   10.44
  -7   2   0  242.04   10.42
  -7  -2   1  236.88    9.94
  -7   2  -1  199.67    9.84
   7   2   1  236.52   10.12
   7   2   1  239.83   10.01
  -7   2  -1  214.21    9.61
   7  -2  -1  216.39    9.98
  -7  -2   1  247.44    9.95
   7  -2  -1  208.64   10.00
  -7   2  -1  216.55    9.83
   7   2   1  212.03    9.94
   7   2  -1  216.00    9.85
  -7   2   1  224.98   10.00
   7   2  -1  206.04    9.85
   7  -2   1  246.25    9.94
  -7  -2  -1  207.25   10.09
  -7  -2  -1  206.30    9.94
  -7   2   1  243.07   10.08
  -7   2   1  223.63    9.97
   7  -2   1  240.48    9.93
   7   2   2   64.96    3.81
  -7  -2   2   61.38    3.40
   7  -2  -2   78.80    3.88
  -7  -2   2   63.87    3.41
   7   2   2   63.32    3.51
   7   2   2   62.69    3.53
   7  -2  -2   81.27    3.62
  -7   2   2   66.23    3.61
  -7   2   2   64.48    3.81
  -7  -2  -2   77.28    3.89
   7  -2   2   64.36    3.38
   7  -2   2   60.87    3.35
  -7  -2  -2   76.86    3.56
   7   2  -2   81.10    3.23
   7   2  -2   80.94    3.28
  -7  -2  -2   79.65    3.58
  -7   2   2   64.82    3.55
   7   2   3   38.81    2.89
  -7  -2   3   43.10    2.21
   7   2   3   40.42    2.44
  -7  -2   3   40.65    2.18
   7  -2  -3   34.44    2.84
   7   2   3   40.22    2.40
   7  -2  -3   35.35    2.33
  -7  -2  -3   32.50    2.86
  -7  -2  -3   33.26    2.22
  -7   2   3   41.19    2.43
  -7   2   3   39.75    3.10
   7  -2   3   39.15    2.11
  -7   2   3   42.09    2.59
  -7  -2  -3   34.76    2.28
   7  -2   3   38.53    2.08
  -7  -2   4   62.44    3.91
   7   2   4   62.56    3.42
   7  -2  -4   56.08    3.02
   7   2   4   62.78    3.37
  -7  -2   4   59.69    3.04
  -7  -2   4   59.27    3.04
   7  -2  -4   53.65    3.98
   7   2   4   58.45    3.97
   7  -2  -4   54.73    2.95
  -7   2   4   62.30    3.56
  -7   2   4   62.31    3.38
  -7  -2  -4   53.46    2.80
   7  -2   4   59.14    2.94
   7  -2   4   58.70    2.92
   7  -2   4   59.94    2.97
  -7  -2  -4   54.71    3.95
  -7  -2  -4   56.71    2.86
   7   2   5   13.54    1.73
  -7  -2   5   10.45    1.59
   7   2   5   14.48    2.04
   7  -2  -5   21.39    2.89
   7  -2   5   11.91    1.44
  -7   2   5   15.79    2.24
  -7   2   5   15.37    2.14
  -7  -2  -5   23.07    3.36
  -7  -3   0   81.26    4.17
   7   3   0   80.48    3.95
  -7  -3   0   75.65    3.96
  -7   3   0   78.38    3.84
  -7   3   0   78.27    3.95
   7  -3   0   76.43    3.82
  -7  -3   0   78.38    4.00
   7  -3   0   76.98    3.97
   7   3   0   79.99    4.16
   7   3   0   77.45    3.93
  -7   3   0   80.04    3.97
   7  -3   0   79.03    3.99
   7   3   1  152.21    7.22
  -7  -3   1  152.88    6.99
  -7  -3   1  150.84    6.99
  -7   3  -1  155.64    6.65
  -7   3  -1  145.76    6.86
  -7   3  -1  155.62    6.89
   7  -3  -1  151.99    7.04
   7   3   1  154.35    7.04
   7  -3  -1  151.53    7.05
   7  -3  -1  149.46    7.06
  -7  -3   1  148.81    7.12
   7   3   1  153.06    7.04
   7  -3   1  145.62    6.95
   7   3  -1  152.88    6.88
   7   3  -1  156.88    6.90
  -7  -3  -1  151.06    7.03
  -7   3   1  144.84    7.08
  -7  -3  -1  149.06    7.23
  -7   3   1  146.72    7.06
   7  -3   1  150.12    6.95
  -7  -3  -1  148.26    7.04
   7  -3   1  142.15    6.64
  -7  -3   2   64.71    3.54
   7   3   2   62.43    3.73
  -7   3  -2   55.21    2.93
   7  -3  -2   56.18    3.55
   7   3   2   64.44    3.39
  -7  -3   2   64.47    3.22
   7   3   2   63.15    3.41
   7  -3  -2   56.98    3.33
   7  -3  -2   56.68    3.39
  -7  -3   2   64.45    3.27
  -7   3  -2   58.41    2.86
   7  -3   2   60.46    3.15
   7   3  -2   55.25    2.92
  -7  -3  -2   58.92    3.37
  -7  -3  -2   55.29    3.65
   7   3  -2   59.40    3.04
   7  -3   2   63.77    3.16
  -7   3   2   64.23    3.49
  -7  -3  -2   57.14    3.33
  -7   3   2   66.35    3.40
  -7   3   2   65.83    3.77
   7   3   3   59.35    3.42
   7   3   3   61.47    4.01
   7  -3  -3   56.07    3.40
   7  -3  -3   56.33    3.40
  -7  -3   3   64.59    3.24
   7   3   3   59.58    3.50
  -7  -3   3   67.57    3.23
   7  -3  -3   53.00    3.87
  -7  -3  -3   51.91    3.39
   7  -3   3   63.08    3.13
  -7   3   3   63.01    4.15
  -7  -3  -3   49.48    3.29
  -7  -3  -3   49.92    3.87
  -7   3   3   67.00    3.72
  -7   3   3   57.78    3.47
   7  -3  -4   24.63    2.24
  -7  -3   4   21.83    2.92
   7  -3  -4   24.47    3.16
  -7  -3   4   19.44    2.08
  -7  -3   4   22.35    1.90
   7  -3  -4   26.43    2.30
   7   3   4   22.78    2.36
   7   3   4   21.01    2.60
  -7  -3  -4   21.45    2.06
  -7  -3  -4   22.39    3.06
  -7   3   4   23.19    2.74
  -7   3   4   18.55    2.38
   7  -3   4   21.15    1.81
  -7  -3  -4   25.54    2.32
   7  -3  -5   45.78    4.34
  -7  -3   5   41.86    2.80
   7   3   5   47.19    3.38
  -7   3   5   51.58    3.81
  -7  -3  -5   47.71    4.68
   7  -4   0   66.35    3.75
   7  -4   0   62.02    3.68
  -7  -4   0   65.87    3.73
  -7   4   0   62.50    3.65
   7   4   0   69.79    3.74
  -7   4   0   62.89    3.66
  -7  -4   0   70.55    3.92
  -7  -4   0   66.70    3.81
   7   4   0   66.16    3.95
   7   4   0   66.08    3.68
  -7   4   0   66.31    3.54
   7  -4   0   66.24    3.53
   7   4   1   43.62    3.11
  -7  -4   1   40.82    2.85
  -7  -4   1   39.73    2.82
  -7   4  -1   39.50    2.28
   7  -4  -1   37.27    2.83
  -7   4  -1   38.90    2.61
   7   4   1   43.86    2.75
   7  -4  -1   39.33    2.82
   7  -4  -1   39.43    2.77
  -7   4  -1   40.25    2.57
   7   4   1   45.02    2.85
  -7  -4   1   42.55    2.79
  -7  -4  -1   39.18    3.05
   7  -4   1   43.44    2.67
  -7   4   1   40.83    2.92
   7  -4   1   41.52    2.79
   7  -4   1   43.04    2.27
  -7  -4  -1   37.31    2.78
   7   4  -1   41.24    2.61
  -7  -4  -1   36.38    2.90
   7   4  -1   36.54    2.50
  -7   4   1   43.51    2.97
   7  -4  -2   14.90    2.22
   7   4   2   18.09    2.60
  -7   4  -2   16.73    1.43
  -7  -4   2   17.54    2.05
   7  -4  -2   13.55    1.84
  -7   4  -2   14.42    1.51
   7  -4  -2   17.03    2.28
   7   4   2   14.77    2.16
  -7  -4   2   14.24    2.04
  -7  -4   2   15.30    1.91
   7   4   2   15.40    1.95
   7   4  -2   17.31    1.51
   7   4  -2   14.83    1.61
  -7  -4  -2   13.55    1.93
  -7  -4  -2   21.56    2.67
   7  -4   2   15.29    1.99
  -7   4   2   18.92    2.60
   7  -4   2   15.95    1.79
  -7   4   2   14.87    2.00
  -7   4   2   15.54    2.28
  -7  -4  -2   14.75    2.16
   7  -4  -3    4.74    1.72
  -7  -4   3    5.38    1.52
   7   4   3    6.22    1.47
  -7  -4   3    7.62    1.44
   7  -4  -3    5.83    1.62
   7  -4  -3    6.66    1.92
  -7  -4   3    3.74    1.58
  -7  -4  -3    3.78    1.90
  -7   4   3    5.76    1.53
  -7  -4  -3    7.11    1.81
   7  -4   3    6.96    1.47
  -7  -4  -3    3.17    1.51
   7  -4   3    5.50    1.25
   7  -4  -4   20.40    3.02
   7  -4  -4   17.10    2.29
  -7  -4   4   18.53    2.73
  -7  -4   4   18.13    2.37
   7  -4  -4   16.84    2.19
  -7  -4   4   16.98    2.19
   7   4   4   15.63    2.22
  -7   4   4   19.69    2.74
   7  -4   4   17.97    2.23
  -7  -4  -4   14.00    2.25
  -7  -4  -4   18.29    3.02
  -7  -4  -4   13.15    1.97
   7  -4   4   16.58    2.08
   7   5   0    1.06    1.38
  -7   5   0    1.64    1.48
  -7  -5   0    3.16    1.54
   7  -5   0    2.01    1.34
  -7   5   0    2.54    1.38
   7  -5   0    2.05    1.27
  -7  -5   0    2.56    1.65
   7   5   0    2.19    1.31
   7   5   0    3.42    1.90
  -7   5   0    3.91    1.45
  -7   5  -1    8.29    1.36
  -7  -5   1    6.86    1.65
  -7   5  -1    7.74    1.45
   7  -5  -1    6.53    1.73
  -7  -5   1    6.14    1.71
  -7  -5   1    8.38    1.82
   7   5   1    7.18    1.61
  -7   5  -1    6.53    1.61
   7  -5  -1    8.77    1.84
   7   5  -1    7.67    1.45
  -7  -5  -1    8.24    2.12
  -7  -5  -1    7.34    1.82
   7  -5   1    9.46    1.75
  -7   5   1    9.19    1.90
   7   5  -1    8.92    1.62
   7  -5   1    6.26    1.16
   7  -5   1    5.38    1.53
  -7  -5   2    1.31    1.56
  -7   5  -2    1.56    1.14
  -7  -5   2    0.80    1.66
   7   5   2    3.47    1.60
   7  -5  -2    4.63    1.76
  -7   5  -2    3.29    1.22
   7  -5  -2    5.90    1.91
  -7  -5   2    1.14    1.53
   7  -5   2    3.70    1.45
  -7   5   2    4.14    1.57
   7   5  -2    2.78    1.37
  -7  -5  -2    3.62    1.91
   7   5  -2    2.88    1.09
   7  -5   2    3.55    1.68
  -7  -5  -2    3.90    1.83
  -7  -5   3    1.42    1.64
  -7  -5   3    3.68    1.75
   7  -5  -3    2.67    1.99
  -7  -5   3    4.23    1.96
   7   5   3    3.08    1.75
   7  -5  -3    4.12    1.91
   7  -5   3    2.21    1.52
  -7  -5  -3    3.07    1.94
  -7   5   3    4.33    1.80
   7  -5   3    3.57    1.91
  -7  -5  -3    2.51    2.36
   7  -5  -4   -1.06    2.20
  -7  -5   4    0.24    1.89
  -7  -5   4   -1.25    1.81
   7   5   4    5.34    2.12
  -7   5   4    3.13    2.53
  -7  -5  -4    2.07    2.14
   7  -5   4    1.83    1.73
  -7  -5  -4   -0.01    2.73
  -7   6   0   17.29    2.35
   7  -6   0   12.36    2.24
   7   6   0   17.23    2.27
  -7   6   0   16.21    2.32
  -7  -6   0   16.52    2.49
   7  -6   0   14.59    2.23
  -7  -6   0   10.17    2.38
  -7  -6   1    4.97    2.06
  -7  -6   1    4.32    2.04
   7  -6  -1    6.93    2.29
   7   6   1    3.55    1.95
  -7   6  -1    7.22    1.80
   7  -6  -1    4.69    1.95
   7  -6   1    3.13    1.41
  -7   6   1    4.31    1.99
  -7  -6  -1    3.75    2.13
  -7  -6  -1    7.87    2.40
   7   6  -1    7.45    1.76
   7  -6   1    3.75    1.82
   7  -6  -2   24.64    3.14
  -7  -6   2   22.57    3.31
   7  -6  -2   22.66    3.15
   7   6   2   24.14    3.54
  -7  -6   2   26.95    3.48
   7  -6   2   28.28    3.19
  -7  -6  -2   24.10    3.52
  -7  -6  -2   18.63    3.03
   8   0   0  147.13    6.99
  -8   0   0  161.14    7.03
  -8   0   0  155.37    7.02
   8   0   0  162.57    7.03
  -8   0  -1  239.41   10.72
   8   0  -1  233.41   10.74
  -8   0  -1  237.28   10.75
  -8   0   1  258.12   10.80
  -8   0   1  252.92   10.81
   8   0  -1  239.51   10.77
   8   0   1  258.81   10.76
  -8   0  -1  224.72   10.75
   8   0   1  259.50   10.81
  -8   0  -2  240.34   10.71
  -8   0  -2  237.88   10.89
   8   0  -2  246.80   10.75
   8   0  -2  235.51   10.76
  -8   0   2  246.05   10.84
   8   0   2  265.24   10.82
  -8   0   2  253.91   11.16
   8   0   2  248.82   10.88
  -8   0   2  256.12   10.91
  -8   0  -2  228.90   10.68
   8   0   2  248.00   10.85
  -8   0   3   97.63    4.67
   8   0   3  103.36    4.83
  -8   0   3   98.69    5.23
  -8   0   3  104.84    4.79
   8   0   3  104.19    4.68
   8   0   3   98.54    4.61
  -8   0  -3   91.42    4.84
   8   0   4   61.91    3.05
  -8   0   4   61.65    3.23
  -8   0   4   57.78    3.98
  -8   0   4   61.51    3.13
   8   0   4   56.61    3.02
   8   0   4   57.68    3.46
  -8   0  -4   55.75    3.46
   8   0   5   56.87    3.23
  -8   0   5   62.26    3.40
   8   0   5   57.50    3.97
  -8   0  -5   63.89    4.00
  -8   0   5   62.40    3.54
   8   0   5   63.03    3.33
   8  -1   0  302.10   13.23
   8   1   0  313.20   13.22
  -8  -1   0  297.63   13.33
  -8   1   0  291.60   13.21
  -8   1   0  292.19   13.17
  -8  -1   0  299.65   13.21
  -8  -1   0  287.05   13.20
   8  -1   0  315.05   13.23
   8   1   0  310.42   13.21
  -8   1   0  306.33   13.23
   8   1   1   34.83    2.02
  -8  -1   1   33.79    1.93
   8   1   1   34.91    1.91
  -8  -1   1   35.13    1.90
   8   1   1   34.29    1.94
  -8   1   1   35.88    1.94
  -8   1   1   33.33    2.11
   8  -1   1   34.92    1.90
   8  -1   1   34.41    1.90
  -8   1   1   36.42    2.02
  -8  -1   2  123.71    6.16
   8   1   2  125.72    6.35
   8  -1  -2  144.06    6.19
   8  -1  -2  142.89    6.27
   8   1   2  127.28    6.19
  -8   1  -2  143.98    5.91
  -8   1  -2  151.45    6.05
  -8  -1   2  121.38    6.14
   8   1   2  132.84    6.23
  -8   1   2  124.22    6.27
  -8  -1  -2  150.23    6.21
   8   1  -2  149.51    6.05
  -8   1   2  127.82    6.22
  -8  -1  -2  145.87    6.16
   8   1  -2  147.13    6.03
  -8  -1  -2  145.90    6.45
  -8   1   2  130.16    6.48
   8  -1   2  122.40    6.10
   8  -1   2  127.50    6.12
   8   1   3  170.86    8.15
  -8  -1   3  169.01    7.83
   8  -1  -3  170.00    7.78
  -8   1  -3  176.44    7.81
  -8  -1   3  172.23    8.33
   8  -1  -3  193.77    7.76
   8   1   3  179.93    7.93
  -8  -1   3  178.18    7.84
   8   1   3  184.27    7.90
  -8  -1  -3  174.66    7.66
   8  -1   3  177.24    7.75
  -8   1   3  162.62    7.96
  -8  -1  -3  176.75    7.70
   8  -1   3  169.68    7.77
  -8  -1  -3  179.38    8.23
  -8   1   3  163.84    7.89
   8  -1   3  169.51    7.78
  -8   1   3  170.24    8.37
  -8  -1   4   93.32    5.19
  -8  -1   4   87.69    4.38
  -8  -1   4   93.62    4.45
   8   1   4   85.66    4.94
   8   1   4   95.90    4.52
   8   1   4   91.82    4.48
  -8   1  -4   91.90    4.52
   8  -1   4   89.29    4.46
   8  -1   4   96.17    4.27
   8  -1   4   86.16    4.27
  -8   1   4   89.50    4.51
  -8   1   4   85.84    5.24
  -8  -1  -4   94.32    5.03
  -8   1   4   89.45    4.63
   8   1   5   31.28    2.34
  -8  -1   5   29.84    2.25
   8   1   5   33.69    2.58
   8   1   5   32.17    3.36
  -8  -1   5   32.30    2.43
   8  -1   5   32.72    2.04
  -8   1   5   31.49    2.43
  -8   1   5   34.63    2.85
   8  -1   5   31.15    2.03
   8  -1   5   33.50    2.75
  -8  -1  -5   24.41    3.17
  -8  -2   0   27.94    1.82
  -8   2   0   27.38    1.65
  -8  -2   0   26.82    1.89
   8  -2   0   28.54    1.65
  -8  -2   0   26.70    1.75
   8   2   0   26.64    1.73
   8   2   0   26.88    1.70
  -8   2   0   27.19    1.77
  -8   2   0   27.54    1.78
   8  -2   0   28.00    1.75
   8  -2  -1   37.35    2.17
  -8  -2   1   31.20    2.00
   8   2   1   30.02    2.01
  -8   2  -1   37.35    1.92
   8  -2  -1   38.54    2.12
  -8   2  -1   34.81    1.58
   8  -2  -1   35.67    2.06
  -8   2  -1   35.86    1.95
   8   2   1   32.42    2.21
  -8  -2   1   30.14    1.96
   8   2   1   30.31    1.99
  -8  -2  -1   35.06    2.07
  -8   2   1   31.34    2.10
   8  -2   1   28.88    1.92
   8  -2   1   28.94    1.92
  -8   2   1   31.98    2.14
   8   2  -1   38.48    1.99
  -8   2   1   30.32    2.01
   8   2  -1   36.96    1.94
  -8  -2  -1   35.46    2.29
  -8  -2  -1   37.94    2.11
   8   2   2    4.50    0.90
   8  -2  -2    6.88    0.97
  -8   2  -2    6.58    0.62
   8   2   2    3.95    0.90
   8  -2  -2    6.75    1.02
  -8  -2   2    4.22    0.86
  -8   2  -2    5.48    0.61
   8   2   2    3.37    1.12
  -8  -2   2    3.38    0.83
   8  -2  -2    6.76    1.24
   8   2  -2    5.87    0.67
   8  -2   2    3.39    0.81
  -8  -2  -2    6.06    1.20
   8   2  -2    6.08    0.89
  -8   2   2    4.33    1.26
  -8  -2  -2    6.02    0.97
  -8  -2  -2    7.00    1.03
   8  -2   2    3.19    0.72
  -8   2   2    4.59    1.06
   8   2   3   10.74    1.54
   8  -2  -3    8.22    1.18
   8  -2  -3    9.68    1.70
  -8  -2   3    9.38    1.25
   8   2   3   12.90    2.06
  -8  -2   3    8.67    1.22
   8   2   3   11.79    1.42
   8  -2  -3    7.28    1.08
  -8  -2  -3    8.29    1.13
  -8  -2  -3    7.78    1.06
   8  -2   3    9.86    1.10
  -8   2   3   10.79    1.88
  -8   2   3    9.64    1.41
  -8  -2  -3    7.87    1.58
   8  -2   3    9.07    1.18
  -8  -2   4    7.05    1.08
  -8  -2   4    5.48    1.04
   8   2   4    8.43    1.43
   8  -2  -4    5.88    0.95
   8  -2  -4    5.49    1.02
   8   2   4    7.81    1.88
   8  -2  -4    4.77    1.82
   8   2   4    5.82    1.24
  -8  -2   4   10.40    2.01
  -8  -2  -4    3.63    0.77
  -8  -2  -4    4.27    0.88
   8  -2   4    6.52    0.88
   8  -2   4    6.74    1.02
  -8   2   4    6.21    1.47
   8  -2   4    6.73    0.92
  -8  -2  -4    2.45    1.78
   8   2   5   28.74    2.62
  -8  -2   5   32.90    2.24
   8   2   5   34.45    3.06
   8  -2  -5   34.22    3.90
  -8   2   5   28.73    3.36
  -8  -2  -5   35.46    3.65
   8  -2   5   31.87    2.10
  -8  -3   0    0.22    0.79
   8  -3   0   -0.36    0.83
   8  -3   0   -0.17    0.68
  -8  -3   0    0.75    1.02
  -8   3   0    0.52    0.78
   8   3   0    0.26    0.78
   8   3   0    0.39    0.79
   8  -3   0    0.54    0.83
  -8  -3   0    0.07    0.91
  -8   3   0    0.59    0.68
  -8   3   0    0.02    0.87
  -8   3  -1   44.31    2.18
  -8   3  -1   39.17    2.46
   8   3   1   45.91    2.95
   8   3   1   47.09    2.72
   8   3   1   45.80    2.66
  -8   3  -1   44.11    2.50
   8  -3  -1   44.40    2.70
   8  -3  -1   41.03    2.69
  -8  -3   1   47.67    2.71
   8  -3  -1   39.62    2.65
  -8  -3   1   45.86    2.59
  -8  -3   1   46.47    2.81
  -8   3   1   45.42    2.76
  -8  -3  -1   42.62    2.89
  -8  -3  -1   40.96    2.64
   8  -3   1   48.63    2.64
   8   3  -1   42.05    2.46
  -8  -3  -1   44.51    2.73
  -8   3   1   45.34    2.80
   8   3  -1   44.36    2.52
   8  -3   1   45.62    2.57
  -8   3   1   43.66    2.65
  -8  -3   2    7.41    1.14
   8  -3  -2    6.38    1.25
   8  -3  -2    5.32    1.21
  -8  -3   2    7.53    1.19
  -8   3  -2    6.76    0.88
   8   3   2    7.39    1.24
  -8   3  -2    6.22    0.92
  -8  -3   2    7.89    1.47
   8   3   2    8.58    1.30
   8   3   2    3.76    1.37
   8  -3  -2    7.13    1.36
  -8  -3  -2    6.38    1.32
   8   3  -2    7.09    1.02
  -8   3   2   10.45    1.47
  -8   3   2    6.74    1.53
   8  -3   2    7.50    1.06
   8   3  -2    6.56    0.97
  -8  -3  -2    6.73    1.25
  -8  -3  -2    5.79    1.47
  -8  -3   3    8.55    1.22
   8   3   3    8.46    1.47
  -8  -3   3    7.79    1.27
   8  -3  -3    4.30    1.58
   8   3   3   10.21    1.91
   8  -3  -3    4.77    1.35
   8   3   3    7.40    1.35
   8  -3  -3    5.07    1.29
  -8   3   3    8.78    1.47
   8  -3   3    7.98    1.15
  -8  -3  -3    3.01    1.70
  -8   3   3    9.09    2.08
  -8  -3  -3    4.72    1.27
  -8  -3  -3    4.43    1.38
   8  -3   3    7.51    1.13
  -8   3   3    8.82    1.59
  -8  -3   4    4.29    1.34
   8  -3  -4    6.28    2.00
   8   3   4    3.99    1.39
  -8  -3   4    4.86    1.17
   8   3   4    5.47    1.67
  -8  -3   4    4.16    1.97
   8  -3  -4    4.70    1.42
   8  -3  -4    4.97    1.35
  -8  -3  -4    3.66    1.21
   8  -3   4    4.81    1.05
  -8   3   4    3.36    1.72
  -8  -3  -4    3.39    1.42
  -8  -3  -4    5.53    2.24
   8  -3   4    6.28    1.16
  -8   3   4    4.69    1.45
   8   3   5    7.23    1.75
  -8  -3   5    6.33    1.36
   8  -3  -5    5.95    2.56
  -8  -3  -5    5.84    2.70
   8  -4   0   74.23    3.89
  -8   4   0   78.07    4.11
  -8  -4   0   76.44    4.21
   8   4   0   72.34    4.38
  -8   4   0   69.99    4.07
   8   4   0   76.51    4.05
  -8   4   0   74.25    3.93
   8   4   0   77.42    4.15
   8  -4   0   78.95    4.18
  -8  -4   0   73.37    4.29
   8  -4   0   81.97    4.19
  -8  -4   0   75.78    4.21
   8   4   1  139.35    6.85
  -8  -4   1  134.86    6.54
   8   4   1  127.94    6.47
   8  -4  -1  116.61    6.51
  -8   4  -1  135.06    6.10
   8   4   1  132.39    6.55
  -8  -4   1  134.14    6.68
  -8   4  -1  138.68    6.40
  -8   4  -1  131.86    6.34
   8  -4  -1  132.56    6.56
   8  -4  -1  132.05    6.49
  -8  -4   1  134.17    6.51
   8  -4   1  130.41    6.43
   8  -4   1  132.72    6.07
   8   4  -1  137.09    6.33
  -8   4   1  134.17    6.61
  -8   4   1  144.46    6.56
  -8  -4  -1  128.14    6.53
  -8  -4  -1  127.78    6.59
  -8  -4  -1  128.83    6.78
   8   4  -1  137.86    6.39
   8  -4   1  139.16    6.49
  -8   4   1  135.59    6.61
   8  -4  -2   39.07    2.73
   8   4   2   23.57    2.54
   8  -4  -2   39.14    2.87
  -8   4  -2   38.23    2.04
  -8   4  -2   32.88    2.08
  -8  -4   2   26.68    2.62
   8  -4  -2   40.72    2.92
  -8  -4   2   26.71    2.58
  -8  -4   2   25.66    2.28
   8   4   2   26.10    2.52
  -8  -4  -2   33.85    2.69
   8  -4   2   25.71    2.31
  -8  -4  -2   36.11    3.15
  -8  -4  -2   36.49    2.89
  -8   4   2   26.93    2.99
  -8   4   2   24.39    2.68
   8  -4   2   28.35    2.50
  -8  -4   3   23.46    2.24
   8  -4  -3   22.09    2.74
   8   4   3   22.96    2.40
   8  -4  -3   22.10    3.00
  -8  -4   3   27.29    2.82
   8  -4  -3   20.54    2.59
  -8  -4   3   27.12    2.70
  -8  -4  -3   21.61    2.53
   8  -4   3   26.43    2.22
  -8  -4  -3   20.03    2.81
  -8  -4  -3   20.14    3.22
  -8   4   3   29.57    2.55
   8  -4   3   26.16    2.36
   8  -4  -4   24.13    3.55
   8   4   4   30.17    2.96
  -8  -4   4   30.20    3.12
  -8  -4   4   24.60    2.54
   8  -4  -4   28.00    2.94
   8  -4  -4   24.57    2.98
  -8  -4   4   30.36    3.25
  -8  -4  -4   17.13    3.04
  -8   4   4   31.17    2.88
  -8  -4  -4   21.39    3.16
  -8  -4  -4   18.31    2.71
   8  -4   4   26.93    2.46
  -8   5   0   80.84    4.74
  -8   5   0   87.99    4.71
   8  -5   0   85.44    4.51
  -8  -5   0   85.43    5.06
   8   5   0   81.81    4.61
  -8  -5   0   89.81    4.95
  -8   5   0   87.92    4.78
   8   5   0   83.71    4.71
   8  -5   0   83.41    4.79
   8   5   1   30.46    2.65
   8  -5  -1   26.51    2.97
  -8  -5   1   27.27    2.92
   8  -5  -1   25.99    2.66
  -8   5  -1   22.79    2.12
  -8  -5   1   33.08    3.40
  -8  -5   1   31.02    2.64
  -8   5  -1   22.59    2.59
  -8   5  -1   20.73    2.39
  -8   5   1   28.80    2.68
  -8  -5  -1   24.72    3.15
   8  -5   1   34.30    2.76
   8   5  -1   21.32    2.59
  -8  -5  -1   21.51    2.73
   8  -5   1   30.29    2.03
  -8   5   1   36.24    3.03
   8  -5   1   33.94    2.71
   8   5  -1   23.09    2.34
   8   5   2   68.31    4.12
  -8   5  -2   57.24    3.48
  -8  -5   2   73.94    4.17
   8  -5  -2   60.37    4.19
  -8   5  -2   54.80    3.49
  -8  -5   2   63.40    4.19
  -8  -5   2   73.70    4.16
   8  -5  -2   56.25    4.07
  -8  -5  -2   61.56    4.54
   8  -5   2   72.67    4.15
   8   5  -2   62.31    3.51
   8   5  -2   59.14    3.73
  -8  -5  -2   53.05    4.12
   8  -5   2   76.00    4.04
  -8  -5   3   37.51    3.20
   8  -5  -3   26.28    3.42
  -8  -5   3   34.23    3.38
   8  -5  -3   32.72    3.70
   8   5   3   30.19    3.11
  -8  -5   3   32.27    3.22
   8  -5   3   31.84    3.52
  -8  -5  -3   27.64    3.97
   8  -5   3   32.36    2.86
  -8  -5  -3   29.42    3.36
  -8  -6   0    2.50    2.30
   8   6   0    2.09    1.71
  -8  -6   0    0.01    2.04
   8  -6   0    4.74    1.62
  -8   6   0    4.20    1.98
  -8   6   0    4.65    1.93
   8  -6   0    1.73    1.94
  -8  -6   1   35.17    3.71
   8  -6  -1   31.94    3.28
  -8   6  -1   29.91    3.16
   8  -6  -1   35.56    3.83
  -8  -6   1   34.61    3.62
   8   6   1   34.11    3.27
   8  -6   1   35.63    2.61
  -8  -6  -1   35.75    3.72
   8  -6   1   34.08    3.40
  -8   6   1   32.13    3.63
  -8  -6  -1   33.93    4.05
   8   6  -1   30.69    3.11
   8  -6  -2   19.96    2.77
   8   6   2   16.84    2.54
   8  -6  -2   14.61    2.56
  -8  -6   2   15.19    2.60
  -8  -6   2   14.97    2.52
   8  -6   2   15.52    2.42
  -8  -6  -2   13.24    2.84
  -8   6   2   14.98    2.49
  -8  -6  -2   15.28    2.73
   9   0   0    0.57    0.52
  -9   0   0    0.18    0.51
  -9   0   0    0.08    0.52
   9   0   0    0.13    0.49
   9   0   1   -0.73    0.43
  -9   0  -1   -0.29    0.52
   9   0  -1    0.37    0.56
  -9   0   1   -0.04    0.52
   9   0  -1   -0.42    0.52
   9   0   1    0.00    0.53
  -9   0  -1    0.15    0.57
  -9   0  -1    0.01    0.49
  -9   0   1   -0.13    0.57
   9   0  -2    0.69    0.54
  -9   0  -2    0.69    0.52
   9   0   2   -0.79    0.51
  -9   0   2   -0.11    0.56
  -9   0   2    0.71    0.70
  -9   0   2    1.04    0.90
  -9   0  -2   -0.07    0.44
   9   0  -2    0.28    0.50
   9   0   2    0.14    0.57
   9   0   2   -0.82    0.57
  -9   0  -2   -0.68    0.64
   9   0   3    0.51    0.80
  -9   0   3   -0.43    0.84
  -9   0   3   -0.26    1.25
  -9   0   3    0.49    0.67
   9   0   3    1.02    0.69
  -9   0  -3    0.98    0.87
   9   0  -3    0.59    0.34
   9   0   3    0.61    0.64
  -9   0   4    0.29    0.96
   9   0   4    2.04    0.86
   9   0   4    1.66    1.16
  -9   0  -4    0.81    1.16
  -9   0   4    0.62    1.68
  -9   0   4   -0.14    0.83
   9   0   4   -0.11    0.76
  -9   0   5   -0.53    1.36
   9   0   5    0.08    0.97
   9   0   5    1.01    1.06
  -9   0  -5    1.70    1.57
  -9   0   5   -0.79    1.10
   9   0   5    1.10    1.68
  -9  -1   0   36.55    2.24
  -9   1   0   38.28    2.08
  -9  -1   0   36.70    2.08
  -9  -1   0   36.56    2.06
   9  -1   0   38.75    2.09
   9  -1   0   37.99    2.10
   9   1   0   37.29    2.07
  -9   1   0   37.98    2.11
   9   1   0   37.42    2.05
   9   1   1   46.27    2.54
   9   1   1   44.12    2.62
   9  -1  -1   49.79    2.57
   9   1   1   46.80    2.56
   9  -1  -1   49.96    2.62
  -9  -1   1   45.77    2.56
  -9   1  -1   55.67    2.42
  -9   1  -1   50.90    2.53
  -9  -1   1   49.26    2.56
  -9   1  -1   54.63    2.53
  -9  -1  -1   52.46    2.63
  -9   1   1   49.12    2.57
   9   1  -1   51.60    2.57
  -9   1   1   46.46    2.62
   9  -1   1   48.14    2.54
  -9  -1  -1   48.66    2.56
  -9  -1  -1   51.42    2.76
  -9   1   1   48.74    2.72
   9   1  -1   50.69    2.51
   9  -1   1   46.04    2.53
   9  -1  -2  211.58    9.49
   9   1   2  224.81    9.54
  -9  -1   2  218.01    9.51
  -9   1  -2  207.19    9.33
  -9   1  -2  211.72    9.27
   9  -1  -2  210.17    9.55
   9   1   2  223.29    9.57
  -9   1  -2  213.75    9.27
   9   1   2  208.47    9.64
  -9  -1   2  211.31    9.52
   9   1  -2  210.06    9.37
   9  -1   2  213.24    9.46
  -9  -1  -2  206.44    9.69
   9  -1   2  214.90    9.46
  -9   1   2  224.42    9.57
  -9   1   2  221.16    9.62
  -9  -1  -2  207.01    9.49
  -9  -1  -2  207.54    9.45
  -9   1   2  214.88    9.81
   9   1  -2  204.91    9.34
  -9   1  -3   71.89    3.46
  -9  -1   3   73.25    3.55
   9   1   3   70.01    3.59
   9   1   3   64.14    3.53
   9  -1  -3   72.26    3.49
  -9  -1   3   70.45    3.54
  -9  -1   3   69.52    4.13
   9  -1  -3   75.97    3.42
   9   1   3   72.41    3.92
  -9  -1  -3   71.65    3.33
  -9   1   3   73.69    4.25
   9  -1   3   69.43    3.45
  -9  -1  -3   70.24    3.92
  -9  -1  -3   70.85    3.38
   9  -1   3   67.04    3.41
  -9   1   3   72.61    3.74
   9  -1   3   68.52    3.42
  -9   1   3   69.71    3.59
  -9  -1   4   70.71    4.61
   9   1   4   71.08    3.71
   9   1   4   70.76    3.71
  -9  -1   4   70.87    3.63
  -9  -1   4   69.63    3.69
   9   1   4   69.07    4.17
  -9   1  -4   72.41    3.70
   9  -1   4   66.61    3.46
  -9   1   4   71.19    4.53
   9  -1   4   71.19    3.66
  -9  -1  -4   75.34    4.25
   9  -1   4   73.81    3.54
  -9   1   4   66.75    3.87
  -9   1   4   70.60    3.75
   9   1   5   22.71    3.07
  -9   1  -5   18.95    2.27
   9   1   5   22.03    2.06
   9   1   5   21.56    2.37
  -9  -1   5   16.61    2.21
  -9  -1   5   20.04    2.01
  -9   1   5   23.09    2.62
   9  -1   5   17.13    1.90
   9  -1   5   21.93    2.38
  -9  -1  -5   21.26    2.99
  -9   1   5   23.99    2.24
   9  -1   5   21.09    1.77
  -9   2   0  117.26    5.84
  -9  -2   0  127.80    6.04
  -9  -2   0  125.57    5.86
   9   2   0  132.07    5.85
   9   2   0  138.36    5.88
  -9   2   0  123.48    5.75
  -9  -2   0  122.93    5.85
   9  -2   0  123.30    5.86
  -9   2   0  121.59    5.83
   9  -2  -1  320.64   14.03
  -9  -2   1  309.49   13.93
   9   2   1  302.93   13.96
  -9   2  -1  337.18   13.88
   9   2   1  318.57   13.97
  -9  -2   1  316.39   13.93
   9   2   1  308.30   14.09
  -9   2  -1  321.35   13.90
   9  -2  -1  317.70   14.00
  -9   2  -1  303.87   13.62
   9  -2  -1  331.99   13.99
   9  -2   1  325.31   13.93
  -9  -2  -1  309.33   13.95
  -9   2   1  322.75   14.02
   9   2  -1  332.71   13.89
  -9  -2  -1  309.70   13.96
  -9   2   1  294.76   13.95
   9  -2   1  311.21   13.91
  -9   2   1  286.65   14.00
  -9  -2  -1  327.39   14.16
   9   2  -1  323.93   13.91
  -9   2  -2  150.43    6.61
   9  -2  -2  146.25    7.18
   9  -2  -2  145.95    6.93
  -9  -2   2  147.78    6.89
   9   2   2  152.76    6.98
   9  -2  -2  154.40    7.00
  -9  -2   2  155.82    6.89
   9   2   2  153.09    7.00
  -9   2  -2  146.72    6.63
   9   2   2  152.48    7.20
  -9  -2  -2  152.49    6.93
  -9   2   2  147.31    7.07
   9  -2   2  148.54    6.83
  -9  -2  -2  151.74    7.23
   9   2  -2  150.16    6.69
  -9   2   2  140.67    7.24
   9  -2   2  155.47    6.87
  -9   2   2  150.46    6.97
  -9  -2  -2  148.92    6.94
   9   2  -2  149.19    6.76
   9   2   3  145.06    6.44
  -9  -2   3  133.89    6.27
   9  -2  -3  138.56    6.83
   9  -2  -3  133.90    6.39
   9  -2  -3  131.58    6.31
   9   2   3  135.77    6.79
  -9  -2   3  134.15    6.29
   9   2   3  134.01    6.44
  -9  -2  -3  133.01    6.31
   9  -2   3  129.47    6.19
  -9  -2  -3  136.77    6.81
  -9   2   3  141.13    6.59
  -9  -2  -3  143.31    6.31
   9  -2   3  128.26    6.22
  -9   2   3  131.88    6.91
  -9  -2   4   43.16    2.61
   9   2   4   43.22    2.76
  -9  -2   4   41.59    2.54
   9  -2  -4   42.04    2.50
   9   2   4   46.46    3.51
   9   2   4   45.58    2.91
   9  -2  -4   42.67    2.45
   9  -2  -4   40.98    3.57
  -9  -2   4   42.61    3.59
  -9  -2  -4   44.30    3.50
  -9  -2  -4   39.42    2.33
  -9  -2  -4   40.08    2.27
   9  -2   4   41.38    2.39
  -9   2   4   40.97    3.06
   9  -2   4   40.12    2.14
   9  -2   4   41.79    2.49
   9   2   5   60.70    3.67
  -9  -2   5   59.19    3.32
   9   2   5   58.12    3.96
  -9  -2  -5   61.65    4.70
  -9   2   5   58.51    4.12
  -9   2   5   54.20    3.69
   9  -2   5   58.27    3.18
   9  -3   0  144.38    6.79
  -9  -3   0  143.36    6.80
  -9   3   0  148.42    6.78
   9   3   0  155.35    6.78
  -9   3   0  138.73    6.72
  -9  -3   0  147.70    6.99
   9  -3   0  141.25    6.61
   9  -3   0  139.76    6.78
  -9   3   0  142.38    6.63
   9   3   0  144.70    6.77
  -9  -3   0  140.32    6.77
  -9  -3   1   66.31    3.45
  -9  -3   1   65.26    3.63
   9   3   1   65.97    3.76
  -9  -3   1   64.42    3.40
   9  -3  -1   60.26    3.47
  -9   3  -1   63.75    2.97
   9   3   1   65.15    3.46
   9   3   1   60.99    3.47
  -9   3  -1   65.55    3.34
   9  -3  -1   57.00    3.43
  -9   3  -1   64.46    3.31
   9  -3  -1   58.54    3.48
  -9  -3  -1   61.08    3.47
   9  -3   1   67.08    3.41
  -9  -3  -1   63.23    3.53
  -9   3   1   63.94    3.56
   9   3  -1   65.06    3.30
  -9  -3  -1   65.22    3.76
  -9   3   1   59.68    3.42
   9   3  -1   61.72    3.31
  -9   3   1   63.70    3.55
   9  -3   1   68.28    3.39
  -9  -3   2  119.74    5.69
   9   3   2  116.59    6.08
   9  -3  -2  127.81    5.81
  -9   3  -2  126.30    5.40
  -9   3  -2  105.16    5.42
   9   3   2  120.59    5.82
  -9  -3   2  123.33    5.72
   9   3   2  117.57    5.82
   9  -3  -2  117.79    5.98
   9  -3  -2  114.74    5.85
   9  -3   2  118.05    5.63
   9   3  -2  117.35    5.53
  -9  -3  -2  115.94    6.12
   9   3  -2  118.40    5.43
  -9  -3  -2  117.62    5.80
  -9   3   2  114.91    6.07
  -9   3   2  116.38    5.92
  -9   3   2  122.58    5.82
  -9  -3  -2  118.13    5.84
   9   3   3  102.53    5.84
   9   3   3  106.32    5.53
  -9  -3   3  105.13    5.28
   9   3   3  104.69    5.45
   9  -3  -3  108.27    5.43
   9  -3  -3  112.66    5.91
  -9  -3   3  111.65    5.34
   9  -3  -3  108.05    5.49
  -9  -3  -3  108.57    5.46
  -9   3   3  107.10    5.63
   9  -3   3  109.85    5.24
  -9  -3  -3  113.97    5.44
   9  -3   3  105.82    5.19
  -9  -3  -3  116.44    6.05
  -9   3   3  101.17    5.94
  -9  -3   4   53.62    4.18
   9  -3  -4   49.99    3.25
  -9  -3   4   53.85    3.07
   9   3   4   48.77    3.41
  -9  -3   4   54.37    3.29
   9  -3  -4   50.44    3.33
   9   3   4   53.05    3.59
   9  -3  -4   51.03    4.07
   9  -3   4   49.31    2.98
  -9  -3  -4   53.31    3.10
  -9  -3  -4   53.87    4.32
   9  -3   4   52.72    2.99
  -9  -3  -4   47.57    3.32
  -9   3   4   52.71    3.64
   9  -3  -5   15.12    3.13
  -9  -3   5   15.79    1.75
   9   3   5   13.87    2.15
  -9  -3  -5   10.70    2.93
   9   4   0    1.40    1.10
  -9   4   0    0.74    1.22
   9  -4   0    1.73    0.98
  -9   4   0    2.89    1.00
  -9  -4   0    0.69    1.20
  -9  -4   0    1.26    1.37
   9  -4   0    2.79    1.23
  -9  -4   0    2.75    1.34
   9  -4   0    1.47    1.21
  -9   4   0    2.44    1.19
   9   4   0    2.00    1.22
  -9   4  -1   29.05    2.20
   9   4   1   22.45    2.17
  -9   4  -1   28.45    1.69
  -9  -4   1   23.19    2.44
   9   4   1   21.81    2.81
  -9   4  -1   26.88    2.11
   9  -4  -1   25.17    2.41
   9  -4  -1   30.20    2.34
   9  -4  -1   29.34    2.42
  -9  -4   1   20.12    2.26
  -9  -4   1   24.75    2.52
   9   4   1   20.76    2.36
   9  -4   1   20.38    2.24
  -9   4   1   19.83    2.52
   9  -4   1   22.71    1.61
  -9  -4  -1   26.27    2.37
   9   4  -1   28.65    2.09
   9   4  -1   28.55    2.20
   9  -4   1   22.29    2.27
  -9   4   1   23.78    2.29
  -9  -4  -1   30.98    2.72
  -9   4   1   25.66    2.46
  -9  -4  -1   29.77    2.62
   9   4   2   27.27    2.48
  -9  -4   2   28.83    2.36
   9  -4  -2   25.17    2.62
  -9   4  -2   27.76    2.03
  -9  -4   2   27.88    2.73
   9  -4  -2   31.91    2.78
   9   4   2   26.61    2.56
  -9   4  -2   32.72    2.00
   9  -4  -2   35.70    2.86
  -9  -4   2   26.63    2.71
  -9  -4  -2   34.53    2.85
  -9   4   2   27.35    2.71
   9  -4   2   28.82    2.37
   9   4  -2   32.68    2.25
  -9  -4  -2   26.36    2.84
   9  -4   2   26.08    2.45
  -9   4   2   29.19    3.00
   9   4  -2   31.82    2.04
  -9  -4  -2   30.88    3.07
   9  -4  -3   52.41    3.74
   9   4   3   52.25    3.55
   9  -4  -3   57.59    4.09
  -9  -4   3   54.70    3.84
   9  -4  -3   59.33    3.73
  -9  -4   3   50.85    3.60
  -9  -4   3   47.03    3.34
  -9  -4  -3   59.54    4.37
  -9  -4  -3   60.22    3.91
   9  -4   3   56.31    3.51
   9  -4   3   53.64    3.33
  -9  -4  -3   58.96    3.66
   9  -4  -4   14.88    2.14
  -9  -4   4   13.32    2.30
   9   4   4   15.87    2.17
   9  -4  -4   12.68    2.08
  -9  -4   4   11.97    1.87
   9  -4  -4   14.14    2.73
   9  -4   4   12.99    1.74
  -9  -4  -4   15.76    3.00
  -9  -4  -4   14.65    1.99
  -9  -4  -4   13.26    2.25
  -9  -5   0    0.75    1.67
  -9   5   0    1.52    1.40
   9   5   0    1.99    1.33
  -9   5   0    2.35    1.43
  -9   5   0   -1.60    1.32
   9  -5   0    0.62    1.16
  -9  -5   0    2.53    1.60
   9  -5   0    0.85    1.49
   9  -5  -1    0.80    1.57
  -9   5  -1    1.25    1.31
  -9   5  -1    1.24    1.50
  -9  -5   1    1.87    1.69
  -9  -5   1    1.08    1.60
   9   5   1    2.39    1.47
  -9   5  -1    1.98    1.12
   9  -5  -1    3.87    1.48
  -9  -5  -1    3.87    1.91
  -9   5   1    0.37    1.47
   9  -5   1    0.36    2.20
   9   5  -1    1.48    1.48
  -9  -5  -1    1.81    1.71
  -9   5   1    0.79    1.64
   9  -5   1   -0.21    0.96
   9   5  -1    1.22    1.27
   9  -5   1    2.03    1.40
  -9   5  -2    9.99    1.51
  -9  -5   2    8.70    2.14
   9   5   2    9.23    1.88
  -9  -5   2    9.55    2.01
  -9  -5   2    9.54    1.92
   9  -5  -2    9.86    1.94
  -9   5  -2   10.33    1.50
   9  -5  -2   11.00    2.01
  -9  -5  -2    9.58    2.12
   9  -5   2    7.38    1.89
   9  -5   2    9.92    1.81
  -9  -5  -2   10.97    2.45
   9   5  -2    9.41    1.69
   9   5  -2   12.74    1.76
  -9   5   2    5.37    1.74
   9   5   3    1.30    1.72
   9  -5  -3   -0.40    1.92
   9  -5  -3    4.88    2.21
  -9  -5   3    0.68    2.48
  -9  -5   3    2.44    1.82
  -9  -5   3   -1.65    1.75
  -9  -5  -3   -0.79    1.81
   9  -5   3   -0.18    1.53
  -9  -5  -3    1.37    2.29
   9  -5   3    1.12    1.93
   9  -6   0   31.95    3.43
  -9  -6   0   31.42    3.50
  -9   6   0   28.97    3.12
  -9  -6   0   30.18    3.76
   9  -6   0   34.05    2.91
   9   6   0   32.42    3.06
   9  -6  -1   14.50    2.49
  -9   6  -1    9.95    2.07
  -9  -6   1   13.22    2.50
  -9  -6   1    9.79    2.42
   9   6   1   15.13    2.37
   9  -6  -1   10.39    2.12
  -9   6   1   16.85    2.37
  -9  -6  -1    8.80    2.51
   9   6  -1   12.36    2.02
   9  -6   1   13.56    2.35
  -9  -6  -1   13.68    2.80
  -9  -6   2    2.88    2.31
   9  -6  -2    3.69    2.12
  -9  -6   2    5.76    2.28
   9   6   2    3.51    2.06
   9  -6  -2    4.70    2.32
  -9  -6  -2    3.92    2.66
  -9   6   2    3.48    2.02
  -9  -6  -2    5.56    2.37
   9  -6   2    4.03    2.04
 -10   0   0  137.19    6.33
 -10   0   0  133.53    6.32
  10   0   0  146.02    6.35
  10   0   0  137.00    6.34
  10   0   1  158.40    7.25
  10   0  -1  167.83    7.30
  10   0  -1  166.08    7.28
 -10   0  -1  164.10    7.28
 -10   0   1  144.18    7.25
  10   0   1  144.76    7.26
 -10   0   1  162.51    7.32
 -10   0  -1  165.11    7.24
 -10   0  -1  173.52    7.31
 -10   0  -2  163.72    7.08
 -10   0   2  146.65    7.03
 -10   0  -2  166.29    6.90
  10   0   2  147.73    6.97
 -10   0   2  152.07    7.09
  10   0  -2  170.77    7.01
 -10   0  -2  163.70    6.94
 -10   0   2  149.88    7.36
  10   0   2  147.76    7.03
  10   0   2  136.94    6.99
  10   0   3  162.99    7.02
 -10   0  -3  152.93    7.18
  10   0  -3  155.82    6.78
  10   0  -3  134.77    6.77
 -10   0   3  162.70    7.19
 -10   0   3  154.87    7.07
 -10   0   3  158.12    7.62
  10   0   3  156.41    7.07
  10   0   3  150.83    7.12
  10   0   4   94.85    4.46
  10   0   4   89.94    4.76
 -10   0  -4   96.40    4.86
 -10   0   4   86.68    5.29
 -10   0   4   89.82    4.55
  10   0   4   91.77    4.48
 -10   0   4   90.00    4.66
  10   0   5   56.26    3.18
  10   0   5   54.14    3.89
 -10   0   5   55.53    3.39
 -10   0  -5   54.76    3.76
  10   0   5   61.35    3.35
 -10   0   5   57.50    3.59
 -10  -1   0   60.76    3.26
 -10  -1   0   68.54    3.33
  10  -1   0   68.86    3.31
 -10  -1   0   61.90    3.44
  10  -1   0   67.04    3.33
 -10   1   0   68.68    3.33
  10   1   0   67.06    3.29
 -10   1   0   64.98    3.29
  10   1   0   66.75    3.28
 -10   1  -1  106.20    4.93
  10   1   1  111.27    5.09
  10   1   1  100.07    5.03
 -10  -1   1  105.65    5.07
 -10  -1   1  106.28    5.07
  10   1   1  105.10    5.15
  10  -1  -1  114.74    5.13
 -10   1  -1  113.54    5.02
 -10   1  -1  108.51    5.03
  10  -1  -1  108.93    5.08
 -10  -1  -1  111.74    5.10
 -10  -1  -1  106.85    5.22
 -10  -1  -1  110.72    5.05
 -10   1   1   98.41    5.05
  10   1  -1  111.69    5.02
 -10   1   1  113.43    5.24
  10  -1   1  110.73    5.07
  10  -1   1  102.38    5.04
  10   1  -1  108.26    5.06
 -10   1   1  107.22    5.14
 -10   1  -2  242.27   10.47
  10   1   2  233.77   10.71
 -10   1  -2  252.09   10.51
 -10   1  -2  253.69   10.48
  10   1   2  221.74   10.78
  10  -1  -2  253.21   10.69
  10  -1  -2  242.10   10.73
 -10  -1   2  244.86   10.69
 -10  -1   2  230.75   10.69
  10   1   2  225.35   10.66
  10   1  -2  248.26   10.58
 -10   1   2  244.76   10.79
 -10  -1  -2  263.33   10.71
  10   1  -2  245.76   10.55
 -10   1   2  241.14   10.72
  10  -1   2  215.24   10.60
 -10  -1  -2  236.73   10.85
 -10   1   2  234.34   10.97
  10  -1   2  233.17   10.64
 -10  -1  -2  234.87   10.62
  10   1   3   39.03    2.26
  10   1   3   37.78    2.22
 -10   1  -3   35.99    2.08
 -10  -1   3   34.62    2.18
  10  -1  -3   33.82    2.13
  10   1   3   36.83    2.61
 -10  -1   3   37.07    2.25
  10  -1  -3   33.00    2.02
 -10  -1   3   37.75    2.93
  10  -1   3   35.86    2.11
  10  -1   3   36.03    2.09
 -10  -1  -3   34.16    2.04
 -10  -1  -3   34.93    2.59
 -10   1   3   43.84    3.04
 -10   1   3   34.00    2.26
  10  -1   3   34.45    2.00
 -10  -1  -3   32.47    1.95
 -10   1   3   38.58    2.50
  10   1   4   64.44    3.53
 -10  -1   4   65.31    3.55
 -10   1  -4   70.86    3.50
 -10  -1   4   63.67    3.46
  10   1   4   60.78    3.98
  10   1   4   68.44    3.56
 -10  -1   4   62.32    4.42
  10  -1   4   65.69    3.43
 -10   1   4   62.84    3.58
 -10   1   4   64.06    3.69
 -10  -1  -4   69.77    4.07
  10  -1   4   65.77    3.34
  10  -1   4   60.64    3.34
 -10   1  -5   34.95    2.69
  10   1   5   37.15    2.94
  10   1   5   33.22    2.53
 -10  -1   5   35.24    2.57
 -10  -1   5   33.78    2.76
  10  -1   5   33.59    2.73
 -10   1   5   35.06    3.13
 -10   1   5   35.11    2.76
 -10  -1  -5   36.01    3.46
  10  -1   5   30.57    2.28
  10   2   0    6.94    0.97
 -10   2   0    6.74    1.02
  10   2   0    5.93    0.93
 -10  -2   0    5.95    1.13
 -10  -2   0    6.01    0.96
 -10   2   0    5.91    0.87
 -10   2   0    3.79    0.84
  10  -2   0    4.27    0.88
 -10  -2   0    5.51    0.98
  10  -2   0    4.84    0.91
 -10  -2   1   18.19    1.50
 -10   2  -1   17.53    1.44
  10   2   1   15.91    1.72
  10   2   1   17.74    1.52
  10   2   1   18.06    1.55
 -10   2  -1   17.63    1.07
 -10  -2   1   18.54    1.54
 -10   2  -1   17.96    1.45
  10  -2  -1   18.09    1.57
  10  -2  -1   17.48    1.58
  10  -2   1   17.70    1.51
 -10  -2  -1   15.80    1.60
 -10  -2  -1   16.39    1.51
 -10   2   1   21.43    1.68
  10  -2   1   17.50    1.48
 -10   2   1   19.58    1.70
  10   2  -1   13.08    1.39
 -10   2   1   19.52    1.56
 -10  -2  -1   19.24    1.87
  10   2  -1   16.74    1.41
  10  -2  -2   72.78    3.48
 -10  -2   2   61.56    3.35
 -10   2  -2   64.43    3.12
 -10   2  -2   67.37    3.08
  10  -2  -2   67.02    3.70
  10   2   2   61.84    3.42
  10   2   2   65.22    3.69
 -10  -2   2   59.29    3.33
  10   2   2   62.08    3.46
  10  -2  -2   71.33    3.51
  10  -2   2   60.78    3.29
  10   2  -2   66.10    3.17
  10   2  -2   67.37    3.27
 -10   2   2   61.14    3.42
 -10  -2  -2   69.30    3.49
 -10   2   2   60.53    3.85
 -10   2   2   63.55    3.63
 -10  -2  -2   67.82    3.42
  10  -2   2   63.80    3.34
 -10  -2  -2   67.25    3.75
  10  -2  -3   26.48    2.10
  10   2   3   27.91    2.61
  10   2   3   22.33    2.02
  10  -2  -3   30.53    2.66
  10   2   3   25.39    2.08
  10  -2  -3   26.95    1.98
 -10  -2   3   23.36    1.87
 -10  -2   3   24.64    1.91
 -10   2   3   24.25    2.10
  10  -2   3   25.26    1.78
 -10   2   3   26.07    2.78
 -10  -2  -3   28.12    2.56
  10  -2   3   25.49    1.89
 -10  -2  -3   25.76    1.92
 -10  -2  -3   27.86    2.04
 -10   2   3   29.70    2.45
 -10  -2   4   30.77    2.27
 -10  -2   4   29.75    3.30
  10  -2  -4   28.80    2.16
  10   2   4   36.15    2.61
  10   2   4   31.99    3.13
 -10  -2   4   32.17    2.23
  10  -2  -4   29.74    2.10
  10   2   4   28.92    2.39
  10  -2  -4   33.77    3.25
 -10  -2  -4   28.61    1.89
 -10  -2  -4   34.33    3.30
  10  -2   4   30.44    2.16
 -10   2   4   32.08    2.49
 -10   2   4   29.35    2.80
 -10  -2  -4   29.90    2.03
  10  -2   4   31.04    2.06
 -10  -2   5   12.38    1.58
  10   2   5   13.04    2.06
  10   2   5   12.28    1.73
 -10  -2  -5    8.26    2.53
 -10   2   5   10.87    1.81
 -10   2   5   11.77    2.21
  10  -2   5   11.96    1.43
 -10  -3   0    6.94    1.39
 -10   3   0    5.53    1.11
  10  -3   0    3.71    0.90
  10  -3   0    5.99    1.12
 -10   3   0    6.92    1.02
 -10  -3   0    5.66    1.18
  10   3   0    5.63    1.08
 -10  -3   0    5.98    1.25
 -10   3   0    5.60    1.18
  10   3   0    5.75    1.12
  10  -3   0    4.00    1.11
 -10   3  -1   13.32    1.46
  10  -3  -1   12.86    1.65
 -10  -3   1    9.85    1.59
 -10  -3   1    9.83    1.35
 -10   3  -1   11.26    0.91
 -10  -3   1    7.56    1.23
  10   3   1   10.61    1.66
  10   3   1    8.72    1.32
  10   3   1   10.10    1.42
 -10   3  -1   10.70    1.42
  10  -3  -1   11.80    1.65
  10  -3  -1   10.21    1.56
 -10  -3  -1   11.98    1.47
 -10   3   1    9.10    1.43
  10   3  -1   10.55    1.46
 -10  -3  -1   12.33    1.96
  10   3  -1   11.29    1.32
 -10   3   1    9.41    1.46
 -10  -3  -1   13.99    1.60
  10  -3   1    8.84    1.21
 -10   3   1    9.56    1.34
  10  -3  -2    7.00    1.44
 -10   3  -2    6.66    0.97
  10   3   2    7.26    1.66
 -10  -3   2    5.41    1.22
  10   3   2    5.52    1.30
  10   3   2    4.59    1.20
 -10  -3   2    4.81    1.10
 -10   3  -2    5.33    0.84
  10  -3  -2    4.49    1.26
  10  -3  -2    4.73    1.28
  10   3  -2    5.94    0.90
 -10  -3  -2    6.26    1.31
  10  -3   2    4.98    1.14
 -10  -3  -2    5.39    1.40
 -10   3   2    6.60    1.60
  10  -3   2    5.09    1.02
 -10   3   2    5.63    1.24
 -10  -3  -2    6.15    1.63
 -10   3   2    6.81    1.51
  10   3  -2    6.01    1.03
  10   3   3   17.75    1.99
  10   3   3   23.32    2.28
 -10  -3   3   17.37    2.05
  10  -3  -3   22.26    2.20
  10  -3  -3   26.18    2.69
 -10  -3   3   16.69    1.89
  10   3   3   17.69    2.57
  10  -3  -3   21.93    2.20
 -10  -3  -3   22.18    2.75
  10  -3   3   18.18    1.74
 -10  -3  -3   22.46    2.09
 -10  -3  -3   22.05    2.32
 -10   3   3   17.30    2.17
 -10   3   3   19.69    2.18
 -10   3   3   17.29    2.42
  10  -3   3   14.94    1.86
  10  -3  -4    8.37    1.59
 -10  -3   4    7.34    2.16
  10  -3  -4    7.88    1.54
 -10  -3   4    9.17    1.41
  10   3   4    4.18    1.60
  10  -3  -4    7.49    2.10
 -10  -3   4    6.54    1.57
  10   3   4    4.76    1.54
  10  -3   4    6.42    1.29
 -10  -3  -4    5.30    2.20
  10  -3   4    7.67    1.35
 -10  -3  -4    6.91    1.29
 -10   3   4    8.50    1.67
 -10  -3  -4    6.91    1.66
 -10  -3   5    2.83    1.47
  10  -3  -5    2.20    2.52
  10   3   5    3.58    1.78
 -10   3   5    2.09    1.72
 -10  -3  -5    0.77    2.48
 -10  -4   0  106.69    5.64
 -10   4   0  102.26    5.33
  10  -4   0  101.49    5.37
  10   4   0  105.38    5.29
  10  -4   0  101.53    5.11
 -10  -4   0  109.35    5.48
 -10   4   0  104.90    5.42
 -10   4   0  107.99    5.17
 -10  -4   0   99.37    5.47
  10   4   0  107.80    5.34
  10  -4   0  106.47    5.46
  10  -4  -1   96.13    4.98
  10   4   1   95.36    5.02
 -10  -4   1   84.41    4.94
  10  -4  -1   97.35    5.11
 -10   4  -1  105.75    4.47
 -10   4  -1   89.49    4.77
  10   4   1   97.18    5.08
 -10  -4   1   97.10    5.20
 -10  -4   1   92.31    5.01
  10  -4  -1   96.77    5.04
  10   4   1   90.25    5.32
 -10   4  -1  102.48    4.85
 -10   4   1   91.43    5.15
  10  -4   1   94.30    4.96
  10  -4   1   85.56    4.90
 -10  -4  -1   94.50    5.03
 -10  -4  -1   96.37    5.10
 -10   4   1   89.55    5.04
 -10   4   1   93.24    4.98
  10   4  -1   98.54    4.81
 -10  -4  -1   88.76    5.30
  10   4  -1   99.96    4.90
 -10   4  -2   50.49    3.03
  10   4   2   60.93    3.56
 -10  -4   2   62.61    3.52
  10  -4  -2   44.63    3.47
  10  -4  -2   54.80    3.70
 -10   4  -2   49.20    2.98
 -10  -4   2   60.64    3.78
 -10  -4   2   63.15    3.64
  10   4   2   54.58    3.48
  10  -4  -2   53.76    3.60
 -10   4   2   58.66    3.63
 -10   4   2   60.02    3.54
 -10  -4  -2   50.74    3.63
  10  -4   2   63.07    3.39
 -10  -4  -2   48.90    3.60
  10   4  -2   51.37    3.23
  10  -4   2   62.55    3.52
 -10  -4  -2   48.81    4.00
  10   4  -2   52.49    3.01
 -10   4   2   54.45    3.91
  10  -4  -3   45.21    3.67
 -10  -4   3   42.08    3.46
 -10  -4   3   39.94    3.04
  10  -4  -3   44.76    3.25
  10   4   3   43.61    3.32
 -10  -4   3   44.52    3.62
  10  -4   3   45.42    3.12
  10  -4   3   41.63    2.95
 -10   4   3   43.86    3.22
 -10  -4  -3   44.26    3.97
 -10  -4  -3   45.43    3.30
 -10  -4  -3   47.73    3.47
  10  -4  -4    7.50    2.33
  10  -4  -4   11.51    2.11
  10   4   4    8.35    1.92
 -10  -4   4    8.55    2.41
 -10  -4   4    8.30    1.73
 -10  -4  -4    6.17    2.85
 -10  -4  -4    9.69    1.88
  10  -4   4    8.67    1.60
 -10  -4  -4   10.04    2.29
 -10   5   0   40.86    2.98
 -10  -5   0   42.30    3.48
  10   5   0   35.45    3.07
  10  -5   0   41.97    2.85
 -10   5   0   37.77    3.14
  10  -5   0   37.99    3.28
 -10  -5   0   41.74    3.22
 -10  -5   1   71.93    4.58
  10  -5  -1   71.31    4.57
 -10   5  -1   73.97    4.43
 -10   5  -1   69.55    4.31
 -10  -5   1   71.31    4.73
 -10   5  -1   82.33    3.89
  10  -5  -1   76.67    4.46
  10   5   1   74.51    4.42
  10  -5   1   74.06    4.39
  10  -5   1   74.14    3.78
 -10   5   1   72.17    4.59
 -10   5   1   75.73    4.46
  10   5  -1   76.20    4.22
  10   5  -1   81.26    4.53
 -10  -5  -1   72.67    4.56
 -10  -5  -1   73.56    4.86
 -10  -5   2   75.89    4.48
 -10   5  -2   62.78    3.64
  10  -5  -2   64.79    4.45
  10  -5  -2   65.66    4.31
 -10  -5   2   65.22    4.18
 -10   5  -2   62.02    3.65
  10   5   2   58.91    4.24
  10  -5   2   62.93    4.09
 -10   5   2   60.95    4.15
  10  -5   2   66.20    4.72
  10   5  -2   64.68    3.62
  10   5  -2   64.86    3.91
 -10  -5  -2   58.97    4.25
 -10  -5  -2   59.56    4.72
  10  -5  -3   28.44    3.25
 -10  -5   3   31.70    3.12
 -10  -5   3   28.82    3.41
  10  -5  -3   31.72    3.86
  10   5   3   25.37    3.05
 -10   5   3   29.98    3.35
 -10  -5  -3   27.12    4.09
  10  -5   3   33.38    3.18
 -10  -5  -3   25.77    3.41
  10  -5   3   31.68    3.07
  10  -6   0   12.79    2.04
  10  -6   0   14.45    2.46
 -10   6   0   11.62    2.24
 -10  -6   0   10.55    2.52
  10   6   0   15.24    2.25
 -10  -6   0   13.53    2.71
  10  -6  -1   25.72    3.29
  10   6   1   15.72    2.55
 -10  -6   1   22.10    2.85
 -10   6  -1   22.95    3.17
 -10  -6   1   17.58    2.77
  10  -6  -1   20.52    3.09
  10   6  -1   20.22    2.81
  10  -6   1   22.48    3.23
 -10  -6  -1   19.98    3.02
 -10  -6  -1   24.98    3.29
 -10   6   1   20.81    3.04
 -10  -6   2   12.09    2.44
  10  -6  -2    7.60    2.46
  10   6   2    8.74    2.24
 -10  -6   2    9.49    2.52
  10  -6  -2    8.90    2.51
  10  -6   2   10.64    2.27
 -10  -6  -2    8.86    2.56
 -10  -6  -2   14.71    3.23
 -10   6   2    9.21    2.49
 -11   0   0    0.56    0.62
  11   0   0    0.91    0.66
  11   0   0    0.87    0.66
 -11   0   0    1.37    0.68
  11   0   1   -0.07    0.59
 -11   0   1    0.35    0.71
 -11   0  -1    0.14    0.68
  11   0  -1    0.37    0.65
  11   0   1    0.80    0.65
 -11   0  -1    0.17    0.66
 -11   0  -1    0.78    0.63
  11   0  -1   -0.01    0.63
 -11   0   1   -0.19    0.63
  11   0   2   -0.96    0.60
 -11   0   2    0.85    0.79
 -11   0  -2   -0.10    0.71
 -11   0   2    0.54    1.14
 -11   0  -2   -0.19    0.65
 -11   0  -2    0.69    0.61
  11   0  -2    0.20    0.64
  11   0   2    0.02    0.61
  11   0   2    1.19    0.71
 -11   0   2   -0.51    0.65
 -11   0   3   -0.22    1.41
  11   0   3    1.35    0.82
  11   0  -3   -0.08    0.54
  11   0   3   -1.08    0.81
 -11   0   3    1.20    0.99
  11   0  -3    0.66    0.57
 -11   0  -3    0.50    0.94
  11   0   3    0.18    0.73
 -11   0   3    0.45    0.77
  11   0   4   -0.57    0.87
  11   0   4    0.08    0.92
 -11   0   4   -0.74    1.54
 -11   0   4    0.00    0.95
 -11   0   4    1.22    1.21
  11   0   4    1.17    1.22
 -11   0  -4    0.54    1.17
  11   0   5    0.14    1.11
  11   0   5    1.27    1.27
  11   0   5   -1.57    1.67
 -11   0   5    0.75    1.60
 -11   0   5    0.69    1.26
 -11   0  -5    1.39    1.50
  11   1   0   18.64    1.42
  11   1   0   18.28    1.42
 -11   1   0   18.27    1.44
  11  -1   0   16.77    1.45
 -11   1   0   17.93    1.50
  11  -1   0   19.88    1.52
 -11  -1   0   18.86    1.48
 -11  -1   0   18.46    1.46
 -11  -1   0   18.98    1.69
  11   1   1   68.97    3.65
  11  -1  -1   73.75    3.67
 -11  -1   1   73.24    3.66
  11   1   1   69.43    3.61
 -11   1  -1   77.49    3.64
 -11   1  -1   71.77    3.53
  11  -1  -1   73.42    3.70
 -11   1  -1   74.36    3.61
 -11  -1   1   73.73    3.68
 -11  -1  -1   66.07    3.63
 -11   1   1   73.28    3.84
  11  -1   1   78.09    3.69
  11   1  -1   75.81    3.66
  11  -1   1   73.44    3.66
 -11   1   1   75.07    3.68
 -11  -1  -1   73.13    3.63
 -11   1   1   73.66    3.74
 -11  -1  -1   72.78    3.84
  11   1  -1   75.82    3.61
  11   1   2   77.55    3.87
  11  -1  -2   74.58    3.81
  11  -1  -2   73.02    3.88
 -11   1  -2   73.12    3.62
 -11   1  -2   73.23    3.61
 -11  -1   2   84.69    3.89
 -11  -1   2   81.29    3.87
  11   1   2   76.27    3.99
 -11   1  -2   72.71    3.62
  11   1   2   85.56    3.85
  11   1  -2   76.13    3.72
 -11  -1  -2   71.13    4.03
 -11   1   2   81.25    4.00
 -11  -1  -2   71.79    3.75
 -11   1   2   77.57    4.27
 -11   1   2   82.45    3.90
  11  -1   2   81.97    3.83
  11   1  -2   72.94    3.68
  11  -1   2   83.97    3.82
 -11  -1  -2   71.93    3.82
  11  -1  -3   34.10    1.93
  11  -1  -3   33.24    2.04
 -11  -1   3   30.00    2.86
  11   1   3   33.92    2.13
 -11  -1   3   26.47    2.09
  11   1   3   29.97    2.44
 -11  -1   3   28.20    2.05
  11   1   3   30.16    2.12
 -11   1  -3   31.21    1.92
 -11   1   3   30.14    2.85
 -11   1   3   30.92    2.38
 -11  -1  -3   33.08    1.97
  11  -1   3   31.36    1.98
  11  -1   3   29.41    1.85
 -11   1   3   31.31    2.13
 -11  -1  -3   30.55    1.84
  11  -1   3   28.29    2.00
 -11  -1  -3   32.05    2.41
  11   1   4   35.74    3.02
 -11  -1   4   33.63    2.41
 -11  -1   4   33.74    3.39
 -11   1  -4   36.12    2.32
 -11  -1   4   35.31    2.54
  11   1   4   35.88    2.52
  11   1   4   32.28    2.43
  11  -1   4   35.16    2.26
 -11  -1  -4   40.12    3.08
 -11   1   4   38.63    2.54
  11  -1   4   33.32    2.25
  11  -1   4   32.75    2.27
 -11   1   4   36.30    2.78
 -11  -1   5   19.47    2.17
 -11  -1   5   17.93    2.26
  11   1   5   13.53    1.72
 -11   1  -5   13.10    2.13
  11   1   5   18.60    2.10
  11  -1   5   15.16    1.84
 -11   1   5   14.89    2.25
 -11  -1  -5   14.00    2.47
 -11   1   5   15.97    2.32
  11  -2   0  163.75    7.47
 -11   2   0  158.19    7.35
  11   2   0  160.50    7.45
 -11   2   0  159.90    7.46
 -11   2   0  169.76    7.52
  11   2   0  163.46    7.44
 -11  -2   0  159.88    7.47
 -11  -2   0  161.80    7.67
 -11  -2   0  160.09    7.47
  11  -2   0  163.74    7.49
  11   2   1  156.51    7.47
 -11  -2   1  157.63    7.44
 -11  -2   1  155.59    7.45
 -11   2  -1  165.59    7.41
 -11   2  -1  161.15    7.13
  11   2   1  153.82    7.61
  11  -2  -1  171.80    7.54
  11   2   1  155.49    7.44
 -11   2  -1  151.43    7.34
  11  -2  -1  169.48    7.50
  11   2  -1  177.36    7.45
 -11  -2  -1  166.44    7.72
  11  -2   1  151.96    7.41
 -11  -2  -1  175.98    7.52
 -11   2   1  147.10    7.44
  11  -2   1  165.34    7.45
  11   2  -1  170.78    7.41
 -11  -2  -1  167.62    7.48
 -11   2   1  157.86    7.54
 -11   2   1  154.85    7.54
  11  -2  -2   62.22    3.63
 -11   2  -2   60.83    3.33
  11   2   2   73.69    3.70
  11   2   2   72.99    3.95
  11  -2  -2   60.28    3.67
 -11  -2   2   76.88    3.64
 -11   2  -2   65.98    3.31
 -11  -2   2   76.07    3.63
  11   2   2   75.54    3.73
 -11  -2  -2   67.20    3.63
 -11   2   2   78.52    3.76
 -11   2   2   72.54    3.85
 -11  -2  -2   67.54    3.69
 -11  -2  -2   65.21    3.93
  11   2  -2   64.15    3.37
 -11   2   2   72.89    4.11
  11   2  -2   61.85    3.45
  11  -2   2   69.67    3.57
  11  -2   2   78.01    3.58
  11   2   3   73.69    4.38
  11   2   3   83.50    4.11
  11  -2  -3   75.36    3.90
  11  -2  -3   69.93    3.99
 -11  -2   3   77.28    3.90
 -11  -2   3   75.33    3.90
  11   2   3   75.54    4.05
 -11  -2  -3   67.54    3.94
  11  -2   3   73.65    3.80
 -11  -2  -3   73.72    3.86
 -11   2   3   79.10    4.28
 -11   2   3   80.45    4.75
 -11   2   3   75.64    4.01
 -11  -2  -3   71.64    4.43
  11  -2   3   80.18    3.88
  11  -2  -4   27.28    2.02
 -11  -2   4   22.83    3.13
  11   2   4   22.55    2.41
 -11  -2   4   20.24    2.05
 -11  -2   4   24.49    2.24
  11   2   4   23.49    2.24
  11  -2  -4   23.02    2.03
  11   2   4   25.85    3.10
 -11  -2  -4   27.34    1.94
 -11   2   4   26.66    2.31
 -11   2   4   27.04    2.79
 -11  -2  -4   24.67    1.73
  11  -2   4   24.27    2.06
  11  -2   4   23.68    1.97
 -11  -2  -4   28.24    3.12
  11   2   5   48.46    3.66
 -11  -2   5   48.65    3.15
  11   2   5   52.73    3.38
 -11   2   5   52.09    3.49
  11  -2   5   45.96    3.00
 -11  -2  -5   47.71    4.40
 -11   2   5   54.79    4.03
 -11   3   0  139.65    6.37
 -11   3   0  129.43    6.26
  11   3   0  135.33    6.30
 -11   3   0  126.13    6.13
  11  -3   0  130.19    6.34
  11  -3   0  129.76    6.32
 -11  -3   0  123.32    6.29
  11   3   0  137.41    6.29
 -11  -3   0  132.57    6.58
 -11  -3   0  131.33    6.36
  11   3   1   68.78    3.89
  11  -3  -1   73.28    3.93
 -11   3  -1   71.16    3.78
 -11  -3   1   72.37    3.85
  11   3   1   71.79    3.93
 -11   3  -1   78.78    3.81
 -11  -3   1   71.05    3.91
  11  -3  -1   75.00    3.96
 -11  -3   1   66.83    4.08
  11   3   1   69.15    4.17
 -11   3  -1   72.75    3.38
  11  -3  -1   72.49    3.96
 -11   3   1   73.28    4.02
  11  -3   1   70.77    3.81
 -11   3   1   70.08    3.92
  11   3  -1   75.52    3.78
  11   3  -1   78.81    3.84
 -11  -3  -1   73.80    3.99
 -11  -3  -1   76.41    4.23
 -11   3   1   70.35    3.99
 -11  -3  -1   74.89    3.96
  11  -3  -2   81.12    4.15
  11   3   2   71.46    4.10
  11   3   2   64.56    4.05
 -11  -3   2   65.08    3.98
  11  -3  -2   85.44    4.20
 -11  -3   2   68.78    3.94
 -11   3  -2   78.43    3.74
  11  -3  -2   82.89    4.32
 -11   3  -2   79.84    3.65
  11   3   2   66.79    4.38
 -11  -3  -2   83.40    4.52
 -11  -3  -2   82.09    4.10
  11  -3   2   69.79    3.92
 -11   3   2   67.17    4.42
 -11   3   2   66.51    4.00
 -11   3   2   65.31    4.16
 -11  -3  -2   79.65    4.13
  11   3  -2   79.93    3.72
  11  -3   2   68.10    3.84
  11   3  -2   83.73    3.88
  11  -3  -3    2.60    1.37
  11  -3  -3    0.78    1.28
  11  -3  -3    2.12    1.61
  11   3   3    3.51    1.27
 -11  -3   3    3.73    1.21
  11   3   3    2.61    1.46
 -11  -3   3    3.95    1.30
 -11   3   3    3.35    1.28
 -11  -3  -3    2.44    1.50
 -11  -3  -3    3.11    1.78
 -11   3   3    0.58    1.56
  11  -3   3    2.98    1.11
 -11  -3  -3    1.29    1.22
  11  -3   3    1.94    1.15
  11  -3  -4   66.32    4.91
  11  -3  -4   68.92    4.18
 -11  -3   4   77.30    4.27
 -11  -3   4   80.30    4.10
  11  -3  -4   64.41    4.18
  11   3   4   78.00    4.31
 -11  -3  -4   71.07    4.28
 -11  -3  -4   71.82    5.11
 -11  -3  -4   69.28    3.97
 -11   3   4   74.04    4.30
  11  -3   4   78.72    4.04
  11  -3   4   74.33    4.00
  11   3   5   20.51    2.54
 -11  -3   5   20.02    2.45
 -11   3   5   24.26    3.03
 -11  -3  -5   25.36    3.52
 -11  -4   0    6.24    1.77
 -11  -4   0    5.40    1.55
 -11   4   0    6.21    1.21
  11   4   0    4.13    1.28
 -11   4   0    3.36    1.29
  11  -4   0    3.87    1.25
  11   4   0    4.89    1.36
 -11  -4   0    4.94    1.50
  11  -4   0    3.78    1.40
  11  -4   0    4.97    1.13
 -11   4   0    4.47    1.45
  11  -4  -1   38.58    2.91
 -11   4  -1   36.49    2.65
  11   4   1   36.34    3.14
 -11  -4   1   41.71    2.99
 -11   4  -1   39.62    2.76
 -11   4  -1   43.20    2.21
  11   4   1   38.70    3.26
  11  -4  -1   27.81    3.22
 -11  -4   1   37.02    3.07
 -11  -4   1   40.86    2.82
  11  -4  -1   39.78    2.77
  11   4   1   39.00    2.91
 -11  -4  -1   38.38    2.92
  11  -4   1   40.97    2.80
 -11   4   1   39.13    2.86
  11   4  -1   39.38    2.63
  11  -4   1   39.88    2.86
  11   4  -1   35.16    2.71
 -11   4   1   42.60    3.00
 -11  -4  -1   38.17    3.05
 -11  -4  -1   40.91    3.31
 -11   4   1   38.23    3.01
  11  -4  -2   -0.97    1.29
  11  -4  -2    2.21    1.49
  11  -4  -2    2.37    1.49
 -11  -4   2    2.80    1.51
  11   4   2    2.00    1.34
 -11  -4   2    3.62    1.65
 -11  -4   2    0.24    1.32
 -11   4  -2    0.33    0.99
 -11   4  -2    1.16    1.05
 -11  -4  -2   -0.06    1.65
 -11   4   2    2.90    1.43
  11  -4   2    0.04    1.42
  11  -4   2    1.87    1.18
 -11  -4  -2    2.42    1.63
 -11  -4  -2   -1.05    1.49
  11   4  -2    0.39    0.95
  11   4  -2    1.50    1.26
 -11   4   2    4.29    1.96
 -11  -4   3   19.13    2.28
  11  -4  -3   21.81    2.87
  11   4   3   17.26    2.53
  11  -4  -3   16.48    2.19
 -11  -4   3   21.87    3.01
 -11  -4   3   20.13    2.42
 -11  -4  -3   15.44    2.57
 -11  -4  -3   13.79    2.29
 -11  -4  -3   12.84    2.05
  11  -4   3   15.79    2.17
 -11   4   3   22.22    2.57
  11  -4   3   18.55    2.41
  11   4   4    5.60    1.86
  11  -4  -4    3.51    1.86
 -11  -4   4    2.57    1.57
  11  -4  -4    4.79    2.25
  11  -4   4    6.28    1.60
 -11  -4  -4    4.85    2.13
 -11  -4  -4    4.35    2.52
 -11  -4  -4    5.87    1.88
 -11   4   4    2.65    1.73
 -11  -5   0   11.00    2.13
 -11   5   0   10.10    1.78
 -11   5   0   12.79    1.76
  11   5   0    9.65    1.77
  11  -5   0   11.17    1.56
  11  -5   0   11.10    1.89
 -11  -5   0    9.30    1.86
  11   5   1    3.50    1.56
 -11   5  -1    2.94    1.47
  11  -5  -1    6.02    1.63
  11  -5  -1    5.76    1.74
 -11   5  -1    3.15    1.67
 -11  -5   1    3.42    1.77
 -11  -5   1    2.31    1.77
 -11   5   1    2.35    1.77
  11  -5   1    3.46    1.56
  11   5  -1    4.12    1.43
  11   5  -1    6.65    1.68
 -11  -5  -1    5.87    1.93
 -11   5   1    3.03    1.63
 -11  -5  -1    5.51    2.16
 -11  -5   2    3.72    1.84
  11  -5  -2    2.86    1.87
 -11  -5   2    2.31    1.95
  11   5   2    2.89    1.70
 -11   5  -2    0.68    1.32
 -11   5  -2    3.63    1.33
  11  -5  -2    4.34    1.88
  11   5  -2    0.91    1.24
 -11   5   2    1.85    1.69
  11  -5   2    0.95    1.55
 -11  -5  -2    2.82    1.97
 -11  -5  -2    2.13    2.03
  11   5  -2    1.77    1.67
 -11  -5   3   -0.34    1.91
  11  -5  -3    0.06    1.94
  11   5   3    1.95    1.77
 -11  -5   3    3.48    1.94
  11  -5  -3    4.50    2.32
  11  -5   3    4.46    1.67
 -11   5   3    1.74    1.89
 -11  -5  -3    2.55    2.05
 -11  -5  -3    1.70    2.57
  11  -6   0    1.07    1.53
 -11  -6   0    0.43    2.21
 -11   6   0    0.35    1.87
 -11  -6   0    3.91    2.32
  11  -6   0    3.43    1.99
  11   6   0   -2.93    1.74
  11  -6  -1    6.04    2.08
  11   6   1    6.15    2.07
 -11  -6   1   11.84    2.71
 -11  -6   1    9.36    2.47
 -11   6  -1    6.10    2.16
  11  -6  -1   10.23    2.19
 -11   6   1    5.59    2.34
 -11  -6  -1    6.35    2.65
  11   6  -1    8.24    1.98
  11  -6   1    9.92    2.23
 -11  -6  -1    7.02    2.56
 -12   0   0  204.20    9.76
  12   0   0  240.35    9.85
  12   0   0  208.66    9.76
  12   0  -1  309.90   14.71
 -12   0   1  357.74   14.80
  12   0   1  339.06   14.72
 -12   0  -1  330.87   14.72
 -12   0  -1  317.33   14.74
  12   0  -1  295.12   14.68
  12   0   1  353.74   14.78
 -12   0   1  358.57   14.78
 -12   0  -1  342.46   14.70
 -12   0   2   73.33    3.44
 -12   0   2   73.59    3.38
 -12   0  -2   54.98    3.16
  12   0  -2   55.63    3.17
  12   0   2   64.73    3.24
 -12   0   2   73.02    3.83
  12   0   2   71.79    3.36
  12   0   2   71.31    3.31
 -12   0  -2   54.39    3.27
 -12   0  -2   53.74    3.09
  12   0  -2   53.11    3.16
  12   0   3  204.59    9.47
 -12   0   3  207.84   10.03
  12   0  -3  210.25    9.24
  12   0   3  206.88    9.49
  12   0   3  214.62    9.43
 -12   0  -3  208.91    9.09
 -12   0  -3  207.35    9.55
 -12   0   3  213.88    9.60
  12   0  -3  205.80    9.26
 -12   0   3  208.37    9.52
 -12   0  -3  210.70    9.07
 -12   0   4    6.39    1.47
 -12   0   4    5.27    1.18
  12   0   4    4.75    1.18
  12   0   4    2.76    1.05
  12   0   4    3.96    1.34
  12   0   5   62.38    3.76
 -12   0  -5   66.91    4.05
  12   0   5   62.17    3.55
  12   0   5   64.45    4.25
 -12   0   5   58.78    4.01
 -12   0   5   56.69    3.73
 -12  -1   0  407.68   17.81
 -12   1   0  405.86   17.65
  12   1   0  392.50   17.62
 -12  -1   0  409.17   17.64
 -12  -1   0  400.74   17.64
  12  -1   0  404.28   17.66
  12  -1   0  397.21   17.63
 -12   1   0  394.38   17.62
 -12  -1   1    6.27    1.04
  12   1   1    6.16    0.93
 -12  -1   1    4.80    0.91
  12   1   1    5.42    0.94
 -12   1   1    4.47    1.09
 -12   1   1    6.67    1.02
  12  -1   1    4.47    0.88
  12  -1   1    6.43    1.02
 -12   1   1    6.42    1.06
  12   1   2  119.23    5.14
 -12   1  -2   94.95    4.84
 -12  -1   2  113.37    5.12
  12  -1  -2   92.24    5.05
  12   1   2  115.13    5.08
 -12   1  -2   97.02    4.83
 -12  -1   2  114.46    5.12
  12   1   2  115.41    5.24
  12  -1  -2   99.71    5.02
 -12   1  -2   94.02    4.81
 -12  -1  -2   94.10    4.94
 -12   1   2  113.77    5.13
 -12  -1  -2   99.88    5.03
  12   1  -2   93.41    4.87
 -12   1   2  111.52    5.22
  12  -1   2  115.47    5.05
  12   1  -2   98.07    4.93
  12  -1   2  113.02    5.05
 -12   1   2  116.78    5.51
 -12  -1  -2   93.91    5.21
 -12  -1   3    3.25    1.84
 -12  -1   3    4.95    1.16
  12   1   3    5.46    1.33
 -12   1  -3    5.01    0.93
  12   1   3    5.51    1.09
  12   1   3    4.71    1.09
  12  -1  -3    5.47    0.95
 -12  -1   3    4.01    1.06
  12  -1  -3    7.07    1.09
 -12  -1  -3    4.67    1.02
  12  -1   3    4.64    0.99
 -12  -1  -3    5.26    1.37
  12  -1   3    5.46    1.03
 -12   1   3    5.47    1.81
 -12  -1  -3    6.01    0.91
  12   1  -3    5.49    0.66
  12   1  -3    5.24    0.62
 -12   1   3    5.44    1.35
 -12   1   3    4.28    1.09
 -12  -1   4   42.47    2.72
  12  -1  -4   37.86    2.14
  12  -1  -4   39.36    2.13
  12   1   4   42.99    3.25
 -12  -1   4   47.59    2.93
  12   1   4   46.06    2.81
 -12   1  -4   38.24    2.51
  12   1   4   41.26    2.75
 -12   1   4   43.31    2.86
 -12   1   4   42.43    3.12
  12  -1   4   41.91    2.49
  12  -1   4   38.22    2.56
 -12  -1  -4   39.25    3.28
  12  -1   4   43.33    2.58
 -12  -1   5    9.61    1.62
 -12   1  -5    6.00    1.59
  12   1   5    8.25    1.94
  12   1   5    8.20    1.55
 -12   1   5    8.74    2.08
 -12   1   5    5.30    1.69
 -12  -1  -5    5.24    2.14
  12  -1   5    9.55    1.40
  12   2   0   19.72    1.62
 -12   2   0   18.25    1.50
  12  -2   0   17.28    1.64
  12   2   0   17.47    1.57
 -12   2   0   17.20    1.60
  12  -2   0   17.08    1.59
 -12  -2   0   16.81    1.59
 -12  -2   0   17.53    1.89
 -12   2   0   18.93    1.72
 -12  -2   0   18.99    1.68
  12   2   1   39.74    2.77
  12  -2  -1   43.57    2.57
  12  -2  -1   40.42    2.55
 -12   2  -1   39.96    2.10
 -12   2  -1   42.87    2.43
 -12  -2   1   43.27    2.52
 -12  -2   1   40.58    2.55
 -12   2  -1   40.21    2.42
  12   2   1   40.33    2.50
  12   2   1   40.24    2.54
 -12   2   1   39.77    2.66
  12  -2   1   38.03    2.45
 -12  -2  -1   39.49    2.50
  12   2  -1   43.31    2.42
 -12  -2  -1   40.11    2.56
  12  -2   1   41.45    2.48
 -12   2   1   39.69    2.52
 -12  -2  -1   43.77    2.86
 -12   2   1   40.39    2.64
  12   2  -1   44.10    2.51
  12  -2  -2   54.58    3.17
  12  -2  -2   50.52    3.14
  12   2   2   57.76    3.16
 -12  -2   2   54.82    3.09
 -12   2  -2   51.94    2.79
  12   2   2   57.59    3.18
  12   2   2   56.70    3.43
 -12   2  -2   53.99    2.84
 -12  -2   2   59.79    3.14
 -12  -2  -2   52.83    3.07
  12   2  -2   52.95    2.85
  12  -2   2   57.77    3.03
 -12   2   2   56.22    3.40
 -12   2   2   57.37    3.17
 -12   2   2   58.02    3.61
 -12  -2  -2   51.80    3.46
  12   2  -2   50.37    2.95
  12  -2   2   57.74    3.07
 -12  -2  -2   56.96    3.15
 -12  -2   3    4.13    1.20
  12   2   3    6.62    1.65
  12  -2  -3    2.35    1.09
 -12  -2   3    4.33    1.10
  12   2   3    6.27    1.28
  12  -2  -3    2.78    1.11
  12   2   3    5.99    1.33
 -12  -2  -3    1.96    1.24
  12  -2   3    5.21    1.08
 -12   2   3    4.80    1.49
 -12   2   3    3.66    1.19
 -12   2   3    3.97    1.80
  12  -2   3    4.73    1.03
 -12  -2  -3    2.13    1.04
 -12  -2  -3    1.76    1.48
 -12  -2   4   11.63    1.71
  12  -2  -4   14.85    1.85
  12  -2  -4   13.23    1.79
  12   2   4   12.21    1.72
 -12  -2   4   15.03    1.90
  12   2   4   13.91    1.85
 -12  -2  -4   13.41    1.44
  12  -2   4   12.60    1.52
 -12   2   4   13.02    1.77
 -12  -2  -4   15.87    1.79
  12  -2   4   12.38    1.73
 -12   2   4   15.78    2.15
 -12  -2  -4   16.74    2.39
 -12  -2   5    5.43    1.56
  12   2   5    5.34    2.08
  12   2   5    3.94    1.56
  12  -2   5    3.53    1.30
 -12   2   5    5.41    1.75
 -12  -2  -5   10.95    2.58
 -12  -3   0   32.93    2.39
  12   3   0   33.11    2.34
  12   3   0   33.45    2.39
 -12  -3   0   31.77    2.70
 -12   3   0   33.64    2.44
 -12   3   0   30.54    2.17
  12  -3   0   35.50    2.47
  12  -3   0   34.10    2.39
 -12  -3   0   33.38    2.52
 -12   3   0   32.76    2.31
  12   3   1   12.00    1.54
 -12  -3   1   11.40    1.55
 -12   3  -1   11.33    1.03
 -12   3  -1   11.80    1.64
  12  -3  -1   12.45    1.62
  12   3   1   12.61    1.73
  12  -3  -1   13.08    1.67
  12   3   1   11.55    1.84
 -12  -3   1   12.32    1.84
 -12  -3   1   11.42    1.62
  12  -3  -1   10.82    1.69
 -12   3  -1   11.97    1.57
 -12  -3  -1   12.59    1.61
 -12   3   1   11.16    1.53
  12  -3   1    9.54    1.34
 -12   3   1   12.66    1.92
 -12   3   1   11.35    1.67
 -12  -3  -1    9.92    1.75
 -12  -3  -1   11.65    1.63
  12   3  -1   12.19    1.55
  12   3  -1   13.06    1.70
  12   3   2   19.98    2.10
  12   3   2   19.92    2.66
  12  -3  -2   22.33    2.28
  12  -3  -2   21.41    2.40
 -12  -3   2   20.31    2.09
 -12   3  -2   22.43    1.79
 -12   3  -2   24.99    1.68
  12  -3  -2   23.22    2.32
  12   3   2   21.38    2.30
 -12  -3   2   21.01    1.96
 -12   3   2   16.38    2.64
 -12  -3  -2   26.58    2.61
 -12   3   2   22.69    2.25
  12  -3   2   22.56    2.10
 -12  -3  -2   21.94    2.13
  12   3  -2   22.37    1.96
 -12  -3  -2   27.46    2.30
  12  -3   2   20.34    1.97
  12   3  -2   20.69    1.69
 -12   3   2   18.51    2.43
  12   3   3    4.59    1.41
 -12  -3   3    4.99    1.46
 -12  -3   3    5.58    1.35
  12  -3  -3    6.70    1.81
  12   3   3    5.11    1.59
  12  -3  -3    6.10    1.48
  12  -3  -3    4.12    1.50
 -12   3   3    4.13    1.35
  12  -3   3    5.60    1.35
  12  -3   3    4.99    1.20
 -12  -3  -3    5.40    2.01
 -12  -3  -3    6.55    1.65
 -12  -3  -3    5.23    1.42
 -12   3   3    4.67    1.61
  12  -3  -4    9.42    1.85
 -12  -3   4   11.98    1.65
  12  -3  -4    8.81    1.70
  12   3   4    9.22    1.76
 -12  -3   4   10.38    1.84
  12  -3  -4    5.91    2.16
  12  -3   4    9.75    1.54
 -12  -3  -4    8.35    1.86
  12  -3   4   10.43    1.69
 -12  -3  -4   11.63    2.60
 -12   3   4   13.10    1.88
 -12  -3  -4    8.78    1.58
  12   3   5   -0.84    1.73
 -12  -3   5    1.22    1.64
 -12  -3  -5   -1.44    2.62
 -12   3   5    0.33    1.81
 -12  -4   0    1.11    1.42
  12   4   0    3.66    1.29
 -12  -4   0    4.53    1.78
  12   4   0    1.29    1.33
  12  -4   0    2.82    1.06
  12  -4   0    3.09    1.25
  12  -4   0    2.45    1.44
 -12   4   0    2.65    1.15
 -12   4   0    2.76    1.29
 -12   4   0    2.28    1.46
 -12  -4   0    3.77    1.58
 -12  -4   1   37.04    3.38
 -12  -4   1   45.34    3.29
  12  -4  -1   48.52    3.28
 -12   4  -1   54.17    2.56
  12  -4  -1   48.97    3.17
  12   4   1   44.20    3.14
  12   4   1   37.22    3.34
 -12   4  -1   51.82    3.08
 -12   4  -1   50.15    3.10
 -12  -4   1   40.81    3.08
 -12  -4  -1   49.53    3.29
  12  -4   1   43.99    3.02
 -12  -4  -1   52.04    3.70
  12   4  -1   53.83    3.18
 -12   4   1   43.16    3.30
 -12   4   1   44.14    3.24
 -12   4   1   45.25    3.28
  12  -4   1   42.92    3.18
  12   4  -1   50.21    2.98
  12  -4  -2   18.09    2.49
 -12  -4   2   17.13    2.16
 -12  -4   2   16.74    2.15
  12  -4  -2   17.55    2.48
 -12  -4   2   21.37    2.92
 -12   4  -2   19.02    1.93
 -12   4  -2   19.08    1.92
  12   4   2   21.59    2.42
  12   4  -2   18.40    2.26
 -12  -4  -2   15.23    2.18
 -12  -4  -2   19.78    2.45
  12  -4   2   18.94    2.33
  12   4  -2   18.68    1.80
 -12   4   2   16.02    2.33
 -12   4   2   19.22    2.36
  12  -4   2   20.76    2.09
 -12  -4  -2   18.39    2.63
  12  -4  -3   36.77    3.49
  12  -4  -3   28.36    3.10
 -12  -4   3   32.64    2.84
  12   4   3   37.31    3.03
 -12  -4   3   36.51    3.18
 -12  -4   3   36.83    3.47
 -12  -4  -3   32.86    3.07
  12  -4   3   34.90    2.71
 -12  -4  -3   37.47    3.85
 -12   4   3   32.96    2.99
  12  -4   3   33.84    3.09
  12   4   4   15.68    2.36
  12  -4  -4   18.26    2.47
 -12  -4   4   15.94    2.13
  12  -4  -4   15.62    2.85
 -12  -4  -4   18.41    2.46
 -12  -4  -4   18.06    3.09
 -12   4   4   24.75    3.05
  12  -4   4   18.11    2.21
 -12   5   0   43.56    3.16
  12  -5   0   41.67    3.28
  12   5   0   41.73    3.21
 -12  -5   0   45.23    3.74
 -12   5   0   44.00    3.38
  12  -5   0   45.57    2.94
 -12  -5   0   43.78    3.49
  12  -5  -1   25.29    3.01
 -12  -5   1   25.90    2.95
 -12  -5   1   23.87    3.27
  12   5   1   20.61    2.59
  12  -5  -1   28.36    2.68
 -12   5  -1   28.49    2.82
 -12   5  -1   23.11    2.76
 -12  -5  -1   27.29    3.17
  12   5  -1   26.80    2.50
 -12  -5  -1   26.47    3.32
 -12   5   1   24.63    3.15
 -12   5   1   23.98    2.88
  12   5  -1   22.74    2.63
  12  -5   1   25.30    2.67
  12   5   2   40.52    3.58
 -12   5  -2   45.05    3.10
 -12  -5   2   45.89    3.99
  12  -5  -2   36.88    3.95
 -12  -5   2   47.78    3.65
 -12   5  -2   45.88    3.07
  12  -5  -2   44.42    3.61
  12   5  -2   44.57    3.02
  12  -5   2   43.16    3.42
  12   5  -2   46.67    3.45
 -12  -5  -2   47.76    4.36
 -12  -5  -2   48.21    3.99
 -12   5   2   44.88    3.70
  12  -5  -3    0.49    2.15
  12  -5  -3    2.85    2.08
 -12  -5   3    1.47    2.09
  12   5   3    0.88    1.75
 -12  -5   3    1.37    1.90
 -12  -5  -3   -0.74    2.45
 -12   5   3    1.15    1.80
  12  -5   3    3.01    1.69
 -12  -5  -3    2.87    2.08
 -12  -6   0    2.85    2.38
  12  -6   0   -0.18    1.76
 -12  -6   0    0.86    2.27
  12   6   0    1.51    1.84
 -12   6   0    0.22    2.13
  12  -6   0    3.61    1.62
  12  -6  -1   22.60    3.04
 -12   6  -1   15.62    2.51
 -12  -6   1   23.20    3.31
  12   6   1   23.88    3.38
  12  -6  -1   15.82    2.79
 -12  -6   1   27.21    3.80
 -12   6   1   24.13    3.11
  12  -6   1   28.82    3.36
 -12  -6  -1   26.25    4.18
  12   6  -1   23.77    2.65
 -12  -6  -1   17.47    2.95
 -13   0   0    1.25    0.85
  13   0   0    0.95    0.81
 -13   0   0    1.25    0.79
  13   0   0    0.96    0.75
 -13   0  -1    0.59    0.74
 -13   0   1    0.68    0.88
 -13   0  -1    0.18    0.77
 -13   0  -1    0.91    0.83
 -13   0   1   -0.17    0.73
  13   0   1    0.49    0.76
  13   0  -1    1.17    0.78
  13   0   1    1.18    0.77
  13   0  -1    0.41    0.75
 -13   0   2    0.88    0.81
 -13   0  -2    1.88    0.75
  13   0  -2   -0.17    0.74
  13   0   2   -1.01    0.72
 -13   0  -2   -0.03    0.80
 -13   0  -2    0.77    0.90
  13   0  -2    0.98    0.78
 -13   0   2   -0.08    0.96
  13   0   2    0.38    0.80
 -13   0   3    1.56    0.97
  13   0  -3    0.20    0.71
 -13   0   3    1.32    1.56
 -13   0  -3    0.81    0.99
  13   0   3    0.66    0.90
  13   0   3   -0.09    1.03
  13   0  -3   -0.08    0.69
 -13   0  -3    0.41    0.61
 -13   0  -3    0.07    0.56
  13   0   3    1.50    0.90
 -13   0   3    0.41    1.17
  13   0   4   -0.04    1.11
 -13   0   4    1.03    1.44
 -13   0  -4    0.97    1.23
 -13   0   4    1.06    1.13
  13   0   4    1.26    1.24
  13   0   4   -0.32    0.96
  13   0   5    2.11    1.23
  13   0   5   -3.92    1.79
 -13   0  -5   -0.17    1.70
 -13   0   5    1.55    1.85
 -13   0   5    3.39    1.51
 -13   1   0  245.15   10.93
  13  -1   0  250.82   10.95
  13  -1   0  235.52   10.94
  13   1   0  237.44   10.92
 -13   1   0  243.97   10.95
 -13  -1   0  243.00   10.94
 -13  -1   0  246.07   10.95
 -13  -1   0  242.74   11.11
  13   1   0  244.81   10.92
 -13  -1   1   11.01    1.38
 -13   1  -1   17.72    1.50
 -13   1  -1   14.66    1.43
  13  -1  -1   15.91    1.57
  13  -1  -1   11.81    1.51
 -13   1  -1   12.30    1.36
 -13  -1   1   10.48    1.52
  13   1   1   12.53    1.41
  13   1   1   11.63    1.38
 -13  -1  -1   14.43    1.64
  13  -1   1   12.54    1.46
 -13   1   1   13.93    1.79
  13   1  -1   15.13    1.39
 -13   1   1   10.88    1.59
 -13  -1  -1   14.10    1.41
  13   1  -1   15.58    1.44
 -13   1   1   11.64    1.43
  13  -1   1   12.08    1.37
 -13  -1  -1   12.66    1.59
  13  -1  -2   47.32    2.98
 -13   1  -2   48.57    2.75
 -13  -1   2   54.05    3.00
 -13   1  -2   48.49    2.69
 -13   1  -2   49.70    2.73
 -13  -1   2   52.40    3.01
  13   1   2   54.19    3.00
  13   1   2   50.63    3.11
  13   1   2   55.98    2.94
  13  -1  -2   52.39    2.95
  13  -1   2   59.48    2.95
 -13   1   2   54.92    3.20
 -13   1   2   60.22    3.01
 -13  -1  -2   50.86    2.97
 -13  -1  -2   50.37    2.84
 -13  -1  -2   51.41    3.20
  13   1  -2   48.83    2.77
  13  -1   2   56.54    2.94
 -13   1   2   53.40    3.45
  13   1  -2   50.61    2.84
 -13  -1   3    0.36    0.97
 -13   1  -3    0.46    0.81
  13  -1  -3    0.07    0.92
 -13  -1   3    1.34    1.14
  13   1   3   -0.24    0.91
  13   1   3    0.66    0.98
  13  -1  -3    0.27    0.85
  13   1   3    0.68    1.18
 -13  -1   3   -0.46    1.61
 -13  -1  -3   -0.56    0.76
 -13   1   3   -2.58    1.62
  13   1  -3    0.28    0.65
 -13  -1  -3    1.03    1.26
  13  -1   3   -2.02    0.88
  13  -1   3   -0.57    0.83
 -13   1   3    0.44    0.98
 -13   1   3   -0.51    1.21
  13   1  -3    1.02    0.62
 -13  -1  -3   -0.86    0.91
  13   1   4   16.55    2.52
 -13  -1   4   19.63    2.35
 -13   1  -4   16.04    1.73
 -13  -1   4   19.24    2.01
  13   1   4   17.51    1.97
  13   1   4   17.11    2.16
  13  -1  -4   18.01    1.45
  13  -1  -4   20.07    1.46
  13  -1   4   13.65    1.78
 -13   1   4   17.52    2.14
  13  -1   4   14.80    1.77
 -13   1   4   17.58    2.49
 -13  -1  -4   17.97    2.59
  13  -1   4   17.91    1.93
  13   1   5    5.33    1.51
  13   1   5    7.19    1.86
 -13   1  -5    2.61    1.38
 -13  -1   5    2.28    1.53
 -13  -1  -5    1.73    2.07
 -13   1   5    1.75    1.64
 -13   1   5    2.41    2.07
  13  -1   5    4.63    1.35
 -13   2   0    0.05    1.01
  13   2   0    0.61    0.83
 -13  -2   0   -0.21    0.83
  13  -2   0    0.08    0.91
 -13  -2   0    1.00    1.05
  13   2   0    1.06    0.86
 -13   2   0    1.20    0.88
 -13  -2   0    1.40    1.01
 -13   2   0    1.16    0.79
  13  -2   0    1.54    0.88
 -13  -2   1  183.44    8.04
 -13  -2   1  183.07    8.05
 -13   2  -1  164.24    7.94
 -13   2  -1  173.31    7.94
  13   2   1  169.58    7.99
  13  -2  -1  162.29    7.99
 -13   2  -1  167.22    7.69
  13   2   1  180.67    8.05
  13  -2  -1  155.86    8.01
 -13  -2  -1  166.54    8.26
 -13  -2  -1  166.99    8.03
 -13   2   1  186.24    8.16
 -13   2   1  173.31    8.03
  13  -2   1  184.17    8.04
 -13   2   1  178.26    8.12
 -13  -2  -1  173.27    8.02
  13   2  -1  169.78    7.98
  13  -2   1  177.54    8.00
  13   2  -1  167.49    7.93
 -13   2  -2   10.62    1.29
  13  -2  -2   10.11    1.44
  13   2   2   13.54    1.80
 -13  -2   2   13.15    1.75
  13  -2  -2   11.57    1.68
 -13   2  -2    9.95    1.31
  13   2   2   12.29    1.69
 -13  -2   2   10.66    1.39
  13   2   2   10.77    1.58
 -13   2   2   11.38    1.61
  13   2  -2   12.31    1.48
 -13   2   2   10.79    1.42
 -13  -2  -2   10.18    1.39
  13  -2   2   13.17    1.62
  13  -2   2   10.59    1.45
 -13  -2  -2   10.77    1.54
 -13  -2  -2   13.00    1.87
 -13   2   2   13.64    2.18
  13   2  -2   11.23    1.34
 -13  -2   3  164.51    8.08
 -13  -2   3  168.88    8.08
  13  -2  -3  178.97    8.10
  13   2   3  176.73    8.18
  13   2   3  175.61    8.21
  13   2   3  172.03    8.42
  13  -2  -3  181.29    8.17
 -13  -2  -3  179.22    8.12
 -13   2   3  163.16    8.67
  13   2  -3  169.34    7.59
 -13   2   3  169.54    8.18
 -13  -2  -3  186.31    8.03
 -13  -2  -3  179.31    8.56
  13  -2   3  165.22    7.98
  13  -2   3  164.74    8.01
 -13   2   3  171.07    8.31
  13   2   4    5.35    1.47
 -13  -2   4    8.02    1.50
  13   2   4    7.21    1.72
  13  -2  -4    7.05    1.37
 -13  -2   4    8.76    1.65
  13  -2  -4    8.59    1.42
  13  -2   4    7.45    1.33
 -13  -2  -4    6.89    1.35
 -13   2   4    5.74    1.59
 -13   2   4    8.11    1.94
 -13  -2  -4    4.76    1.95
  13  -2   4    6.44    1.45
 -13  -2  -4    8.16    1.17
  13   2   5   48.53    3.53
 -13  -2   5   52.42    3.40
 -13  -2  -5   47.83    4.35
 -13   2   5   45.29    3.67
  13  -2   5   49.93    3.23
 -13   3   0  314.37   14.07
 -13  -3   0  336.87   14.13
 -13   3   0  316.39   13.88
  13  -3   0  303.56   14.04
 -13  -3   0  307.77   14.07
  13   3   0  313.83   14.04
 -13   3   0  293.00   13.98
  13  -3   0  319.73   14.08
  13   3   0  306.54   14.01
 -13  -3   0  311.65   14.30
 -13   3  -1    4.59    1.19
 -13  -3   1    4.80    1.22
  13  -3  -1    4.86    1.31
 -13   3  -1    3.69    0.74
  13  -3  -1    1.78    1.23
 -13  -3   1    4.40    1.36
 -13  -3   1    3.93    1.40
 -13   3  -1    3.43    1.13
  13   3   1    5.29    1.31
  13   3   1    4.57    1.51
  13   3   1    6.58    1.30
  13  -3   1    5.20    1.34
 -13   3   1    5.76    1.39
  13   3  -1    4.42    1.07
 -13  -3  -1    4.57    1.42
  13   3  -1    5.31    1.25
 -13   3   1    6.71    1.35
 -13   3   1    6.17    1.39
  13  -3   1    5.41    1.19
 -13  -3  -1    4.65    1.68
 -13  -3  -1    4.11    1.28
  13  -3  -2  193.58    9.21
  13   3   2  198.08    9.20
 -13   3  -2  187.38    8.85
 -13  -3   2  200.86    9.12
  13  -3  -2  188.77    9.18
  13   3   2  199.31    9.48
 -13  -3   2  208.60    9.19
 -13   3  -2  199.49    8.81
  13   3   2  205.17    9.22
 -13   3   2  194.24    9.21
  13   3  -2  188.30    8.85
 -13  -3  -2  185.77    9.20
 -13   3   2  207.31    9.50
 -13  -3  -2  184.62    9.10
  13  -3   2  210.60    9.14
  13   3  -2  186.52    8.96
 -13   3   2  204.52    9.34
  13  -3   2  199.06    9.06
 -13  -3  -2  171.96    9.42
 -13  -3   3   14.63    1.90
  13   3   3   14.51    1.97
  13  -3  -3   15.69    1.98
  13  -3  -3   16.63    1.98
  13  -3  -3   18.11    2.36
  13   3   3   14.89    1.93
 -13  -3   3   14.41    2.05
  13   3  -3   14.74    1.17
  13  -3   3   14.81    1.89
 -13  -3  -3   18.72    2.94
 -13  -3  -3   14.48    2.02
 -13  -3  -3   14.96    1.84
 -13   3   3   16.69    2.27
 -13   3   3   17.19    2.26
  13   3  -3   16.51    1.30
  13  -3   3   15.67    1.82
  13   3   4   39.96    3.25
 -13  -3   4   43.25    3.09
  13  -3  -4   41.20    3.25
 -13  -3   4   40.39    3.39
  13  -3  -4   44.63    3.35
 -13   3   4   35.51    3.28
 -13  -3  -4   44.43    3.44
 -13  -3  -4   49.05    3.08
  13  -3   4   43.07    2.97
 -13  -3  -4   46.05    4.19
  13  -3   4   39.74    3.15
 -13  -4   0   -1.37    1.45
 -13   4   0   -0.78    1.42
 -13   4   0    0.96    1.21
  13  -4   0    0.47    1.37
 -13   4   0    0.74    1.09
  13  -4   0   -0.56    1.24
 -13  -4   0   -0.26    1.32
  13   4   0    1.89    1.27
  13   4   0   -0.02    1.32
 -13  -4   0    0.96    1.71
 -13   4  -1   63.05    3.86
  13   4   1   69.06    4.01
  13  -4  -1   64.28    4.02
 -13   4  -1   62.85    3.81
 -13  -4   1   69.03    4.35
 -13  -4   1   69.15    3.98
 -13  -4   1   75.24    4.14
  13  -4  -1   64.08    3.89
 -13   4  -1   64.46    3.27
 -13   4   1   67.98    4.79
 -13  -4  -1   62.41    4.03
 -13   4   1   64.59    4.08
 -13  -4  -1   64.85    4.42
  13   4  -1   61.25    3.73
  13  -4   1   66.05    4.10
  13   4  -1   62.53    3.87
 -13   4   1   71.75    4.01
  13  -4   1   68.16    3.89
  13   4   2    1.72    1.40
 -13  -4   2   -0.82    1.33
 -13   4  -2    0.11    1.14
 -13  -4   2   -1.30    1.62
 -13  -4   2   -0.16    1.67
  13  -4  -2    0.25    1.49
 -13   4  -2    2.15    1.19
  13  -4  -2    0.92    1.54
 -13  -4  -2    3.98    1.70
 -13   4   2    1.04    1.42
  13   4  -2   -0.57    1.01
  13   4  -2    0.23    1.40
  13  -4   2    1.52    1.65
 -13  -4  -2    0.17    1.99
 -13   4   2   -0.19    1.86
  13  -4   2   -0.12    1.23
 -13  -4   3   30.08    3.21
  13  -4  -3   37.66    3.61
  13   4   3   33.49    3.19
 -13  -4   3   36.68    3.62
  13  -4  -3   27.85    3.17
 -13  -4   3   31.47    2.90
  13  -4   3   34.62    2.85
 -13  -4  -3   36.73    3.90
  13  -4   3   27.80    3.00
  13   4  -3   31.57    2.24
 -13  -4  -3   31.09    3.11
 -13   4   3   35.83    3.04
 -13  -4   4    1.56    1.82
  13  -4  -4   -1.88    2.33
  13  -4  -4    1.47    2.04
  13   4   4    1.80    1.78
 -13   4   4    0.53    1.81
  13  -4   4   -3.66    1.61
 -13  -4  -4    1.00    1.88
 -13  -4  -4    0.31    2.63
 -13   5   0    2.16    1.50
 -13  -5   0    0.79    1.79
  13  -5   0    3.03    1.59
 -13  -5   0    2.32    1.93
 -13   5   0    2.22    1.60
  13   5   0    3.45    1.60
  13  -5  -1    0.24    1.48
 -13   5  -1    3.26    1.55
 -13  -5   1    0.68    1.95
  13   5   1   -0.35    1.55
  13  -5  -1    4.77    1.89
 -13  -5   1    2.81    1.86
 -13   5  -1   -0.23    1.59
 -13  -5  -1    4.43    1.96
 -13   5   1    0.86    1.69
 -13  -5  -1    2.39    2.02
 -13   5   1   -0.55    1.78
  13  -5   1    1.97    1.54
  13   5  -1    2.90    1.48
 -13  -5   2    3.47    1.98
 -13   5  -2   -0.05    1.48
  13  -5  -2    0.11    1.93
 -13   5  -2    0.03    1.42
 -13  -5   2    3.08    2.10
  13   5   2    4.02    1.76
  13  -5  -2   -0.04    1.78
  13  -5   2    0.67    1.51
 -13  -5  -2    1.76    2.09
 -13  -5  -2    0.81    2.40
  13   5  -2    1.95    1.34
  13   5  -2    1.54    1.82
 -13   5   2    1.66    1.77
  13   5   3    1.47    1.86
  13  -5  -3    0.42    2.13
  13  -5  -3    3.73    2.30
 -13  -5   3    1.25    1.99
 -13  -5   3    0.92    2.20
  13  -5   3   -0.36    1.68
 -13  -5  -3    2.14    2.58
 -13  -5  -3    3.80    2.32
 -13   5   3    1.66    2.11
 -13   6   0   10.14    2.33
  13  -6   0   12.93    2.39
  13  -6   0    6.71    2.18
  13   6   0    8.65    2.16
 -13  -6   0    7.97    2.74
 -13  -6   0   10.07    2.46
  13  -6  -1   22.99    3.28
  13   6   1   27.68    3.41
 -13  -6   1   30.98    4.00
  13  -6  -1   27.05    3.33
 -13   6  -1   27.20    3.38
 -13  -6   1   24.79    3.43
 -13  -6  -1   25.60    3.52
  13   6  -1   27.78    3.20
  13  -6   1   23.76    3.20
 -13  -6  -1   33.13    4.43
 -13   6   1   34.00    3.50
  14   0   0   17.06    1.59
  14   0   0   16.97    1.56
 -14   0   0   16.88    1.64
 -14   0   0   15.18    1.54
  14   0   1  333.62   14.60
 -14   0   1  320.77   14.61
  14   0   1  326.66   14.62
 -14   0   1  325.49   14.63
  14   0  -1  336.38   14.60
 -14   0  -1  346.59   14.62
 -14   0  -1  326.68   14.56
  14   0  -1  337.48   14.61
 -14   0  -1  303.35   14.61
 -14   0  -2   93.94    4.39
  14   0  -2   96.27    4.48
  14   0  -2   92.09    4.46
  14   0   2   84.89    4.48
 -14   0   2   83.72    4.49
  14   0   2   85.39    4.43
 -14   0  -2   92.65    4.44
 -14   0  -2   91.16    4.54
 -14   0   2   88.38    4.65
 -14   0  -3  342.66   14.48
  14   0   3  316.71   14.41
  14   0  -3  327.31   14.22
 -14   0   3  305.14   14.89
 -14   0  -3  341.61   14.07
 -14   0  -3  336.42   14.10
 -14   0   3  317.39   14.51
 -14   0   3  309.14   14.43
  14   0   3  304.36   14.37
  14   0  -3  335.92   14.22
  14   0   3  311.18   14.36
  14   0   4   39.91    2.64
 -14   0  -4   36.12    2.85
 -14   0   4   37.19    2.87
  14   0   4   40.20    2.88
  14   0   4   36.66    2.73
 -14   0   4   37.91    3.06
 -14   0   5   89.79    5.25
 -14   0   5   83.67    4.93
 -14   0  -5   92.84    5.15
  14   0   5   86.55    4.72
  14   1   0  224.73   10.11
 -14  -1   0  208.80   10.08
 -14  -1   0  234.01   10.34
  14   1   0  214.82   10.09
 -14   1   0  232.45   10.16
  14  -1   0  217.04   10.13
 -14  -1   0  227.16   10.14
 -14   1   0  218.23   10.10
  14  -1   0  229.25   10.13
  14  -1  -1   25.22    2.00
 -14  -1   1   23.05    1.89
 -14   1  -1   22.88    1.81
  14  -1  -1   24.99    1.99
  14   1   1   23.32    1.88
 -14   1  -1   25.08    1.93
 -14  -1   1   23.65    1.97
  14   1   1   22.94    1.87
 -14   1  -1   25.24    1.83
 -14  -1  -1   24.27    2.06
  14   1  -1   24.69    1.94
 -14   1   1   24.28    1.94
 -14  -1  -1   26.86    1.88
 -14   1   1   23.46    2.14
  14   1  -1   25.26    1.83
 -14  -1  -1   27.41    2.09
  14  -1   1   23.18    1.90
 -14   1   1   25.77    2.26
  14  -1   1   23.43    1.88
 -14   1  -2  142.20    6.44
  14  -1  -2  149.92    6.63
  14  -1  -2  140.86    6.65
  14   1   2  137.97    6.72
 -14  -1   2  139.23    6.65
 -14   1  -2  145.68    6.45
 -14   1  -2  140.82    6.40
  14   1   2  132.91    6.62
 -14  -1   2  138.28    6.64
  14   1   2  135.93    6.59
 -14   1   2  140.62    6.76
  14  -1   2  134.86    6.55
 -14  -1  -2  142.53    6.53
 -14  -1  -2  140.63    6.81
 -14   1   2  140.78    7.02
  14   1  -2  142.96    6.55
  14   1  -2  140.10    6.48
  14  -1   2  129.11    6.57
 -14   1   2  132.78    6.61
 -14  -1  -2  141.70    6.61
  14  -1  -3    8.38    1.24
  14   1   3   10.96    1.41
 -14  -1   3    6.80    2.10
 -14   1  -3    7.83    1.10
  14   1   3   10.33    1.44
  14   1   3   10.35    1.65
  14  -1  -3    5.62    1.21
 -14  -1   3    8.84    1.43
 -14  -1   3   10.48    1.57
 -14   1   3    9.50    1.71
  14  -1   3    8.44    1.26
 -14  -1  -3    7.22    1.09
 -14  -1  -3    6.36    1.22
  14   1  -3    7.82    1.01
 -14   1   3    8.98    2.08
  14  -1   3    9.46    1.30
 -14  -1  -3    8.59    1.68
  14   1  -3    7.82    1.12
 -14   1   3    7.63    1.36
  14   1   4   87.51    4.73
  14  -1  -4   86.11    4.26
 -14   1  -4   86.63    4.43
 -14  -1   4   93.79    4.93
  14   1   4   87.88    5.02
 -14  -1   4   91.32    4.78
  14   1   4   82.00    4.68
  14  -1  -4   89.30    4.25
 -14   1   4   88.48    5.06
  14  -1   4   89.55    4.64
  14  -1   4   89.50    4.60
  14  -1   4   85.90    4.47
 -14  -1  -4   90.56    5.14
 -14   1   4   95.44    4.82
 -14  -1   5    4.43    1.70
  14   1   5    2.97    1.84
  14   1   5    0.86    1.51
  14  -1   5    3.98    1.39
 -14   1   5    2.25    1.73
 -14  -1  -5    1.91    2.12
 -14   1   5    4.29    2.12
 -14   2   0    5.92    1.27
 -14  -2   0    6.01    1.30
  14   2   0    8.94    1.23
 -14  -2   0    6.41    1.18
 -14  -2   0    6.37    1.49
 -14   2   0    6.65    1.15
 -14   2   0    6.64    1.20
  14  -2   0    7.05    1.29
  14  -2   0    6.55    1.18
  14   2   0    6.57    1.17
  14  -2  -1   35.15    2.41
 -14   2  -1   33.99    2.34
 -14  -2   1   32.02    2.36
 -14  -2   1   33.49    2.43
  14   2   1   30.67    2.37
  14   2   1   33.60    2.31
 -14   2  -1   34.69    2.32
 -14   2  -1   36.21    1.98
  14  -2   1   33.37    2.32
  14  -2   1   29.48    2.21
  14   2  -1   33.01    2.20
 -14   2   1   32.90    2.54
 -14  -2  -1   34.91    2.48
 -14  -2  -1   34.48    2.71
 -14   2   1   30.64    2.49
  14   2  -1   36.76    2.34
 -14   2   1   30.75    2.32
 -14  -2  -1   33.54    2.33
  14   2   2   12.48    1.54
 -14  -2   2   12.68    1.51
 -14   2  -2   12.11    1.43
  14  -2  -2   11.48    1.52
  14  -2  -2   11.76    1.55
  14   2   2   13.00    2.10
 -14   2  -2   11.41    1.40
 -14  -2   2   11.73    1.56
  14   2   2    9.77    1.47
 -14   2   2   11.71    1.74
  14   2  -2   12.85    1.67
 -14  -2  -2   10.97    1.80
 -14   2   2   13.91    2.04
  14   2  -2   11.55    1.42
 -14  -2  -2   11.22    1.64
  14  -2   2   10.61    1.42
 -14  -2  -2   11.99    1.51
 -14   2   2   10.39    1.69
  14  -2   2   12.85    1.54
 -14  -2   3   22.97    2.37
  14   2   3   22.64    2.72
  14   2   3   24.96    2.25
  14  -2  -3   26.63    2.27
 -14  -2   3   23.86    2.19
  14   2   3   22.11    2.39
  14  -2  -3   25.70    2.26
  14   2  -3   25.77    1.57
 -14  -2  -3   30.76    3.02
 -14  -2  -3   29.32    2.43
  14  -2   3   20.18    2.24
 -14   2   3   23.11    2.95
 -14   2   3   23.01    2.31
 -14  -2  -3   27.20    2.13
  14  -2   3   24.47    2.08
 -14   2   3   18.22    2.58
 -14  -2   4    6.31    1.49
  14  -2  -4    3.91    1.34
 -14  -2   4    5.02    1.69
  14  -2  -4    4.53    1.41
  14   2   4    6.06    1.52
  14   2   4    4.71    1.74
  14  -2   4    5.69    1.50
 -14  -2  -4    5.99    1.14
  14  -2   4    6.75    1.36
 -14   2   4    6.95    1.92
 -14  -2  -4    4.18    2.00
 -14  -2  -4    5.61    1.42
 -14   2   4    5.62    1.53
  14   2   5    8.13    1.85
 -14  -2   5    8.46    1.84
  14  -2   5    6.54    1.64
 -14   2   5    8.82    2.21
 -14  -2  -5   12.86    2.66
 -14  -3   0   82.52    4.71
 -14  -3   0   82.42    4.41
 -14  -3   0   83.67    4.46
 -14   3   0   76.16    4.13
  14  -3   0   80.20    4.39
  14   3   0   79.97    4.31
 -14   3   0   83.03    4.39
 -14   3   0   80.72    4.39
  14  -3   0   80.08    4.36
  14   3   0   81.36    4.32
 -14  -3   1    3.81    1.29
 -14  -3   1    4.09    1.66
  14  -3  -1    4.41    1.30
  14  -3  -1    1.95    1.29
 -14   3  -1    1.97    1.13
  14   3   1    5.40    1.40
 -14   3  -1    3.78    1.23
 -14   3  -1    4.53    0.80
 -14  -3   1    4.91    1.49
  14   3   1    3.46    1.21
 -14  -3  -1    3.43    1.74
  14  -3   1    2.89    1.30
  14   3  -1    2.55    1.22
 -14  -3  -1    3.52    1.34
 -14   3   1    4.37    1.41
  14  -3   1    4.81    1.27
 -14   3   1    4.47    1.50
  14   3  -1    4.87    1.17
 -14   3   1    6.35    1.40
 -14  -3  -1    5.32    1.53
  14   3   2   23.38    2.77
  14  -3  -2   23.87    2.51
  14   3   2   26.37    2.47
 -14   3  -2   22.01    1.95
 -14  -3   2   26.40    2.52
  14   3   2   23.05    2.24
  14  -3  -2   24.82    2.40
 -14  -3   2   22.74    2.34
 -14   3  -2   22.59    1.97
 -14  -3  -2   25.03    2.54
  14   3  -2   26.02    1.98
 -14  -3  -2   26.16    2.92
  14  -3   2   26.97    2.26
 -14  -3  -2   24.05    2.34
  14  -3   2   28.64    2.39
 -14   3   2   21.92    2.66
 -14   3   2   28.71    2.41
  14   3  -2   23.16    2.24
 -14   3   2   24.90    2.90
  14  -3  -3    9.54    1.74
  14   3   3    6.66    1.85
 -14  -3   3    9.30    1.79
 -14  -3   3   11.74    1.71
  14  -3  -3    9.98    1.70
  14   3   3    7.64    1.64
  14  -3   3    9.44    1.54
 -14  -3  -3    6.44    2.10
 -14   3   3    8.93    1.71
 -14  -3  -3   11.69    2.02
  14   3  -3    8.96    1.10
  14  -3   3   10.66    1.75
 -14  -3  -3    8.30    1.67
  14   3  -3   10.46    1.20
  14  -3  -4    1.91    1.75
  14  -3  -4    2.89    1.66
 -14  -3   4    3.28    2.02
 -14  -3   4    2.22    1.51
  14   3   4    5.14    1.65
  14  -3   4    3.31    1.46
 -14  -3  -4    3.17    1.52
 -14  -3  -4    3.05    2.30
 -14   3   4    3.76    1.73
 -14  -3  -4    2.77    1.93
  14  -3   4   -1.29    1.68
 -14  -4   0    7.16    1.64
  14   4   0    5.82    1.51
 -14   4   0    7.40    1.75
  14  -4   0    7.24    1.60
  14  -4   0    5.53    1.54
  14   4   0    5.94    1.55
 -14  -4   0    4.82    1.60
 -14   4   0    5.38    1.34
 -14   4   0    5.40    1.49
 -14  -4   0    8.32    2.08
 -14   4  -1   78.32    3.77
 -14   4  -1   74.05    4.29
 -14  -4   1   84.40    4.86
 -14  -4   1   75.80    4.43
 -14   4  -1   73.92    4.38
  14  -4  -1   72.22    4.60
 -14  -4   1   77.83    4.53
  14   4   1   76.60    4.50
  14   4  -1   75.06    4.26
 -14  -4  -1   75.28    4.94
  14  -4   1   80.58    4.43
 -14   4   1   83.82    4.53
 -14  -4  -1   73.20    4.52
  14   4  -1   79.24    4.41
 -14   4   1   79.01    4.62
  14  -4   1   81.24    4.53
  14  -4  -2    1.83    1.57
  14  -4  -2    1.32    1.63
 -14   4  -2    2.24    1.24
 -14  -4   2    1.97    1.50
 -14  -4   2    1.31    1.92
 -14   4  -2    1.85    1.25
 -14  -4   2    2.29    1.68
  14   4   2    3.20    1.51
 -14   4   2   -1.12    1.67
  14  -4   2    1.00    1.40
  14  -4   2    0.39    1.65
 -14  -4  -2    2.01    2.11
 -14  -4  -2    2.99    1.65
 -14   4   2   -0.13    1.50
  14   4  -2    0.85    1.55
  14   4  -2    2.80    1.15
 -14  -4   3   55.53    4.50
  14  -4  -3   54.64    4.10
  14  -4  -3   55.35    4.32
 -14  -4   3   60.44    3.91
  14   4   3   60.36    3.98
 -14  -4   3   58.53    4.11
 -14  -4  -3   54.63    4.70
  14  -4   3   55.95    3.90
 -14  -4  -3   57.13    4.01
 -14   4   3   58.90    3.93
 -14  -4   4    2.98    1.93
  14   4   4    4.70    1.94
  14  -4  -4    2.32    2.07
 -14  -4  -4    2.10    2.81
  14  -4   4    3.97    1.91
 -14   4   4    5.65    2.04
 -14  -4  -4    1.09    1.98
 -14   5   0  139.65    6.77
 -14  -5   0  144.98    7.55
  14   5   0  130.03    6.98
 -14   5   0  127.27    7.03
 -14  -5   0  138.24    7.19
  14  -5   0  135.34    7.09
 -14  -5   1    0.20    2.13
 -14  -5   1   -0.36    1.86
  14  -5  -1    1.65    1.81
  14  -5  -1    1.99    1.58
 -14   5  -1    2.08    1.85
 -14   5  -1    2.27    1.70
  14   5   1   -0.87    1.51
 -14  -5  -1    1.53    1.98
 -14   5   1   -1.01    1.91
 -14   5   1    1.02    1.73
  14  -5   1   -0.05    1.55
 -14  -5  -1    3.45    2.19
  14   5  -1    3.34    1.55
 -14  -5   2   81.06    5.23
  14   5   2   75.48    4.77
  14  -5  -2   74.63    5.01
  14  -5  -2   77.90    5.00
 -14   5  -2   73.76    4.45
 -14  -5   2   80.32    4.88
 -14  -5  -2   79.35    5.62
 -14  -5  -2   76.00    4.99
  14   5  -2   79.82    4.42
 -14   5   2   70.82    4.85
  14   5  -2   81.62    4.88
  14  -5   2   79.04    4.79
  14  -5  -3    9.55    2.59
 -14  -5   3    7.59    2.52
  14  -5  -3   11.41    2.71
 -14  -5   3    8.76    2.25
  14   5   3    4.66    2.10
  14  -5   3    7.82    2.07
 -14   5   3    4.98    2.17
 -14  -5  -3    3.42    2.76
 -14  -5  -3    7.81    2.45
 -14  -6   0    2.07    3.44
 -14   6   0    3.25    2.24
  14   6   0    4.50    1.99
 -14  -6   0    2.00    2.51
  14  -6   0    3.18    2.11
  15   0   0   -0.23    0.85
 -15   0   0    0.14    0.86
 -15   0   0    0.66    1.01
  15   0   0    0.59    0.90
  15   0   1    0.12    0.88
 -15   0   1    0.51    1.01
 -15   0  -1    2.72    1.08
 -15   0  -1    1.31    0.90
  15   0  -1    0.73    0.90
  15   0   1    0.34    0.88
  15   0  -1    1.06    0.91
 -15   0   1    1.44    0.87
 -15   0  -1    1.21    1.00
 -15   0  -2    0.30    0.87
  15   0   2    0.35    0.91
  15   0  -2    0.15    0.87
 -15   0   2    1.48    0.96
  15   0  -2    0.93    0.92
  15   0   2    1.06    0.94
 -15   0  -2    0.57    0.99
 -15   0   2    0.88    1.17
 -15   0  -2   -0.28    0.97
  15   0   3    1.60    1.06
 -15   0   3    1.58    1.91
 -15   0  -3    0.46    1.14
 -15   0   3    0.67    1.38
  15   0  -3    0.90    0.96
  15   0   3    0.03    1.06
  15   0  -3    0.01    0.81
  15   0   3    0.76    1.12
 -15   0  -3   -0.45    0.80
 -15   0   3   -0.88    1.02
 -15   0  -3    0.58    0.75
  15   0   4   -1.61    1.07
 -15   0   4   -1.64    1.63
 -15   0   4    0.59    1.30
 -15   0  -4    0.37    1.40
  15   0   4   -1.91    1.42
  15   0   4   -0.86    1.28
 -15   0  -5    0.41    1.83
 -15   0   5    0.84    2.13
  15   0   5    1.28    1.40
 -15   0   5    1.07    1.70
  15  -1   0   99.90    5.10
  15   1   0  106.22    5.12
 -15   1   0  104.21    5.12
 -15  -1   0   99.49    5.09
 -15   1   0  100.33    5.13
  15  -1   0  107.77    5.14
 -15  -1   0  104.72    5.16
  15   1   0  103.07    5.09
 -15  -1   0  103.63    5.33
 -15   1  -1    7.28    1.16
  15   1   1    6.36    1.16
 -15  -1   1    8.00    1.38
 -15   1  -1    7.68    1.21
  15  -1  -1    8.84    1.32
  15   1   1    7.37    1.25
 -15  -1   1    5.31    1.12
 -15   1  -1    7.21    1.25
  15  -1  -1    6.89    1.24
 -15  -1  -1    8.43    1.32
 -15  -1  -1    7.51    1.22
  15  -1   1    5.25    1.09
  15   1  -1    9.51    1.22
 -15   1   1    6.48    1.33
 -15   1   1    8.23    1.50
 -15   1   1    6.99    1.22
  15  -1   1    5.75    1.18
  15   1  -1    7.66    1.24
 -15  -1  -1    6.30    1.27
 -15   1  -2   96.66    4.61
 -15  -1   2   92.04    4.78
 -15   1  -2   94.42    4.58
 -15  -1   2   93.39    4.85
 -15   1  -2   95.46    4.55
  15  -1  -2   99.01    4.76
  15  -1  -2   95.61    4.82
  15   1   2   86.58    4.77
  15   1   2   90.33    4.73
  15  -1   2   90.18    4.74
 -15   1   2   91.30    4.94
 -15  -1  -2   99.19    4.72
 -15   1   2   87.72    4.81
 -15   1   2   91.62    5.20
  15   1  -2   91.64    4.70
 -15  -1  -2   99.50    4.81
  15  -1   2   97.12    4.78
 -15  -1  -2   95.01    5.05
  15   1  -2   99.49    4.65
  15   1   3   -0.07    1.05
 -15   1  -3    0.43    0.56
 -15  -1   3    1.01    1.37
 -15   1  -3    1.50    0.53
  15   1   3    0.19    1.09
  15   1   3    0.48    1.37
  15  -1  -3    0.17    1.07
 -15   1  -3    0.15    0.88
  15  -1  -3   -0.59    1.03
 -15  -1   3   -0.22    1.14
 -15   1   3    1.46    1.15
  15   1  -3    0.26    0.76
 -15  -1  -3    0.69    0.88
 -15  -1  -3    1.62    1.43
  15  -1   3   -0.50    1.07
 -15   1   3   -0.20    1.79
 -15   1   3   -0.63    1.41
  15  -1   3    0.04    0.98
  15   1  -3   -0.01    0.83
 -15  -1  -3    0.30    1.16
 -15  -1   4   46.06    3.37
 -15  -1   4   40.47    3.07
 -15   1  -4   39.56    2.68
  15   1   4   42.76    2.99
  15   1   4   40.64    3.15
  15   1   4   43.61    3.38
  15  -1  -4   42.91    2.52
  15  -1  -4   42.82    2.57
  15  -1   4   44.31    3.05
 -15   1   4   46.96    3.17
 -15  -1  -4   42.63    3.48
  15  -1   4   42.92    2.92
 -15   1   4   43.38    3.51
 -15  -1   5    0.03    1.70
  15   1   5    1.20    1.60
 -15  -1  -5   -0.08    2.16
  15  -1   5    0.27    1.38
 -15   1   5    1.35    1.73
 -15  -2   0    2.32    1.42
  15  -2   0    2.11    1.12
 -15   2   0    1.85    1.05
  15   2   0    3.68    1.10
 -15   2   0    1.94    1.01
  15   2   0    1.52    1.05
 -15  -2   0    1.95    1.11
  15  -2   0    3.02    1.12
 -15  -2   0    1.93    1.25
 -15   2   0    2.02    1.21
 -15   2  -1  193.68    8.54
  15   2   1  170.37    8.56
 -15  -2   1  175.54    8.63
  15  -2  -1  188.14    8.67
  15   2   1  185.97    8.59
 -15  -2   1  167.57    8.54
 -15   2  -1  190.06    8.55
 -15   2  -1  186.51    8.28
  15   2  -1  190.88    8.53
 -15   2   1  175.38    8.68
 -15   2   1  181.26    8.61
 -15  -2  -1  196.61    8.93
  15  -2   1  191.51    8.63
 -15  -2  -1  187.61    8.64
 -15  -2  -1  193.04    8.64
  15   2  -1  189.01    8.57
 -15   2   1  175.91    8.66
  15  -2   1  176.97    8.54
 -15   2  -2   20.34    1.21
 -15   2  -2   19.19    1.73
 -15  -2   2   15.32    1.89
  15  -2  -2   17.88    2.11
  15   2   2   15.92    1.93
  15   2   2   20.89    2.41
  15   2   2   19.34    2.10
 -15  -2   2   18.32    2.17
 -15   2  -2   19.63    1.24
 -15   2  -2   21.58    1.73
  15  -2  -2   17.93    2.14
  15   2  -2   18.69    1.92
 -15  -2  -2   21.29    2.13
 -15   2   2   16.79    2.58
  15  -2   2   18.39    1.81
 -15   2   2   19.23    2.05
  15  -2   2   18.54    2.05
 -15  -2  -2   21.08    1.96
  15   2  -2   18.19    1.74
 -15  -2  -2   21.39    2.61
 -15   2   2   16.49    2.26
  15   2   3  134.48    6.57
  15   2   3  131.13    6.57
 -15  -2   3  136.34    6.50
  15   2   3  133.71    6.89
  15  -2  -3  117.37    6.42
 -15  -2   3  134.66    6.59
  15  -2  -3  131.57    6.58
  15  -2   3  131.23    6.44
  15   2  -3  130.92    6.01
  15  -2   3  129.60    6.45
 -15   2   3  147.29    6.69
 -15  -2  -3  134.18    6.35
 -15  -2  -3  116.83    6.90
 -15  -2  -3  135.64    6.57
 -15   2   3  134.62    6.77
 -15  -2   4    5.70    1.90
 -15  -2   4    7.90    1.72
  15   2   4    8.41    1.66
  15   2   4    6.24    1.72
  15  -2  -4    6.00    1.50
  15  -2  -4    8.20    1.56
 -15   2   4   10.23    1.79
  15  -2   4    9.48    1.54
 -15  -2  -4    5.71    1.49
 -15  -2  -4    7.23    1.29
  15  -2   4    8.42    1.79
 -15  -2  -4    7.78    2.28
 -15  -2   5   62.78    4.03
  15   2   5   62.50    4.05
 -15   2   5   55.34    4.38
 -15  -2  -5   60.01    5.00
  15  -2   5   60.61    3.80
  15   3   0  128.33    6.27
 -15  -3   0  131.55    6.34
  15   3   0  129.12    6.24
 -15  -3   0  124.86    6.54
  15  -3   0  125.41    6.29
 -15   3   0  126.47    6.29
  15  -3   0  121.34    6.29
 -15  -3   0  112.24    6.23
 -15   3   0  133.35    6.08
 -15   3   0  127.51    6.25
 -15   3  -1    3.86    1.33
  15   3   1    5.97    1.41
 -15   3  -1    5.62    0.90
  15   3   1    5.18    1.30
 -15  -3   1    7.10    1.49
  15  -3  -1    4.62    1.51
  15  -3  -1    5.79    1.48
 -15  -3   1    6.40    1.92
 -15   3  -1    4.78    1.26
 -15  -3   1    5.82    1.56
  15   3  -1    4.16    1.35
 -15   3   1    5.61    1.69
  15  -3   1    7.69    1.52
 -15   3   1    6.19    1.42
 -15  -3  -1    2.48    1.80
  15   3  -1    4.62    1.26
 -15  -3  -1    2.45    1.37
  15  -3   1    6.74    1.41
 -15   3   1    7.65    1.65
 -15  -3  -1    2.11    1.54
  15  -3  -2  107.52    5.62
 -15  -3   2   97.46    5.45
 -15  -3   2   94.64    5.40
 -15   3  -2  116.38    5.15
  15   3   2   94.42    5.44
  15  -3  -2  112.43    5.53
 -15   3  -2  117.75    5.19
  15   3   2   94.66    5.43
 -15   3   2  101.34    5.61
 -15  -3  -2  110.85    5.67
  15  -3   2  102.60    5.42
 -15   3   2   95.17    5.75
  15   3  -2  115.31    5.36
 -15  -3  -2  110.83    5.53
 -15   3   2   92.13    5.42
  15  -3   2   84.71    5.25
  15   3  -2  113.83    5.17
 -15  -3  -2  113.70    6.00
 -15  -3   3   33.44    2.81
  15  -3  -3   29.41    2.87
 -15  -3   3   33.16    3.03
  15  -3  -3   36.30    2.90
  15   3   3   29.18    2.80
  15   3  -3   31.53    1.97
 -15  -3  -3   31.27    2.83
  15   3  -3   34.60    2.18
  15  -3   3   32.39    2.96
 -15   3   3   30.40    2.79
  15  -3   3   36.20    2.75
 -15  -3  -3   31.78    3.14
 -15  -3  -3   25.40    3.61
  15  -3  -4   81.03    5.03
  15   3   4   90.56    5.13
 -15  -3   4   96.35    5.00
  15  -3  -4   83.65    5.02
 -15  -3   4   90.05    5.27
 -15   3   4   99.67    5.21
 -15  -3  -4   80.27    5.17
 -15  -3  -4   86.30    6.01
  15  -3   4   85.76    5.11
 -15  -3  -4   89.71    4.88
  15  -3   4   88.99    5.02
  15   4   0    7.87    1.70
 -15   4   0    9.18    1.81
 -15   4   0    9.61    1.74
 -15   4   0   10.63    1.58
 -15  -4   0   10.89    1.89
 -15  -4   0    9.37    2.06
  15   4   0   10.40    1.74
  15  -4   0    8.99    1.72
 -15  -4   1   31.67    2.88
  15   4   1   29.32    2.68
  15  -4  -1   28.60    2.86
 -15   4  -1   31.60    1.93
 -15   4  -1   28.55    2.59
 -15  -4   1   28.00    3.11
 -15   4  -1   31.07    2.78
  15   4  -1   28.91    2.76
  15  -4   1   26.02    2.67
 -15  -4  -1   23.74    2.84
  15  -4   1   29.20    2.64
 -15  -4  -1   32.48    3.36
 -15   4   1   29.12    2.99
 -15   4   1   28.43    2.77
  15   4  -1   29.78    2.46
 -15  -4   2    1.96    1.57
 -15   4  -2    2.61    1.34
 -15  -4   2    5.91    2.12
 -15   4  -2    4.01    1.41
  15   4   2    3.63    1.49
 -15  -4   2    5.53    2.77
  15  -4  -2    2.40    1.68
 -15  -4  -2    3.11    2.23
  15  -4   2    1.53    1.70
  15   4  -2    3.75    1.28
 -15  -4  -2    3.25    1.82
 -15   4   2    2.14    1.62
  15  -4   2    3.25    1.49
  15   4  -2    2.01    1.61
 -15  -4   3   23.22    3.54
  15   4   3   19.05    2.67
 -15  -4   3   20.77    2.78
  15  -4  -3   18.61    2.54
 -15   4   3   19.17    2.40
  15  -4   3   22.00    2.96
 -15  -4  -3   14.90    2.36
 -15  -4  -3   15.76    2.97
  15  -4  -4   -3.79    2.07
  15   4   4    0.83    2.05
 -15  -4   4    3.82    1.97
  15  -4   4    3.59    1.99
 -15  -4  -4    0.50    2.13
 -15  -4  -4   -2.28    2.82
 -15   4   4    0.91    1.99
  15   5   0    3.39    1.62
 -15  -5   0    3.88    2.10
 -15  -5   0    1.28    2.00
  15  -5   0    3.02    1.76
 -15   5   0    0.58    1.68
 -15   5   0    0.25    1.32
  15   5   1    8.47    1.95
 -15  -5   1    7.92    2.18
 -15   5  -1    6.76    1.89
 -15  -5   1    8.04    2.63
  15  -5  -1    5.03    2.18
 -15   5   1    7.04    2.16
 -15  -5  -1    4.66    2.14
  15   5  -1    5.82    1.72
  15  -5   1    8.23    2.03
 -15  -5  -1    7.33    2.49
 -15   5   1    9.17    2.21
 -15  -5   2    8.73    2.24
 -15   5  -2    6.02    1.81
 -15  -5   2    8.78    2.43
  15  -5  -2    4.74    2.04
  15  -5  -2   11.53    2.40
  15   5   2    7.74    2.07
  15   5  -2   10.72    2.22
 -15   5   2    9.58    2.28
 -15  -5  -2    5.85    2.37
  15  -5   2    7.77    2.03
 -15  -5  -2   11.44    3.09
  15   5  -2    9.26    1.78
 -16   0   0    2.52    1.02
  16   0   0    1.75    0.96
  16   0   0    1.01    0.96
 -16   0   0    0.64    1.14
 -16   0  -1  210.43    9.84
 -16   0  -1  229.83    9.78
  16   0  -1  225.86    9.80
 -16   0   1  193.90    9.74
 -16   0  -1  238.36    9.83
  16   0   1  204.45    9.73
  16   0   1  199.59    9.76
  16   0  -1  220.07    9.79
 -16   0   1  195.95    9.79
 -16   0   2    2.82    1.36
 -16   0  -2    2.33    1.01
  16   0   2    2.57    1.12
 -16   0   2    0.95    1.05
  16   0  -2    1.99    1.00
  16   0   2    1.38    1.04
 -16   0  -2    0.63    1.10
  16   0  -2    2.27    1.08
 -16   0  -2    1.64    1.15
 -16   0   3   79.13    4.49
 -16   0  -3   82.06    4.08
  16   0   3   82.05    4.42
 -16   0  -3   87.04    4.05
 -16   0  -3   79.83    4.46
 -16   0   3   81.92    4.66
  16   0   3   81.80    4.42
  16   0  -3   83.36    4.18
  16   0  -3   86.51    4.25
 -16   0   4    2.06    1.45
  16   0   4    0.85    1.21
 -16   0   4    0.01    1.74
  16   0  -4    1.19    0.64
  16   0   4    1.79    1.49
 -16   0  -4    3.04    1.49
  16   0  -4    0.62    0.59
  16   0   4    1.42    1.46
  16   0   5   49.64    3.46
 -16   0  -5   46.33    3.93
 -16   0   5   55.12    3.94
  16  -1   0   33.59    2.41
  16  -1   0   33.09    2.40
 -16  -1   0   33.56    2.70
 -16   1   0   33.11    2.47
 -16  -1   0   34.29    2.48
  16   1   0   34.20    2.37
 -16  -1   0   30.24    2.30
  16   1   0   32.84    2.32
 -16   1   0   33.39    2.40
  16  -1  -1    2.19    1.16
 -16  -1   1    2.46    1.10
 -16   1  -1    0.99    1.01
  16   1   1    2.28    1.02
  16   1   1    1.36    0.99
 -16   1  -1    2.11    1.13
 -16  -1   1    2.02    1.24
 -16   1  -1    1.69    1.01
  16  -1  -1    1.96    1.08
 -16   1   1    0.84    1.26
  16   1  -1    1.00    0.93
  16  -1   1    1.34    1.04
 -16   1   1    1.72    1.25
 -16  -1  -1    1.98    1.26
 -16  -1  -1    1.32    1.24
  16   1  -1    1.65    1.12
 -16   1   1    1.73    1.04
  16  -1   1    1.83    0.96
 -16  -1  -1    0.73    1.00
  16   1   2  114.12    5.75
 -16   1  -2  117.06    5.54
 -16  -1   2  109.76    5.74
 -16   1  -2  109.27    5.48
  16  -1  -2  113.77    5.70
 -16   1  -2  119.08    5.55
 -16  -1   2  116.69    5.84
  16   1   2  123.26    5.73
 -16  -1  -2  118.78    5.73
  16  -1   2  114.88    5.71
 -16   1   2  116.72    5.76
  16   1  -2  117.56    5.57
  16  -1   2  116.22    5.71
  16   1  -2  115.53    5.66
 -16  -1  -2  111.85    5.61
 -16  -1  -2  115.18    5.96
 -16   1   2  115.02    6.19
 -16   1   2  106.19    5.82
 -16   1  -3   21.81    1.55
  16  -1  -3   24.70    2.25
 -16   1  -3   26.29    1.90
  16  -1  -3   22.69    2.17
  16   1   3   22.92    2.24
 -16  -1   3   24.90    2.20
  16   1   3   26.22    2.60
 -16  -1   3   23.26    2.48
  16   1   3   19.25    2.19
 -16   1  -3   22.53    1.57
  16  -1   3   25.92    2.27
 -16  -1  -3   22.10    2.66
 -16   1   3   23.88    2.38
 -16   1   3   25.38    2.78
  16  -1   3   24.36    2.29
 -16  -1  -3   23.94    2.26
  16   1  -3   23.16    1.80
 -16  -1  -3   24.92    1.96
  16   1   4   60.46    4.27
 -16  -1   4   64.08    3.92
  16   1   4   60.65    3.86
  16  -1  -4   64.39    3.40
 -16  -1   4   66.61    4.11
 -16   1  -4   60.16    3.50
  16   1   4   59.81    3.93
  16  -1  -4   62.35    3.41
 -16   1   4   63.72    4.34
  16  -1   4   63.13    3.87
  16  -1   4   62.62    3.74
 -16  -1  -4   61.79    4.28
 -16   1   4   65.82    3.95
  16   1   5    1.36    1.68
 -16  -1   5   -0.48    1.87
 -16  -1  -5    3.30    2.29
 -16   1   5    2.97    2.05
  16  -1   5    2.90    1.55
 -16   2   0    3.14    1.33
 -16  -2   0    3.54    1.32
 -16   2   0    4.78    1.14
  16  -2   0    3.62    1.22
  16   2   0    3.86    1.21
  16  -2   0    3.06    1.16
 -16  -2   0    1.94    1.18
 -16  -2   0    2.60    1.48
 -16   2   0    2.67    1.14
  16   2   0    3.55    1.16
  16   2   1   14.60    1.85
 -16   2  -1   14.07    1.78
 -16  -2   1   14.13    1.84
  16  -2  -1   13.59    1.83
 -16   2  -1   14.82    1.48
 -16  -2   1   16.10    2.05
 -16   2  -1   13.56    1.99
  16   2   1   17.23    1.92
 -16   2   1   12.75    1.66
  16  -2   1   16.34    1.89
 -16  -2  -1   11.17    1.85
 -16  -2  -1   11.26    1.60
  16   2  -1   10.88    1.48
 -16   2   1   16.05    2.23
 -16   2   1   14.16    2.10
  16   2  -1   12.27    1.79
  16  -2   1   15.11    1.89
 -16  -2  -1   10.80    1.71
 -16  -2   2   10.13    1.65
 -16   2  -2   11.27    1.37
 -16   2  -2    9.77    1.08
  16   2   2   11.61    1.65
  16   2   2    6.04    1.75
  16   2   2   10.06    1.54
  16  -2  -2    8.84    1.59
  16  -2  -2   11.77    1.71
 -16   2  -2    9.48    1.08
 -16  -2   2    8.00    1.52
 -16   2  -2   11.03    1.60
 -16   2   2   11.52    1.67
  16  -2   2   10.47    1.57
  16   2  -2   11.26    1.56
  16   2  -2   10.62    1.49
 -16   2   2   11.72    1.90
 -16  -2  -2   10.89    2.00
 -16   2   2    7.86    2.01
  16  -2   2    8.80    1.49
 -16  -2  -2   13.48    1.79
 -16  -2  -2   11.64    1.58
 -16  -2   3   43.16    3.28
  16   2   3   44.21    3.27
 -16  -2   3   46.41    3.12
  16  -2  -3   42.70    3.12
  16   2   3   44.57    3.61
  16   2   3   41.55    3.09
  16  -2  -3   47.48    3.19
 -16  -2  -3   48.84    3.33
 -16  -2  -3   47.58    3.73
 -16   2   3   42.52    3.11
  16   2  -3   46.76    2.56
  16   2  -3   47.96    2.69
  16  -2   3   44.45    2.95
 -16   2   3   40.48    3.54
 -16  -2  -3   46.28    2.93
  16  -2   3   46.18    3.18
  16   2   4    4.47    1.62
  16  -2  -4    3.31    1.46
 -16  -2   4    4.39    1.63
 -16  -2   4    4.86    2.03
  16  -2  -4    6.12    1.60
  16  -2   4    4.62    1.74
 -16   2   4    3.23    1.64
  16  -2   4    5.35    1.52
 -16  -2  -4    3.16    1.21
 -16  -2  -4    3.27    2.08
 -16  -2  -4    2.18    1.42
  16   3   0    8.28    1.56
 -16  -3   0   11.57    2.11
  16   3   0   13.14    1.83
  16  -3   0   10.13    1.63
 -16  -3   0    9.69    1.77
 -16   3   0    8.81    1.46
 -16   3   0    9.65    1.75
 -16   3   0    9.76    1.60
 -16  -3   0   11.20    1.74
  16   3   1   16.29    2.08
  16  -3  -1   15.14    2.24
 -16   3  -1   14.29    1.48
 -16  -3   1   20.18    2.15
  16   3   1   15.32    2.01
 -16   3  -1   17.19    2.03
  16  -3  -1   15.16    2.24
 -16  -3   1   16.74    2.29
 -16  -3   1   17.65    2.73
 -16   3  -1   14.29    1.84
 -16   3   1   17.86    2.43
 -16  -3  -1   14.63    2.07
 -16   3   1   16.58    2.16
  16   3  -1   15.18    2.21
  16  -3   1   16.61    2.03
 -16   3   1   15.44    2.04
  16  -3   1   18.07    2.27
 -16  -3  -1   15.84    1.96
 -16  -3  -1   17.64    2.72
  16   3  -1   15.64    1.88
 -16  -3   2   12.53    1.77
  16   3   2   12.74    1.74
 -16  -3   2   12.86    1.94
 -16   3  -2    8.91    1.45
  16  -3  -2   13.62    1.92
  16  -3  -2    9.61    1.75
  16   3   2   11.46    1.91
 -16   3  -2   15.24    1.94
 -16   3   2   12.74    2.39
  16  -3   2   12.18    1.72
 -16  -3  -2   14.57    2.51
 -16  -3  -2   13.75    2.08
 -16  -3  -2   11.32    1.90
 -16   3   2   13.36    1.88
  16  -3   2   17.35    2.33
  16   3  -2   12.98    1.73
  16   3  -2   13.04    1.79
  16  -3  -3   10.35    1.92
 -16  -3   3   11.70    1.87
  16  -3  -3    9.31    1.89
 -16  -3   3   11.98    2.17
  16   3   3   13.06    1.85
 -16   3   3   10.72    1.90
 -16  -3  -3    7.83    2.36
  16   3  -3    8.40    1.38
  16  -3   3    9.68    1.67
 -16  -3  -3   10.32    1.82
 -16  -3  -3   10.64    2.13
  16   3  -3    8.05    1.12
  16  -3   3    9.37    1.98
  16  -3  -4   11.04    2.07
 -16  -3   4    8.23    2.41
  16   3   4    4.82    1.86
 -16  -3   4    6.69    1.86
 -16  -3  -4   12.13    1.93
 -16   3   4    5.87    1.96
 -16  -3  -4   10.04    2.76
  16  -3   4    7.47    1.88
 -16   4   0    0.15    2.15
 -16   4   0    1.58    1.33
  16   4   0    0.05    1.40
 -16  -4   0    3.64    1.72
 -16   4   0    2.45    1.53
  16  -4   0   -1.45    1.43
 -16  -4   0    2.11    1.94
  16  -4  -1   57.83    4.11
 -16  -4   1   60.86    3.97
  16   4   1   67.73    3.94
 -16   4  -1   58.01    3.92
 -16   4  -1   59.49    3.90
 -16  -4   1   64.83    4.39
 -16   4  -1   57.26    3.12
 -16  -4  -1   51.88    4.38
  16  -4   1   61.56    3.88
 -16  -4  -1   55.82    3.98
  16   4  -1   59.78    3.94
 -16   4   1   67.78    3.99
  16   4  -1   59.50    3.76
 -16   4   1   69.14    4.21
  16   4   2    4.07    1.64
 -16  -4   2    4.47    2.11
 -16  -4   2    3.60    1.73
  16  -4  -2    6.50    1.89
 -16   4  -2    4.93    1.51
 -16   4  -2    4.31    1.47
  16   4  -2    2.71    1.31
 -16   4   2    4.29    1.82
 -16  -4  -2    3.06    1.83
 -16  -4  -2    6.69    2.47
  16  -4   2    4.98    2.58
  16   4  -2    3.89    1.78
  16  -4   2    3.71    1.61
  16   4   3   55.65    3.92
 -16  -4   3   56.45    3.97
 -16  -4   3   58.40    4.61
  16  -4  -3   55.92    4.21
 -16   4   3   59.25    4.05
  16  -4   3   57.37    4.35
 -16  -4  -3   48.32    4.08
 -16  -4  -3   52.18    4.88
 -16   5   0   72.59    4.53
  16   5   0   72.74    4.41
  16  -5   0   75.85    4.67
 -16  -5   0   64.42    4.67
 -16  -5   0   71.00    5.14
  16   5   1    5.91    1.92
 -16   5  -1    1.31    1.76
 -16  -5   1    1.63    2.05
  16  -5  -1    1.41    2.00
 -16  -5   1    3.01    2.24
 -16   5   1    2.63    2.05
  16   5  -1    3.33    1.61
  16  -5   1    2.03    1.80
 -16  -5  -1    4.25    2.55
 -16  -5  -1    0.80    2.09
 -16   5   1    3.23    1.97
 -16  -5   2   51.44    4.16
 -16  -5   2   64.17    4.79
  16  -5  -2   50.97    4.32
  16   5   2   53.29    4.17
 -16  -5  -2   59.06    4.58
  16  -5   2   59.18    4.32
  16   5  -2   53.07    3.78
  16   5  -2   64.61    4.24
 -16  -5  -2   57.24    5.14
 -16   5   2   56.05    4.27
 -17   0   0    0.02    1.00
  17   0   0    0.61    1.02
 -17   0   0   -0.74    1.20
  17   0   0   -0.13    0.99
  17   0   1    0.89    0.99
 -17   0  -1    2.68    1.26
 -17   0  -1    0.36    1.00
  17   0  -1    0.78    1.10
  17   0  -1    0.39    1.01
 -17   0   1    1.45    1.24
 -17   0  -1    0.82    1.16
 -17   0   1    2.39    1.07
  17   0   1    0.97    1.05
 -17   0  -2   -0.55    1.17
  17   0   2    0.45    1.13
  17   0  -2    1.13    1.16
 -17   0   2   -0.02    1.02
 -17   0  -2   -1.02    1.19
  17   0  -2    0.57    0.98
 -17   0  -2   -0.23    1.00
 -17   0   2    0.77    1.45
  17   0   2    0.12    1.11
 -17   0   3    0.59    1.59
 -17   0  -3   -1.12    0.89
  17   0  -3    1.38    0.99
  17   0   3    0.21    1.25
 -17   0   3    1.36    1.31
  17   0  -3   -0.43    1.13
 -17   0  -3   -1.04    1.03
 -17   0  -3   -0.52    1.24
  17   0   3    0.79    1.15
 -17   0   4    0.20    1.50
  17   0   4    1.14    1.53
  17   0   4    0.20    1.60
 -17   0  -4    0.75    1.48
  17   0   4   -1.40    1.28
  17   0  -4    1.61    0.86
  17   0  -4   -0.47    0.74
 -17   0   4   -0.71    1.88
  17   0   5    1.87    1.61
 -17   0   5    3.29    2.04
 -17   0  -5   -0.65    2.04
  17   1   0   80.84    4.28
 -17  -1   0   78.60    4.58
  17  -1   0   82.40    4.35
 -17   1   0   80.00    4.39
 -17  -1   0   81.22    4.32
  17   1   0   82.41    4.30
 -17   1   0   84.04    4.32
 -17  -1   0   79.88    4.38
  17  -1   0   81.53    4.34
 -17   1  -1    8.14    1.35
  17  -1  -1    5.41    1.29
 -17  -1   1    4.76    1.28
 -17  -1   1    5.76    1.47
  17   1   1    5.79    1.28
 -17   1  -1    7.09    1.43
  17  -1  -1    4.86    1.32
  17   1   1    4.23    1.24
 -17   1  -1    5.34    1.24
  17   1  -1    6.09    1.32
 -17   1   1    5.13    1.46
 -17  -1  -1    6.74    1.30
 -17   1   1    5.00    1.57
 -17  -1  -1    6.29    1.43
 -17   1   1    5.39    1.27
  17   1  -1    5.47    1.21
 -17  -1  -1    5.57    1.39
  17  -1   1    4.39    1.28
  17  -1   1    5.58    1.24
 -17   1  -2   73.20    3.89
 -17   1  -2   76.47    3.94
  17   1   2   74.75    4.14
 -17   1  -2   76.97    3.97
  17  -1  -2   76.47    4.13
 -17  -1   2   74.65    4.30
  17   1   2   75.44    4.10
 -17  -1   2   69.80    4.13
  17  -1   2   76.04    4.12
 -17   1   2   68.28    4.13
 -17   1   2   71.04    4.63
 -17   1   2   71.81    4.29
 -17  -1  -2   74.85    4.40
 -17  -1  -2   72.42    4.11
  17   1  -2   75.24    3.92
 -17  -1  -2   74.12    4.00
  17  -1   2   74.86    4.12
  17   1  -2   75.80    4.09
 -17  -1   3    2.00    1.40
 -17   1  -3    0.03    0.82
  17   1   3    0.45    1.31
 -17   1  -3    1.19    0.80
  17  -1  -3    1.86    1.27
 -17  -1   3    0.31    1.58
  17   1   3    1.45    1.54
  17  -1  -3    0.57    1.31
 -17   1  -3    0.69    0.97
  17   1   3    0.22    1.14
  17   1  -3    0.85    0.93
 -17  -1  -3    0.63    1.09
 -17  -1  -3    0.72    1.35
 -17   1   3   -0.18    1.65
  17  -1   3   -0.36    1.19
 -17   1   3    0.17    1.26
  17  -1   3    0.98    1.35
 -17  -1  -3    0.98    1.58
  17   1   4   34.64    2.95
 -17  -1   4   42.71    3.45
  17   1   4   46.67    3.31
  17   1   4   29.87    3.49
 -17   1  -4   35.84    2.57
  17  -1  -4   30.53    2.50
 -17  -1   4   35.29    3.10
  17  -1  -4   38.04    2.54
  17  -1   4   36.13    2.84
 -17  -1  -4   33.78    2.14
 -17   1   4   38.06    3.15
  17  -1   4   37.15    3.08
 -17  -1  -4   35.36    3.42
 -17   1   4   37.13    3.42
 -17  -1   5    0.12    1.89
  17   1   5    1.08    1.77
  17  -1   5    0.74    1.53
 -17   1   5    2.52    2.04
 -17  -1  -5   -0.46    2.34
  17  -2   0    1.15    1.29
 -17  -2   0   -0.07    1.23
 -17  -2   0   -0.90    1.37
 -17  -2   0    0.93    1.47
  17   2   0    0.56    1.06
 -17   2   0   -0.46    1.07
  17   2   0    0.67    1.13
  17  -2   0   -0.59    1.08
 -17   2   0    0.29    1.36
 -17   2   0   -0.28    1.09
 -17   2  -1  162.82    7.95
  17   2   1  162.06    8.00
 -17  -2   1  165.76    8.02
 -17   2  -1  170.42    7.71
 -17   2  -1  169.29    7.99
 -17  -2   1  168.19    8.06
  17  -2  -1  169.07    8.06
  17   2   1  174.64    8.02
 -17   2   1  177.54    8.19
  17  -2   1  164.58    8.00
 -17   2   1  175.48    8.07
 -17  -2  -1  163.28    8.02
 -17  -2  -1  164.41    8.05
  17   2  -1  170.44    7.95
 -17  -2  -1  173.80    8.36
  17  -2   1  162.77    7.98
  17   2  -1  166.60    7.99
 -17   2   1  162.48    8.09
 -17   2  -2    6.20    0.92
 -17  -2   2    5.55    1.65
 -17   2  -2    5.46    1.23
  17   2   2    7.37    1.46
 -17   2  -2    6.37    0.93
 -17  -2   2    3.48    1.43
  17  -2  -2    6.20    1.50
  17   2   2    2.81    1.43
 -17   2  -2    5.61    1.31
  17  -2  -2    8.42    1.68
 -17   2   2    5.00    1.45
  17  -2   2    5.93    1.35
  17   2  -2    7.24    1.25
  17   2  -2    5.52    1.44
 -17   2   2    7.39    1.80
 -17  -2  -2    7.15    1.72
  17  -2   2    6.60    1.53
 -17  -2  -2    6.26    1.88
 -17   2   2    3.75    1.89
 -17  -2  -2    7.17    1.49
  17   2   3   89.35    4.98
  17  -2  -3   96.72    4.93
  17   2   3   86.26    4.94
 -17   2  -3   84.67    4.11
 -17  -2   3   91.85    5.08
 -17   2  -3   89.78    4.13
 -17  -2   3   91.51    4.91
  17   2   3   81.75    5.38
  17  -2  -3   90.99    4.92
  17   2  -3   87.83    4.37
 -17  -2  -3   90.37    4.73
 -17  -2  -3   92.99    5.44
  17  -2   3   94.86    4.91
 -17   2   3   90.26    4.93
 -17   2   3   85.27    5.79
  17   2  -3   88.85    4.51
  17  -2   3   82.90    4.80
 -17  -2  -3   92.99    5.00
 -17  -2   4    2.57    1.63
  17  -2  -4    0.57    1.46
 -17  -2   4    2.38    2.07
  17  -2  -4    1.27    1.62
  17   2   4   -0.58    1.51
 -17  -2  -4    1.49    2.05
  17  -2   4   -0.87    1.40
  17  -2   4    3.49    1.84
 -17  -2  -4    2.93    1.30
 -17   2   4   -0.66    1.63
 -17   3   0   61.59    3.44
 -17   3   0   48.34    3.48
  17   3   0   56.73    3.49
 -17  -3   0   53.55    3.60
  17   3   0   56.73    3.59
 -17   3   0   55.62    3.65
  17  -3   0   57.61    3.59
 -17  -3   0   60.71    3.75
 -17  -3   0   60.34    4.04
 -17  -3   1    5.37    1.54
  17  -3  -1    5.27    1.59
 -17   3  -1    4.50    1.02
 -17   3  -1    5.72    1.48
 -17   3  -1    6.33    1.61
 -17  -3   1    6.45    2.07
  17   3   1    6.04    1.47
 -17  -3   1    4.99    1.70
  17   3  -1    8.05    1.65
 -17  -3  -1    6.64    2.08
  17  -3   1    5.74    1.65
  17   3  -1    6.16    1.45
 -17  -3  -1    6.06    1.77
 -17  -3  -1    4.93    1.62
  17  -3   1    4.24    1.40
 -17   3   1    4.72    1.59
 -17   3   1    8.12    1.89
 -17   3  -2  111.25    5.85
 -17   3  -2  106.92    5.81
 -17  -3   2  122.89    6.68
 -17  -3   2  123.24    6.30
 -17  -3   2  126.81    6.18
  17  -3  -2  113.61    6.21
  17   3   2  132.85    6.23
  17  -3   2  131.27    6.25
  17  -3   2  124.64    6.13
 -17   3   2  126.50    6.23
 -17   3   2  128.32    6.62
  17   3  -2  109.71    6.02
 -17  -3  -2  113.66    6.67
 -17  -3  -2  112.97    6.26
  17   3  -2  111.94    5.82
 -17  -3  -2  111.58    6.12
 -17  -3   3   18.52    2.54
  17   3   3   19.26    2.61
 -17  -3   3   20.41    2.99
  17  -3  -3   21.27    2.78
  17   3  -3   21.16    1.80
 -17  -3  -3   23.74    3.82
 -17  -3  -3   21.42    2.64
  17  -3   3   21.44    2.47
  17  -3   3   19.39    2.45
 -17   3   3   21.68    2.50
 -17  -3  -3   19.39    2.47
  17   3   4   41.93    3.53
 -17  -3   4   39.29    3.56
  17  -3  -4   42.80    3.66
 -17  -3  -4   50.97    3.56
 -17   3   4   37.55    3.62
 -17  -3  -4   53.82    4.84
  17  -3   4   37.76    3.45
  17   4   0    1.46    1.43
 -17  -4   0    0.40    1.97
  17  -4   0   -0.31    1.50
 -17  -4   0   -0.23    1.69
 -17   4   0   -0.05    1.38
 -17   4   0    0.35    1.58
  17  -4  -1   13.82    2.08
 -17   4  -1   16.21    2.39
 -17  -4   1   13.06    2.51
  17   4   1   10.24    1.94
 -17   4  -1   13.57    2.08
 -17  -4   1   12.89    2.20
 -17  -4  -1   15.06    2.27
 -17   4   1   14.48    2.26
  17   4  -1   16.38    2.33
 -17  -4  -1   12.72    2.43
 -17   4   1    9.93    2.04
  17   4  -1   14.46    2.19
  17  -4   1   12.74    1.99
 -17   4  -2   10.08    1.76
  17   4   2    5.25    1.84
 -17  -4   2    7.13    2.32
 -17   4  -2   11.28    1.74
 -17  -4   2    8.17    1.96
  17  -4  -2    8.14    2.15
 -17  -4  -2   12.09    2.67
  17   4  -2   10.15    1.62
 -17   4   2    9.88    2.08
  17  -4   2    9.74    1.88
 -17  -4  -2   10.09    2.11
  17   4  -2    9.44    2.03
  17  -4  -3   28.52    3.46
 -17  -4   3   25.04    3.39
  17   4   3   19.11    2.50
 -17  -4   3   18.60    2.53
 -17  -4  -3   29.49    3.26
  17  -4   3   21.42    2.90
 -17   4   3   14.59    2.59
 -17  -4  -3   21.63    3.47
 -17  -5   0    2.36    2.14
 -17   5   0   -0.88    2.03
  17   5   0    2.16    1.75
 -17  -5   0    4.32    2.27
  17  -5   0    0.66    1.86
 -17  -5   1    1.44    2.10
 -17   5  -1    3.60    2.04
  17  -5  -1    4.36    2.12
  17   5   1    3.56    1.94
 -17  -5   1    2.34    2.54
  17  -5   1    0.70    1.92
  17   5  -1    2.13    1.75
 -17  -5  -1    2.24    2.15
 -17   5   1    3.63    2.07
 -17  -5  -1    0.39    2.50
 -17   5   1    5.31    2.24
  17  -5  -2    1.42    2.44
 -17  -5   2    4.78    2.22
 -17  -5   2    4.40    2.61
  17   5   2   -1.14    1.88
 -17   5   2    0.94    2.18
 -17  -5  -2   -3.39    2.44
 -17  -5  -2    0.45    2.33
  17  -5   2    1.03    2.07
  17   5  -2    0.80    1.65
 -18   0   0   55.62    3.42
 -18   0   0   57.68    3.55
  18   0   0   59.90    3.44
  18   0   0   59.61    3.46
 -18   0   1  373.84   16.86
  18   0  -1  365.33   16.79
  18   0   1  400.30   16.90
  18   0   1  408.45   16.86
 -18   0  -1  377.76   16.82
  18   0  -1  378.72   16.84
 -18   0   1  377.35   16.91
 -18   0  -1  346.12   16.85
 -18   0  -1  363.07   16.78
 -18   0  -2   39.27    2.96
 -18   0  -2   42.94    2.72
  18   0  -2   42.54    2.79
 -18   0  -2   40.09    2.85
  18   0   2   39.89    2.93
  18   0  -2   40.18    2.73
 -18   0   2   42.96    3.13
  18   0   2   38.45    2.87
 -18   0   2   34.53    2.78
  18   0  -3   60.68    3.60
 -18   0  -3   58.50    3.75
  18   0   3   66.03    3.75
 -18   0   3   65.32    4.01
  18   0   3   70.08    3.86
  18   0  -3   54.80    3.41
 -18   0   3   65.92    3.86
 -18   0  -3   58.62    3.32
 -18   0  -3   55.87    3.42
 -18   0  -4    5.59    1.71
  18   0   4    3.02    1.46
  18   0   4    1.85    1.71
  18   0  -4    0.51    1.19
 -18   0   4    0.85    2.00
 -18   0   4    1.12    1.67
 -18   0   5   48.47    4.18
  18   0   5   51.49    3.71
  18   1   0  249.90   11.32
 -18   1   0  238.39   11.32
 -18   1   0  260.49   11.34
 -18  -1   0  239.36   11.52
  18   1   0  231.07   11.25
 -18  -1   0  245.95   11.33
  18  -1   0  256.01   11.38
  18  -1   0  247.99   11.31
 -18  -1   0  250.62   11.37
 -18   1  -1    1.55    1.20
 -18   1  -1    1.83    1.18
 -18  -1   1   -0.25    1.13
  18   1   1   -0.10    1.09
  18  -1  -1    0.89    1.29
 -18  -1   1    1.60    1.41
  18  -1  -1    2.19    1.22
 -18   1  -1    2.99    1.35
  18   1   1   -0.39    1.13
 -18  -1  -1   -0.52    1.31
 -18   1   1    1.38    1.18
 -18  -1  -1    1.44    1.22
  18  -1   1   -0.66    1.02
 -18   1   1    1.70    1.47
 -18   1   1    1.52    1.43
  18  -1   1   -1.75    1.09
  18   1  -1    0.45    1.04
  18   1  -1    0.05    1.18
 -18  -1  -1    0.88    1.36
  18   1   2  109.15    5.51
  18   1   2  105.54    5.48
  18  -1  -2  102.26    5.49
 -18   1  -2  106.69    5.31
 -18  -1   2  104.67    5.53
 -18  -1   2  110.18    5.63
 -18   1  -2  101.32    5.30
 -18   1  -2  105.46    5.34
 -18   1   2  112.88    6.11
  18   1  -2  107.03    5.46
 -18   1   2  107.44    5.53
 -18   1   2  108.05    5.71
  18   1  -2  104.86    5.32
 -18  -1  -2  106.04    5.51
 -18  -1  -2  102.07    5.76
 -18  -1  -2  105.61    5.39
  18  -1   2  110.18    5.52
  18  -1   2  112.66    5.50
 -18   1  -3   28.51    1.97
  18  -1  -3   30.99    2.74
 -18   1  -3   30.51    2.07
  18  -1  -3   29.86    2.56
 -18  -1   3   24.29    2.99
 -18   1  -3   29.66    2.24
 -18  -1   3   24.76    2.65
  18   1   3   28.85    2.82
  18   1   3   28.74    2.60
  18  -1   3   29.07    2.54
 -18   1   3   30.38    2.78
  18  -1   3   28.72    2.66
  18   1  -3   30.79    2.20
 -18  -1  -3   34.10    3.15
 -18  -1  -3   29.96    2.71
 -18  -1  -3   28.07    2.33
 -18   1   3   29.25    3.18
  18   1   4   60.69    4.17
 -18  -1   4   53.25    3.81
  18   1   4   50.98    3.73
  18  -1  -4   59.83    3.39
 -18  -1   4   56.70    4.20
  18   1   4   49.67    3.91
 -18   1  -4   59.96    3.36
 -18  -1  -4   66.96    4.34
  18  -1   4   53.95    3.64
  18  -1   4   48.20    3.79
 -18   1   4   55.58    3.94
 -18  -2   0    5.64    1.78
  18  -2   0    6.89    1.42
 -18   2   0    8.54    1.50
  18   2   0    7.75    1.51
 -18  -2   0    2.48    1.36
 -18  -2   0    4.44    1.67
 -18   2   0    5.20    1.42
 -18   2   0    6.17    1.57
  18  -2   0    6.82    1.54
  18   2   0    5.51    1.39
 -18   2  -1   20.30    2.42
 -18   2  -1   23.74    2.18
  18  -2  -1   20.74    2.31
  18   2   1   21.84    2.21
 -18  -2   1   21.14    2.29
  18  -2  -1   23.96    2.48
 -18  -2   1   21.51    2.56
 -18   2  -1   23.73    1.98
  18   2   1   24.37    2.30
 -18   2   1   22.85    2.57
  18  -2   1   20.91    2.17
  18  -2   1   20.14    2.32
 -18   2   1   24.97    2.67
 -18  -2  -1   23.62    2.32
 -18   2   1   21.48    2.32
  18   2  -1   19.29    2.24
  18   2  -1   23.02    2.22
 -18  -2  -1   22.92    2.54
 -18  -2  -1   22.50    2.78
  18   2   2    1.77    1.36
 -18  -2   2    3.41    1.62
 -18   2  -2    3.58    1.23
 -18   2  -2    3.43    0.93
  18  -2  -2    3.46    1.45
  18   2   2    2.22    1.41
 -18   2  -2    4.07    0.96
 -18  -2   2    4.07    1.46
 -18   2  -2    3.66    1.31
  18  -2  -2    4.41    1.65
 -18  -2  -2    2.01    1.39
  18  -2   2    3.05    1.34
 -18   2   2    3.09    1.47
  18   2  -2    3.42    1.46
  18  -2   2    4.32    1.46
 -18   2   2    3.86    1.98
 -18   2   2    3.53    1.65
 -18  -2  -2    3.23    1.72
 -18  -2  -2    3.54    1.90
  18   2  -2    4.89    1.24
 -18   2  -3    3.20    0.94
  18   2   3    6.90    1.67
  18  -2  -3    5.36    1.75
 -18   2  -3    4.02    0.91
 -18  -2   3    8.02    1.70
  18  -2  -3    3.63    1.57
 -18  -2   3    6.11    1.98
  18  -2   3    7.85    1.76
  18   2  -3    3.79    1.09
 -18   2   3    8.27    1.70
 -18  -2  -3    6.13    2.16
  18   2  -3    4.82    1.39
 -18  -2  -3    5.79    1.93
  18  -2   3    7.52    1.63
 -18  -2  -3    4.58    1.51
 -18  -2   4    1.74    2.09
  18  -2  -4   -1.11    1.70
  18  -2  -4    0.80    1.65
 -18  -2   4    3.18    1.72
  18   2   4    0.81    1.67
 -18  -2  -4    1.25    1.53
  18  -2   4   -0.54    1.43
  18  -2   4    0.68    1.88
 -18  -2  -4    1.06    2.15
 -18   2   4   -0.19    1.80
  18  -3   0    0.12    1.34
 -18  -3   0    1.91    1.65
 -18  -3   0    2.83    1.52
  18   3   0    1.16    1.24
 -18   3   0    0.59    1.33
 -18   3   0   -0.49    1.57
 -18   3   0    1.35    1.41
  18   3   0    0.46    1.35
 -18   3  -1   10.58    1.86
 -18   3  -1   10.63    1.83
 -18   3  -1   11.38    1.57
 -18  -3   1    8.11    1.76
  18  -3  -1   10.26    1.83
 -18  -3   1   15.72    2.60
  18   3   1    8.72    1.67
 -18  -3   1    9.45    1.87
  18   3  -1    8.91    1.60
  18   3  -1   11.15    1.92
  18  -3   1   14.67    1.96
 -18   3   1   10.61    1.86
 -18  -3  -1    6.49    1.92
 -18  -3  -1    8.37    2.29
 -18   3   1   10.38    2.06
 -18  -3  -1   10.50    1.86
  18  -3   1   10.57    1.73
 -18  -3   2   17.98    2.52
 -18   3  -2   20.08    2.16
 -18  -3   2   19.46    3.12
 -18  -3   2   16.91    2.23
  18  -3  -2   20.37    2.50
 -18   3  -2   18.09    2.35
  18   3   2   19.03    2.50
  18   3  -2   20.65    2.51
 -18   3   2   16.43    3.05
 -18   3   2   20.37    2.59
  18  -3   2   16.25    2.22
 -18  -3  -2   16.90    2.48
  18   3  -2   18.09    2.10
  18  -3   2   18.52    2.67
 -18  -3  -2   22.27    3.34
 -18  -3   3    2.03    1.71
  18   3   3    0.01    1.55
  18  -3  -3    0.40    1.70
 -18   3   3    0.62    1.69
 -18  -3  -3   -0.43    1.72
  18  -3   3   -1.22    1.90
 -18  -3  -3    0.43    2.34
  18   3  -3    1.26    1.34
  18  -3   3    0.23    1.52
  18   3  -3    0.84    1.07
  18   3   4   20.42    2.94
 -18  -3   4   23.13    2.64
  18  -3  -4   26.04    3.26
  18  -3   4   21.14    2.66
 -18   3   4   23.99    3.08
 -18  -3  -4   27.00    4.33
 -18  -4   0    0.41    2.14
 -18   4   0    1.51    1.69
 -18   4   0    1.37    1.49
  18  -4   0    0.54    1.52
  18   4   0    0.10    1.48
 -18  -4   0    0.27    1.74
  18   4   1   63.41    4.31
 -18   4  -1   73.85    4.35
 -18  -4   1   60.99    4.84
  18  -4  -1   76.41    4.54
 -18  -4   1   66.49    4.38
 -18   4  -1   71.31    4.39
  18   4  -1   71.23    4.26
 -18  -4  -1   70.10    4.56
 -18   4   1   65.15    4.60
 -18   4   1   71.12    4.71
  18  -4   1   66.20    4.26
 -18  -4  -1   76.12    5.09
 -18  -4   2   -0.01    2.11
  18  -4  -2    2.66    1.98
  18   4   2   -2.13    1.61
 -18   4  -2    1.63    1.52
 -18  -4   2    0.94    1.85
 -18   4  -2   -1.08    1.58
  18   4  -2    1.63    1.96
  18  -4   2   -0.12    1.63
 -18   4   2   -2.96    1.68
  18   4  -2    0.92    1.40
 -18  -4  -2   -0.21    2.25
 -18  -4  -2    0.73    1.85
  18   4   3   44.83    3.67
 -18  -4   3   41.11    3.75
  18  -4  -3   40.72    4.03
 -18  -4   3   41.88    4.42
  18  -4   3   37.13    3.61
 -18   4   3   35.43    3.76
 -18  -4  -3   41.32    4.72
 -18  -4  -3   47.36    3.94
 -18   5   0   37.48    4.13
 -18  -5   0   45.62    4.10
  18   5   0   48.87    3.85
 -18  -5   0   52.50    4.54
  18  -5   0   48.72    4.44
 -18  -5   1    7.27    2.39
 -18   5  -1    7.35    2.28
 -18  -5   1    6.57    2.71
  18   5   1    9.53    2.22
  18  -5  -1    8.33    2.28
 -18  -5  -1    5.77    2.55
  18   5  -1    3.99    1.89
  18  -5   1    6.80    2.46
 -18  -5  -1    6.06    2.40
 -18   5   1    7.49    2.54
 -18  -5   2   61.44    4.60
  18  -5  -2   51.28    5.05
 -18  -5   2   54.09    4.98
  18   5  -2   55.64    3.92
 -18  -5  -2   51.30    4.70
 -18   5   2   50.49    4.66
 -18  -5  -2   53.09    5.24
  18  -5   2   66.96    4.81
  19   0   0    0.04    1.17
  19   0   0    0.96    1.15
 -19   0   0    0.45    1.44
 -19   0   0    1.12    1.20
 -19   0   1    1.49    1.27
 -19   0   1    1.53    1.48
 -19   0  -1    0.65    1.39
  19   0  -1    2.27    1.35
  19   0   1    1.89    1.22
 -19   0  -1    3.55    1.43
  19   0  -1    2.55    1.21
 -19   0  -1    1.64    1.24
  19   0   1    1.98    1.25
 -19   0  -2    1.01    1.45
 -19   0  -2    0.31    1.19
  19   0  -2    0.37    1.06
  19   0  -2   -0.20    1.31
 -19   0  -2   -1.48    1.35
 -19   0   2    0.35    1.63
  19   0   2   -0.28    1.33
  19   0   2   -0.03    1.23
 -19   0   2    0.64    1.31
 -19   0   3   -0.92    1.38
  19   0   3    0.91    1.27
 -19   0  -3    2.11    1.43
 -19   0  -3   -0.35    1.34
  19   0  -3    0.28    1.15
 -19   0  -3    1.48    1.08
  19   0  -3   -0.65    1.34
  19   0   3    1.53    1.51
 -19   0   3   -2.30    1.71
 -19   0   4    1.73    1.72
 -19   0  -4    0.67    1.69
  19   0   4    0.26    1.44
  19   0  -4    0.38    1.37
  19   0   4    1.13    1.79
  19  -1   0   84.62    4.69
  19   1   0   90.23    4.68
  19   1   0   89.75    4.68
 -19  -1   0   86.42    4.69
 -19   1   0   88.27    4.78
 -19   1   0   84.01    4.65
 -19  -1   0   83.26    4.76
 -19  -1   0   86.88    5.01
  19  -1   0   86.84    4.72
 -19   1  -1    3.77    1.31
  19   1   1    3.61    1.36
  19  -1  -1    3.64    1.36
 -19   1  -1    4.14    1.42
 -19   1  -1    3.26    1.45
 -19  -1   1    3.99    1.63
  19  -1  -1    5.06    1.56
  19   1   1    4.45    1.44
 -19  -1   1    2.55    1.28
 -19  -1  -1    3.71    1.61
 -19   1   1    2.87    1.35
  19  -1   1    3.45    1.34
 -19   1   1    3.40    1.62
 -19  -1  -1    3.71    1.66
 -19   1   1    4.01    1.66
  19  -1   1    2.42    1.30
  19   1  -1    4.95    1.45
  19   1  -1    3.01    1.23
 -19  -1  -1    2.04    1.36
  19   1   2   31.31    2.73
 -19  -1   2   28.39    2.72
 -19   1  -2   35.21    2.69
 -19   1  -2   38.25    2.57
  19  -1  -2   39.77    2.82
  19   1   2   28.62    2.70
 -19  -1   2   26.64    2.98
 -19   1  -2   32.55    2.56
 -19  -1  -2   37.89    2.95
  19   1  -2   36.51    2.54
 -19  -1  -2   38.47    2.68
 -19   1   2   31.12    3.08
  19  -1   2   31.14    2.83
 -19  -1  -2   41.07    3.21
 -19   1   2   30.06    2.69
  19   1  -2   37.82    2.86
  19  -1   2   28.30    2.70
 -19   1   2   24.80    3.32
  19   1   3   -0.70    1.44
  19  -1  -3   -0.25    1.26
 -19  -1   3    1.13    1.54
  19   1   3    0.12    1.32
 -19  -1   3    0.02    1.78
  19  -1  -3   -0.80    1.49
 -19   1  -3    0.79    1.10
 -19   1  -3    0.22    0.96
 -19   1  -3    0.67    1.13
 -19   1   3    2.19    1.82
  19  -1   3   -1.06    1.30
 -19  -1  -3    0.75    1.60
  19  -1   3    0.59    1.53
  19   1  -3    1.45    1.14
 -19  -1  -3    2.76    1.81
 -19  -1  -3   -0.29    1.23
 -19   1   3    0.41    1.41
 -19   1  -4   31.35    2.45
 -19  -1   4   32.84    4.32
 -19  -1   4   31.53    3.12
  19  -1  -4   27.67    2.56
  19   1   4   26.81    2.93
 -19   1   4   30.90    3.10
  19  -1   4   30.88    3.32
  19  -1   4   30.36    2.90
 -19  -1  -4   32.66    3.51
  19   2   0   16.98    2.33
  19  -2   0   17.81    2.46
 -19  -2   0   16.48    2.44
 -19   2   0   17.39    2.43
 -19   2   0   15.78    2.23
  19   2   0   16.11    2.07
 -19   2   0   19.03    2.21
 -19  -2   0   19.03    2.23
 -19  -2   0   15.16    2.37
  19  -2   0   17.96    2.15
 -19   2  -1  181.82    9.08
  19  -2  -1  193.28    9.24
 -19   2  -1  191.17    9.13
  19   2   1  196.94    9.19
 -19   2  -1  192.71    8.88
  19  -2  -1  191.58    9.23
 -19  -2   1  197.16    9.28
  19   2   1  196.77    9.20
 -19  -2   1  192.34    9.19
 -19  -2  -1  196.10    9.28
  19  -2   1  200.99    9.25
 -19   2   1  206.88    9.43
 -19  -2  -1  191.89    9.18
  19   2  -1  191.95    9.07
 -19  -2  -1  169.51    9.43
 -19   2   1  202.52    9.24
  19  -2   1  195.91    9.20
  19   2  -1  189.08    9.13
 -19   2  -2    1.30    1.38
  19  -2  -2    1.60    1.51
  19  -2  -2    2.78    1.51
 -19  -2   2    2.42    1.48
 -19   2  -2    1.12    0.98
 -19   2  -2    1.39    1.19
  19   2   2    1.16    1.34
  19   2   2   -0.19    1.33
 -19  -2   2    0.54    1.71
  19  -2   2    0.66    1.46
 -19   2   2   -1.26    1.33
 -19   2   2    0.12    1.76
 -19  -2  -2    1.12    1.46
 -19  -2  -2    0.63    2.04
 -19  -2  -2    1.80    1.79
  19   2  -2    1.46    1.52
  19   2  -2    0.95    1.17
  19  -2   2    2.64    1.35
  19   2   3   67.46    4.30
  19  -2  -3   67.93    4.26
 -19   2  -3   65.78    3.50
 -19  -2   3   70.34    4.21
 -19  -2   3   72.48    4.57
  19  -2  -3   70.04    4.23
 -19  -2  -3   73.57    4.83
  19  -2   3   71.65    4.20
 -19  -2  -3   71.67    4.15
 -19  -2  -3   66.36    4.49
  19  -2   3   64.64    4.30
  19   2  -3   62.12    3.91
  19   2  -3   66.27    3.72
 -19   2   3   75.27    4.53
  19   2   4    7.50    1.98
 -19  -2   4    8.27    2.01
  19  -2  -4    2.60    1.83
  19  -2  -4    5.67    2.26
  19  -2   4    6.71    2.15
 -19   2   4    4.93    1.96
 -19  -2  -4    5.09    2.36
  19  -2   4    7.75    1.84
 -19  -3   0  112.44    5.92
 -19   3   0  101.26    5.79
 -19   3   0  115.04    5.74
  19  -3   0  113.12    5.97
 -19   3   0  109.96    5.85
 -19  -3   0  112.75    6.31
  19   3   0  113.40    5.80
 -19  -3   1   13.57    2.04
 -19  -3   1   17.29    2.61
 -19   3  -1   11.20    1.70
  19  -3  -1    9.32    1.85
 -19   3  -1   13.95    1.96
  19   3   1   11.70    1.84
 -19   3  -1   11.62    1.97
 -19   3   1   16.17    2.23
  19  -3   1   10.51    1.79
 -19  -3  -1   12.02    2.59
  19  -3   1    9.74    2.58
 -19   3   1   13.07    1.98
  19   3  -1   10.34    1.73
 -19  -3  -1   11.39    2.01
  19   3  -1   11.05    1.93
  19   3   2  114.42    6.09
 -19   3  -2  109.91    5.75
 -19  -3   2  115.20    6.13
 -19  -3   2  114.34    6.63
  19  -3  -2  113.48    6.16
 -19   3  -2  109.42    5.81
  19  -3   2  118.14    6.09
  19   3  -2  113.41    5.76
 -19  -3  -2  115.35    6.69
 -19  -3  -2  114.39    6.09
  19   3  -2  111.14    5.99
 -19   3   2  115.52    6.16
  19  -3   2  119.79    6.28
 -19  -3   3   10.73    2.05
  19   3   3    6.85    1.84
  19  -3  -3    7.10    2.01
  19  -3   3   11.23    2.06
  19  -3   3    7.33    2.65
 -19  -3  -3    8.04    2.01
 -19  -3  -3   10.07    2.84
  19   3  -3    9.37    1.43
 -19   3   3   10.15    2.19
  19  -3  -4   64.47    4.69
 -19  -3   4   64.28    4.60
  19   3   4   64.38    4.59
  19  -3   4   65.07    4.55
 -19  -3  -4   78.47    5.77
 -19   3   4   64.47    5.12
 -19  -4   0   20.27    2.92
  19  -4   0   22.41    3.06
  19   4   0   22.51    2.64
 -19  -4   0   15.74    2.64
 -19   4   0   22.24    2.65
 -19   4   0   26.29    2.78
  19  -4  -1   57.12    4.03
 -19  -4   1   58.67    4.42
 -19  -4   1   48.90    3.92
  19   4   1   51.93    3.88
 -19   4  -1   54.44    4.02
  19   4  -1   52.68    3.76
  19  -4   1   57.00    3.98
 -19   4   1   60.21    4.10
 -19   4   1   58.39    4.34
 -19  -4  -1   54.10    4.12
  19  -4  -2    2.05    2.01
 -19   4  -2    0.22    1.58
 -19  -4   2    1.06    2.37
 -19   4  -2   -0.55    1.79
 -19  -4   2    0.53    1.92
  19   4   2    0.90    1.89
 -19  -4  -2    3.06    2.04
  19   4  -2    0.49    1.89
  19   4  -2    0.54    1.47
 -19  -4  -2    2.80    2.66
  19  -4   2    3.36    1.83
 -19   4   2    4.41    2.02
 -19  -4   3   11.93    2.43
 -19  -4   3   10.09    2.84
  19   4   3   13.47    2.44
  19  -4  -3   12.09    2.65
 -19  -4  -3   10.18    2.54
 -19   4   3   13.86    2.46
 -19  -4  -3   12.28    3.31
  19  -4   3   10.97    2.31
  19  -5   0    3.48    2.05
 -19  -5   0   -1.03    2.25
 -19   5   0    1.10    2.35
  19   5   0    3.39    1.95
 -19  -5   0   -0.37    2.33
  19  -5  -1    2.26    2.12
  19   5   1    1.77    2.09
 -19   5  -1    1.57    2.11
 -19  -5   1    0.43    2.27
 -19  -5   1    0.64    2.38
 -19  -5  -1    4.09    2.95
 -19  -5  -1    7.65    2.52
  19  -5   1    3.24    2.32
 -19   5   1    3.58    2.27
  19   5  -1    0.43    1.82
  20   0   0   18.94    2.22
 -20   0   0   18.71    2.17
 -20   0   0   20.09    2.58
  20   0   0   14.49    2.08
 -20   0  -1  114.75    6.09
  20   0   1  132.63    6.23
  20   0  -1  114.57    6.12
  20   0   1  123.09    6.12
 -20   0  -1  116.57    6.03
 -20   0   1  124.35    6.24
 -20   0   1  131.36    6.20
  20   0  -1  110.44    6.01
 -20   0  -1  113.46    6.23
  20   0   2   13.79    2.00
 -20   0  -2   18.23    2.12
  20   0   2   13.67    1.90
 -20   0  -2   17.35    2.48
 -20   0  -2   17.84    2.16
  20   0  -2   21.24    2.16
 -20   0   2   10.59    2.12
  20   0  -2   18.91    2.45
 -20   0   3  130.36    6.99
 -20   0  -3  137.29    6.27
 -20   0  -3  124.17    6.62
 -20   0   3  136.18    6.70
  20   0  -3  128.98    6.38
  20   0   3  127.21    6.60
  20   0   3  130.62    6.71
 -20   0  -3  124.15    6.37
  20   0  -3  126.84    6.48
 -20   0   4   25.13    3.00
 -20   0  -4   20.24    2.88
  20   0   4   20.16    2.66
 -20   1   0   81.09    4.37
  20   1   0   78.94    4.35
  20  -1   0   79.33    4.40
  20   1   0   75.19    4.37
 -20  -1   0   75.94    4.42
 -20  -1   0   81.01    4.70
 -20   1   0   77.03    4.58
  20  -1   0   73.71    4.38
 -20  -1   0   70.43    4.43
 -20   1  -1   24.19    2.46
  20  -1  -1   27.25    2.50
 -20  -1   1   29.35    2.55
  20   1   1   31.01    2.53
  20   1   1   27.93    2.77
 -20   1  -1   22.23    2.43
 -20   1  -1   22.65    2.69
 -20  -1   1   32.14    2.81
  20  -1  -1   26.71    2.66
 -20   1   1   28.30    2.88
 -20  -1  -1   23.99    2.48
 -20   1   1   29.70    2.58
 -20  -1  -1   25.30    2.83
 -20  -1  -1   24.98    2.82
  20   1  -1   23.46    2.44
  20   1  -1   27.33    2.55
 -20   1   1   28.96    3.12
  20  -1   1   32.87    2.56
  20  -1   1   27.45    2.61
  20   1   2  100.41    5.60
 -20  -1   2  103.21    5.65
 -20   1  -2  114.57    5.47
  20   1   2  101.46    5.57
 -20   1  -2  101.16    5.44
 -20  -1   2  105.35    5.76
  20  -1  -2  106.87    5.55
 -20   1  -2  112.39    5.48
 -20  -1  -2  110.47    5.70
  20  -1   2  104.19    5.55
  20  -1   2   98.28    5.56
 -20  -1  -2  107.50    5.94
 -20  -1  -2  116.27    5.57
  20   1  -2  105.43    5.42
 -20   1   2   97.81    5.95
  20   1  -2  111.34    5.63
 -20   1   2  109.18    5.86
 -20   1   2   98.91    5.57
  20   1   3    2.64    1.89
 -20   1  -3    2.32    1.30
 -20   1  -3    3.50    1.20
  20   1   3    4.83    1.60
 -20  -1   3    6.01    1.81
  20  -1  -3    3.54    1.51
 -20   1  -3    4.11    1.36
  20  -1  -3    3.52    1.77
 -20  -1   3    3.57    1.87
  20   1  -3    3.39    1.30
 -20   1   3    7.89    1.84
  20  -1   3    5.63    1.87
 -20  -1  -3    3.73    1.96
 -20  -1  -3    2.07    1.47
  20  -1   3    5.22    1.60
 -20  -1  -3   -0.36    1.75
 -20  -1   4   45.05    3.80
  20   1   4   41.36    3.56
  20  -1  -4   46.54    3.23
 -20  -1  -4   50.39    4.12
 -20   1   4   47.66    3.65
  20  -1   4   46.96    3.58
  20  -1   4   41.41    3.70
 -20  -2   0    0.49    1.89
 -20   2   0    0.27    1.43
 -20   2   0    0.24    1.62
  20  -2   0    3.62    1.52
 -20  -2   0    0.92    1.49
 -20   2   0    1.00    1.45
  20  -2   0    0.56    1.35
  20   2   0    2.26    1.37
  20   2   0    0.36    1.47
 -20   2  -1   -1.31    1.57
  20  -2  -1    1.92    1.52
  20   2   1   -0.05    1.27
 -20  -2   1    4.23    1.75
  20  -2  -1    3.36    1.54
 -20   2  -1    1.88    1.38
 -20   2  -1   -0.12    1.21
 -20  -2   1    2.89    1.54
 -20  -2   1    1.58    1.99
  20   2   1    0.34    1.31
 -20   2   1    4.87    1.96
 -20  -2  -1   -0.09    1.84
  20  -2   1    1.52    1.47
  20   2  -1    0.72    1.27
  20   2  -1    1.44    1.58
 -20   2   1    2.48    1.50
 -20  -2  -1    0.57    1.48
  20  -2   1    2.16    1.38
 -20  -2  -1    1.52    1.76
 -20   2  -2    6.45    1.69
  20   2   2    7.46    1.67
 -20   2  -2    6.82    1.51
  20  -2  -2    7.05    1.78
 -20  -2   2    7.04    1.80
 -20   2  -2    5.13    1.24
 -20  -2   2    3.75    1.74
  20   2  -2    6.20    1.47
 -20   2   2    8.55    1.75
 -20  -2  -2    6.08    1.95
  20  -2   2    9.58    1.89
  20  -2   2    6.38    1.63
  20   2  -2    8.11    1.78
 -20  -2  -2    5.35    2.20
 -20  -2  -2    4.22    1.71
  20   2   3    8.15    1.95
 -20  -2   3    7.93    2.02
 -20   2  -3    9.20    1.36
  20  -2  -3   11.55    2.01
 -20   2  -3   10.77    1.23
  20  -2   3   10.43    1.86
  20   2  -3   12.78    1.64
  20  -2   3   10.51    2.09
 -20   2   3   14.47    2.17
 -20  -2  -3   12.78    2.57
  20   2  -3   10.30    1.81
 -20  -2  -3   11.11    1.95
 -20  -2  -3   15.25    2.40
  20  -2  -4    4.56    2.03
 -20  -2   4    5.51    2.07
  20   2   4    7.98    2.09
  20  -2   4    5.80    1.92
 -20  -2  -4    6.63    2.59
 -20   2   4    4.02    2.37
 -20  -3   0   21.67    3.24
  20  -3   0   24.62    2.66
  20   3   0   21.69    2.58
 -20   3   0   20.83    2.57
 -20  -3   0   23.63    2.91
 -20   3   0   23.53    2.62
 -20  -3   1    2.24    2.01
 -20  -3   1    0.89    1.60
  20   3   1    0.07    1.51
 -20   3  -1    1.75    1.72
 -20   3  -1    1.52    1.56
 -20   3  -1    1.43    1.21
  20  -3  -1    0.91    1.53
 -20   3   1    2.33    1.68
  20   3  -1    1.56    1.41
 -20   3   1   -0.47    1.89
 -20  -3  -1    2.42    1.79
  20  -3   1    3.21    1.55
 -20  -3  -1   -1.29    1.92
 -20  -3   2    8.46    2.51
 -20   3  -2    8.37    1.87
 -20   3  -2   11.97    1.78
 -20  -3   2    9.60    2.03
  20   3   2   11.46    2.03
  20  -3  -2    8.39    2.03
  20  -3   2   11.65    2.02
  20   3  -2    7.59    2.07
 -20   3   2   12.53    2.12
  20   3  -2   14.73    2.15
 -20  -3  -2    8.60    2.13
 -20  -3  -2   13.03    2.80
  20   3   3    2.97    1.82
  20  -3  -3    2.08    1.84
 -20  -3   3    3.96    1.95
  20   3  -3    1.23    1.32
 -20  -3  -3    1.37    2.74
 -20   3   3    3.37    1.89
  20  -3   3    0.81    1.72
 -20  -3  -3    0.95    1.85
 -20  -4   0    2.56    2.31
 -20   4   0    3.72    1.70
 -20  -4   0    0.34    2.09
  20  -4   0    2.99    1.85
 -20   4   0    3.20    1.84
  20   4   0    5.00    1.81
  20   4   1   57.69    4.03
  20  -4  -1   56.06    4.47
 -20  -4   1   56.65    4.09
 -20   4  -1   53.68    3.91
 -20   4   1   56.73    4.43
 -20   4   1   62.68    4.24
 -20  -4  -1   51.65    4.15
 -20  -4  -1   47.89    4.63
  20   4  -1   48.79    3.78
  20  -4   1   59.87    3.96
 -20  -4   2    8.80    2.33
  20  -4  -2    7.41    2.38
 -20  -4   2    8.27    2.82
  20   4   2    7.57    2.18
 -20   4  -2    7.81    1.92
 -20   4  -2   11.05    2.20
 -20   4   2   10.81    2.34
  20   4  -2   11.13    1.89
 -20  -4  -2    8.73    2.40
  20  -4   2    8.60    2.24
 -20  -4  -2    8.54    2.95
 -20  -5   0   35.07    3.86
  20   5   0   46.58    3.90
 -20   5   0   35.78    4.24
 -20  -5   0   42.72    4.67
  20  -5   0   38.76    3.68
  20   5   1    4.78    2.27
  20  -5  -1    3.83    2.61
 -20  -5   1    1.68    2.29
 -20  -5   1    5.93    2.93
 -20   5  -1    5.68    2.48
 -20   5   1    7.09    2.52
  20   5  -1    6.29    2.09
 -20  -5  -1    5.80    2.74
 -20  -5  -1    2.94    2.52
  20  -5   1    5.72    2.17
  21   0   0    1.98    1.34
 -21   0   0   -0.40    1.61
  21   0   0   -0.85    1.39
 -21   0   0    0.56    1.36
  21   0   1    0.60    1.42
 -21   0  -1    0.46    1.59
 -21   0   1   -0.21    1.37
  21   0   1    0.72    1.33
 -21   0  -1    1.44    1.42
  21   0  -1    0.28    1.35
 -21   0   1   -0.93    1.58
 -21   0  -1    0.33    1.59
  21   0  -1    1.58    1.50
  21   0   2   -0.02    1.37
 -21   0  -2   -0.01    1.68
 -21   0   2    0.03    1.66
 -21   0  -2    0.32    1.39
 -21   0  -2   -1.01    1.60
 -21   0   2    1.31    1.49
  21   0  -2    1.45    1.61
  21   0  -2    0.89    1.26
  21   0   2    1.96    1.58
  21   0   3    1.27    1.65
  21   0  -3    2.90    1.40
 -21   0   3    1.32    1.72
  21   0   3   -0.26    1.47
  21   0  -3   -0.27    1.59
 -21   0  -3    1.60    1.64
 -21   0  -3    0.91    1.63
 -21   0  -3   -0.56    1.28
 -21   0  -4   -0.40    1.93
  21   0   4   -0.55    1.69
 -21   0   4   -1.01    1.95
 -21  -1   0   26.73    2.57
  21   1   0   21.92    2.60
 -21  -1   0   22.10    3.08
 -21   1   0   29.28    2.86
  21  -1   0   23.54    2.46
  21  -1   0   24.14    2.66
  21   1   0   23.38    2.56
 -21   1   0   25.11    2.52
 -21  -1   0   26.50    2.96
 -21   1  -1   27.71    2.71
 -21   1  -1   22.61    2.68
 -21  -1   1   31.41    2.90
 -21  -1   1   29.78    2.69
  21  -1  -1   27.52    2.71
  21   1   1   30.71    2.63
  21   1   1   23.00    2.62
  21  -1  -1   30.98    2.81
 -21   1  -1   28.70    2.63
  21  -1   1   27.49    2.70
  21   1  -1   26.05    2.65
 -21   1   1   29.41    3.28
  21   1  -1   30.44    2.67
 -21  -1  -1   30.10    3.02
 -21  -1  -1   28.75    2.84
 -21  -1  -1   26.64    2.67
  21  -1   1   29.05    2.59
 -21   1   1   28.55    2.70
 -21   1  -2   34.30    2.99
  21  -1  -2   36.23    3.00
  21   1   2   35.28    2.86
 -21   1  -2   32.87    2.81
  21   1   2   30.74    2.99
 -21   1  -2   31.55    2.86
 -21  -1   2   35.50    3.15
  21  -1  -2   34.70    3.00
 -21  -1   2   35.67    3.04
 -21  -1  -2   33.79    2.88
  21   1  -2   35.86    3.11
 -21  -1  -2   39.39    3.29
  21  -1   2   34.86    3.00
 -21   1   2   34.43    2.91
  21   1  -2   32.63    2.67
 -21  -1  -2   33.07    3.44
  21  -1   2   31.09    2.89
  21  -1  -3    4.44    1.88
 -21   1  -3    4.44    1.33
  21   1   3    6.18    1.73
  21  -1  -3    2.62    1.60
 -21   1  -3    4.44    1.51
 -21  -1   3    5.40    1.88
 -21   1  -3    5.25    1.53
 -21  -1  -3    4.19    1.97
 -21  -1  -3    2.54    1.57
 -21  -1  -3    4.17    2.10
 -21   1   3    7.60    1.95
  21  -1   3    6.20    1.79
  21   1  -3    5.16    1.41
  21  -1   3    4.36    1.64
  21   1   4    9.58    2.14
 -21  -1   4    8.72    2.35
 -21  -1  -4    9.74    2.59
 -21   1   4   12.75    2.44
  21  -1   4    8.20    1.97
 -21   2   0   13.47    2.01
 -21  -2   0   11.63    2.39
 -21  -2   0   12.20    2.01
  21  -2   0   12.73    1.91
  21   2   0    7.25    2.01
 -21   2   0   16.52    2.05
  21   2   0   12.57    1.89
 -21   2   0   14.37    2.07
  21   2   1   46.00    3.47
 -21   2  -1   48.22    3.55
 -21  -2   1   44.43    3.41
 -21   2  -1   51.35    3.23
  21  -2  -1   53.70    3.55
 -21   2  -1   50.06    3.34
 -21  -2   1   47.82    4.10
  21  -2   1   48.53    3.47
  21   2  -1   47.64    3.28
 -21   2   1   47.81    3.97
 -21  -2  -1   51.08    4.19
  21  -2   1   49.85    3.77
  21   2  -1   52.72    3.40
 -21  -2  -1   45.35    3.60
 -21   2   1   48.48    3.45
 -21   2  -2   24.16    2.26
 -21   2  -2   26.52    2.60
  21  -2  -2   29.66    2.99
  21   2   2   24.17    2.69
 -21  -2   2   26.17    2.84
 -21   2  -2   26.11    2.86
 -21  -2  -2   28.15    3.53
 -21  -2  -2   25.29    2.86
  21   2  -2   31.66    3.03
 -21   2   2   27.11    2.82
  21   2  -2   27.75    2.50
  21  -2   2   25.93    3.01
  21  -2   2   27.43    2.64
 -21  -2   3   70.39    4.69
 -21   2  -3   72.09    4.01
  21  -2  -3   80.06    4.79
  21   2   3   66.22    4.68
  21   2  -3   74.37    4.47
 -21   2   3   75.82    4.74
 -21  -2  -3   78.39    4.85
 -21  -2  -3   77.76    5.33
 -21  -2  -3   80.78    4.58
  21   2  -3   80.46    4.22
  21  -2   3   72.64    4.63
  21  -2  -4   15.10    2.89
  21   2   4   13.20    2.38
 -21  -2   4   16.39    2.54
  21  -2   4   12.25    2.29
 -21   2   4   12.28    2.75
 -21  -2  -4   17.11    3.12
  21   3   0   70.90    4.35
 -21   3   0   70.13    4.46
 -21  -3   0   68.25    4.49
  21  -3   0   72.66    4.47
 -21  -3   0   74.35    5.06
 -21   3   0   77.15    4.38
  21  -3  -1    7.39    1.96
 -21   3  -1    7.84    1.75
  21   3   1   13.77    2.06
 -21   3  -1   10.22    1.58
 -21  -3   1   12.38    2.54
 -21  -3   1   12.15    2.10
 -21   3  -1   10.36    2.00
 -21   3   1   14.49    2.18
 -21  -3  -1   12.11    2.74
 -21  -3  -1   11.84    2.18
  21  -3   1   14.40    2.05
  21   3  -1    8.96    1.81
 -21   3   1   12.06    2.38
 -21  -3   2   32.63    3.39
  21   3   2   34.29    3.23
  21  -3  -2   37.77    3.36
 -21   3  -2   38.95    3.31
 -21  -3   2   33.26    4.07
 -21   3  -2   39.74    3.00
  21   3  -2   40.27    3.04
 -21  -3  -2   34.98    3.48
 -21   3   2   31.16    3.87
  21  -3   2   32.51    3.28
  21   3  -2   35.99    3.29
 -21  -3  -2   42.52    4.24
  21  -3  -3   13.08    2.33
  21   3   3   12.51    2.25
 -21  -3   3   11.07    2.33
  21  -3   3    9.64    2.23
 -21  -3  -3   12.89    3.02
 -21   3   3   15.43    2.77
 -21  -3  -3   10.60    2.30
 -21  -4   0    6.80    2.67
  21   4   0    5.80    1.98
 -21   4   0    7.12    2.16
 -21  -4   0    2.11    2.22
  21  -4   0    6.99    2.13
  21   4   1    4.90    1.98
 -21  -4   1    5.14    2.19
 -21   4  -1    8.54    2.15
 -21  -4   1    4.87    2.28
  21  -4  -1    5.92    2.21
 -21  -4  -1    3.38    2.23
 -21  -4  -1    5.78    2.66
 -21   4   1    7.49    2.31
  21  -4   1    6.01    2.00
 -21   4   1    9.53    2.37
  21   4  -1    5.22    1.86
  21   4   2   10.08    2.26
  21  -4  -2    4.17    2.35
 -21  -4   2   10.71    3.16
 -21  -4   2    5.53    2.27
 -21   4  -2    8.95    2.06
 -21  -4  -2    3.68    2.89
  21   4  -2    8.13    1.95
 -21   4   2    7.87    2.34
 -21  -4  -2    9.54    2.48
  21  -4   2   12.53    2.32
 -22   0   0   32.22    2.94
  22   0   0   35.76    2.88
 -22   0   0   34.22    3.01
  22   0   1   53.75    3.63
  22   0   1   48.74    3.70
 -22   0  -1   63.99    3.73
  22   0  -1   61.16    3.70
 -22   0   1   47.36    3.74
  22   0  -1   65.58    3.88
 -22   0  -1   56.42    3.96
 -22   0  -1   55.82    3.91
 -22   0   2   43.35    3.29
 -22   0  -2   34.57    3.25
  22   0   2   37.63    4.13
 -22   0  -2   31.02    3.42
  22   0   2   43.17    3.08
  22   0  -2   38.35    3.22
  22   0  -2   37.71    3.00
 -22   0  -2   35.18    3.00
 -22   0  -3   67.79    3.91
 -22   0  -3   62.47    4.33
 -22   0   3   64.25    4.51
 -22   0  -3   71.90    4.18
  22   0  -3   66.78    4.02
  22   0  -3   66.56    4.32
  22   0   3   67.66    4.29
 -22   0  -4   11.64    2.42
 -22   0   4   10.78    2.57
  22   0   4   11.77    2.24
 -22  -1   0   74.00    4.76
  22   1   0   65.25    4.17
 -22   1   0   69.66    4.33
  22  -1   0   69.86    4.25
 -22  -1   0   68.90    4.22
 -22   1   0   73.26    4.34
 -22  -1   1   42.50    3.46
 -22   1  -1   58.94    3.56
  22  -1  -1   54.33    3.47
 -22   1  -1   47.17    3.51
  22   1   1   45.56    3.36
 -22   1  -1   46.11    3.37
 -22  -1  -1   51.12    3.47
 -22   1   1   40.62    3.43
 -22   1   1   42.26    3.96
  22   1  -1   48.58    3.42
 -22  -1  -1   50.48    3.48
  22   1  -1   50.57    3.40
 -22  -1  -1   46.56    3.71
  22  -1   1   45.92    3.50
  22  -1   1   40.02    3.25
 -22   1  -2   40.23    3.09
  22   1   2   35.74    3.14
 -22   1  -2   35.94    3.19
 -22  -1   2   38.04    3.25
  22  -1  -2   42.23    3.30
 -22   1  -2   43.11    3.33
 -22  -1  -2   42.87    3.86
  22   1  -2   48.43    3.43
 -22   1   2   35.50    3.18
 -22  -1  -2   43.40    3.59
  22   1  -2   38.70    2.96
 -22  -1  -2   44.21    3.29
  22  -1   2   37.64    3.08
  22  -1  -3   25.33    2.83
 -22  -1   3   27.39    3.10
 -22   1  -3   21.23    2.65
 -22   1  -3   25.41    2.45
  22  -1  -3   29.94    3.37
 -22   1  -3   25.91    2.63
  22   1   3   25.05    2.81
 -22  -1  -3   26.88    3.44
  22   1  -3   28.80    2.60
  22  -1   3   22.75    2.88
 -22  -1  -3   27.55    3.24
 -22  -1  -3   31.21    2.89
  22   1  -3   31.62    3.08
 -22   1   3   27.09    3.04
  22   1   4   25.75    3.30
 -22  -1   4   28.78    3.55
 -22   1   4   30.03    3.85
 -22  -1  -4   23.14    3.83
  22  -1   4   30.03    3.32
  22  -2   0   18.87    2.52
 -22   2   0   21.69    2.75
 -22   2   0   17.57    2.50
 -22  -2   0   15.50    2.20
  22   2   0   21.53    2.56
 -22  -2   0   16.16    2.56
 -22  -2   1    3.73    2.20
  22  -2  -1    6.80    1.73
 -22   2  -1    6.21    1.70
 -22  -2   1    4.04    1.79
 -22   2  -1    2.05    1.62
  22   2   1    6.10    1.65
 -22   2  -1    4.86    1.89
 -22   2  -1    5.96    1.64
 -22   2   1    6.49    2.22
 -22  -2  -1    5.94    1.84
 -22   2   1    3.42    1.75
 -22  -2  -1    1.89    1.99
  22   2  -1    4.12    1.58
  22  -2   1    3.00    1.57
 -22   2  -2   14.34    1.79
 -22   2  -2   11.91    2.15
 -22  -2   2   20.24    2.84
  22  -2  -2   18.78    2.45
 -22   2  -2   15.33    2.04
  22   2   2   19.34    2.55
  22  -2   2   20.12    2.70
 -22   2   2   21.33    2.78
 -22  -2  -2   18.07    2.33
  22   2  -2   12.46    1.94
  22   2  -2   14.07    2.19
 -22  -2  -2   16.47    2.82
 -22  -2   3    6.33    2.06
  22   2   3    3.99    1.88
  22  -2  -3    3.90    1.94
 -22  -2  -3    8.72    2.60
 -22   2   3    5.94    2.16
  22   2  -3    5.47    1.88
  22   2  -3    3.06    1.58
 -22  -2  -3    5.40    2.00
  22  -2   3    7.22    1.91
 -22  -3   0   13.28    2.33
  22   3   0   12.70    2.07
 -22   3   0   15.61    2.36
 -22   3   0   11.86    2.14
  22  -3   0   13.87    2.18
 -22  -3   0   13.95    2.56
 -22   3  -1    2.65    1.79
 -22  -3   1    3.42    2.40
  22  -3  -1    2.00    1.76
 -22   3  -1    1.10    1.24
  22   3   1    0.43    1.68
 -22  -3   1    1.13    1.81
  22   3  -1   -0.11    1.48
 -22  -3  -1   -1.05    2.38
 -22  -3  -1    0.74    1.99
  22  -3   1    1.97    1.66
 -22   3   1    4.47    1.93
 -22   3   1   -0.19    2.10
 -22   3  -2    9.52    1.91
 -22  -3   2   11.82    2.26
  22   3   2   13.21    2.19
  22  -3  -2    8.39    2.31
 -22  -3   2   13.56    2.92
 -22   3  -2   10.50    2.18
 -22  -3  -2    9.15    3.01
 -22  -3  -2    8.60    2.26
 -22   3   2   15.63    2.45
  22   3  -2   11.80    1.97
  22  -3   2   10.88    2.15
  22  -3  -3    1.75    2.24
  22   3   3    3.51    2.01
 -22  -3   3    3.94    2.21
 -22  -3  -3    0.25    2.10
  22  -3   3    2.85    2.12
 -22   3   3    5.68    2.50
 -22  -3  -3    0.54    2.96
 -22   4   0    5.66    2.11
  22   4   0    5.98    2.06
 -22  -4   0    1.18    2.20
  22  -4   0    3.79    1.99
 -22  -4   0    2.66    2.72
  22   4   1   32.56    3.34
 -22   4  -1   29.95    3.40
 -22  -4   1   32.90    4.19
 -22  -4   1   28.81    3.62
  22  -4  -1   22.89    3.16
  22  -4   1   39.07    3.87
 -22   4   1   36.71    3.62
 -22  -4  -1   26.94    3.59
  22   4  -1   26.88    3.14
 -22  -4  -1   28.54    4.17
 -22  -4   2   23.24    3.47
 -22   4  -2   19.50    2.81
 -22  -4   2   13.36    2.68
  22  -4  -2   18.55    3.00
  22   4   2   13.98    2.60
  22  -4   2   19.51    3.08
 -22   4   2   14.56    3.06
 -22  -4  -2   15.91    3.36
 -22  -4  -2   20.33    2.95
  22   4  -2   19.86    2.89
  23   0   0    0.46    1.49
 -23   0   0    0.17    1.50
  23   0   1    1.76    1.48
 -23   0   1   -0.41    1.55
  23   0  -1    0.98    1.50
 -23   0  -1    2.15    1.64
 -23   0  -1   -0.64    1.72
 -23   0  -1    0.46    1.70
 -23   0  -2    1.41    1.63
 -23   0  -2   -3.16    1.83
 -23   0   2   -0.34    1.68
 -23   0  -2   -0.77    1.83
  23   0   2    2.45    1.56
  23   0  -2    0.00    1.42
 -23   0  -3    0.54    1.54
 -23   0  -3   -1.14    1.86
 -23   0  -3   -2.63    1.84
  23   0   3    1.00    1.60
  23   0  -3   -1.27    1.77
 -23   0   3    0.31    1.81
  23   0  -3    3.93    1.59
 -23   0  -4    4.68    2.39
 -23   0   4    0.45    2.26
  23   0   4   -2.29    1.78
 -23   1   0   47.89    3.48
  23   1   0   47.28    3.45
 -23  -1   0   48.68    3.52
 -23  -1   0   45.16    3.90
  23  -1   0   48.24    3.48
 -23  -1   1   29.09    2.90
 -23   1  -1   34.28    3.07
  23   1   1   30.44    2.88
  23  -1  -1   38.24    3.04
 -23   1  -1   32.01    3.15
 -23   1  -1   34.59    2.87
 -23   1   1   29.19    3.37
 -23  -1  -1   32.71    3.50
  23  -1   1   28.63    2.85
 -23   1   1   29.06    2.93
 -23  -1  -1   30.96    3.16
  23   1  -1   35.58    2.87
 -23  -1   2   50.31    3.58
  23  -1  -2   39.79    3.45
 -23   1  -2   41.53    3.31
 -23   1  -2   45.10    3.61
  23   1   2   48.44    3.58
 -23  -1  -2   41.33    4.03
  23   1  -2   42.79    3.68
 -23  -1  -2   43.03    3.46
  23   1  -2   43.84    3.25
 -23   1   2   48.89    3.72
  23  -1   2   45.22    3.48
  23  -1  -3    2.84    1.77
  23   1   3    5.56    1.88
 -23   1  -3    4.43    1.57
 -23   1  -3    1.77    1.84
 -23  -1   3    8.81    2.13
 -23   1  -3    6.42    1.77
 -23   1   3    6.33    2.12
 -23  -1  -3    5.38    1.91
  23  -1   3    7.68    1.93
 -23  -1  -3    2.42    2.24
  23   1  -3    4.51    1.64
 -23  -1  -3    2.75    2.23
  23   1  -3    3.66    1.95
 -23  -2   0   27.13    3.16
  23  -2   0   31.60    2.98
 -23   2   0   27.06    3.03
  23   2   0   26.24    2.89
 -23   2   0   30.03    3.09
 -23  -2   0   25.95    3.51
 -23  -2   1   80.96    4.93
 -23   2  -1   85.70    4.64
  23   2   1   73.56    4.69
  23  -2  -1   84.07    4.88
 -23   2  -1   77.76    4.55
 -23   2  -1   80.67    4.76
 -23  -2   1   79.63    5.35
 -23   2   1   80.78    4.83
 -23   2   1   75.77    5.13
  23   2  -1   75.19    4.65
  23  -2   1   80.43    4.72
 -23  -2  -1   77.92    4.81
 -23  -2  -1   76.34    5.46
 -23   2  -2   47.77    3.35
 -23   2  -2   43.25    3.78
 -23   2  -2   37.84    3.15
  23  -2  -2   46.10    3.70
  23   2   2   47.05    3.57
 -23  -2   2   44.79    3.67
 -23   2   2   45.91    3.71
 -23  -2  -2   47.14    3.71
  23  -2   2   45.24    3.64
 -23  -2  -2   47.28    4.46
  23   2  -2   42.99    3.31
 -23  -2   3   50.92    4.14
  23  -2  -3   50.82    4.03
  23   2   3   45.96    4.01
  23   2  -3   47.23    4.48
 -23   2   3   53.83    4.48
  23  -2   3   46.07    4.06
  23   2  -3   53.40    3.59
 -23  -2  -3   51.38    4.82
 -23  -2  -3   54.99    4.08
  23   3   0   41.97    3.49
 -23  -3   0   44.55    4.18
 -23   3   0   41.03    3.60
  23  -3   0   45.58    3.64
 -23   3   0   44.56    3.66
 -23  -3   0   44.78    3.75
 -23  -3   1   23.32    3.31
 -23   3  -1   33.68    3.14
  23  -3  -1   27.07    3.46
 -23  -3   1   24.07    3.18
  23   3   1   25.20    3.03
 -23   3   1   27.02    3.96
  23  -3   1   26.72    3.21
 -23  -3  -1   27.44    4.03
 -23  -3  -1   32.51    3.58
 -23   3   1   25.72    3.23
  23   3  -1   30.71    3.01
 -23  -3   2   38.10    4.30
 -23   3  -2   38.90    3.54
 -23  -3   2   33.64    3.54
 -23   3  -2   41.43    3.28
  23   3   2   31.30    3.40
  23  -3  -2   37.01    3.90
  23  -3   2   39.68    3.68
  23   3  -2   37.71    3.34
 -23  -3  -2   34.27    4.59
 -23  -3  -2   37.11    3.59
 -23   3   2   33.01    3.62
  23  -3  -3   30.44    3.96
  23  -3   3   38.12    3.93
 -23  -3  -3   30.77    4.94
  23   4   0   20.98    2.73
  23  -4   0   17.44    2.61
 -23   4   0   26.51    3.13
 -23  -4   0   18.90    3.47
 -23  -4   0   14.41    2.83
  23  -4  -1    9.12    2.61
 -23   4  -1   13.79    2.55
 -23  -4   1   12.00    2.60
 -23  -4   1   20.11    3.24
  23   4   1   14.18    2.47
  23  -4   1   11.88    2.69
 -23   4   1   17.23    2.78
 -23  -4  -1   14.06    2.77
  23   4  -1   13.37    2.33
 -23  -4  -1    9.93    3.17
 -24   0   0   20.33    2.76
  24   0   0   19.84    2.58
 -24   0   1   82.87    4.76
  24   0   1   81.51    4.66
  24   0  -1   75.26    4.68
 -24   0  -1   75.78    4.86
 -24   0  -1   69.85    4.55
 -24   0  -2   48.46    3.78
  24   0  -2   49.99    3.49
  24   0   2   54.15    3.79
 -24   0  -2   46.18    3.63
 -24   0   2   53.89    3.95
 -24   0  -2   44.53    4.07
 -24   0   3   52.34    4.15
 -24   0  -3   49.89    3.62
 -24   0  -3   41.88    4.01
  24   0   3   43.38    3.82
  24   0  -3   52.73    3.57
 -24   0  -3   48.49    3.92
 -24  -1   0   55.18    4.10
 -24  -1   0   60.37    4.47
 -24   1   0   61.25    4.03
  24   1   0   59.81    3.93
  24  -1   0   57.29    4.02
  24   1   1   50.52    3.66
 -24   1  -1   50.11    3.52
 -24  -1   1   50.90    3.68
 -24   1  -1   49.86    3.78
  24  -1  -1   50.42    3.79
  24   1  -1   49.81    3.62
 -24  -1  -1   44.47    3.77
 -24   1   1   50.97    3.70
  24  -1   1   49.62    3.72
 -24  -1  -1   46.91    4.12
  24   1   2   51.91    3.57
 -24   1  -2   36.92    3.43
 -24  -1   2   49.21    3.63
 -24   1  -2   35.47    3.41
  24  -1  -2   42.97    3.53
 -24   1  -2   35.05    3.49
 -24  -1  -2   38.62    4.01
 -24   1   2   50.46    3.68
 -24  -1  -2   34.12    3.30
  24   1  -2   41.18    3.27
 -24  -1   3   22.82    3.06
  24   1   3   18.57    2.50
 -24   1  -3   16.45    2.70
 -24   1  -3   16.62    2.19
  24  -1  -3   16.72    2.33
  24  -1   3   18.18    2.46
 -24   1   3   17.35    2.82
  24   1  -3   16.04    2.15
  24   1  -3   15.97    2.28
 -24  -1  -3   17.03    2.42
 -24  -1  -3   16.14    2.74
 -24  -1  -3   19.32    2.93
 -24   2   0   -1.23    1.88
 -24  -2   0    3.95    2.28
 -24   2   0    0.83    1.86
  24   2   0    1.09    1.67
 -24  -2   0    1.59    1.91
  24  -2   0    1.09    1.76
 -24  -2   1   30.31    3.93
  24   2   1   30.03    3.04
 -24   2  -1   29.43    3.03
  24  -2  -1   30.42    3.22
 -24  -2   1   28.98    3.14
 -24   2  -1   33.80    2.99
 -24   2  -1   28.38    2.95
  24   2  -1   28.62    3.01
  24  -2   1   27.58    3.02
 -24  -2  -1   24.05    3.91
 -24  -2  -1   23.48    3.16
 -24   2   1   29.92    3.22
 -24   2  -2    3.73    2.01
  24   2   2    3.93    1.82
 -24   2  -2    2.22    1.74
 -24   2  -2    3.08    1.79
 -24  -2   2    3.06    2.06
  24  -2  -2    1.77    1.92
 -24  -2  -2    0.83    2.46
 -24   2   2    3.45    2.00
 -24  -2  -2    3.30    2.00
  24  -2   2    1.57    1.86
  24   2  -2    2.94    1.66
  24   2   3    3.58    2.01
  24  -2  -3   -0.86    2.03
 -24  -2   3    0.17    2.16
 -24  -2  -3   -1.23    2.09
  24   2  -3   -0.26    1.74
 -24   2   3   -1.15    2.26
  24  -2   3   -0.65    1.90
 -24  -2  -3    2.14    2.77
 -24  -3   0    7.65    2.69
 -24   3   0   10.11    2.31
 -24   3   0   11.80    2.46
 -24  -3   0   11.63    2.41
  24  -3   0   10.59    2.29
  24   3   0    9.28    2.07
  24  -3  -1    3.25    2.01
 -24  -3   1    4.08    2.13
 -24  -3   1    1.69    2.60
  24   3   1   -0.12    1.82
 -24   3  -1    2.88    1.93
 -24   3   1    3.44    2.20
 -24  -3  -1    1.71    2.77
 -24  -3  -1    2.68    2.24
  24   3  -1    1.09    1.68
  24  -3   1   -0.27    1.89
  24  -3  -2    7.71    2.29
 -24  -3   2    4.52    2.68
 -24  -3   2    5.40    2.27
  24   3   2    5.47    2.12
 -24   3  -2   10.05    2.09
 -24  -3  -2    3.48    3.12
  24  -3   2    4.23    2.25
 -24  -3  -2   12.16    2.55
  24   3  -2    9.90    2.11
 -24   3   2    9.10    2.50
  24  -4   0   17.73    2.77
 -24  -4   0   17.94    3.52
 -24   4   0   23.25    3.22
  24   4   0   20.60    2.78
 -24  -4   0   13.72    2.86
  24  -4  -1   28.56    3.93
 -24  -4   1   27.62    4.33
  24   4   1   27.80    3.35
 -24   4  -1   37.98    4.22
 -24  -4  -1   30.87    3.85
 -24  -4  -1   34.32    4.64
 -24   4   1   27.52    3.89
 -25   0   0    0.74    1.78
  25   0   0    1.59    1.67
  25   0  -1    1.74    1.63
 -25   0   1    1.14    1.87
  25   0   1    2.72    1.64
 -25   0  -1    2.25    2.00
 -25   0  -1    1.00    1.79
  25   0   2   -1.28    1.61
  25   0  -2   -1.22    1.60
 -25   0  -2    0.37    2.21
 -25   0  -2    0.40    1.87
 -25   0   2   -0.31    1.87
 -25   0   3    2.46    2.15
 -25   0  -3    1.04    1.89
 -25   0  -3    1.06    2.25
  25   0  -3    2.73    1.77
  25   0   3    0.56    1.88
 -25  -1   0   19.62    2.83
  25  -1   0   17.33    2.41
  25   1   0   21.79    2.53
 -25  -1   0   20.68    2.86
 -25   1   0   18.12    2.46
  25   1   1    7.14    1.85
 -25   1  -1    5.59    2.19
 -25   1  -1    4.14    1.82
  25  -1  -1    4.07    1.91
 -25  -1   1    5.42    2.10
 -25  -1  -1    3.70    2.02
  25  -1   1    6.73    1.98
 -25  -1  -1    5.72    2.22
 -25   1   1    9.65    2.13
  25   1  -1    3.75    1.67
 -25  -1   2   15.78    2.46
 -25   1  -2   10.87    2.37
 -25   1  -2   12.44    2.28
  25   1   2   18.00    2.43
  25  -1  -2   17.53    2.44
 -25  -1  -2   12.44    2.80
  25   1  -2   11.54    2.01
  25  -1   2   20.04    2.72
 -25  -1  -2   11.91    2.28
  25   1   3   10.47    2.26
  25  -1  -3    8.74    2.12
 -25  -1   3   10.82    2.48
  25  -1   3   11.49    2.29
 -25  -1  -3   11.13    2.95
 -25  -1  -3   12.47    2.41
 -25   1   3   13.70    2.67
  25   2   0   47.65    3.82
 -25  -2   0   47.20    3.89
 -25   2   0   48.14    4.06
 -25  -2   0   47.36    4.36
  25  -2   0   46.36    3.80
 -25   2   0   44.80    3.91
  25   2   1   36.30    3.53
 -25   2  -1   40.65    3.40
 -25  -2   1   35.97    3.74
 -25   2  -1   37.85    3.42
 -25   2  -1   41.28    3.44
 -25  -2   1   31.74    4.09
  25  -2  -1   40.34    3.71
  25   2  -1   39.21    3.40
 -25  -2  -1   33.86    4.19
  25  -2   1   32.81    3.42
 -25  -2  -1   36.16    3.55
 -25   2   1   37.57    3.73
 -25   2  -2   25.35    2.75
 -25  -2   2   29.42    3.52
 -25   2  -2   22.96    3.05
  25  -2  -2   21.53    2.82
  25   2   2   21.43    3.06
 -25  -2  -2   25.79    4.05
  25  -2   2   25.43    3.19
  25   2  -2   24.18    2.93
 -25  -2  -2   22.60    2.81
 -25   2   2   28.20    3.81
 -25  -2   3   16.67    2.77
  25  -2  -3   12.54    2.62
  25   2   3   13.61    2.61
 -25  -2  -3   16.20    3.44
 -25  -2  -3   14.64    2.71
  25  -2   3   12.71    2.47
  25   3   0   38.35    3.68
 -25   3   0   37.35    4.00
 -25  -3   0   34.23    3.74
 -25  -3   0   40.98    4.43
  25  -3   0   38.45    3.66
 -25  -3   1   34.57    4.47
 -25  -3   1   37.40    3.81
  25   3   1   35.63    3.58
  25  -3  -1   35.66    3.71
 -25   3  -1   41.30    3.63
 -25  -3  -1   38.16    4.60
 -25   3   1   38.85    4.23
  25   3  -1   35.83    3.34
 -25  -3  -1   40.04    3.91
  25  -3   1   37.35    4.09
 -25  -3   2   18.01    3.40
 -25   3  -2   16.93    2.51
  25  -3  -2   17.27    2.83
 -25  -3   2   15.33    2.77
  25   3   2   11.81    2.47
  25  -3   2   19.02    2.86
 -25   3   2   20.20    2.98
 -25  -3  -2   14.25    2.81
  25   3  -2   17.94    2.57
 -25  -3  -2   17.75    3.60
 -26   0   0  157.73    8.41
 -26   0   0  159.59    8.10
  26   0   0  160.83    8.14
  26   0   1   29.65    3.14
 -26   0   1   26.25    3.24
 -26   0  -1   33.58    3.64
  26   0  -1   35.77    3.17
 -26   0  -1   32.33    3.35
 -26   0  -2   35.66    3.51
 -26   0  -2   33.44    4.07
  26   0  -2   29.04    3.31
 -26   0   2   37.47    3.53
  26   0   2   36.38    3.51
  26   0   3   26.21    3.33
  26   0  -3   24.53    3.07
 -26   0   3   20.45    3.05
 -26   0  -3   19.85    3.06
 -26   0  -3   22.98    3.11
  26   1   0    2.80    1.81
 -26  -1   0    3.80    2.32
 -26  -1   0    1.96    1.99
 -26   1   0    3.70    2.00
  26  -1   0    5.99    1.98
  26  -1  -1   25.72    3.15
 -26  -1   1   22.67    2.86
 -26   1  -1   25.04    3.46
  26   1   1   20.33    2.94
 -26   1  -1   26.62    2.97
 -26   1   1   27.92    3.25
 -26  -1  -1   27.10    3.70
  26  -1   1   23.23    3.00
  26   1  -1   27.74    2.88
 -26  -1  -1   20.59    3.08
 -26   1  -2    6.51    2.32
  26  -1  -2    7.54    2.10
 -26   1  -2    8.55    2.23
  26   1   2    6.64    2.06
 -26  -1   2    9.18    2.34
  26   1  -2    6.32    1.90
 -26   1   2    7.67    2.33
 -26  -1  -2    6.47    2.72
 -26  -1  -2    6.72    2.20
  26  -1   2    7.37    2.11
  26   1   3   33.87    3.73
 -26  -1   3   34.46    4.11
  26  -1  -3   34.77    3.51
 -26  -1  -3   34.69    3.78
  26  -1   3   33.18    3.63
 -26   1   3   28.30    3.54
 -26  -1  -3   29.35    4.36
  26   1  -3   33.18    3.47
  26   2   0    8.84    2.18
  26  -2   0   13.35    2.43
 -26   2   0   13.42    2.53
 -26  -2   0   10.05    2.42
 -26   2   0   10.61    2.34
 -26  -2   0    8.46    2.78
 -26   2  -1    6.51    2.06
  26  -2  -1    3.53    2.13
 -26   2  -1    5.53    2.09
 -26  -2   1    3.35    2.69
 -26  -2   1    4.70    2.29
  26   2   1    1.04    1.86
 -26   2   1    4.14    2.14
 -26  -2  -1    3.98    2.81
  26   2  -1    5.33    1.97
  26  -2   1    5.21    2.21
 -26  -2  -1    3.16    2.24
 -26   2  -2    2.45    2.20
 -26  -2   2    3.30    2.28
  26  -2  -2   -0.21    2.06
  26   2   2   -0.30    1.90
  26  -2   2    4.39    2.19
 -26  -2  -2    0.46    2.16
  26   2  -2    0.42    1.86
 -26   2   2    1.72    2.39
 -26  -2  -2    4.35    3.02
 -26  -3   0   10.94    2.72
  26  -3   0   14.29    2.62
  26   3   0   13.05    2.40
 -26   3   0   14.60    2.60
 -26  -3   0   12.24    3.19
  26   3   1    9.33    2.28
 -26  -3   1    6.85    2.93
 -26  -3   1    6.20    2.49
 -26   3  -1    8.18    2.34
  26  -3  -1    6.34    2.36
 -26   3   1    5.32    2.59
 -26  -3  -1    9.44    3.35
  26  -3   1    6.62    2.28
  26   3  -1    5.32    2.12
 -26  -3  -1    9.32    2.75
 -27   0   0    1.88    2.02
  27   0   0    1.32    1.83
 -27   0   0    2.43    2.35
 -27   0   1    0.67    1.99
  27   0  -1    0.39    1.85
 -27   0  -1   -0.97    2.11
 -27   0  -1   -1.33    1.97
  27   0   1    4.31    1.97
  27   0   2    0.45    1.87
 -27   0  -2    2.29    2.22
  27   0  -2    0.41    1.92
 -27   0   2    0.62    2.15
 -27   0  -2   -0.78    2.54
 -27  -1   0   -0.97    2.04
  27  -1   0    0.83    1.87
 -27   1   0    1.51    2.04
 -27  -1   0    4.37    2.62
  27   1   0    1.17    1.82
  27   1   1   16.08    2.45
  27  -1  -1   15.49    2.53
 -27   1  -1   17.19    2.61
 -27   1  -1   17.91    2.83
 -27  -1   1   16.24    2.71
 -27  -1  -1   20.55    3.10
  27   1  -1   15.43    2.38
  27  -1   1   20.09    2.64
 -27   1   1   19.86    2.79
 -27  -1  -1   14.57    2.67
 -27   1  -2    8.49    2.32
 -27  -1   2    8.93    2.49
 -27   1  -2    7.89    2.61
  27   1   2    8.43    2.13
  27  -1  -2    5.76    2.21
 -27  -1  -2    7.32    2.83
  27   1  -2    8.56    2.07
 -27   1   2   11.37    2.52
  27  -1   2    7.99    2.24
 -27  -1  -2    8.54    2.44
 -27  -2   0   89.25    6.12
 -27   2   0   93.91    5.83
  27   2   0   82.98    5.40
  27  -2   0   89.38    5.79
 -27   2  -1   11.72    2.31
 -27   2  -1   12.58    2.60
 -27  -2   1   10.17    2.66
  27  -2  -1   10.46    2.62
  27   2   1   12.54    2.49
 -27  -2   1   13.05    2.99
 -27  -2  -1    8.45    2.84
 -27   2   1    7.97    2.51
 -27  -2  -1   11.00    2.63
  27  -2   1   14.57    2.45
  27   2  -1    8.52    2.26
  27  -2  -2   35.90    4.13
 -27   2  -2   38.37    3.87
 -27  -2   2   31.39    3.59
 -27  -2  -2   32.34    4.66
 -27  -2  -2   32.16    3.81
  27  -2   2   37.10    4.01
  27   2  -2   37.17    3.64
  27   3   0    8.56    2.34
 -27   3   0    4.77    2.66
 -27  -3   0    8.60    2.74
 -27  -3   0    5.90    2.84
 -28   0   0   30.44    3.96
 -28   0   0   27.30    3.36
  28   0   0   28.87    3.24
 -28   0  -1   19.23    2.91
 -28   0   1   21.61    2.88
  28   0   1   23.31    3.12
  28   0  -1   23.75    2.86
 -28   0  -1   19.78    2.83
 -28   0  -2   86.10    5.48
  28   0  -2   88.75    5.43
 -28   0   2   80.60    5.48
  28   0   2   79.33    5.29
 -28   0  -2   86.57    6.02
 -28  -1   0    3.92    2.31
 -28  -1   0    7.36    2.93
  28   1   0    6.29    2.14
  28  -1   0    4.09    2.17
 -28   1   0    5.62    2.24
  28  -1  -1   34.15    3.93
  28   1   1   39.85    3.78
 -28   1  -1   41.62    3.77
 -28  -1   1   42.15    4.13
 -28   1  -1   35.17    4.01
 -28   1   1   46.84    4.36
 -28  -1  -1   38.26    3.81
  28  -1   1   40.02    3.76
 -28  -1  -1   35.58    4.35
  28   1  -1   40.26    3.73
 -28   1  -2    9.23    2.65
  28  -1  -2    9.25    2.48
 -28  -1   2    6.94    2.59
 -28   1  -2   14.90    2.98
  28   1   2    8.37    2.42
  28   1  -2   11.12    2.34
  28  -1   2   12.15    2.55
 -28  -1  -2   10.49    2.69
 -28   1   2    6.51    2.92
 -28  -1  -2    5.86    3.10
 -28  -2   0   13.88    2.85
 -28  -2   0   18.36    3.17
 -28   2   0   17.61    2.77
  28  -2   0   17.42    2.73
  28   2   0   15.85    2.67
 -28  -2   1    0.19    2.59
 -28  -2   1    2.31    2.50
  28   2   1   -0.04    2.02
  28  -2  -1    1.72    2.25
 -28   2  -1    0.46    2.47
 -28   2  -1    3.13    2.20
 -28  -2  -1   -1.17    2.84
  28   2  -1    0.21    2.07
 -28  -2  -1    1.48    2.51
  28  -2   1    1.11    2.07
 -28   2   1    0.10    2.58
  29   0   0    2.75    2.01
 -29   0   0    1.04    2.30
 -29   0   0    1.19    2.56
 -29   0   1    0.96    2.31
  29   0  -1    1.66    2.06
 -29   0  -1    0.30    2.35
 -29   0  -1   -0.51    2.36
  29   0   1    1.37    2.04
  29   1   0   12.95    2.47
 -29   1   0   10.48    2.52
 -29  -1   0   18.00    3.30
 -29  -1   0   14.32    2.78
  29  -1   0   11.87    2.60
 -29  -1   1   21.19    3.10
 -29  -1   1   28.03    4.28
 -29   1  -1   23.61    3.45
  29   1   1   26.64    3.34
  29  -1  -1   27.74    3.71
 -29   1  -1   24.16    3.86
 -29   1   1   26.40    3.59
  29   1  -1   27.41    3.36
  29  -1   1   19.36    2.89
 -29  -1  -1   26.03    3.86
 -29  -1  -1   25.14    3.65
  29   2   0   27.79    3.83
 -29  -2   0   28.81    4.02
  30   0   0   48.10    4.15
 -30   0   0   49.31    4.43
 -30   0   0   58.97    5.08
 -30   1   0    9.74    2.89
 -30  -1   0    3.27    3.00
   0   0   0    0.00    0.00
;
_shelx_hkl_checksum              32265
_shelx_res_file
;
TITL UMD608 in Pna2(1)
CELL 0.71073 25.1411 5.6851 5.1593 90 90 90
ZERR 4 0.0018 0.0004 0.0003 0 0 0
LATT -1
SYMM -X,-Y,0.5+Z
SYMM 0.5-X,0.5+Y,0.5+Z
SYMM 0.5+X,0.5-Y,+Z
SFAC C H Br N O
UNIT 32 16 4 4 8
EQIV $1 1-X,-Y,0.5+Z
EQIV $2 +X,-1+Y,1+Z
DFIX 0.87 0.01 N1 H1
L.S. 10
PLAN  10
SIZE 0.1 0.12 0.2
TEMP -153
HTAB N1 O1_$1
HTAB C7 O2_$2
HTAB
BOND $H
CONF
LIST 4
MORE -1
fmap 2
acta 50.5
TWIN -1 0 0 0 -1 0 0 0 -1 2
REM <olex2.extras>
REM <HklSrc "%.\\UMD608.hkl">
REM </olex2.extras>
WGHT    0.000000    1.673500
BASF   0.02471
FVAR       0.21302
BR1   3    0.265495    0.648368    0.997801    11.00000    0.02200    0.02536 =
         0.02095   -0.00206    0.00352    0.00562
O1    5    0.500042    0.278444    0.124335    11.00000    0.02082    0.01552 =
         0.01995   -0.00303    0.00329    0.00182
O2    5    0.426741    0.686403    0.151910    11.00000    0.02616    0.01223 =
         0.01696    0.00458   -0.00131    0.00275
N1    4    0.450902    0.162223    0.483028    11.00000    0.02001    0.01109 =
         0.02432    0.00286   -0.00239    0.00475
H1    2    0.466353    0.028170    0.496353    11.00000   -1.20000
C1    1    0.464869    0.306842    0.283883    11.00000    0.01796    0.00916 =
         0.01817   -0.00165   -0.00329    0.00200
C2    1    0.425826    0.518738    0.297091    11.00000    0.01611    0.01338 =
         0.01385   -0.00255   -0.00403   -0.00057
C3    1    0.389806    0.464731    0.515406    11.00000    0.01713    0.01476 =
         0.01192    0.00423   -0.00448    0.00087
C4    1    0.347200    0.586654    0.620918    11.00000    0.01759    0.01266 =
         0.01649   -0.00093   -0.00632    0.00176
AFIX  43
H4    2    0.335941    0.733497    0.552266    11.00000   -1.20000
AFIX   0
C5    1    0.321809    0.484448    0.831058    11.00000    0.01566    0.01858 =
         0.01013   -0.00400    0.00005    0.00098
C6    1    0.338091    0.268917    0.933576    11.00000    0.02018    0.01612 =
         0.00886    0.00015   -0.00233   -0.00500
AFIX  43
H6    2    0.319522    0.203952    1.077077    11.00000   -1.20000
AFIX   0
C7    1    0.381181    0.147586    0.828582    11.00000    0.02066    0.01427 =
         0.01797    0.00418   -0.00408   -0.00125
AFIX  43
H7    2    0.392467    0.001090    0.898022    11.00000   -1.20000
AFIX   0
C8    1    0.406802    0.248503    0.619907    11.00000    0.01696    0.01112 =
         0.01322   -0.00308   -0.00358    0.00144
HKLF 4
REM  UMD608 in Pna2(1)
REM R1 =  0.0250 for    1232 Fo > 4sig(Fo)  and  0.0297 for all    1334 data
REM    113 parameters refined using      2 restraints
END
WGHT      0.0000      1.6735
REM Instructions for potential hydrogen bonds
HTAB N1 O1_$1
EQIV $3 -x+1/2, y-1/2, z+1/2
HTAB C6 Br1_$3
HTAB C7 O2_$2
REM Highest difference peak  0.448,  deepest hole -0.794,  1-sigma level  0.082
Q1    1   0.3077  0.6654  1.0016  11.00000  0.05    0.45
Q2    1   0.2230  0.6488  0.9940  11.00000  0.05    0.37
Q3    1   0.3613  0.4989  0.5111  11.00000  0.05    0.37
Q4    1   0.2662  0.2300  0.9903  11.00000  0.05    0.34
Q5    1   0.3804  0.1809  0.6765  11.00000  0.05    0.31
Q6    1   0.4504  0.2385  0.6006  11.00000  0.05    0.29
Q7    1   0.2814  0.0818  0.8521  11.00000  0.05    0.28
Q8    1   0.2823  0.7582  0.4899  11.00000  0.05    0.27
Q9    1   0.3873  0.2849  1.1635  11.00000  0.05    0.25
Q10   1   0.4314  0.3023  0.1062  11.00000  0.05    0.24
;
_shelx_res_checksum              10669
_shelxl_version_number           2014/6
loop_
_space_group_symop_operation_xyz
'x, y, z'
'-x, -y, z+1/2'
'-x+1/2, y+1/2, z+1/2'
'x+1/2, -y+1/2, z'
loop_
_atom_site_type_symbol
_atom_site_label
_atom_site_fract_x
_atom_site_fract_y
_atom_site_fract_z
_atom_site_U_iso_or_equiv
_atom_site_adp_type
_atom_site_calc_flag
_atom_site_occupancy
Br Br1 0.26549(2) 0.64837(9) 0.99780(18) 0.02277(16) Uani d 1
O O1 0.50004(16) 0.2784(7) 0.1243(9) 0.0188(9) Uani d 1
O O2 0.42674(16) 0.6864(6) 0.1519(8) 0.0185(9) Uani d 1
N N1 0.45090(16) 0.1622(7) 0.4830(18) 0.0185(10) Uani d 1
H H1 0.4664(18) 0.028(5) 0.496(19) 0.022 Uiso d 1
C C1 0.4649(2) 0.3068(9) 0.2839(11) 0.0151(12) Uani d 1
C C2 0.4258(2) 0.5187(9) 0.2971(12) 0.0144(12) Uani d 1
C C3 0.38981(18) 0.4647(8) 0.5154(17) 0.0146(11) Uani d 1
C C4 0.3472(2) 0.5867(10) 0.6209(12) 0.0156(12) Uani d 1
H H4 0.3359 0.7335 0.5523 0.019 Uiso calc 1
C C5 0.3218(2) 0.4844(10) 0.8311(11) 0.0148(12) Uani d 1
C C6 0.3381(2) 0.2689(10) 0.9336(10) 0.0151(14) Uani d 1
H H6 0.3195 0.2040 1.0771 0.018 Uiso calc 1
C C7 0.3812(2) 0.1476(11) 0.8286(11) 0.0176(13) Uani d 1
H H7 0.3925 0.0011 0.8980 0.021 Uiso calc 1
C C8 0.4068(2) 0.2485(10) 0.6199(11) 0.0138(11) Uani d 1
loop_
_atom_site_aniso_label
_atom_site_aniso_U_11
_atom_site_aniso_U_22
_atom_site_aniso_U_33
_atom_site_aniso_U_12
_atom_site_aniso_U_13
_atom_site_aniso_U_23
Br1 0.0220(3) 0.0254(3) 0.0210(3) 0.0056(2) 0.0035(5) -0.0021(5)
O1 0.021(2) 0.016(2) 0.020(2) 0.0018(17) 0.0033(18) -0.0030(17)
O2 0.026(2) 0.012(2) 0.017(2) 0.0028(17) -0.0013(18) 0.0046(18)
N1 0.020(2) 0.0111(19) 0.024(3) 0.0047(18) -0.002(4) 0.003(3)
C1 0.018(3) 0.009(3) 0.018(3) 0.002(2) -0.003(3) -0.002(2)
C2 0.016(3) 0.013(3) 0.014(3) -0.001(2) -0.004(2) -0.003(2)
C3 0.017(2) 0.015(2) 0.012(3) 0.0009(19) -0.004(4) 0.004(4)
C4 0.018(3) 0.013(3) 0.016(3) 0.002(2) -0.006(2) -0.001(2)
C5 0.016(3) 0.019(3) 0.010(3) 0.001(2) 0.000(2) -0.004(2)
C6 0.020(3) 0.016(3) 0.009(4) -0.005(2) -0.002(2) 0.000(2)
C7 0.021(3) 0.014(3) 0.018(3) -0.001(3) -0.004(2) 0.004(3)
C8 0.017(3) 0.011(3) 0.013(3) 0.001(2) -0.004(2) -0.003(3)
loop_
_atom_type_symbol
_atom_type_description
_atom_type_scat_dispersion_real
_atom_type_scat_dispersion_imag
_atom_type_scat_source
C C 0.0033 0.0016 'International Tables Vol C Tables 4.2.6.8 and 6.1.1.4'
H H 0.0000 0.0000 'International Tables Vol C Tables 4.2.6.8 and 6.1.1.4'
Br Br -0.2901 2.4595 'International Tables Vol C Tables 4.2.6.8 and 6.1.1.4'
N N 0.0061 0.0033 'International Tables Vol C Tables 4.2.6.8 and 6.1.1.4'
O O 0.0106 0.0060 'International Tables Vol C Tables 4.2.6.8 and 6.1.1.4'
loop_
_geom_angle_atom_site_label_1
_geom_angle_atom_site_label_2
_geom_angle_atom_site_label_3
_geom_angle
C1 N1 H1 119(6)
C1 N1 C8 111.9(4)
C8 N1 H1 129(5)
O1 C1 N1 128.1(5)
O1 C1 C2 126.2(5)
N1 C1 C2 105.8(5)
O2 C2 C1 124.7(5)
O2 C2 C3 130.2(5)
C3 C2 C1 105.0(4)
C4 C3 C2 132.0(5)
C4 C3 C8 121.3(6)
C8 C3 C2 106.7(5)
C3 C4 H4 121.5
C5 C4 C3 116.9(5)
C5 C4 H4 121.5
C4 C5 Br1 119.4(4)
C4 C5 C6 122.0(5)
C6 C5 Br1 118.5(4)
C5 C6 H6 119.5
C7 C6 C5 121.0(5)
C7 C6 H6 119.5
C6 C7 H7 121.3
C8 C7 C6 117.4(5)
C8 C7 H7 121.3
N1 C8 C3 110.6(5)
C7 C8 N1 128.1(5)
C7 C8 C3 121.3(5)
loop_
_geom_bond_atom_site_label_1
_geom_bond_atom_site_label_2
_geom_bond_distance
Br1 C5 1.901(5)
O1 C1 1.219(7)
O2 C2 1.213(7)
N1 H1 0.858(14)
N1 C1 1.362(9)
N1 C8 1.403(8)
C1 C2 1.555(7)
C2 C3 1.478(9)
C3 C4 1.387(8)
C3 C8 1.409(8)
C4 H4 0.9500
C4 C5 1.386(8)
C5 C6 1.396(8)
C6 H6 0.9500
C6 C7 1.394(8)
C7 H7 0.9500
C7 C8 1.380(8)
loop_
_geom_hbond_atom_site_label_D
_geom_hbond_atom_site_label_H
_geom_hbond_atom_site_label_A
_geom_hbond_site_symmetry_A
_geom_hbond_distance_DH
_geom_hbond_distance_HA
_geom_hbond_distance_DA
_geom_hbond_angle_DHA
N1 H1 O1 2_655 0.858(14) 2.05(3) 2.886(6) 166(9)
C7 H7 O2 1_546 0.95 2.38 3.312(7) 167.2
loop_
_geom_torsion_atom_site_label_1
_geom_torsion_atom_site_label_2
_geom_torsion_atom_site_label_3
_geom_torsion_atom_site_label_4
_geom_torsion
Br1 C5 C6 C7 -176.2(4)
O1 C1 C2 O2 -2.1(9)
O1 C1 C2 C3 177.5(6)
O2 C2 C3 C4 -0.6(11)
O2 C2 C3 C8 -179.4(6)
N1 C1 C2 O2 178.7(6)
N1 C1 C2 C3 -1.7(6)
C1 N1 C8 C3 -1.2(7)
C1 N1 C8 C7 178.7(6)
C1 C2 C3 C4 179.9(7)
C1 C2 C3 C8 1.1(6)
C2 C3 C4 C5 -179.5(6)
C2 C3 C8 N1 -0.1(7)
C2 C3 C8 C7 -180.0(5)
C3 C4 C5 Br1 176.7(5)
C3 C4 C5 C6 0.1(8)
C4 C3 C8 N1 -179.0(6)
C4 C3 C8 C7 1.1(9)
C4 C5 C6 C7 0.4(8)
C5 C6 C7 C8 -0.2(8)
C6 C7 C8 N1 179.6(6)
C6 C7 C8 C3 -0.6(8)
C8 N1 C1 O1 -177.4(6)
C8 N1 C1 C2 1.8(7)
C8 C3 C4 C5 -0.8(9)
